#------------------------------------------------------------------------------
#$Date: 2021-12-09 11:44:05 +0200 (Thu, 09 Dec 2021) $
#$Revision: 271293 $
#$URL: file:///home/coder/svn-repositories/cod/cif/1/56/56/1565618.cif $
#------------------------------------------------------------------------------
#
# This file is available in the Crystallography Open Database (COD),
# http://www.crystallography.net/
#
# All data on this site have been placed in the public domain by the
# contributors.
#
data_1565618
loop_
_publ_author_name
'Mondal, Sruti'
'Garai, Antara'
'Naik, Pratyush Kumar'
'Adha, Jogesh Kumar'
'Kar, Sanjib'
_publ_section_title
;
 Synthesis and characterization of antimony(V)-oxo corrole complexes
;
_journal_name_full               'Inorganica Chimica Acta'
_journal_page_first              119300
_journal_paper_doi               10.1016/j.ica.2019.119300
_journal_volume                  501
_journal_year                    2020
_chemical_formula_moiety         'C37 H23 N4 Sb'
_chemical_formula_sum            'C37 H21 N4 Sb'
_chemical_formula_weight         643.33
_space_group_crystal_system      monoclinic
_space_group_IT_number           14
_space_group_name_Hall           '-P 2ybc'
_space_group_name_H-M_alt        'P 1 21/c 1'
_atom_sites_solution_hydrogens   mixed
_atom_sites_solution_primary     dual
_cell_angle_alpha                90
_cell_angle_beta                 99.256(5)
_cell_angle_gamma                90
_cell_formula_units_Z            4
_cell_length_a                   12.4741(8)
_cell_length_b                   21.8912(10)
_cell_length_c                   10.7274(6)
_cell_measurement_reflns_used    8212
_cell_measurement_temperature    298(2)
_cell_measurement_theta_max      30.6340
_cell_measurement_theta_min      3.6280
_cell_volume                     2891.2(3)
_computing_cell_refinement       'CrysAlisPro 1.171.39.46b (Rigaku OD, 2018)'
_computing_data_collection       'CrysAlisPro 1.171.39.46b (Rigaku OD, 2018)'
_computing_data_reduction        'CrysAlisPro 1.171.39.46b (Rigaku OD, 2018)'
_computing_molecular_graphics    'Olex2 (Dolomanov et al., 2009)'
_computing_publication_material  'Olex2 (Dolomanov et al., 2009)'
_computing_structure_refinement  'ShelXL (Sheldrick, 2015)'
_computing_structure_solution    'ShelXT (Sheldrick, 2015)'
_diffrn_ambient_temperature      298
_diffrn_detector                 'CCD plate'
_diffrn_detector_type            'Pilatus 200K'
_diffrn_measured_fraction_theta_full 0.995
_diffrn_measured_fraction_theta_max 0.994
_diffrn_measurement_details
;
List of Runs (angles in degrees, time in seconds):

  # Type    Start    End  Width  t~exp~   \w     \q     \k     \f   Frames
--------------------------------------------------------------------------
  1  \w     13.00  45.00   0.50  100.00    --    1.86-116.00 -55.00   64
  2  \w     -5.00  20.00   0.50  100.00    --   -2.33-116.00 -55.00   50
  3  \w    -33.00  -8.00   0.50  100.00    --    1.86 -38.00 -30.00   50
  4  \w      0.00  26.00   0.50  100.00    --    1.86 -99.00 -60.00   52
  5  \w    -65.00  -5.00   0.50  100.00    --    1.86 -19.00-120.00  120
  6  \w      7.00  67.00   0.50  100.00    --    1.86  38.00 150.00  120
  7  \w     -6.00  32.00   0.50  100.00    --   -2.33 -99.00-180.00   76
  8  \w      0.00  62.00   0.50  100.00    --   -2.33  38.00  30.00  124
  9  \w    -19.00  11.00   0.50  100.00    --   -2.33 -99.00 120.00   60
;
_diffrn_measurement_device       'four-circle diffractometer'
_diffrn_measurement_device_type
'SuperNova, Dual, Cu at home/near, Pilatus 200K'
_diffrn_measurement_method       '\w scans'
_diffrn_orient_matrix_type
'CrysAlisPro convention (1999,Acta A55,543-557)'
_diffrn_orient_matrix_UB_11      0.0113861000
_diffrn_orient_matrix_UB_12      -0.0316560000
_diffrn_orient_matrix_UB_13      0.0070773000
_diffrn_orient_matrix_UB_21      0.0520034000
_diffrn_orient_matrix_UB_22      0.0048980000
_diffrn_orient_matrix_UB_23      -0.0170054000
_diffrn_orient_matrix_UB_31      0.0220450000
_diffrn_orient_matrix_UB_32      0.0047747000
_diffrn_orient_matrix_UB_33      0.0644137000
_diffrn_radiation_monochromator  mirror
_diffrn_radiation_probe          x-ray
_diffrn_radiation_type           MoK\a
_diffrn_radiation_wavelength     0.71073
_diffrn_reflns_av_R_equivalents  0.0732
_diffrn_reflns_av_unetI/netI     0.0528
_diffrn_reflns_Laue_measured_fraction_full 0.995
_diffrn_reflns_Laue_measured_fraction_max 0.994
_diffrn_reflns_limit_h_max       15
_diffrn_reflns_limit_h_min       -15
_diffrn_reflns_limit_k_max       27
_diffrn_reflns_limit_k_min       -27
_diffrn_reflns_limit_l_max       13
_diffrn_reflns_limit_l_min       -13
_diffrn_reflns_number            32351
_diffrn_reflns_point_group_measured_fraction_full 0.995
_diffrn_reflns_point_group_measured_fraction_max 0.994
_diffrn_reflns_theta_full        25.242
_diffrn_reflns_theta_max         26.732
_diffrn_reflns_theta_min         3.306
_diffrn_source                   'micro-focus sealed X-ray tube'
_diffrn_source_type              'SuperNova (Mo) X-ray Source'
_exptl_absorpt_coefficient_mu    0.987
_exptl_absorpt_correction_T_max  1.00000
_exptl_absorpt_correction_T_min  0.69252
_exptl_absorpt_correction_type   multi-scan
_exptl_absorpt_process_details
;
CrysAlisPro 1.171.39.46b (Rigaku Oxford Diffraction, 2018)
Empirical absorption correction using spherical harmonics,
 implemented in SCALE3 ABSPACK scaling algorithm.
;
_exptl_crystal_colour            'metallic greenish green'
_exptl_crystal_colour_lustre     metallic
_exptl_crystal_colour_modifier   greenish
_exptl_crystal_colour_primary    green
_exptl_crystal_density_diffrn    1.478
_exptl_crystal_description       irregular
_exptl_crystal_F_000             1288
_refine_diff_density_max         0.641
_refine_diff_density_min         -0.357
_refine_diff_density_rms         0.070
_refine_ls_extinction_coef       .
_refine_ls_extinction_method     none
_refine_ls_goodness_of_fit_ref   1.024
_refine_ls_hydrogen_treatment    mixed
_refine_ls_matrix_type           full
_refine_ls_number_parameters     399
_refine_ls_number_reflns         6112
_refine_ls_number_restraints     0
_refine_ls_restrained_S_all      1.024
_refine_ls_R_factor_all          0.0632
_refine_ls_R_factor_gt           0.0374
_refine_ls_shift/su_max          0.002
_refine_ls_shift/su_mean         0.000
_refine_ls_structure_factor_coef Fsqd
_refine_ls_weighting_details
'w=1/[\s^2^(Fo^2^)+(0.0325P)^2^+1.1056P] where P=(Fo^2^+2Fc^2^)/3'
_refine_ls_weighting_scheme      calc
_refine_ls_wR_factor_gt          0.0742
_refine_ls_wR_factor_ref         0.0813
_reflns_Friedel_coverage         0.000
_reflns_Friedel_fraction_full    .
_reflns_Friedel_fraction_max     .
_reflns_number_gt                4427
_reflns_number_total             6112
_reflns_threshold_expression     'I > 2\s(I)'
_iucr_refine_instructions_details
;

    skar_22072019.res created by SHELXL-2014/7

TITL skar_22072019_a.res in P2(1)/c
REM Old TITL skar_22072019_a.res in P2(1)/c
REM SHELXT solution in P2(1)/c
REM R1 0.116, Rweak 0.010, Alpha 0.139, Orientation as input
REM Formula found by SHELXT: C39 N2 O2 Sb
CELL 0.71073 12.4741 21.8912 10.7274 90 99.256 90
ZERR 4 0.0008 0.001 0.0006 0 0.005 0
LATT 1
SYMM -X,0.5+Y,0.5-Z
SFAC C H N Sb
UNIT 148 84 16 4
 
L.S. 10
PLAN  10
TEMP 24.85
BOND $H
list 4
ABIN
fmap 2
acta
SHEL 100 0.79
OMIT -1 2 2
OMIT 2 1 1
OMIT -1 3 1
OMIT -3 1 1
OMIT 2 3 1
OMIT -1 5 1
OMIT -4 1 1
OMIT 1 3 1
OMIT 3 5 0
OMIT -3 2 2
OMIT -2 1 1
OMIT 2 2 0
OMIT -2 0 2
OMIT 0 3 1
REM <olex2.extras>
REM <HklSrc "%.\\SKAR_22072019.hkl">
REM </olex2.extras>
 
WGHT    0.032500    1.105600
FVAR       0.32895
SB01  4    0.521135    0.602644    0.771326    11.00000    0.04167    0.02723 =
         0.04135   -0.00161    0.01101    0.00061
N002  3    0.594063    0.564599    0.625343    11.00000    0.04874    0.02787 =
         0.04656   -0.00116    0.01961    0.00205
N003  3    0.351763    0.604777    0.774625    11.00000    0.04099    0.02904 =
         0.05112    0.00411    0.01526    0.00273
N004  3    0.481060    0.509040    0.758778    11.00000    0.04820    0.02868 =
         0.04950   -0.00307    0.01757   -0.00182
N005  3    0.480947    0.668451    0.624160    11.00000    0.03969    0.02990 =
         0.04578    0.00542    0.01461    0.00424
C006  1    0.607308    0.502432    0.623820    11.00000    0.04986    0.03112 =
         0.04442   -0.00410    0.00813    0.00703
C007  1    0.289714    0.657461    0.757170    11.00000    0.04308    0.03414 =
         0.04928    0.00165    0.01382    0.00624
C008  1    0.531363    0.751625    0.521301    11.00000    0.04653    0.03147 =
         0.04874    0.00582    0.01358   -0.00208
AFIX  43
H008  2    0.569248    0.777463    0.475046    11.00000   -1.20000
AFIX   0
C009  1    0.319435    0.710267    0.697580    11.00000    0.03778    0.03092 =
         0.04714    0.00345    0.01076    0.00348
C00A  1    0.547091    0.471565    0.703533    11.00000    0.04996    0.02893 =
         0.05027   -0.00484    0.01202    0.00234
C00B  1    0.558671    0.689477    0.552808    11.00000    0.03529    0.03344 =
         0.04276    0.00218    0.01070    0.00005
C00C  1    0.441921    0.766526    0.569564    11.00000    0.04430    0.03195 =
         0.05175    0.00518    0.01119    0.00348
AFIX  43
H00C  2    0.407290    0.804268    0.561053    11.00000   -1.20000
AFIX   0
C00D  1    0.408682    0.715555    0.635570    11.00000    0.03485    0.03082 =
         0.04424    0.00109    0.00607    0.00191
C00E  1    0.330469    0.502477    0.873176    11.00000    0.04767    0.03444 =
         0.04404   -0.00210    0.00975   -0.00606
C00F  1    0.297629    0.562493    0.841074    11.00000    0.04509    0.03651 =
         0.04905    0.00155    0.01620   -0.00308
C00G  1    0.641732    0.654361    0.516066    11.00000    0.04211    0.03606 =
         0.03953    0.00087    0.01029    0.00137
C00H  1    0.246913    0.764349    0.699728    11.00000    0.03921    0.03574 =
         0.05208    0.01030    0.02073    0.00606
C00I  1    0.193077    0.647112    0.807312    11.00000    0.04492    0.04398 =
         0.07416    0.00890    0.02504    0.00494
AFIX  43
H00I  2    0.136043    0.674595    0.805917    11.00000   -1.20000
AFIX   0
C00J  1    0.245096    0.489382    1.066321    11.00000    0.05343    0.04036 =
         0.05199    0.00108    0.01118   -0.00894
C00K  1    0.266285    0.466419    0.952206    11.00000    0.04648    0.03521 =
         0.04391    0.00509    0.00782   -0.00358
C00L  1    0.418522    0.475452    0.827841    11.00000    0.04983    0.02765 =
         0.04627    0.00040    0.00971   -0.00487
C00M  1    0.722705    0.681680    0.444663    11.00000    0.04590    0.03764 =
         0.04087   -0.00266    0.01849    0.00183
C00N  1    0.676257    0.489565    0.536210    11.00000    0.05956    0.03597 =
         0.05115   -0.00533    0.01844    0.01145
AFIX  43
H00N  2    0.698810    0.450935    0.515301    11.00000   -1.20000
AFIX   0
C00O  1    0.229018    0.408046    0.917646    11.00000    0.06584    0.04059 =
         0.05301   -0.00203    0.01569   -0.01292
C00P  1    0.694556    0.714184    0.333352    11.00000    0.05494    0.04159 =
         0.04863   -0.00225    0.01428   -0.00068
AFIX  43
H00P  2    0.621598    0.720605    0.301457    11.00000   -1.20000
AFIX   0
C00Q  1    0.651961    0.591455    0.542779    11.00000    0.04115    0.03853 =
         0.03928   -0.00111    0.01140    0.00192
C00R  1    0.198061    0.589844    0.858050    11.00000    0.05412    0.04289 =
         0.06676    0.00987    0.02673   -0.00278
AFIX  43
H00R  2    0.144859    0.571739    0.897318    11.00000   -1.20000
AFIX   0
C00S  1    0.453771    0.413817    0.821024    11.00000    0.05623    0.03111 =
         0.06054    0.00396    0.01168    0.00067
AFIX  43
H00S  2    0.428914    0.380738    0.862692    11.00000   -1.20000
AFIX   0
C00T  1    0.704553    0.543497    0.486930    11.00000    0.05076    0.04824 =
         0.04758   -0.00138    0.01874    0.00836
AFIX  43
H00T  2    0.750317    0.548095    0.427158    11.00000   -1.20000
AFIX   0
C00U  1    0.530178    0.411395    0.743077    11.00000    0.06451    0.02867 =
         0.06227   -0.00245    0.01544    0.00419
AFIX  43
H00U  2    0.564722    0.376443    0.720267    11.00000   -1.20000
AFIX   0
C00V  1    0.772670    0.737070    0.269378    11.00000    0.07410    0.04872 =
         0.05008    0.00387    0.02736   -0.00274
AFIX  43
H00V  2    0.752219    0.758924    0.195012    11.00000   -1.20000
AFIX   0
C00W  1    0.880520    0.727869    0.314544    11.00000    0.07664    0.05247 =
         0.08074   -0.00285    0.04338   -0.01154
AFIX  43
H00W  2    0.933266    0.743462    0.271131    11.00000   -1.20000
AFIX   0
C00X  1    0.176030    0.373688    0.994966    11.00000    0.07033    0.04665 =
         0.07521   -0.00092    0.02233   -0.02187
C00Y  1    0.910162    0.695703    0.423574    11.00000    0.04820    0.06555 =
         0.09299    0.00136    0.02861    0.00764
AFIX  43
H00Y  2    0.983304    0.689166    0.454323    11.00000   -1.20000
AFIX   0
C00Z  1    0.250679    0.799840    0.804258    11.00000    0.05167    0.04999 =
         0.08182   -0.00788    0.00933    0.00809
AFIX  43
H00Z  2    0.301012    0.791075    0.875793    11.00000   -1.20000
AFIX   0
C010  1    0.831709    0.672783    0.488522    11.00000    0.04647    0.05662 =
         0.05780    0.00495    0.01946    0.00718
AFIX  43
H010  2    0.852800    0.651040    0.562903    11.00000   -1.20000
AFIX   0
C011  1    0.189297    0.454817    1.142896    11.00000    0.06434    0.06289 =
         0.04828    0.00347    0.01981   -0.00175
C012  1    0.155200    0.397059    1.107704    11.00000    0.06206    0.06220 =
         0.06785    0.01505    0.02036   -0.01540
C013  1    0.180393    0.849108    0.805961    11.00000    0.06465    0.05197 =
         0.13384   -0.02862    0.03187    0.00049
AFIX  43
H013  2    0.184064    0.873199    0.877930    11.00000   -1.20000
AFIX   0
C015  1    0.105931    0.861850    0.701149    11.00000    0.07377    0.05096 =
         0.14757    0.02993    0.05978    0.02984
AFIX  43
H015  2    0.057963    0.894331    0.701747    11.00000   -1.20000
AFIX   0
C017  1    0.172095    0.779173    0.596634    11.00000    0.05991    0.10951 =
         0.06189    0.01103    0.01631    0.04254
AFIX  43
H017  2    0.168362    0.755864    0.523583    11.00000   -1.20000
AFIX   0
C018  1    0.102507    0.827415    0.598044    11.00000    0.07475    0.14043 =
         0.09140    0.04468    0.03444    0.06649
AFIX  43
H018  2    0.052351    0.836265    0.526404    11.00000   -1.20000
AFIX   0
H00X  2    0.155856    0.332887    0.974527    11.00000    0.08417
H012  2    0.117418    0.374208    1.156372    11.00000    0.05227
H011  2    0.177794    0.473569    1.209018    11.00000    0.05868
H00J  2    0.275832    0.526583    1.091828    11.00000    0.04130
H00O  2    0.236605    0.393428    0.839938    11.00000    0.04075
HKLF 4
 
REM  skar_22072019_a.res in P2(1)/c
REM R1 =  0.0374 for    4427 Fo > 4sig(Fo)  and  0.0632 for all    6112 data
REM    399 parameters refined using      0 restraints
 
END  
     
WGHT      0.0314      1.2406 

REM Highest difference peak  0.641,  deepest hole -0.357,  1-sigma level  0.070
Q1    1   0.5972  0.6051  0.8362  11.00000  0.05    0.64
Q2    1   0.4377  0.6029  0.7156  11.00000  0.05    0.49
Q3    1   0.4985  0.6379  0.6803  11.00000  0.05    0.42
Q4    1   0.4594  0.5120  0.6856  11.00000  0.05    0.35
Q5    1   0.4850  0.6948  0.7192  11.00000  0.05    0.33
Q6    1   0.4472  0.6885  0.6348  11.00000  0.05    0.31
Q7    1   0.1977  0.8463  0.8684  11.00000  0.05    0.28
Q8    1   0.5294  0.5023  0.7604  11.00000  0.05    0.28
Q9    1   0.6654  0.4568  0.4815  11.00000  0.05    0.26
Q10   1   0.1392  0.8405  0.7815  11.00000  0.05    0.26

  REM The information below was added by Olex2.
  REM
  REM R1 = 0.0374 for 4427 Fo > 4sig(Fo) and 0.0632 for all 34707 data
  REM n/a parameters refined using n/a restraints
  REM Highest difference peak 0.64, deepest hole -0.36
  REM Mean Shift 0, Max Shift -0.002.

  REM +++ Tabular Listing of Refinement Information +++
  REM R1_all = 0.0632
  REM R1_gt = 0.0374
  REM wR_ref = 0.0813
  REM GOOF = 1.024
  REM Shift_max = -0.002
  REM Shift_mean = 0
  REM Reflections_all = 34707
  REM Reflections_gt = 4427
  REM Parameters = n/a
  REM Hole = -0.36
  REM Peak = 0.64
  REM Flack = n/a

  
;
_cod_data_source_file            ICA-2020-501-119300.cif
_cod_data_source_block           2
_cod_database_code               1565618
_chemical_oxdiff_formula         'C H N O Sb'
_shelx_space_group_comment
;
The symmetry employed for this shelxl refinement is uniquely defined
by the following loop, which should always be used as a source of
symmetry information in preference to the above space-group names.
They are only intended as comments.
;
_diffrn_oxdiff_ac3_digest_frames
;
011aad297b55dcb0926d7018ff79da9140000250faf
;
_diffrn_oxdiff_ac3_digest_hkl
;
016724a9420c0a84952fcf3358a3644fdb15cf
;
_reflns_odcompleteness_completeness 99.64
_reflns_odcompleteness_iscentric 1
_reflns_odcompleteness_theta     26.32
_olex2_refinement_description
;
1. Fixed Uiso
 At 1.2 times of:
  All C(H) groups
2.a Aromatic/amide H refined with riding coordinates:
 C008(H008), C00C(H00C), C00I(H00I), C00N(H00N), C00P(H00P), C00R(H00R),
 C00S(H00S), C00T(H00T), C00U(H00U), C00V(H00V), C00W(H00W), C00Y(H00Y),
 C00Z(H00Z), C010(H010), C013(H013), C015(H015), C017(H017), C018(H018)
;
_shelx_fab_file
;
-15 0 2 -0.5830 0.0000
-15 0 4 -2.7876 0.0000
-15 0 6 -1.8337 0.0000
-15 1 1 1.8656 0.0000
-15 1 2 -0.4876 0.0000
-15 1 3 -2.9173 0.0000
-15 1 4 -0.7649 0.0000
-15 1 5 -1.0066 0.0000
-15 1 6 -0.6318 0.0000
-15 2 1 0.3956 0.0000
-15 2 2 -0.7133 0.0000
-15 2 3 -2.4824 0.0000
-15 2 4 -2.1508 0.0000
-15 2 5 -1.7487 0.0000
-15 2 6 -1.5724 0.0000
-15 3 1 -0.7989 0.0000
-15 3 2 -0.9051 0.0000
-15 3 3 -1.2737 0.0000
-15 3 4 -1.1570 0.0000
-15 3 5 -0.7253 0.0000
-15 3 6 -1.6806 0.0000
-15 4 1 0.9702 0.0000
-15 4 2 -1.0206 0.0000
-15 4 3 -3.0414 0.0000
-15 4 4 0.0858 0.0000
-15 4 5 -2.1458 0.0000
-15 5 1 -2.5326 0.0000
-15 5 2 -0.2066 0.0000
-15 5 3 0.6079 0.0000
-15 5 4 -0.1777 0.0000
-15 5 5 1.2073 0.0000
-15 6 1 1.7385 0.0000
-15 6 2 -1.2937 0.0000
-15 6 3 -2.2596 0.0000
-15 6 4 2.8767 0.0000
-15 6 5 -1.3817 0.0000
-15 7 1 -1.6074 0.0000
-15 7 2 0.9949 0.0000
-15 7 3 1.4199 0.0000
-15 7 4 0.3645 0.0000
-15 8 1 1.9338 0.0000
-15 8 2 -1.2290 0.0000
-15 8 3 -1.2928 0.0000
-14 0 2 -2.4629 0.0000
-14 0 4 -1.2391 0.0000
-14 0 6 -2.1913 0.0000
-14 0 8 -2.6934 0.0000
-14 1 1 -0.8206 0.0000
-14 1 2 -0.7758 0.0000
-14 1 3 -2.1996 0.0000
-14 1 4 -1.1667 0.0000
-14 1 5 -0.7821 0.0000
-14 1 6 -0.3572 0.0000
-14 1 7 -1.1028 0.0000
-14 1 8 -0.6394 0.0000
-14 2 1 0.3732 0.0000
-14 2 2 -1.8862 0.0000
-14 2 3 -3.1633 0.0000
-14 2 4 -1.0437 0.0000
-14 2 5 -2.0560 0.0000
-14 2 6 -2.0926 0.0000
-14 2 7 -0.4267 0.0000
-14 2 8 -2.4804 0.0000
-14 3 1 -1.5326 0.0000
-14 3 2 -1.6974 0.0000
-14 3 3 -0.5722 0.0000
-14 3 4 -2.0014 0.0000
-14 3 5 -1.1183 0.0000
-14 3 6 -1.2992 0.0000
-14 3 7 -0.8659 0.0000
-14 4 1 0.8758 0.0000
-14 4 2 -0.7253 0.0000
-14 4 3 -3.9451 0.0000
-14 4 4 0.3336 0.0000
-14 4 5 -2.6048 0.0000
-14 4 6 -1.0252 0.0000
-14 4 7 -0.4725 0.0000
-14 5 1 -1.3145 0.0000
-14 5 2 -1.3245 0.0000
-14 5 3 1.3546 0.0000
-14 5 4 -0.6356 0.0000
-14 5 5 0.2149 0.0000
-14 5 6 -1.6356 0.0000
-14 5 7 -0.7226 0.0000
-14 6 1 1.3629 0.0000
-14 6 2 -0.0460 0.0000
-14 6 3 -2.8642 0.0000
-14 6 4 2.5043 0.0000
-14 6 5 -1.4472 0.0000
-14 6 6 1.0045 0.0000
-14 6 7 0.3978 0.0000
-14 7 1 -0.0007 0.0000
-14 7 2 -0.2387 0.0000
-14 7 3 2.0939 0.0000
-14 7 4 0.7440 0.0000
-14 7 5 1.4267 0.0000
-14 7 6 -0.7388 0.0000
-14 7 7 -0.2248 0.0000
-14 8 1 1.1868 0.0000
-14 8 2 -0.1671 0.0000
-14 8 3 -1.5394 0.0000
-14 8 4 3.0000 0.0000
-14 8 5 -0.2729 0.0000
-14 8 6 1.9971 0.0000
-14 9 1 0.9308 0.0000
-14 9 2 0.3473 0.0000
-14 9 3 1.7942 0.0000
-14 9 4 0.9220 0.0000
-14 9 5 -0.1872 0.0000
-14 9 6 -0.6508 0.0000
-14 10 1 0.0880 0.0000
-14 10 2 -0.4024 0.0000
-14 10 3 -0.4422 0.0000
-14 10 4 1.9999 0.0000
-14 10 5 -0.3741 0.0000
-14 11 1 0.9323 0.0000
-14 11 2 -0.0893 0.0000
-14 11 3 1.8375 0.0000
-14 11 4 0.7337 0.0000
-14 11 5 -2.1372 0.0000
-14 12 1 -0.9200 0.0000
-14 12 3 0.2144 0.0000
-14 12 4 2.2420 0.0000
-13 0 2 -3.1997 0.0000
-13 0 4 0.1424 0.0000
-13 0 6 -2.5864 0.0000
-13 0 8 -2.6513 0.0000
-13 1 1 -2.6845 0.0000
-13 1 2 -1.0368 0.0000
-13 1 3 -0.8960 0.0000
-13 1 4 -1.1718 0.0000
-13 1 5 -0.7950 0.0000
-13 1 6 0.0291 0.0000
-13 1 7 -1.4552 0.0000
-13 1 8 -0.2790 0.0000
-13 1 9 -1.7123 0.0000
-13 2 1 -0.3991 0.0000
-13 2 2 -2.2907 0.0000
-13 2 3 -3.0960 0.0000
-13 2 4 -0.2104 0.0000
-13 2 5 -1.8645 0.0000
-13 2 6 -2.5966 0.0000
-13 2 7 0.2948 0.0000
-13 2 8 -2.0958 0.0000
-13 2 9 -0.1864 0.0000
-13 3 1 -1.7062 0.0000
-13 3 2 -2.3661 0.0000
-13 3 3 0.0984 0.0000
-13 3 4 -2.0141 0.0000
-13 3 5 -1.6705 0.0000
-13 3 6 -0.6860 0.0000
-13 3 7 -1.0975 0.0000
-13 3 8 -0.0732 0.0000
-13 3 9 -1.5604 0.0000
-13 4 1 -0.2324 0.0000
-13 4 2 -0.3524 0.0000
-13 4 3 -3.7247 0.0000
-13 4 4 0.0359 0.0000
-13 4 5 -2.6054 0.0000
-13 4 6 -1.9596 0.0000
-13 4 7 0.1570 0.0000
-13 4 8 -1.5523 0.0000
-13 4 9 0.4473 0.0000
-13 5 1 0.1740 0.0000
-13 5 2 -2.1283 0.0000
-13 5 3 1.4601 0.0000
-13 5 4 -0.5111 0.0000
-13 5 5 -0.9391 0.0000
-13 5 6 -1.5219 0.0000
-13 5 7 -1.3296 0.0000
-13 5 8 1.0803 0.0000
-13 5 9 -1.6705 0.0000
-13 6 1 0.2744 0.0000
-13 6 2 0.9510 0.0000
-13 6 3 -2.3769 0.0000
-13 6 4 1.4323 0.0000
-13 6 5 -1.6059 0.0000
-13 6 6 -0.3286 0.0000
-13 6 7 0.3854 0.0000
-13 6 8 -1.5820 0.0000
-13 7 1 1.5891 0.0000
-13 7 2 -0.9329 0.0000
-13 7 3 2.0371 0.0000
-13 7 4 1.1591 0.0000
-13 7 5 0.3050 0.0000
-13 7 6 -0.9296 0.0000
-13 7 7 -1.2717 0.0000
-13 7 8 1.2836 0.0000
-13 8 1 0.3291 0.0000
-13 8 2 0.6873 0.0000
-13 8 3 -0.9739 0.0000
-13 8 4 1.7675 0.0000
-13 8 5 -0.2290 0.0000
-13 8 6 1.1299 0.0000
-13 8 7 0.3593 0.0000
-13 8 8 -0.6609 0.0000
-13 9 1 1.2709 0.0000
-13 9 2 -0.1046 0.0000
-13 9 3 1.5349 0.0000
-13 9 4 1.2939 0.0000
-13 9 5 -0.6016 0.0000
-13 9 6 -0.5458 0.0000
-13 9 7 0.3511 0.0000
-13 9 8 -0.5134 0.0000
-13 10 1 -0.1159 0.0000
-13 10 2 -0.3805 0.0000
-13 10 3 -0.3094 0.0000
-13 10 4 0.7260 0.0000
-13 10 5 -0.1938 0.0000
-13 10 6 1.7001 0.0000
-13 10 7 -1.1058 0.0000
-13 11 1 0.1562 0.0000
-13 11 2 -0.1783 0.0000
-13 11 3 1.1502 0.0000
-13 11 4 0.4876 0.0000
-13 11 5 -1.9627 0.0000
-13 11 6 -1.4919 0.0000
-13 11 7 2.0181 0.0000
-13 12 1 -0.1524 0.0000
-13 12 2 -0.7950 0.0000
-13 12 3 -0.2798 0.0000
-13 12 4 0.8794 0.0000
-13 12 5 -0.5560 0.0000
-13 12 6 1.8598 0.0000
-13 13 1 -0.0948 0.0000
-13 13 2 -0.6471 0.0000
-13 13 3 1.6162 0.0000
-13 13 4 -0.1296 0.0000
-13 13 5 -1.1222 0.0000
-13 13 6 -1.1368 0.0000
-13 14 1 0.3965 0.0000
-13 14 2 -0.2817 0.0000
-13 14 3 -0.5903 0.0000
-13 14 4 2.2892 0.0000
-13 14 5 0.3594 0.0000
-13 15 1 0.4564 0.0000
-13 15 4 -0.2015 0.0000
-12 0 2 -2.7212 0.0000
-12 0 4 0.5462 0.0000
-12 0 6 -3.0571 0.0000
-12 0 8 -2.4103 0.0000
-12 0 10 1.2173 0.0000
-12 1 1 -3.0188 0.0000
-12 1 2 -0.9668 0.0000
-12 1 3 0.1807 0.0000
-12 1 4 -0.9764 0.0000
-12 1 5 -1.2617 0.0000
-12 1 6 0.2985 0.0000
-12 1 7 -1.6634 0.0000
-12 1 8 0.0488 0.0000
-12 1 9 -0.7102 0.0000
-12 1 10 0.2872 0.0000
-12 2 1 -1.0552 0.0000
-12 2 2 -1.9025 0.0000
-12 2 3 -2.3723 0.0000
-12 2 4 -0.0230 0.0000
-12 2 5 -1.5896 0.0000
-12 2 6 -2.9671 0.0000
-12 2 7 0.8688 0.0000
-12 2 8 -1.4543 0.0000
-12 2 9 0.1761 0.0000
-12 2 10 1.4593 0.0000
-12 3 1 -1.2727 0.0000
-12 3 2 -2.2620 0.0000
-12 3 3 0.4751 0.0000
-12 3 4 -1.7486 0.0000
-12 3 5 -2.0565 0.0000
-12 3 6 -0.1910 0.0000
-12 3 7 -0.9445 0.0000
-12 3 8 0.7674 0.0000
-12 3 9 -0.2082 0.0000
-12 3 10 0.7951 0.0000
-12 4 1 -1.1891 0.0000
-12 4 2 -0.0394 0.0000
-12 4 3 -2.7686 0.0000
-12 4 4 -0.2849 0.0000
-12 4 5 -2.6240 0.0000
-12 4 6 -2.4109 0.0000
-12 4 7 0.9427 0.0000
-12 4 8 -0.3868 0.0000
-12 4 9 1.0322 0.0000
-12 4 10 1.7114 0.0000
-12 5 1 1.2782 0.0000
-12 5 2 -2.0859 0.0000
-12 5 3 1.1947 0.0000
-12 5 4 -0.6539 0.0000
-12 5 5 -1.3746 0.0000
-12 5 6 -1.2943 0.0000
-12 5 7 -1.3380 0.0000
-12 5 8 1.9490 0.0000
-12 5 9 -0.1423 0.0000
-12 5 10 0.8443 0.0000
-12 6 1 -0.4984 0.0000
-12 6 2 1.4008 0.0000
-12 6 3 -1.5702 0.0000
-12 6 4 0.7512 0.0000
-12 6 5 -2.1709 0.0000
-12 6 6 -1.2248 0.0000
-12 6 7 1.0189 0.0000
-12 6 8 -0.7109 0.0000
-12 6 9 1.0137 0.0000
-12 7 1 2.4336 0.0000
-12 7 2 -0.8205 0.0000
-12 7 3 1.7178 0.0000
-12 7 4 0.6375 0.0000
-12 7 5 -0.0069 0.0000
-12 7 6 -0.8973 0.0000
-12 7 7 -2.0278 0.0000
-12 7 8 1.7500 0.0000
-12 7 9 -0.4660 0.0000
-12 8 1 0.1589 0.0000
-12 8 2 1.1772 0.0000
-12 8 3 -0.4087 0.0000
-12 8 4 1.1564 0.0000
-12 8 5 -0.8573 0.0000
-12 8 6 0.1063 0.0000
-12 8 7 0.9813 0.0000
-12 8 8 -0.7569 0.0000
-12 8 9 -0.8664 0.0000
-12 9 1 1.0696 0.0000
-12 9 2 0.2107 0.0000
-12 9 3 1.3196 0.0000
-12 9 4 0.7305 0.0000
-12 9 5 -0.3476 0.0000
-12 9 6 -0.1573 0.0000
-12 9 7 -0.9088 0.0000
-12 9 8 -0.1770 0.0000
-12 9 9 -0.8745 0.0000
-12 10 1 0.5273 0.0000
-12 10 2 -0.3079 0.0000
-12 10 3 -0.1270 0.0000
-12 10 4 0.1934 0.0000
-12 10 5 -0.3835 0.0000
-12 10 6 1.1234 0.0000
-12 10 7 -0.0702 0.0000
-12 10 8 0.0443 0.0000
-12 11 1 -0.7797 0.0000
-12 11 2 0.2498 0.0000
-12 11 3 0.6241 0.0000
-12 11 4 -0.0535 0.0000
-12 11 5 -1.3345 0.0000
-12 11 6 -0.6296 0.0000
-12 11 7 0.8225 0.0000
-12 11 8 -1.4032 0.0000
-12 12 1 1.0951 0.0000
-12 12 2 -1.1932 0.0000
-12 12 3 -0.6050 0.0000
-12 12 4 -0.0305 0.0000
-12 12 5 -0.4789 0.0000
-12 12 6 1.5277 0.0000
-12 12 7 -0.7089 0.0000
-12 12 8 -0.1017 0.0000
-12 13 1 -0.6765 0.0000
-12 13 2 -0.2282 0.0000
-12 13 3 0.7542 0.0000
-12 13 4 -0.7387 0.0000
-12 13 5 -0.9936 0.0000
-12 13 6 -0.3964 0.0000
-12 13 7 0.6569 0.0000
-12 14 1 1.6232 0.0000
-12 14 2 -0.5696 0.0000
-12 14 3 -1.1092 0.0000
-12 14 4 0.8876 0.0000
-12 14 5 0.2660 0.0000
-12 14 6 0.7727 0.0000
-12 14 7 0.7484 0.0000
-12 15 1 0.7334 0.0000
-12 15 2 -0.5095 0.0000
-12 15 3 1.2053 0.0000
-12 15 4 -0.7163 0.0000
-12 15 5 -0.7319 0.0000
-12 15 6 1.4584 0.0000
-12 16 1 1.2203 0.0000
-12 16 2 0.1893 0.0000
-12 16 3 -0.5972 0.0000
-12 16 4 0.6647 0.0000
-12 16 5 1.1124 0.0000
-12 17 1 1.5147 0.0000
-12 17 2 -0.3880 0.0000
-12 17 3 0.5131 0.0000
-12 17 4 -0.0866 0.0000
-11 0 2 -1.4813 0.0000
-11 0 4 0.1024 0.0000
-11 0 6 -3.3918 0.0000
-11 0 8 -2.1958 0.0000
-11 0 10 1.1459 0.0000
-11 1 1 -2.1976 0.0000
-11 1 2 -0.7274 0.0000
-11 1 3 0.7944 0.0000
-11 1 4 -0.9953 0.0000
-11 1 5 -1.9848 0.0000
-11 1 6 0.3443 0.0000
-11 1 7 -1.6581 0.0000
-11 1 8 0.2124 0.0000
-11 1 9 -0.1180 0.0000
-11 1 10 0.0102 0.0000
-11 1 11 -0.6522 0.0000
-11 2 1 -1.0813 0.0000
-11 2 2 -0.8989 0.0000
-11 2 3 -1.8737 0.0000
-11 2 4 -0.2418 0.0000
-11 2 5 -1.6019 0.0000
-11 2 6 -3.1303 0.0000
-11 2 7 1.1120 0.0000
-11 2 8 -1.0580 0.0000
-11 2 9 0.2012 0.0000
-11 2 10 1.1727 0.0000
-11 2 11 -0.4275 0.0000
-11 3 1 -0.4155 0.0000
-11 3 2 -1.8168 0.0000
-11 3 3 0.8092 0.0000
-11 3 4 -2.0650 0.0000
-11 3 5 -2.1918 0.0000
-11 3 6 0.0609 0.0000
-11 3 7 -0.6373 0.0000
-11 3 8 1.2378 0.0000
-11 3 9 0.3087 0.0000
-11 3 10 0.2169 0.0000
-11 3 11 -0.4407 0.0000
-11 4 1 -1.3219 0.0000
-11 4 2 0.5025 0.0000
-11 4 3 -2.3723 0.0000
-11 4 4 -0.1810 0.0000
-11 4 5 -2.8212 0.0000
-11 4 6 -2.4415 0.0000
-11 4 7 1.5929 0.0000
-11 4 8 0.3405 0.0000
-11 4 9 1.0959 0.0000
-11 4 10 1.1097 0.0000
-11 5 1 1.9976 0.0000
-11 5 2 -1.8328 0.0000
-11 5 3 1.1895 0.0000
-11 5 4 -1.6927 0.0000
-11 5 5 -1.0967 0.0000
-11 5 6 -0.7415 0.0000
-11 5 7 -0.9704 0.0000
-11 5 8 2.5748 0.0000
-11 5 9 0.3705 0.0000
-11 5 10 0.3093 0.0000
-11 6 1 -0.5336 0.0000
-11 6 2 1.7193 0.0000
-11 6 3 -1.6993 0.0000
-11 6 4 0.8954 0.0000
-11 6 5 -2.6983 0.0000
-11 6 6 -1.6240 0.0000
-11 6 7 2.0759 0.0000
-11 6 8 0.0454 0.0000
-11 6 9 1.0517 0.0000
-11 6 10 1.0507 0.0000
-11 7 1 2.7456 0.0000
-11 7 2 -0.6908 0.0000
-11 7 3 1.6305 0.0000
-11 7 4 -0.9703 0.0000
-11 7 5 0.2804 0.0000
-11 7 6 -0.0803 0.0000
-11 7 7 -2.1756 0.0000
-11 7 8 2.4208 0.0000
-11 7 9 0.0940 0.0000
-11 7 10 -0.2935 0.0000
-11 8 1 0.6675 0.0000
-11 8 2 1.5899 0.0000
-11 8 3 -0.7920 0.0000
-11 8 4 1.2332 0.0000
-11 8 5 -1.4046 0.0000
-11 8 6 -0.8801 0.0000
-11 8 7 2.4126 0.0000
-11 8 8 -0.4665 0.0000
-11 8 9 -0.7316 0.0000
-11 8 10 1.2603 0.0000
-11 9 1 0.9172 0.0000
-11 9 2 0.5484 0.0000
-11 9 3 1.3211 0.0000
-11 9 4 -0.5982 0.0000
-11 9 5 -0.0239 0.0000
-11 9 6 0.9768 0.0000
-11 9 7 -1.7842 0.0000
-11 9 8 0.7682 0.0000
-11 9 9 -0.3244 0.0000
-11 9 10 -1.0198 0.0000
-11 10 1 1.6472 0.0000
-11 10 2 0.1156 0.0000
-11 10 3 -0.2823 0.0000
-11 10 4 0.1693 0.0000
-11 10 5 -0.4101 0.0000
-11 10 6 -0.1003 0.0000
-11 10 7 1.7235 0.0000
-11 10 8 -0.2329 0.0000
-11 10 9 -2.0701 0.0000
-11 11 1 -1.0568 0.0000
-11 11 2 0.7817 0.0000
-11 11 3 0.4390 0.0000
-11 11 4 -0.5101 0.0000
-11 11 5 -0.9609 0.0000
-11 11 6 0.6630 0.0000
-11 11 7 -0.3221 0.0000
-11 11 8 -0.1148 0.0000
-11 11 9 -1.2349 0.0000
-11 12 1 2.2828 0.0000
-11 12 2 -1.0205 0.0000
-11 12 3 -0.4887 0.0000
-11 12 4 -0.5062 0.0000
-11 12 5 -0.0941 0.0000
-11 12 6 0.4273 0.0000
-11 12 7 0.9417 0.0000
-11 12 8 -0.4563 0.0000
-11 12 9 -1.3753 0.0000
-11 13 1 -0.6129 0.0000
-11 13 2 0.2504 0.0000
-11 13 3 0.1375 0.0000
-11 13 4 -0.6191 0.0000
-11 13 5 -1.0404 0.0000
-11 13 6 0.3480 0.0000
-11 13 7 -0.0473 0.0000
-11 13 8 0.7032 0.0000
-11 14 1 2.3830 0.0000
-11 14 2 -0.5902 0.0000
-11 14 3 -0.9065 0.0000
-11 14 4 -0.2934 0.0000
-11 14 5 0.3607 0.0000
-11 14 6 -0.1679 0.0000
-11 14 7 1.3924 0.0000
-11 14 8 -0.8941 0.0000
-11 15 1 1.1415 0.0000
-11 15 2 -0.0339 0.0000
-11 15 3 0.4815 0.0000
-11 15 4 -0.5826 0.0000
-11 15 5 -1.4996 0.0000
-11 15 6 1.1679 0.0000
-11 15 7 -0.7167 0.0000
-11 16 1 1.6337 0.0000
-11 16 2 0.2108 0.0000
-11 16 3 -0.3532 0.0000
-11 16 4 -0.7924 0.0000
-11 16 5 0.6871 0.0000
-11 16 6 -1.7087 0.0000
-11 16 7 2.0115 0.0000
-11 17 1 1.8481 0.0000
-11 17 2 0.2531 0.0000
-11 17 3 0.1515 0.0000
-11 17 4 -0.1587 0.0000
-11 17 5 -2.8755 0.0000
-11 17 6 1.3846 0.0000
-11 18 1 0.5166 0.0000
-11 18 2 -0.1514 0.0000
-11 18 3 1.0226 0.0000
-11 18 4 -2.0405 0.0000
-11 18 5 -0.1361 0.0000
-11 19 1 1.9231 0.0000
-11 19 2 0.7062 0.0000
-11 19 3 -1.0598 0.0000
-11 19 4 -0.1649 0.0000
-10 0 2 0.3861 0.0000
-10 0 4 -0.4285 0.0000
-10 0 6 -3.4853 0.0000
-10 0 8 -1.9474 0.0000
-10 0 10 1.2319 0.0000
-10 1 1 -0.8226 0.0000
-10 1 2 -0.7809 0.0000
-10 1 3 1.4896 0.0000
-10 1 4 -1.3611 0.0000
-10 1 5 -2.7317 0.0000
-10 1 6 0.2941 0.0000
-10 1 7 -1.4483 0.0000
-10 1 8 0.2473 0.0000
-10 1 9 0.2526 0.0000
-10 1 10 -0.0748 0.0000
-10 1 11 0.3918 0.0000
-10 2 1 -0.8609 0.0000
-10 2 2 0.7821 0.0000
-10 2 3 -2.3188 0.0000
-10 2 4 -0.4430 0.0000
-10 2 5 -1.7705 0.0000
-10 2 6 -3.2240 0.0000
-10 2 7 1.0996 0.0000
-10 2 8 -0.9438 0.0000
-10 2 9 0.1010 0.0000
-10 2 10 1.0323 0.0000
-10 2 11 -0.2287 0.0000
-10 3 1 0.7818 0.0000
-10 3 2 -2.0717 0.0000
-10 3 3 1.5143 0.0000
-10 3 4 -3.0698 0.0000
-10 3 5 -2.4521 0.0000
-10 3 6 0.2372 0.0000
-10 3 7 -0.4527 0.0000
-10 3 8 1.2070 0.0000
-10 3 9 0.2509 0.0000
-10 3 10 0.0164 0.0000
-10 3 11 0.3118 0.0000
-10 4 1 -1.1423 0.0000
-10 4 2 1.6954 0.0000
-10 4 3 -3.3148 0.0000
-10 4 4 0.1396 0.0000
-10 4 5 -2.8337 0.0000
-10 4 6 -2.5269 0.0000
-10 4 7 1.7857 0.0000
-10 4 8 0.3690 0.0000
-10 4 9 0.7591 0.0000
-10 4 10 0.5884 0.0000
-10 4 11 0.4723 0.0000
-10 5 1 2.7936 0.0000
-10 5 2 -2.4231 0.0000
-10 5 3 1.6685 0.0000
-10 5 4 -3.2033 0.0000
-10 5 5 -0.9665 0.0000
-10 5 6 0.0754 0.0000
-10 5 7 -0.5928 0.0000
-10 5 8 2.3465 0.0000
-10 5 9 0.0109 0.0000
-10 5 10 0.0438 0.0000
-10 5 11 -0.6305 0.0000
-10 6 1 -0.4193 0.0000
-10 6 2 2.4058 0.0000
-10 6 3 -3.0936 0.0000
-10 6 4 1.2348 0.0000
-10 6 5 -2.5051 0.0000
-10 6 6 -1.8386 0.0000
-10 6 7 2.6617 0.0000
-10 6 8 0.3026 0.0000
-10 6 9 0.5693 0.0000
-10 6 10 0.3877 0.0000
-10 6 11 0.9122 0.0000
-10 7 1 3.1765 0.0000
-10 7 2 -1.4421 0.0000
-10 7 3 1.6830 0.0000
-10 7 4 -2.7024 0.0000
-10 7 5 0.3093 0.0000
-10 7 6 1.2603 0.0000
-10 7 7 -1.6459 0.0000
-10 7 8 2.2784 0.0000
-10 7 9 -0.1933 0.0000
-10 7 10 -0.6539 0.0000
-10 7 11 -1.8480 0.0000
-10 8 1 1.0588 0.0000
-10 8 2 2.0843 0.0000
-10 8 3 -2.1227 0.0000
-10 8 4 1.1538 0.0000
-10 8 5 -1.1101 0.0000
-10 8 6 -1.5172 0.0000
-10 8 7 3.4838 0.0000
-10 8 8 -0.0189 0.0000
-10 8 9 -0.9360 0.0000
-10 8 10 0.7134 0.0000
-10 8 11 -0.0196 0.0000
-10 9 1 1.3369 0.0000
-10 9 2 0.1290 0.0000
-10 9 3 1.0593 0.0000
-10 9 4 -1.8049 0.0000
-10 9 5 -0.2657 0.0000
-10 9 6 2.4835 0.0000
-10 9 7 -1.5100 0.0000
-10 9 8 1.1824 0.0000
-10 9 9 -0.3453 0.0000
-10 9 10 -1.4681 0.0000
-10 10 1 2.4099 0.0000
-10 10 2 0.6591 0.0000
-10 10 3 -0.7703 0.0000
-10 10 4 -0.2353 0.0000
-10 10 5 0.1083 0.0000
-10 10 6 -1.1039 0.0000
-10 10 7 3.1745 0.0000
-10 10 8 0.1384 0.0000
-10 10 9 -1.7642 0.0000
-10 10 10 1.0454 0.0000
-10 11 1 -0.4575 0.0000
-10 11 2 0.9330 0.0000
-10 11 3 0.0284 0.0000
-10 11 4 -0.5572 0.0000
-10 11 5 -1.1852 0.0000
-10 11 6 1.9898 0.0000
-10 11 7 -0.3214 0.0000
-10 11 8 0.7229 0.0000
-10 11 9 -0.9392 0.0000
-10 11 10 -1.4883 0.0000
-10 12 1 2.9560 0.0000
-10 12 2 -0.5988 0.0000
-10 12 3 0.0349 0.0000
-10 12 4 -1.0743 0.0000
-10 12 5 0.5681 0.0000
-10 12 6 -0.3825 0.0000
-10 12 7 2.1654 0.0000
-10 12 8 -0.1154 0.0000
-10 12 9 -0.9436 0.0000
-10 13 1 -0.1116 0.0000
-10 13 2 0.7237 0.0000
-10 13 3 -0.4372 0.0000
-10 13 4 0.1497 0.0000
-10 13 5 -1.1221 0.0000
-10 13 6 0.9663 0.0000
-10 13 7 0.2133 0.0000
-10 13 8 1.0895 0.0000
-10 13 9 -1.4964 0.0000
-10 14 1 2.6597 0.0000
-10 14 2 -0.5590 0.0000
-10 14 3 0.0035 0.0000
-10 14 4 -1.0887 0.0000
-10 14 5 0.6399 0.0000
-10 14 6 -0.3666 0.0000
-10 14 7 1.5183 0.0000
-10 14 8 -0.4241 0.0000
-10 14 9 0.0230 0.0000
-10 15 1 1.1336 0.0000
-10 15 2 0.5188 0.0000
-10 15 3 -0.1337 0.0000
-10 15 4 0.1113 0.0000
-10 15 5 -1.5956 0.0000
-10 15 6 0.7189 0.0000
-10 15 7 0.0484 0.0000
-10 15 8 0.8527 0.0000
-10 16 1 1.8139 0.0000
-10 16 2 -0.0194 0.0000
-10 16 3 0.2798 0.0000
-10 16 4 -1.5919 0.0000
-10 16 5 0.4198 0.0000
-10 16 6 -1.3710 0.0000
-10 16 7 0.8564 0.0000
-10 16 8 0.2697 0.0000
-10 17 1 1.3153 0.0000
-10 17 2 0.8233 0.0000
-10 17 3 -0.0528 0.0000
-10 17 4 0.0955 0.0000
-10 17 5 -2.8039 0.0000
-10 17 6 0.4144 0.0000
-10 17 7 0.1085 0.0000
-10 18 1 0.8200 0.0000
-10 18 2 -0.2292 0.0000
-10 18 3 1.1313 0.0000
-10 18 4 -2.2157 0.0000
-10 18 5 -0.3101 0.0000
-10 18 6 -1.6490 0.0000
-10 18 7 0.0316 0.0000
-10 19 1 1.3230 0.0000
-10 19 2 1.1018 0.0000
-10 19 3 -0.6203 0.0000
-10 19 4 -0.1347 0.0000
-10 19 5 -2.2670 0.0000
-10 19 6 -0.0132 0.0000
-10 20 1 0.1323 0.0000
-10 20 2 -0.5745 0.0000
-10 20 3 1.1542 0.0000
-10 20 4 -1.6258 0.0000
-10 20 5 -1.1067 0.0000
-10 21 1 2.4130 0.0000
-10 21 2 1.1196 0.0000
-10 21 3 -0.8876 0.0000
-9 0 2 3.1920 0.0000
-9 0 4 -0.5861 0.0000
-9 0 6 -3.5283 0.0000
-9 0 8 -1.3344 0.0000
-9 0 10 1.3382 0.0000
-9 0 12 -0.3357 0.0000
-9 1 1 1.0029 0.0000
-9 1 2 -1.3696 0.0000
-9 1 3 2.8654 0.0000
-9 1 4 -1.8039 0.0000
-9 1 5 -3.6009 0.0000
-9 1 6 0.3545 0.0000
-9 1 7 -1.0730 0.0000
-9 1 8 0.2664 0.0000
-9 1 9 0.8516 0.0000
-9 1 10 0.1021 0.0000
-9 1 11 1.0305 0.0000
-9 1 12 -1.0442 0.0000
-9 2 1 -1.1503 0.0000
-9 2 2 3.3688 0.0000
-9 2 3 -3.5332 0.0000
-9 2 4 -0.5663 0.0000
-9 2 5 -1.6916 0.0000
-9 2 6 -3.4910 0.0000
-9 2 7 1.0617 0.0000
-9 2 8 -0.6052 0.0000
-9 2 9 0.1012 0.0000
-9 2 10 1.1498 0.0000
-9 2 11 0.4234 0.0000
-9 2 12 -0.1109 0.0000
-9 3 1 2.4265 0.0000
-9 3 2 -3.5012 0.0000
-9 3 3 2.6650 0.0000
-9 3 4 -4.0814 0.0000
-9 3 5 -3.3506 0.0000
-9 3 6 0.5358 0.0000
-9 3 7 -0.3661 0.0000
-9 3 8 0.9125 0.0000
-9 3 9 0.5056 0.0000
-9 3 10 0.3802 0.0000
-9 3 11 1.0232 0.0000
-9 3 12 -1.5378 0.0000
-9 4 1 -1.6165 0.0000
-9 4 2 3.6704 0.0000
-9 4 3 -5.1130 0.0000
-9 4 4 0.0325 0.0000
-9 4 5 -2.3484 0.0000
-9 4 6 -3.0075 0.0000
-9 4 7 1.5026 0.0000
-9 4 8 0.3588 0.0000
-9 4 9 0.4192 0.0000
-9 4 10 0.7345 0.0000
-9 4 11 1.3337 0.0000
-9 4 12 0.1839 0.0000
-9 5 1 4.0326 0.0000
-9 5 2 -4.1329 0.0000
-9 5 3 2.2922 0.0000
-9 5 4 -4.2659 0.0000
-9 5 5 -1.7851 0.0000
-9 5 6 0.7632 0.0000
-9 5 7 -0.2821 0.0000
-9 5 8 1.4212 0.0000
-9 5 9 -0.1199 0.0000
-9 5 10 0.2878 0.0000
-9 5 11 0.3708 0.0000
-9 6 1 -0.9638 0.0000
-9 6 2 3.5600 0.0000
-9 6 3 -4.8985 0.0000
-9 6 4 0.8791 0.0000
-9 6 5 -1.5813 0.0000
-9 6 6 -2.1253 0.0000
-9 6 7 2.2476 0.0000
-9 6 8 0.4127 0.0000
-9 6 9 -0.0377 0.0000
-9 6 10 0.4405 0.0000
-9 6 11 1.4353 0.0000
-9 7 1 4.0619 0.0000
-9 7 2 -3.0745 0.0000
-9 7 3 1.4825 0.0000
-9 7 4 -3.5509 0.0000
-9 7 5 -0.4828 0.0000
-9 7 6 2.2474 0.0000
-9 7 7 -0.6682 0.0000
-9 7 8 1.2520 0.0000
-9 7 9 -0.5950 0.0000
-9 7 10 -0.6829 0.0000
-9 7 11 -0.7144 0.0000
-9 8 1 0.6366 0.0000
-9 8 2 2.5535 0.0000
-9 8 3 -3.5040 0.0000
-9 8 4 0.2641 0.0000
-9 8 5 -0.1046 0.0000
-9 8 6 -1.6408 0.0000
-9 8 7 3.3856 0.0000
-9 8 8 0.3734 0.0000
-9 8 9 -1.2980 0.0000
-9 8 10 0.4295 0.0000
-9 8 11 0.0113 0.0000
-9 9 1 2.2070 0.0000
-9 9 2 -1.0361 0.0000
-9 9 3 0.1230 0.0000
-9 9 4 -2.1997 0.0000
-9 9 5 -1.1161 0.0000
-9 9 6 3.5164 0.0000
-9 9 7 -0.2932 0.0000
-9 9 8 0.7516 0.0000
-9 9 9 -0.8664 0.0000
-9 9 10 -1.7466 0.0000
-9 9 11 -1.2418 0.0000
-9 10 1 2.2721 0.0000
-9 10 2 0.8151 0.0000
-9 10 3 -1.2217 0.0000
-9 10 4 -1.4184 0.0000
-9 10 5 0.9573 0.0000
-9 10 6 -1.2864 0.0000
-9 10 7 3.5609 0.0000
-9 10 8 0.5241 0.0000
-9 10 9 -1.7622 0.0000
-9 10 10 0.5204 0.0000
-9 10 11 -1.4279 0.0000
-9 11 1 0.3923 0.0000
-9 11 2 0.5932 0.0000
-9 11 3 -1.0952 0.0000
-9 11 4 -0.2388 0.0000
-9 11 5 -1.7338 0.0000
-9 11 6 2.8728 0.0000
-9 11 7 0.6288 0.0000
-9 11 8 0.7197 0.0000
-9 11 9 -1.2866 0.0000
-9 11 10 -1.9312 0.0000
-9 12 1 2.9775 0.0000
-9 12 2 -0.5942 0.0000
-9 12 3 0.6362 0.0000
-9 12 4 -1.9588 0.0000
-9 12 5 1.2395 0.0000
-9 12 6 -0.3009 0.0000
-9 12 7 2.6317 0.0000
-9 12 8 0.1318 0.0000
-9 12 9 -1.0340 0.0000
-9 12 10 0.5989 0.0000
-9 13 1 0.1363 0.0000
-9 13 2 1.0674 0.0000
-9 13 3 -1.3171 0.0000
-9 13 4 0.9662 0.0000
-9 13 5 -0.9264 0.0000
-9 13 6 1.5041 0.0000
-9 13 7 1.0392 0.0000
-9 13 8 0.7883 0.0000
-9 13 9 -1.4598 0.0000
-9 13 10 -1.4376 0.0000
-9 14 1 2.6704 0.0000
-9 14 2 -0.8543 0.0000
-9 14 3 0.9832 0.0000
-9 14 4 -1.4787 0.0000
-9 14 5 1.0007 0.0000
-9 14 6 0.3926 0.0000
-9 14 7 1.4485 0.0000
-9 14 8 -0.2575 0.0000
-9 14 9 -0.3841 0.0000
-9 15 1 0.3927 0.0000
-9 15 2 1.0375 0.0000
-9 15 3 -0.6956 0.0000
-9 15 4 0.7689 0.0000
-9 15 5 -0.8076 0.0000
-9 15 6 0.6523 0.0000
-9 15 7 0.8824 0.0000
-9 15 8 -0.0131 0.0000
-9 15 9 -0.8457 0.0000
-9 16 1 1.9227 0.0000
-9 16 2 -0.5256 0.0000
-9 16 3 0.7936 0.0000
-9 16 4 -1.6154 0.0000
-9 16 5 0.3862 0.0000
-9 16 6 -0.2314 0.0000
-9 16 7 -0.0171 0.0000
-9 16 8 0.1670 0.0000
-9 16 9 -0.0400 0.0000
-9 17 1 0.0157 0.0000
-9 17 2 1.1749 0.0000
-9 17 3 -0.1241 0.0000
-9 17 4 0.3207 0.0000
-9 17 5 -1.8585 0.0000
-9 17 6 -0.1827 0.0000
-9 17 7 0.5160 0.0000
-9 17 8 -1.1328 0.0000
-9 18 1 1.0318 0.0000
-9 18 2 -0.4570 0.0000
-9 18 3 1.0228 0.0000
-9 18 4 -1.7643 0.0000
-9 18 5 -0.2946 0.0000
-9 18 6 -0.7674 0.0000
-9 18 7 -1.2454 0.0000
-9 19 1 0.1588 0.0000
-9 19 2 1.1907 0.0000
-9 19 3 -0.0071 0.0000
-9 19 4 0.1052 0.0000
-9 19 5 -1.3027 0.0000
-9 19 6 -0.4466 0.0000
-9 19 7 -0.0355 0.0000
-9 20 1 0.0351 0.0000
-9 20 2 -0.3648 0.0000
-9 20 3 0.8818 0.0000
-9 20 4 -0.6948 0.0000
-9 20 5 -0.4024 0.0000
-9 20 6 0.3151 0.0000
-9 21 1 1.5411 0.0000
-9 21 2 0.9204 0.0000
-9 21 3 -0.0360 0.0000
-9 21 4 -0.5553 0.0000
-9 21 5 0.9205 0.0000
-9 22 1 -0.7670 0.0000
-9 22 2 0.1757 0.0000
-9 22 3 0.0420 0.0000
-9 22 4 0.3777 0.0000
-8 0 2 7.2640 0.0000
-8 0 4 -0.6041 0.0000
-8 0 6 -3.6923 0.0000
-8 0 8 -0.1703 0.0000
-8 0 10 1.0426 0.0000
-8 0 12 -1.0387 0.0000
-8 1 1 3.7997 0.0000
-8 1 2 -2.3210 0.0000
-8 1 3 4.9042 0.0000
-8 1 4 -2.0002 0.0000
-8 1 5 -4.8065 0.0000
-8 1 6 0.6134 0.0000
-8 1 7 -0.5017 0.0000
-8 1 8 0.3222 0.0000
-8 1 9 1.7109 0.0000
-8 1 10 0.3443 0.0000
-8 1 11 0.6088 0.0000
-8 1 12 -0.8798 0.0000
-8 2 1 -2.3375 0.0000
-8 2 2 6.9773 0.0000
-8 2 3 -4.7927 0.0000
-8 2 4 -0.9227 0.0000
-8 2 5 -1.1908 0.0000
-8 2 6 -3.9416 0.0000
-8 2 7 1.1922 0.0000
-8 2 8 0.3788 0.0000
-8 2 9 0.1774 0.0000
-8 2 10 1.0792 0.0000
-8 2 11 0.9234 0.0000
-8 2 12 -1.0512 0.0000
-8 3 1 4.8132 0.0000
-8 3 2 -5.6824 0.0000
-8 3 3 3.9260 0.0000
-8 3 4 -4.5124 0.0000
-8 3 5 -4.9859 0.0000
-8 3 6 1.0287 0.0000
-8 3 7 -0.0973 0.0000
-8 3 8 0.6831 0.0000
-8 3 9 1.3906 0.0000
-8 3 10 0.8577 0.0000
-8 3 11 0.7994 0.0000
-8 3 12 -1.4510 0.0000
-8 4 1 -3.2169 0.0000
-8 4 2 6.2248 0.0000
-8 4 3 -6.7968 0.0000
-8 4 4 -0.9278 0.0000
-8 4 5 -1.5284 0.0000
-8 4 6 -3.7616 0.0000
-8 4 7 1.1635 0.0000
-8 4 8 1.0168 0.0000
-8 4 9 0.2513 0.0000
-8 4 10 1.1243 0.0000
-8 4 11 1.7745 0.0000
-8 4 12 -0.7789 0.0000
-8 5 1 5.8063 0.0000
-8 5 2 -6.3854 0.0000
-8 5 3 2.5902 0.0000
-8 5 4 -4.5662 0.0000
-8 5 5 -3.5984 0.0000
-8 5 6 1.1213 0.0000
-8 5 7 0.0975 0.0000
-8 5 8 0.5477 0.0000
-8 5 9 0.5738 0.0000
-8 5 10 0.6038 0.0000
-8 5 11 0.7597 0.0000
-8 5 12 -0.7744 0.0000
-8 6 1 -2.3975 0.0000
-8 6 2 4.9597 0.0000
-8 6 3 -6.2056 0.0000
-8 6 4 -0.4780 0.0000
-8 6 5 -0.5749 0.0000
-8 6 6 -2.5641 0.0000
-8 6 7 1.3937 0.0000
-8 6 8 0.8860 0.0000
-8 6 9 -0.3813 0.0000
-8 6 10 1.0355 0.0000
-8 6 11 1.4969 0.0000
-8 6 12 -0.1506 0.0000
-8 7 1 5.2859 0.0000
-8 7 2 -4.8652 0.0000
-8 7 3 0.8678 0.0000
-8 7 4 -3.4755 0.0000
-8 7 5 -2.0341 0.0000
-8 7 6 2.5054 0.0000
-8 7 7 0.2980 0.0000
-8 7 8 0.2383 0.0000
-8 7 9 -0.4098 0.0000
-8 7 10 -0.6212 0.0000
-8 7 11 0.3124 0.0000
-8 7 12 -0.7838 0.0000
-8 8 1 -0.5224 0.0000
-8 8 2 2.9002 0.0000
-8 8 3 -4.1861 0.0000
-8 8 4 -1.3275 0.0000
-8 8 5 0.9174 0.0000
-8 8 6 -1.5302 0.0000
-8 8 7 2.6310 0.0000
-8 8 8 0.7106 0.0000
-8 8 9 -1.4403 0.0000
-8 8 10 0.7099 0.0000
-8 8 11 -0.0320 0.0000
-8 9 1 3.0298 0.0000
-8 9 2 -2.2616 0.0000
-8 9 3 -1.2670 0.0000
-8 9 4 -1.8474 0.0000
-8 9 5 -2.2543 0.0000
-8 9 6 3.8198 0.0000
-8 9 7 0.9311 0.0000
-8 9 8 0.1329 0.0000
-8 9 9 -1.2179 0.0000
-8 9 10 -1.8567 0.0000
-8 9 11 -0.2364 0.0000
-8 10 1 1.4671 0.0000
-8 10 2 0.4291 0.0000
-8 10 3 -1.3228 0.0000
-8 10 4 -2.9515 0.0000
-8 10 5 1.7407 0.0000
-8 10 6 -0.9435 0.0000
-8 10 7 3.2108 0.0000
-8 10 8 0.5545 0.0000
-8 10 9 -1.8018 0.0000
-8 10 10 0.3387 0.0000
-8 10 11 -1.1570 0.0000
-8 11 1 0.7204 0.0000
-8 11 2 0.0901 0.0000
-8 11 3 -2.6717 0.0000
-8 11 4 0.1801 0.0000
-8 11 5 -2.2282 0.0000
-8 11 6 3.2591 0.0000
-8 11 7 1.4473 0.0000
-8 11 8 0.2117 0.0000
-8 11 9 -1.7684 0.0000
-8 11 10 -2.2152 0.0000
-8 11 11 -0.4041 0.0000
-8 12 1 2.6039 0.0000
-8 12 2 -1.2556 0.0000
-8 12 3 0.9939 0.0000
-8 12 4 -2.8230 0.0000
-8 12 5 1.7598 0.0000
-8 12 6 0.2237 0.0000
-8 12 7 2.4942 0.0000
-8 12 8 -0.1609 0.0000
-8 12 9 -1.4378 0.0000
-8 12 10 0.3937 0.0000
-8 12 11 -0.7819 0.0000
-8 13 1 -0.3580 0.0000
-8 13 2 1.2102 0.0000
-8 13 3 -2.4089 0.0000
-8 13 4 1.3535 0.0000
-8 13 5 -0.4231 0.0000
-8 13 6 2.0302 0.0000
-8 13 7 1.3893 0.0000
-8 13 8 0.0148 0.0000
-8 13 9 -1.5877 0.0000
-8 13 10 -1.8156 0.0000
-8 14 1 2.6100 0.0000
-8 14 2 -1.5717 0.0000
-8 14 3 1.4038 0.0000
-8 14 4 -1.4164 0.0000
-8 14 5 1.4050 0.0000
-8 14 6 1.3705 0.0000
-8 14 7 1.3884 0.0000
-8 14 8 -0.6022 0.0000
-8 14 9 -1.0593 0.0000
-8 14 10 0.7809 0.0000
-8 15 1 -0.9126 0.0000
-8 15 2 1.3228 0.0000
-8 15 3 -1.2144 0.0000
-8 15 4 0.9629 0.0000
-8 15 5 0.4956 0.0000
-8 15 6 1.1890 0.0000
-8 15 7 1.0598 0.0000
-8 15 8 -0.6789 0.0000
-8 15 9 -0.5868 0.0000
-8 15 10 -0.8651 0.0000
-8 16 1 2.0261 0.0000
-8 16 2 -1.1928 0.0000
-8 16 3 0.7403 0.0000
-8 16 4 -1.0677 0.0000
-8 16 5 0.5864 0.0000
-8 16 6 0.9522 0.0000
-8 16 7 -0.0336 0.0000
-8 16 8 -0.1376 0.0000
-8 16 9 -0.3285 0.0000
-8 17 1 -1.4653 0.0000
-8 17 2 1.2079 0.0000
-8 17 3 -0.2454 0.0000
-8 17 4 0.1864 0.0000
-8 17 5 -0.6097 0.0000
-8 17 6 -0.0468 0.0000
-8 17 7 0.3438 0.0000
-8 17 8 -1.1445 0.0000
-8 17 9 0.0820 0.0000
-8 18 1 1.1849 0.0000
-8 18 2 -0.7506 0.0000
-8 18 3 0.5006 0.0000
-8 18 4 -1.2352 0.0000
-8 18 5 -0.3625 0.0000
-8 18 6 -0.1990 0.0000
-8 18 7 -1.3566 0.0000
-8 18 8 -0.0558 0.0000
-8 19 1 -0.9317 0.0000
-8 19 2 1.0517 0.0000
-8 19 3 0.2688 0.0000
-8 19 4 0.0141 0.0000
-8 19 5 -0.7924 0.0000
-8 19 6 -0.7967 0.0000
-8 19 7 -0.9395 0.0000
-8 19 8 -0.6343 0.0000
-8 20 1 -0.0628 0.0000
-8 20 2 -0.1790 0.0000
-8 20 3 0.5623 0.0000
-8 20 4 -0.3606 0.0000
-8 20 5 -0.3150 0.0000
-8 20 6 -0.0628 0.0000
-8 20 7 -0.9095 0.0000
-8 21 1 0.6982 0.0000
-8 21 2 0.7452 0.0000
-8 21 3 0.3749 0.0000
-8 21 4 0.0010 0.0000
-8 21 5 0.7550 0.0000
-8 21 6 0.6405 0.0000
-8 22 1 -1.5123 0.0000
-8 22 2 0.2951 0.0000
-8 22 3 0.3281 0.0000
-8 22 4 0.3688 0.0000
-8 22 5 0.6597 0.0000
-8 23 1 1.2717 0.0000
-8 23 2 0.2999 0.0000
-8 23 3 -0.0700 0.0000
-8 23 4 -0.1767 0.0000
-7 0 2 12.7277 0.0000
-7 0 4 -0.9691 0.0000
-7 0 6 -3.8242 0.0000
-7 0 8 1.1793 0.0000
-7 0 10 0.3543 0.0000
-7 0 12 -1.2397 0.0000
-7 1 1 8.5960 0.0000
-7 1 2 -3.3109 0.0000
-7 1 3 7.0821 0.0000
-7 1 4 -1.8542 0.0000
-7 1 5 -6.2294 0.0000
-7 1 6 1.0233 0.0000
-7 1 7 0.2485 0.0000
-7 1 8 0.3854 0.0000
-7 1 9 2.3483 0.0000
-7 1 10 0.4450 0.0000
-7 1 11 -0.3065 0.0000
-7 1 12 -0.8964 0.0000
-7 2 1 -4.3011 0.0000
-7 2 2 11.5911 0.0000
-7 2 3 -5.5832 0.0000
-7 2 4 -1.7768 0.0000
-7 2 5 -0.3768 0.0000
-7 2 6 -4.2578 0.0000
-7 2 7 1.5407 0.0000
-7 2 8 1.7176 0.0000
-7 2 9 0.1742 0.0000
-7 2 10 0.5574 0.0000
-7 2 11 0.9103 0.0000
-7 2 12 -1.5135 0.0000
-7 3 1 8.5270 0.0000
-7 3 2 -7.9611 0.0000
-7 3 3 4.8654 0.0000
-7 3 4 -4.3214 0.0000
-7 3 5 -6.8820 0.0000
-7 3 6 1.7680 0.0000
-7 3 7 0.4870 0.0000
-7 3 8 0.6596 0.0000
-7 3 9 2.2796 0.0000
-7 3 10 0.9343 0.0000
-7 3 11 -0.1715 0.0000
-7 3 12 -1.8510 0.0000
-7 4 1 -5.8120 0.0000
-7 4 2 9.0641 0.0000
-7 4 3 -7.9218 0.0000
-7 4 4 -2.6647 0.0000
-7 4 5 -0.6240 0.0000
-7 4 6 -4.3804 0.0000
-7 4 7 1.2951 0.0000
-7 4 8 2.1940 0.0000
-7 4 9 0.1027 0.0000
-7 4 10 1.0005 0.0000
-7 4 11 1.3259 0.0000
-7 4 12 -1.5162 0.0000
-7 5 1 8.1609 0.0000
-7 5 2 -8.6242 0.0000
-7 5 3 2.2488 0.0000
-7 5 4 -4.4544 0.0000
-7 5 5 -5.8358 0.0000
-7 5 6 1.5316 0.0000
-7 5 7 0.5609 0.0000
-7 5 8 0.2481 0.0000
-7 5 9 1.5103 0.0000
-7 5 10 0.3911 0.0000
-7 5 11 0.1487 0.0000
-7 5 12 -1.6588 0.0000
-7 6 1 -4.4599 0.0000
-7 6 2 6.2277 0.0000
-7 6 3 -6.9477 0.0000
-7 6 4 -2.6103 0.0000
-7 6 5 0.1588 0.0000
-7 6 6 -3.1317 0.0000
-7 6 7 1.1326 0.0000
-7 6 8 1.6946 0.0000
-7 6 9 -0.5814 0.0000
-7 6 10 1.2911 0.0000
-7 6 11 0.7988 0.0000
-7 6 12 -0.5385 0.0000
-7 7 1 6.5572 0.0000
-7 7 2 -6.3216 0.0000
-7 7 3 -0.1890 0.0000
-7 7 4 -3.0884 0.0000
-7 7 5 -3.9995 0.0000
-7 7 6 2.6360 0.0000
-7 7 7 0.8637 0.0000
-7 7 8 -0.1074 0.0000
-7 7 9 0.2298 0.0000
-7 7 10 -0.9271 0.0000
-7 7 11 0.4347 0.0000
-7 7 12 -1.2291 0.0000
-7 8 1 -1.8337 0.0000
-7 8 2 3.0109 0.0000
-7 8 3 -4.2465 0.0000
-7 8 4 -3.2283 0.0000
-7 8 5 1.6886 0.0000
-7 8 6 -1.6467 0.0000
-7 8 7 2.2775 0.0000
-7 8 8 1.1316 0.0000
-7 8 9 -1.4417 0.0000
-7 8 10 1.1070 0.0000
-7 8 11 -0.1902 0.0000
-7 8 12 0.1311 0.0000
-7 9 1 3.4309 0.0000
-7 9 2 -2.9984 0.0000
-7 9 3 -2.6737 0.0000
-7 9 4 -1.1975 0.0000
-7 9 5 -3.4633 0.0000
-7 9 6 3.9470 0.0000
-7 9 7 1.5277 0.0000
-7 9 8 -0.1482 0.0000
-7 9 9 -0.8975 0.0000
-7 9 10 -1.9190 0.0000
-7 9 11 0.3194 0.0000
-7 9 12 -0.3748 0.0000
-7 10 1 0.7290 0.0000
-7 10 2 -0.2609 0.0000
-7 10 3 -1.1091 0.0000
-7 10 4 -4.2389 0.0000
-7 10 5 2.4301 0.0000
-7 10 6 -0.7240 0.0000
-7 10 7 2.8203 0.0000
-7 10 8 0.6085 0.0000
-7 10 9 -1.7288 0.0000
-7 10 10 0.6316 0.0000
-7 10 11 -0.5564 0.0000
-7 11 1 0.3170 0.0000
-7 11 2 -0.1845 0.0000
-7 11 3 -4.0118 0.0000
-7 11 4 0.5645 0.0000
-7 11 5 -2.5759 0.0000
-7 11 6 3.4142 0.0000
-7 11 7 1.5711 0.0000
-7 11 8 -0.3740 0.0000
-7 11 9 -1.5504 0.0000
-7 11 10 -2.1221 0.0000
-7 11 11 -0.0938 0.0000
-7 12 1 2.3253 0.0000
-7 12 2 -2.1940 0.0000
-7 12 3 1.0295 0.0000
-7 12 4 -3.2083 0.0000
-7 12 5 2.1873 0.0000
-7 12 6 0.4404 0.0000
-7 12 7 1.9567 0.0000
-7 12 8 -0.4691 0.0000
-7 12 9 -1.7043 0.0000
-7 12 10 0.4948 0.0000
-7 12 11 0.0035 0.0000
-7 13 1 -1.4131 0.0000
-7 13 2 1.2124 0.0000
-7 13 3 -3.1811 0.0000
-7 13 4 1.3343 0.0000
-7 13 5 0.0621 0.0000
-7 13 6 2.3397 0.0000
-7 13 7 0.8761 0.0000
-7 13 8 -0.9522 0.0000
-7 13 9 -1.2848 0.0000
-7 13 10 -1.8368 0.0000
-7 13 11 -0.2585 0.0000
-7 14 1 2.6079 0.0000
-7 14 2 -2.3268 0.0000
-7 14 3 1.1777 0.0000
-7 14 4 -0.8723 0.0000
-7 14 5 1.7741 0.0000
-7 14 6 1.6864 0.0000
-7 14 7 1.0520 0.0000
-7 14 8 -0.9781 0.0000
-7 14 9 -1.5937 0.0000
-7 14 10 0.7329 0.0000
-7 15 1 -2.2349 0.0000
-7 15 2 1.3028 0.0000
-7 15 3 -1.4179 0.0000
-7 15 4 0.7927 0.0000
-7 15 5 1.6271 0.0000
-7 15 6 1.8083 0.0000
-7 15 7 0.4570 0.0000
-7 15 8 -1.2322 0.0000
-7 15 9 -0.1388 0.0000
-7 15 10 -0.9192 0.0000
-7 16 1 2.0659 0.0000
-7 16 2 -1.7026 0.0000
-7 16 3 0.1937 0.0000
-7 16 4 -0.1554 0.0000
-7 16 5 0.8967 0.0000
-7 16 6 1.5336 0.0000
-7 16 7 0.3363 0.0000
-7 16 8 -0.1915 0.0000
-7 16 9 -0.5264 0.0000
-7 16 10 0.4615 0.0000
-7 17 1 -2.5493 0.0000
-7 17 2 0.9224 0.0000
-7 17 3 -0.3166 0.0000
-7 17 4 -0.1761 0.0000
-7 17 5 0.4392 0.0000
-7 17 6 0.5280 0.0000
-7 17 7 -0.0289 0.0000
-7 17 8 -0.5454 0.0000
-7 17 9 0.5369 0.0000
-7 18 1 1.2176 0.0000
-7 18 2 -0.9824 0.0000
-7 18 3 -0.3392 0.0000
-7 18 4 -0.8051 0.0000
-7 18 5 -0.5360 0.0000
-7 18 6 0.1000 0.0000
-7 18 7 -0.4620 0.0000
-7 18 8 0.0778 0.0000
-7 18 9 1.3364 0.0000
-7 19 1 -1.5416 0.0000
-7 19 2 0.7010 0.0000
-7 19 3 0.0865 0.0000
-7 19 4 -0.5537 0.0000
-7 19 5 -0.7598 0.0000
-7 19 6 -0.8643 0.0000
-7 19 7 -1.5299 0.0000
-7 19 8 0.6782 0.0000
-7 20 1 -0.0337 0.0000
-7 20 2 -0.0838 0.0000
-7 20 3 -0.0352 0.0000
-7 20 4 -0.7935 0.0000
-7 20 5 -1.0055 0.0000
-7 20 6 -0.6756 0.0000
-7 20 7 -0.2614 0.0000
-7 20 8 -0.8992 0.0000
-7 21 1 0.3297 0.0000
-7 21 2 0.6687 0.0000
-7 21 3 0.0744 0.0000
-7 21 4 -0.2623 0.0000
-7 21 5 -0.2539 0.0000
-7 21 6 -0.1420 0.0000
-7 21 7 -2.6930 0.0000
-7 22 1 -1.7581 0.0000
-7 22 2 0.4176 0.0000
-7 22 3 0.5089 0.0000
-7 22 4 -0.5593 0.0000
-7 22 5 -0.0004 0.0000
-7 22 6 0.0116 0.0000
-7 23 1 0.7893 0.0000
-7 23 2 0.3091 0.0000
-7 23 3 -0.6170 0.0000
-7 23 4 0.2171 0.0000
-7 23 5 0.1433 0.0000
-7 24 1 -3.3161 0.0000
-7 24 2 -0.2497 0.0000
-7 24 3 0.7104 0.0000
-7 24 4 -1.2669 0.0000
-6 0 2 19.4897 0.0000
-6 0 4 -1.9665 0.0000
-6 0 6 -3.6768 0.0000
-6 0 8 1.9818 0.0000
-6 0 10 -0.1496 0.0000
-6 0 12 -0.9343 0.0000
-6 1 1 16.6041 0.0000
-6 1 2 -4.1028 0.0000
-6 1 3 8.8130 0.0000
-6 1 4 -1.3883 0.0000
-6 1 5 -7.4775 0.0000
-6 1 6 1.4854 0.0000
-6 1 7 0.9322 0.0000
-6 1 8 0.4002 0.0000
-6 1 9 2.3506 0.0000
-6 1 10 0.3771 0.0000
-6 1 11 -0.7419 0.0000
-6 1 12 -0.9047 0.0000
-6 2 1 -6.6439 0.0000
-6 2 2 17.0909 0.0000
-6 2 3 -5.7314 0.0000
-6 2 4 -3.1660 0.0000
-6 2 5 0.6774 0.0000
-6 2 6 -4.1371 0.0000
-6 2 7 1.9741 0.0000
-6 2 8 2.6090 0.0000
-6 2 9 0.0393 0.0000
-6 2 10 -0.0359 0.0000
-6 2 11 0.5317 0.0000
-6 2 12 -1.2275 0.0000
-6 3 1 14.3471 0.0000
-6 3 2 -9.9072 0.0000
-6 3 3 5.1566 0.0000
-6 3 4 -3.5333 0.0000
-6 3 5 -8.4071 0.0000
-6 3 6 2.7942 0.0000
-6 3 7 1.1685 0.0000
-6 3 8 0.7280 0.0000
-6 3 9 2.4295 0.0000
-6 3 10 0.5628 0.0000
-6 3 11 -0.8992 0.0000
-6 3 12 -2.1547 0.0000
-6 3 13 -0.7532 0.0000
-6 4 1 -8.9829 0.0000
-6 4 2 11.8797 0.0000
-6 4 3 -8.4268 0.0000
-6 4 4 -4.8803 0.0000
-6 4 5 0.5609 0.0000
-6 4 6 -4.5269 0.0000
-6 4 7 1.9659 0.0000
-6 4 8 3.0903 0.0000
-6 4 9 -0.1906 0.0000
-6 4 10 0.3112 0.0000
-6 4 11 0.3567 0.0000
-6 4 12 -1.3539 0.0000
-6 4 13 -0.2637 0.0000
-6 5 1 11.1853 0.0000
-6 5 2 -10.6659 0.0000
-6 5 3 1.0205 0.0000
-6 5 4 -3.9922 0.0000
-6 5 5 -7.8347 0.0000
-6 5 6 2.5159 0.0000
-6 5 7 0.9852 0.0000
-6 5 8 0.3321 0.0000
-6 5 9 1.7730 0.0000
-6 5 10 -0.3778 0.0000
-6 5 11 -0.7261 0.0000
-6 5 12 -2.2122 0.0000
-6 6 1 -6.8481 0.0000
-6 6 2 6.7903 0.0000
-6 6 3 -7.4121 0.0000
-6 6 4 -5.2466 0.0000
-6 6 5 1.0664 0.0000
-6 6 6 -3.6343 0.0000
-6 6 7 1.7177 0.0000
-6 6 8 2.3584 0.0000
-6 6 9 -0.9761 0.0000
-6 6 10 0.7704 0.0000
-6 6 11 -0.1888 0.0000
-6 6 12 -0.6203 0.0000
-6 7 1 7.5027 0.0000
-6 7 2 -7.5372 0.0000
-6 7 3 -1.9683 0.0000
-6 7 4 -2.6004 0.0000
-6 7 5 -5.9806 0.0000
-6 7 6 3.3246 0.0000
-6 7 7 1.0537 0.0000
-6 7 8 -0.1429 0.0000
-6 7 9 0.6431 0.0000
-6 7 10 -1.6023 0.0000
-6 7 11 -0.2076 0.0000
-6 7 12 -1.1237 0.0000
-6 8 1 -2.9188 0.0000
-6 8 2 2.4235 0.0000
-6 8 3 -4.1709 0.0000
-6 8 4 -5.2906 0.0000
-6 8 5 2.5739 0.0000
-6 8 6 -1.9950 0.0000
-6 8 7 2.4753 0.0000
-6 8 8 1.6818 0.0000
-6 8 9 -1.6656 0.0000
-6 8 10 1.0138 0.0000
-6 8 11 -0.1775 0.0000
-6 8 12 -0.1222 0.0000
-6 9 1 3.1777 0.0000
-6 9 2 -3.3427 0.0000
-6 9 3 -4.1159 0.0000
-6 9 4 -0.4687 0.0000
-6 9 5 -4.5660 0.0000
-6 9 6 4.3057 0.0000
-6 9 7 1.7297 0.0000
-6 9 8 -0.4019 0.0000
-6 9 9 -0.1423 0.0000
-6 9 10 -1.8703 0.0000
-6 9 11 0.0480 0.0000
-6 9 12 0.5778 0.0000
-6 10 1 0.5236 0.0000
-6 10 2 -1.1743 0.0000
-6 10 3 -0.8727 0.0000
-6 10 4 -5.0746 0.0000
-6 10 5 3.2117 0.0000
-6 10 6 -0.6765 0.0000
-6 10 7 2.4529 0.0000
-6 10 8 1.2186 0.0000
-6 10 9 -1.5673 0.0000
-6 10 10 0.8882 0.0000
-6 10 11 0.3453 0.0000
-6 10 12 -1.2641 0.0000
-6 11 1 -0.5408 0.0000
-6 11 2 -0.2202 0.0000
-6 11 3 -4.7449 0.0000
-6 11 4 0.9596 0.0000
-6 11 5 -2.7314 0.0000
-6 11 6 3.3825 0.0000
-6 11 7 1.5138 0.0000
-6 11 8 -0.9235 0.0000
-6 11 9 -0.5310 0.0000
-6 11 10 -1.4855 0.0000
-6 11 11 -0.2629 0.0000
-6 11 12 1.7539 0.0000
-6 12 1 2.4354 0.0000
-6 12 2 -2.8930 0.0000
-6 12 3 0.8151 0.0000
-6 12 4 -2.9553 0.0000
-6 12 5 2.5466 0.0000
-6 12 6 0.3299 0.0000
-6 12 7 1.0744 0.0000
-6 12 8 -0.0187 0.0000
-6 12 9 -1.4118 0.0000
-6 12 10 0.6547 0.0000
-6 12 11 0.5440 0.0000
-6 13 1 -2.3997 0.0000
-6 13 2 1.1081 0.0000
-6 13 3 -3.1871 0.0000
-6 13 4 1.1824 0.0000
-6 13 5 0.2842 0.0000
-6 13 6 2.0532 0.0000
-6 13 7 0.1779 0.0000
-6 13 8 -1.7580 0.0000
-6 13 9 -0.4532 0.0000
-6 13 10 -1.3345 0.0000
-6 13 11 -0.7110 0.0000
-6 14 1 2.6834 0.0000
-6 14 2 -2.5616 0.0000
-6 14 3 0.6309 0.0000
-6 14 4 0.0234 0.0000
-6 14 5 1.8722 0.0000
-6 14 6 1.2343 0.0000
-6 14 7 0.1418 0.0000
-6 14 8 -0.8123 0.0000
-6 14 9 -1.5471 0.0000
-6 14 10 0.4110 0.0000
-6 14 11 0.6344 0.0000
-6 15 1 -2.9687 0.0000
-6 15 2 1.0384 0.0000
-6 15 3 -0.9753 0.0000
-6 15 4 0.5875 0.0000
-6 15 5 2.0633 0.0000
-6 15 6 1.6820 0.0000
-6 15 7 -0.3868 0.0000
-6 15 8 -1.8023 0.0000
-6 15 9 0.2357 0.0000
-6 15 10 -0.7810 0.0000
-6 16 1 1.9219 0.0000
-6 16 2 -1.6249 0.0000
-6 16 3 -0.3710 0.0000
-6 16 4 0.9218 0.0000
-6 16 5 1.0199 0.0000
-6 16 6 1.3866 0.0000
-6 16 7 0.1667 0.0000
-6 16 8 0.0463 0.0000
-6 16 9 -0.6145 0.0000
-6 16 10 -0.1576 0.0000
-6 17 1 -2.9149 0.0000
-6 17 2 0.4268 0.0000
-6 17 3 0.0378 0.0000
-6 17 4 -0.3095 0.0000
-6 17 5 1.0270 0.0000
-6 17 6 0.7563 0.0000
-6 17 7 -0.2773 0.0000
-6 17 8 -0.2407 0.0000
-6 17 9 0.6483 0.0000
-6 17 10 0.6504 0.0000
-6 18 1 0.9385 0.0000
-6 18 2 -0.8926 0.0000
-6 18 3 -1.0190 0.0000
-6 18 4 -0.2433 0.0000
-6 18 5 -0.6299 0.0000
-6 18 6 0.3752 0.0000
-6 18 7 0.3287 0.0000
-6 18 8 0.5734 0.0000
-6 18 9 1.3817 0.0000
-6 19 1 -1.6945 0.0000
-6 19 2 0.1242 0.0000
-6 19 3 -0.0785 0.0000
-6 19 4 -1.0111 0.0000
-6 19 5 -0.6945 0.0000
-6 19 6 -0.6999 0.0000
-6 19 7 -1.4394 0.0000
-6 19 8 1.7058 0.0000
-6 19 9 0.1440 0.0000
-6 20 1 -0.0780 0.0000
-6 20 2 -0.0874 0.0000
-6 20 3 -0.7907 0.0000
-6 20 4 -1.2626 0.0000
-6 20 5 -1.7148 0.0000
-6 20 6 -0.7534 0.0000
-6 20 7 0.7049 0.0000
-6 20 8 -0.5504 0.0000
-6 21 1 0.2313 0.0000
-6 21 2 0.4624 0.0000
-6 21 3 -0.5216 0.0000
-6 21 4 -1.0477 0.0000
-6 21 5 -1.0738 0.0000
-6 21 6 -0.6458 0.0000
-6 21 7 -2.9987 0.0000
-6 22 1 -1.3820 0.0000
-6 22 2 0.3865 0.0000
-6 22 3 0.1405 0.0000
-6 22 4 -1.5750 0.0000
-6 22 5 -1.2120 0.0000
-6 22 6 -0.6282 0.0000
-6 22 7 1.1016 0.0000
-6 23 1 0.7283 0.0000
-6 23 2 0.6600 0.0000
-6 23 3 -1.1764 0.0000
-6 23 4 -0.4183 0.0000
-6 23 5 -0.7165 0.0000
-6 23 6 0.2115 0.0000
-6 24 1 -2.8719 0.0000
-6 24 2 -0.3319 0.0000
-6 24 3 0.9494 0.0000
-6 24 4 -1.8025 0.0000
-6 24 5 -0.4489 0.0000
-6 25 1 -0.7693 0.0000
-6 25 2 -0.2216 0.0000
-6 25 3 -1.9777 0.0000
-5 0 2 26.9133 0.0000
-5 0 4 -3.7758 0.0000
-5 0 6 -3.3042 0.0000
-5 0 8 1.8793 0.0000
-5 0 10 -0.0369 0.0000
-5 0 12 -0.9374 0.0000
-5 1 1 28.3068 0.0000
-5 1 2 -4.4825 0.0000
-5 1 3 9.5269 0.0000
-5 1 4 -0.5628 0.0000
-5 1 5 -8.3949 0.0000
-5 1 6 1.8618 0.0000
-5 1 7 1.2576 0.0000
-5 1 8 0.3138 0.0000
-5 1 9 1.8710 0.0000
-5 1 10 0.2198 0.0000
-5 1 11 -0.5754 0.0000
-5 1 12 -0.7531 0.0000
-5 1 13 -0.3862 0.0000
-5 2 1 -8.7497 0.0000
-5 2 2 22.9455 0.0000
-5 2 3 -5.0161 0.0000
-5 2 4 -5.1343 0.0000
-5 2 5 1.9875 0.0000
-5 2 6 -3.6268 0.0000
-5 2 7 2.1979 0.0000
-5 2 8 2.6102 0.0000
-5 2 9 -0.1801 0.0000
-5 2 10 -0.1865 0.0000
-5 2 11 0.1323 0.0000
-5 2 12 -0.8152 0.0000
-5 2 13 0.3030 0.0000
-5 3 1 22.5851 0.0000
-5 3 2 -11.0173 0.0000
-5 3 3 4.4988 0.0000
-5 3 4 -1.8324 0.0000
-5 3 5 -9.2915 0.0000
-5 3 6 3.8909 0.0000
-5 3 7 1.6783 0.0000
-5 3 8 0.6458 0.0000
-5 3 9 1.8512 0.0000
-5 3 10 0.0466 0.0000
-5 3 11 -0.8433 0.0000
-5 3 12 -1.8996 0.0000
-5 3 13 -0.7179 0.0000
-5 4 1 -11.9862 0.0000
-5 4 2 14.2051 0.0000
-5 4 3 -7.8736 0.0000
-5 4 4 -7.3832 0.0000
-5 4 5 2.3948 0.0000
-5 4 6 -4.0872 0.0000
-5 4 7 2.6193 0.0000
-5 4 8 3.2359 0.0000
-5 4 9 -0.5786 0.0000
-5 4 10 -0.3159 0.0000
-5 4 11 -0.4235 0.0000
-5 4 12 -0.4491 0.0000
-5 4 13 0.4135 0.0000
-5 5 1 14.7565 0.0000
-5 5 2 -12.1085 0.0000
-5 5 3 -1.2785 0.0000
-5 5 4 -2.5459 0.0000
-5 5 5 -9.1276 0.0000
-5 5 6 3.9392 0.0000
-5 5 7 1.4004 0.0000
-5 5 8 0.2550 0.0000
-5 5 9 1.2264 0.0000
-5 5 10 -1.1426 0.0000
-5 5 11 -0.9551 0.0000
-5 5 12 -1.8866 0.0000
-5 5 13 -0.5304 0.0000
-5 6 1 -9.1793 0.0000
-5 6 2 6.0192 0.0000
-5 6 3 -7.2804 0.0000
-5 6 4 -8.1375 0.0000
-5 6 5 2.7019 0.0000
-5 6 6 -3.6389 0.0000
-5 6 7 2.3305 0.0000
-5 6 8 2.5977 0.0000
-5 6 9 -1.5340 0.0000
-5 6 10 -0.0492 0.0000
-5 6 11 -0.7048 0.0000
-5 6 12 -0.0989 0.0000
-5 6 13 0.5286 0.0000
-5 7 1 7.6493 0.0000
-5 7 2 -8.5697 0.0000
-5 7 3 -4.7719 0.0000
-5 7 4 -1.5434 0.0000
-5 7 5 -7.4246 0.0000
-5 7 6 4.3024 0.0000
-5 7 7 1.2907 0.0000
-5 7 8 -0.6047 0.0000
-5 7 9 0.4847 0.0000
-5 7 10 -2.0632 0.0000
-5 7 11 -0.8076 0.0000
-5 7 12 -0.3467 0.0000
-5 8 1 -3.8298 0.0000
-5 8 2 0.4883 0.0000
-5 8 3 -4.0619 0.0000
-5 8 4 -7.3983 0.0000
-5 8 5 3.7827 0.0000
-5 8 6 -1.9843 0.0000
-5 8 7 2.3211 0.0000
-5 8 8 2.2178 0.0000
-5 8 9 -2.0977 0.0000
-5 8 10 0.4095 0.0000
-5 8 11 0.3060 0.0000
-5 8 12 -0.3575 0.0000
-5 9 1 1.9865 0.0000
-5 9 2 -3.7237 0.0000
-5 9 3 -5.9068 0.0000
-5 9 4 0.3865 0.0000
-5 9 5 -5.1333 0.0000
-5 9 6 4.4335 0.0000
-5 9 7 2.1198 0.0000
-5 9 8 -1.1780 0.0000
-5 9 9 0.3911 0.0000
-5 9 10 -1.4590 0.0000
-5 9 11 -0.6696 0.0000
-5 9 12 1.4825 0.0000
-5 10 1 0.5995 0.0000
-5 10 2 -2.5929 0.0000
-5 10 3 -0.8653 0.0000
-5 10 4 -5.4731 0.0000
-5 10 5 3.9292 0.0000
-5 10 6 -0.2321 0.0000
-5 10 7 1.6001 0.0000
-5 10 8 2.2333 0.0000
-5 10 9 -1.3153 0.0000
-5 10 10 0.6586 0.0000
-5 10 11 1.3342 0.0000
-5 10 12 -1.5629 0.0000
-5 11 1 -1.6291 0.0000
-5 11 2 -0.4112 0.0000
-5 11 3 -5.0019 0.0000
-5 11 4 1.3383 0.0000
-5 11 5 -2.4188 0.0000
-5 11 6 2.8632 0.0000
-5 11 7 1.9507 0.0000
-5 11 8 -1.4679 0.0000
-5 11 9 0.5129 0.0000
-5 11 10 -0.4586 0.0000
-5 11 11 -0.7125 0.0000
-5 11 12 1.4057 0.0000
-5 12 1 2.6801 0.0000
-5 12 2 -3.2401 0.0000
-5 12 3 0.3757 0.0000
-5 12 4 -2.1753 0.0000
-5 12 5 2.6690 0.0000
-5 12 6 0.5358 0.0000
-5 12 7 0.0070 0.0000
-5 12 8 1.1149 0.0000
-5 12 9 -0.5496 0.0000
-5 12 10 0.5433 0.0000
-5 12 11 0.6112 0.0000
-5 12 12 -3.2541 0.0000
-5 13 1 -2.8678 0.0000
-5 13 2 0.7470 0.0000
-5 13 3 -2.4614 0.0000
-5 13 4 1.0246 0.0000
-5 13 5 0.4062 0.0000
-5 13 6 1.1509 0.0000
-5 13 7 0.1203 0.0000
-5 13 8 -2.0479 0.0000
-5 13 9 0.3605 0.0000
-5 13 10 -0.6149 0.0000
-5 13 11 -0.8612 0.0000
-5 14 1 2.6419 0.0000
-5 14 2 -2.0786 0.0000
-5 14 3 0.0438 0.0000
-5 14 4 0.9915 0.0000
-5 14 5 1.5415 0.0000
-5 14 6 0.6908 0.0000
-5 14 7 -0.9798 0.0000
-5 14 8 -0.1355 0.0000
-5 14 9 -0.9105 0.0000
-5 14 10 -0.0025 0.0000
-5 14 11 -0.6261 0.0000
-5 15 1 -2.8220 0.0000
-5 15 2 0.5640 0.0000
-5 15 3 0.0472 0.0000
-5 15 4 0.4841 0.0000
-5 15 5 1.7806 0.0000
-5 15 6 0.6682 0.0000
-5 15 7 -0.8381 0.0000
-5 15 8 -2.2184 0.0000
-5 15 9 0.2260 0.0000
-5 15 10 -0.6920 0.0000
-5 15 11 -0.7070 0.0000
-5 16 1 1.4788 0.0000
-5 16 2 -0.8038 0.0000
-5 16 3 -0.5872 0.0000
-5 16 4 1.8215 0.0000
-5 16 5 0.7242 0.0000
-5 16 6 0.8749 0.0000
-5 16 7 -0.7474 0.0000
-5 16 8 0.2318 0.0000
-5 16 9 -0.6234 0.0000
-5 16 10 -0.7919 0.0000
-5 17 1 -2.5058 0.0000
-5 17 2 -0.1236 0.0000
-5 17 3 0.9007 0.0000
-5 17 4 0.0341 0.0000
-5 17 5 1.0559 0.0000
-5 17 6 0.1736 0.0000
-5 17 7 -0.4090 0.0000
-5 17 8 -0.6339 0.0000
-5 17 9 0.0685 0.0000
-5 17 10 0.8127 0.0000
-5 18 1 0.2450 0.0000
-5 18 2 -0.2957 0.0000
-5 18 3 -1.0288 0.0000
-5 18 4 0.4994 0.0000
-5 18 5 -0.5754 0.0000
-5 18 6 0.6325 0.0000
-5 18 7 0.1411 0.0000
-5 18 8 0.6693 0.0000
-5 18 9 1.1890 0.0000
-5 19 1 -1.5778 0.0000
-5 19 2 -0.5338 0.0000
-5 19 3 0.2431 0.0000
-5 19 4 -0.6417 0.0000
-5 19 5 -0.3347 0.0000
-5 19 6 -0.6207 0.0000
-5 19 7 -1.1231 0.0000
-5 19 8 1.7406 0.0000
-5 19 9 -0.3440 0.0000
-5 20 1 -0.4462 0.0000
-5 20 2 -0.0620 0.0000
-5 20 3 -1.1396 0.0000
-5 20 4 -1.0424 0.0000
-5 20 5 -1.6469 0.0000
-5 20 6 -0.2298 0.0000
-5 20 7 1.1426 0.0000
-5 20 8 -0.4433 0.0000
-5 21 1 -0.1042 0.0000
-5 21 2 -0.0362 0.0000
-5 21 3 -0.7056 0.0000
-5 21 4 -1.2920 0.0000
-5 21 5 -0.9553 0.0000
-5 21 6 -0.5208 0.0000
-5 21 7 -2.8672 0.0000
-5 21 8 2.2430 0.0000
-5 22 1 -0.7772 0.0000
-5 22 2 0.1213 0.0000
-5 22 3 -0.5914 0.0000
-5 22 4 -1.6950 0.0000
-5 22 5 -1.6906 0.0000
-5 22 6 -0.5522 0.0000
-5 22 7 1.4299 0.0000
-5 23 1 0.4362 0.0000
-5 23 2 0.7927 0.0000
-5 23 3 -1.1870 0.0000
-5 23 4 -1.2950 0.0000
-5 23 5 -0.7273 0.0000
-5 23 6 -0.2205 0.0000
-5 24 1 -1.3617 0.0000
-5 24 2 -0.2832 0.0000
-5 24 3 0.3677 0.0000
-5 24 4 -1.4675 0.0000
-5 24 5 -1.3993 0.0000
-5 25 1 -0.6379 0.0000
-5 25 2 0.6559 0.0000
-5 25 3 -1.2873 0.0000
-5 25 4 -0.5567 0.0000
-5 26 1 -2.0648 0.0000
-5 26 2 -1.1671 0.0000
-4 0 2 33.4260 0.0000
-4 0 4 -6.6274 0.0000
-4 0 6 -2.9593 0.0000
-4 0 8 1.3342 0.0000
-4 0 10 0.3700 0.0000
-4 0 12 -1.6650 0.0000
-4 1 2 -4.1795 0.0000
-4 1 3 8.5586 0.0000
-4 1 4 0.6215 0.0000
-4 1 5 -9.2170 0.0000
-4 1 6 1.9775 0.0000
-4 1 7 1.3212 0.0000
-4 1 8 0.0857 0.0000
-4 1 9 1.4163 0.0000
-4 1 10 0.0182 0.0000
-4 1 11 -0.5472 0.0000
-4 1 12 -0.4747 0.0000
-4 1 13 -1.9322 0.0000
-4 2 1 -9.7769 0.0000
-4 2 2 27.8869 0.0000
-4 2 3 -3.1426 0.0000
-4 2 4 -7.8516 0.0000
-4 2 5 3.3641 0.0000
-4 2 6 -2.9909 0.0000
-4 2 7 1.9335 0.0000
-4 2 8 2.1229 0.0000
-4 2 9 -0.4895 0.0000
-4 2 10 0.0050 0.0000
-4 2 11 -0.1021 0.0000
-4 2 12 -0.8531 0.0000
-4 2 13 0.8347 0.0000
-4 3 1 32.2905 0.0000
-4 3 2 -10.5040 0.0000
-4 3 3 2.5854 0.0000
-4 3 4 0.9773 0.0000
-4 3 5 -9.6903 0.0000
-4 3 6 4.5359 0.0000
-4 3 7 2.0872 0.0000
-4 3 8 0.2378 0.0000
-4 3 9 1.1546 0.0000
-4 3 10 -0.3915 0.0000
-4 3 11 -0.4620 0.0000
-4 3 12 -1.1846 0.0000
-4 3 13 -1.4115 0.0000
-4 4 1 -13.6282 0.0000
-4 4 2 15.4163 0.0000
-4 4 3 -5.5311 0.0000
-4 4 4 -10.0632 0.0000
-4 4 5 4.6814 0.0000
-4 4 6 -3.1164 0.0000
-4 4 7 2.5924 0.0000
-4 4 8 2.9631 0.0000
-4 4 9 -0.9406 0.0000
-4 4 10 -0.4987 0.0000
-4 4 11 -0.6781 0.0000
-4 4 12 0.5074 0.0000
-4 4 13 1.2877 0.0000
-4 5 1 18.3509 0.0000
-4 5 2 -11.9756 0.0000
-4 5 3 -4.4748 0.0000
-4 5 4 0.3733 0.0000
-4 5 5 -9.4697 0.0000
-4 5 6 4.9836 0.0000
-4 5 7 2.0673 0.0000
-4 5 8 -0.2323 0.0000
-4 5 9 0.5272 0.0000
-4 5 10 -1.4299 0.0000
-4 5 11 -0.4783 0.0000
-4 5 12 -0.9250 0.0000
-4 5 13 -1.0193 0.0000
-4 6 1 -10.6699 0.0000
-4 6 2 3.7738 0.0000
-4 6 3 -5.7170 0.0000
-4 6 4 -10.7970 0.0000
-4 6 5 4.8209 0.0000
-4 6 6 -2.7456 0.0000
-4 6 7 2.0976 0.0000
-4 6 8 2.6541 0.0000
-4 6 9 -1.8700 0.0000
-4 6 10 -0.4644 0.0000
-4 6 11 -0.5253 0.0000
-4 6 12 0.7013 0.0000
-4 7 1 6.7119 0.0000
-4 7 2 -8.8814 0.0000
-4 7 3 -8.2273 0.0000
-4 7 4 0.4417 0.0000
-4 7 5 -7.7218 0.0000
-4 7 6 4.6275 0.0000
-4 7 7 1.9766 0.0000
-4 7 8 -1.5723 0.0000
-4 7 9 0.1228 0.0000
-4 7 10 -1.8381 0.0000
-4 7 11 -0.8254 0.0000
-4 7 12 0.6126 0.0000
-4 7 13 -1.0643 0.0000
-4 8 1 -4.6225 0.0000
-4 8 2 -2.8205 0.0000
-4 8 3 -3.5307 0.0000
-4 8 4 -9.0646 0.0000
-4 8 5 4.8412 0.0000
-4 8 6 -1.0808 0.0000
-4 8 7 1.1538 0.0000
-4 8 8 2.5905 0.0000
-4 8 9 -2.2886 0.0000
-4 8 10 -0.1339 0.0000
-4 8 11 1.0720 0.0000
-4 8 12 -0.3522 0.0000
-4 9 1 -0.2663 0.0000
-4 9 2 -4.2583 0.0000
-4 9 3 -7.9000 0.0000
-4 9 4 1.2910 0.0000
-4 9 5 -4.6958 0.0000
-4 9 6 3.5879 0.0000
-4 9 7 2.8235 0.0000
-4 9 8 -2.3694 0.0000
-4 9 9 0.4413 0.0000
-4 9 10 -0.6659 0.0000
-4 9 11 -1.1764 0.0000
-4 9 12 1.8681 0.0000
-4 10 1 0.3478 0.0000
-4 10 2 -4.6331 0.0000
-4 10 3 -1.1114 0.0000
-4 10 4 -5.3453 0.0000
-4 10 5 4.0494 0.0000
-4 10 6 0.8919 0.0000
-4 10 7 0.1026 0.0000
-4 10 8 2.9169 0.0000
-4 10 9 -0.9556 0.0000
-4 10 10 0.1351 0.0000
-4 10 11 2.0204 0.0000
-4 10 12 -1.5090 0.0000
-4 11 1 -2.9662 0.0000
-4 11 2 -1.0950 0.0000
-4 11 3 -4.9820 0.0000
-4 11 4 1.4819 0.0000
-4 11 5 -1.4365 0.0000
-4 11 6 1.7025 0.0000
-4 11 7 2.6930 0.0000
-4 11 8 -1.9518 0.0000
-4 11 9 0.8601 0.0000
-4 11 10 0.4625 0.0000
-4 11 11 -0.9803 0.0000
-4 11 12 0.6341 0.0000
-4 12 1 2.4672 0.0000
-4 12 2 -3.4687 0.0000
-4 12 3 -0.2993 0.0000
-4 12 4 -1.0660 0.0000
-4 12 5 2.3904 0.0000
-4 12 6 1.3605 0.0000
-4 12 7 -0.8503 0.0000
-4 12 8 1.9869 0.0000
-4 12 9 0.3391 0.0000
-4 12 10 0.2289 0.0000
-4 12 11 0.2988 0.0000
-4 12 12 -2.3868 0.0000
-4 13 1 -2.9030 0.0000
-4 13 2 -0.0350 0.0000
-4 13 3 -1.4048 0.0000
-4 13 4 0.8053 0.0000
-4 13 5 0.7402 0.0000
-4 13 6 0.2031 0.0000
-4 13 7 0.6479 0.0000
-4 13 8 -1.8264 0.0000
-4 13 9 0.6021 0.0000
-4 13 10 -0.2145 0.0000
-4 13 11 -0.4375 0.0000
-4 14 1 2.1829 0.0000
-4 14 2 -1.2328 0.0000
-4 14 3 -0.5221 0.0000
-4 14 4 1.7904 0.0000
-4 14 5 1.0194 0.0000
-4 14 6 0.6876 0.0000
-4 14 7 -1.5145 0.0000
-4 14 8 0.4256 0.0000
-4 14 9 -0.2799 0.0000
-4 14 10 -0.1861 0.0000
-4 14 11 -1.9924 0.0000
-4 15 1 -2.0301 0.0000
-4 15 2 -0.1241 0.0000
-4 15 3 1.1337 0.0000
-4 15 4 0.4095 0.0000
-4 15 5 1.2093 0.0000
-4 15 6 -0.3648 0.0000
-4 15 7 -0.7449 0.0000
-4 15 8 -2.2993 0.0000
-4 15 9 -0.1819 0.0000
-4 15 10 -0.8763 0.0000
-4 15 11 0.1647 0.0000
-4 16 1 0.7352 0.0000
-4 16 2 0.3526 0.0000
-4 16 3 -0.4991 0.0000
-4 16 4 2.2135 0.0000
-4 16 5 0.1897 0.0000
-4 16 6 0.5154 0.0000
-4 16 7 -1.6269 0.0000
-4 16 8 0.0675 0.0000
-4 16 9 -0.7083 0.0000
-4 16 10 -0.9454 0.0000
-4 17 1 -1.5493 0.0000
-4 17 2 -0.6040 0.0000
-4 17 3 1.7636 0.0000
-4 17 4 0.6110 0.0000
-4 17 5 0.6239 0.0000
-4 17 6 -0.7485 0.0000
-4 17 7 -0.5415 0.0000
-4 17 8 -1.3296 0.0000
-4 17 9 -0.9084 0.0000
-4 17 10 0.8503 0.0000
-4 18 1 -0.6489 0.0000
-4 18 2 0.5786 0.0000
-4 18 3 -0.3361 0.0000
-4 18 4 1.0440 0.0000
-4 18 5 -0.4963 0.0000
-4 18 6 0.7070 0.0000
-4 18 7 -0.7186 0.0000
-4 18 8 0.1083 0.0000
-4 18 9 0.9842 0.0000
-4 18 10 -0.9589 0.0000
-4 19 1 -1.2936 0.0000
-4 19 2 -0.9757 0.0000
-4 19 3 0.8677 0.0000
-4 19 4 0.5066 0.0000
-4 19 5 0.0144 0.0000
-4 19 6 -0.7522 0.0000
-4 19 7 -1.1254 0.0000
-4 19 8 1.1404 0.0000
-4 19 9 -1.1451 0.0000
-4 20 1 -1.0312 0.0000
-4 20 2 0.0848 0.0000
-4 20 3 -0.6491 0.0000
-4 20 4 -0.2645 0.0000
-4 20 5 -0.8564 0.0000
-4 20 6 0.2661 0.0000
-4 20 7 0.8769 0.0000
-4 20 8 -0.7743 0.0000
-4 20 9 2.3025 0.0000
-4 21 1 -0.8289 0.0000
-4 21 2 -0.6287 0.0000
-4 21 3 -0.2464 0.0000
-4 21 4 -0.4225 0.0000
-4 21 5 -0.2155 0.0000
-4 21 6 -0.0003 0.0000
-4 21 7 -2.7756 0.0000
-4 21 8 2.1972 0.0000
-4 22 1 -0.4088 0.0000
-4 22 2 -0.1989 0.0000
-4 22 3 -1.0242 0.0000
-4 22 4 -0.8362 0.0000
-4 22 5 -0.9763 0.0000
-4 22 6 -0.2109 0.0000
-4 22 7 1.5671 0.0000
-4 23 1 -0.4973 0.0000
-4 23 2 0.3455 0.0000
-4 23 3 -0.4830 0.0000
-4 23 4 -1.3884 0.0000
-4 23 5 -0.0817 0.0000
-4 23 6 0.2104 0.0000
-4 23 7 -2.9867 0.0000
-4 24 1 0.1602 0.0000
-4 24 2 -0.2141 0.0000
-4 24 3 -0.6611 0.0000
-4 24 4 -0.4767 0.0000
-4 24 5 -1.2900 0.0000
-4 24 6 0.1288 0.0000
-4 25 1 -0.8094 0.0000
-4 25 2 0.9963 0.0000
-4 25 3 -0.0260 0.0000
-4 25 4 -1.2622 0.0000
-4 25 5 0.2569 0.0000
-4 26 1 -0.0590 0.0000
-4 26 2 -0.3852 0.0000
-4 26 3 0.2170 0.0000
-3 0 2 36.8963 0.0000
-3 0 4 -10.4808 0.0000
-3 0 6 -2.6622 0.0000
-3 0 8 1.1304 0.0000
-3 0 10 0.3623 0.0000
-3 0 12 -2.3961 0.0000
-3 1 2 -3.0418 0.0000
-3 1 3 5.4203 0.0000
-3 1 4 1.9308 0.0000
-3 1 5 -10.1021 0.0000
-3 1 6 1.7458 0.0000
-3 1 7 1.6067 0.0000
-3 1 8 -0.2704 0.0000
-3 1 9 1.2451 0.0000
-3 1 10 -0.1990 0.0000
-3 1 11 -1.0993 0.0000
-3 1 12 -0.2011 0.0000
-3 1 13 -2.5016 0.0000
-3 2 1 -9.0028 0.0000
-3 2 3 -0.2164 0.0000
-3 2 4 -11.2853 0.0000
-3 2 5 4.3658 0.0000
-3 2 6 -2.3477 0.0000
-3 2 7 1.1780 0.0000
-3 2 8 1.8733 0.0000
-3 2 9 -0.9362 0.0000
-3 2 10 -0.0701 0.0000
-3 2 11 -0.1493 0.0000
-3 2 12 -1.0463 0.0000
-3 2 13 0.8669 0.0000
-3 3 1 41.2642 0.0000
-3 3 2 -7.8367 0.0000
-3 3 3 -0.6702 0.0000
-3 3 4 4.3539 0.0000
-3 3 5 -9.8189 0.0000
-3 3 6 4.3447 0.0000
-3 3 7 2.6963 0.0000
-3 3 8 -0.4773 0.0000
-3 3 9 0.7537 0.0000
-3 3 10 -0.7173 0.0000
-3 3 11 -0.4378 0.0000
-3 3 12 -0.4460 0.0000
-3 3 13 -1.7055 0.0000
-3 4 1 -12.7476 0.0000
-3 4 2 15.0184 0.0000
-3 4 3 -1.3314 0.0000
-3 4 4 -12.6804 0.0000
-3 4 5 6.6067 0.0000
-3 4 6 -1.7892 0.0000
-3 4 7 1.7564 0.0000
-3 4 8 2.8675 0.0000
-3 4 9 -1.2933 0.0000
-3 4 10 -0.5533 0.0000
-3 4 11 -0.5541 0.0000
-3 4 12 1.1193 0.0000
-3 4 13 1.5275 0.0000
-3 5 1 21.2368 0.0000
-3 5 2 -9.4224 0.0000
-3 5 3 -7.9093 0.0000
-3 5 4 4.2205 0.0000
-3 5 5 -8.8613 0.0000
-3 5 6 5.0119 0.0000
-3 5 7 3.1472 0.0000
-3 5 8 -0.9500 0.0000
-3 5 9 0.2544 0.0000
-3 5 10 -1.2972 0.0000
-3 5 11 0.0409 0.0000
-3 5 12 -0.0286 0.0000
-3 5 13 -1.5666 0.0000
-3 6 1 -10.3347 0.0000
-3 6 2 0.7413 0.0000
-3 6 3 -2.4135 0.0000
-3 6 4 -12.5721 0.0000
-3 6 5 6.5380 0.0000
-3 6 6 -1.0124 0.0000
-3 6 7 1.0435 0.0000
-3 6 8 2.9369 0.0000
-3 6 9 -1.8200 0.0000
-3 6 10 -0.3687 0.0000
-3 6 11 -0.1037 0.0000
-3 6 12 1.2649 0.0000
-3 6 13 1.3078 0.0000
-3 7 1 4.9927 0.0000
-3 7 2 -7.7192 0.0000
-3 7 3 -11.1979 0.0000
-3 7 4 2.9561 0.0000
-3 7 5 -6.6537 0.0000
-3 7 6 3.8790 0.0000
-3 7 7 3.1267 0.0000
-3 7 8 -2.4570 0.0000
-3 7 9 0.1546 0.0000
-3 7 10 -1.1568 0.0000
-3 7 11 -0.4714 0.0000
-3 7 12 1.1051 0.0000
-3 8 1 -4.9901 0.0000
-3 8 2 -6.4496 0.0000
-3 8 3 -2.2722 0.0000
-3 8 4 -9.6513 0.0000
-3 8 5 5.1202 0.0000
-3 8 6 0.5760 0.0000
-3 8 7 -0.5378 0.0000
-3 8 8 2.8707 0.0000
-3 8 9 -2.0010 0.0000
-3 8 10 -0.1585 0.0000
-3 8 11 1.5221 0.0000
-3 8 12 -0.3565 0.0000
-3 9 1 -3.1137 0.0000
-3 9 2 -4.5820 0.0000
-3 9 3 -9.3073 0.0000
-3 9 4 1.9496 0.0000
-3 9 5 -3.2749 0.0000
-3 9 6 1.8378 0.0000
-3 9 7 3.4784 0.0000
-3 9 8 -3.2890 0.0000
-3 9 9 0.4058 0.0000
-3 9 10 0.0937 0.0000
-3 9 11 -1.3108 0.0000
-3 9 12 1.5793 0.0000
-3 10 1 -0.4832 0.0000
-3 10 2 -6.7518 0.0000
-3 10 3 -1.4533 0.0000
-3 10 4 -4.6181 0.0000
-3 10 5 3.2857 0.0000
-3 10 6 2.2063 0.0000
-3 10 7 -1.4225 0.0000
-3 10 8 2.8489 0.0000
-3 10 9 -0.6161 0.0000
-3 10 10 -0.1845 0.0000
-3 10 11 2.1266 0.0000
-3 10 12 -1.4657 0.0000
-3 11 1 -4.4979 0.0000
-3 11 2 -2.1480 0.0000
-3 11 3 -4.6529 0.0000
-3 11 4 1.1960 0.0000
-3 11 5 -0.0999 0.0000
-3 11 6 0.2789 0.0000
-3 11 7 2.9506 0.0000
-3 11 8 -2.2778 0.0000
-3 11 9 0.6111 0.0000
-3 11 10 0.8690 0.0000
-3 11 11 -1.0792 0.0000
-3 11 12 0.0067 0.0000
-3 12 1 1.4868 0.0000
-3 12 2 -3.7202 0.0000
-3 12 3 -1.1184 0.0000
-3 12 4 0.0995 0.0000
-3 12 5 1.7865 0.0000
-3 12 6 2.2653 0.0000
-3 12 7 -1.1921 0.0000
-3 12 8 1.8506 0.0000
-3 12 9 0.6334 0.0000
-3 12 10 -0.0187 0.0000
-3 12 11 0.0913 0.0000
-3 12 12 -1.6611 0.0000
-3 13 1 -2.8930 0.0000
-3 13 2 -1.1223 0.0000
-3 13 3 -0.3990 0.0000
-3 13 4 0.4913 0.0000
-3 13 5 1.2648 0.0000
-3 13 6 -0.1733 0.0000
-3 13 7 0.9553 0.0000
-3 13 8 -1.5631 0.0000
-3 13 9 0.2843 0.0000
-3 13 10 -0.2076 0.0000
-3 13 11 0.0682 0.0000
-3 14 1 1.2349 0.0000
-3 14 2 -0.5482 0.0000
-3 14 3 -1.0699 0.0000
-3 14 4 2.3448 0.0000
-3 14 5 0.7656 0.0000
-3 14 6 1.1421 0.0000
-3 14 7 -1.1808 0.0000
-3 14 8 0.3069 0.0000
-3 14 9 -0.2546 0.0000
-3 14 10 -0.0778 0.0000
-3 14 11 -2.3037 0.0000
-3 15 1 -1.1735 0.0000
-3 15 2 -0.9341 0.0000
-3 15 3 1.8218 0.0000
-3 15 4 0.3120 0.0000
-3 15 5 0.8282 0.0000
-3 15 6 -0.4627 0.0000
-3 15 7 -0.4974 0.0000
-3 15 8 -2.2358 0.0000
-3 15 9 -0.7275 0.0000
-3 15 10 -1.0832 0.0000
-3 15 11 1.0741 0.0000
-3 16 1 -0.1033 0.0000
-3 16 2 1.1863 0.0000
-3 16 3 -0.4128 0.0000
-3 16 4 2.1388 0.0000
-3 16 5 -0.0805 0.0000
-3 16 6 0.5555 0.0000
-3 16 7 -1.7049 0.0000
-3 16 8 -0.4436 0.0000
-3 16 9 -0.9863 0.0000
-3 16 10 -0.6593 0.0000
-3 16 11 -1.7879 0.0000
-3 17 1 -0.5073 0.0000
-3 17 2 -0.9659 0.0000
-3 17 3 2.0577 0.0000
-3 17 4 0.9574 0.0000
-3 17 5 0.0665 0.0000
-3 17 6 -1.0340 0.0000
-3 17 7 -0.6804 0.0000
-3 17 8 -1.7441 0.0000
-3 17 9 -1.7298 0.0000
-3 17 10 0.8090 0.0000
-3 18 1 -1.2871 0.0000
-3 18 2 1.1920 0.0000
-3 18 3 0.5057 0.0000
-3 18 4 1.0737 0.0000
-3 18 5 -0.4515 0.0000
-3 18 6 0.5707 0.0000
-3 18 7 -1.1885 0.0000
-3 18 8 -0.6227 0.0000
-3 18 9 0.9178 0.0000
-3 18 10 -0.6211 0.0000
-3 19 1 -0.8937 0.0000
-3 19 2 -1.0125 0.0000
-3 19 3 1.1823 0.0000
-3 19 4 1.5565 0.0000
-3 19 5 -0.0524 0.0000
-3 19 6 -0.6952 0.0000
-3 19 7 -1.3500 0.0000
-3 19 8 0.8048 0.0000
-3 19 9 -1.6618 0.0000
-3 20 1 -1.3747 0.0000
-3 20 2 0.2522 0.0000
-3 20 3 0.3900 0.0000
-3 20 4 0.3224 0.0000
-3 20 5 -0.0463 0.0000
-3 20 6 0.2208 0.0000
-3 20 7 0.6096 0.0000
-3 20 8 -0.8792 0.0000
-3 20 9 2.8931 0.0000
-3 21 1 -1.5829 0.0000
-3 21 2 -0.9202 0.0000
-3 21 3 0.3794 0.0000
-3 21 4 0.9032 0.0000
-3 21 5 0.1932 0.0000
-3 21 6 0.6285 0.0000
-3 21 7 -2.5966 0.0000
-3 21 8 2.2547 0.0000
-3 22 1 -0.3500 0.0000
-3 22 2 -0.3219 0.0000
-3 22 3 -0.7797 0.0000
-3 22 4 0.0928 0.0000
-3 22 5 0.2033 0.0000
-3 22 6 -0.1859 0.0000
-3 22 7 1.5390 0.0000
-3 22 8 -0.6840 0.0000
-3 23 1 -1.7497 0.0000
-3 23 2 -0.4092 0.0000
-3 23 3 0.4263 0.0000
-3 23 4 -0.6081 0.0000
-3 23 5 0.3273 0.0000
-3 23 6 0.9532 0.0000
-3 23 7 -2.5547 0.0000
-3 24 1 0.8154 0.0000
-3 24 2 -0.1146 0.0000
-3 24 3 -1.3647 0.0000
-3 24 4 0.2399 0.0000
-3 24 5 -0.4109 0.0000
-3 24 6 0.0039 0.0000
-3 25 1 -1.4766 0.0000
-3 25 2 0.5713 0.0000
-3 25 3 0.9042 0.0000
-3 25 4 -1.1923 0.0000
-3 25 5 0.2804 0.0000
-3 26 1 1.1959 0.0000
-3 26 2 0.1261 0.0000
-3 26 3 -0.5261 0.0000
-3 26 4 0.4706 0.0000
-3 27 1 -1.3448 0.0000
-3 27 2 1.4581 0.0000
-2 0 4 -14.6415 0.0000
-2 0 6 -2.1821 0.0000
-2 0 8 1.4778 0.0000
-2 0 10 -0.2336 0.0000
-2 0 12 -2.1720 0.0000
-2 1 2 -1.2404 0.0000
-2 1 3 0.2942 0.0000
-2 1 4 2.9960 0.0000
-2 1 5 -10.7475 0.0000
-2 1 6 1.2876 0.0000
-2 1 7 2.3574 0.0000
-2 1 8 -0.6534 0.0000
-2 1 9 1.1868 0.0000
-2 1 10 -0.3262 0.0000
-2 1 11 -1.7105 0.0000
-2 1 12 -0.0262 0.0000
-2 1 13 -1.3681 0.0000
-2 2 1 -6.3270 0.0000
-2 2 2 28.8439 0.0000
-2 2 3 3.0699 0.0000
-2 2 4 -14.8572 0.0000
-2 2 5 4.6933 0.0000
-2 2 6 -1.6294 0.0000
-2 2 7 0.2303 0.0000
-2 2 8 2.0610 0.0000
-2 2 9 -1.4278 0.0000
-2 2 10 -0.6765 0.0000
-2 2 11 -0.0073 0.0000
-2 2 12 -0.7494 0.0000
-2 2 13 0.2536 0.0000
-2 3 1 47.0752 0.0000
-2 3 2 -3.3767 0.0000
-2 3 3 -4.9190 0.0000
-2 3 4 7.2645 0.0000
-2 3 5 -9.6430 0.0000
-2 3 6 3.4688 0.0000
-2 3 7 3.5379 0.0000
-2 3 8 -1.3084 0.0000
-2 3 9 0.5477 0.0000
-2 3 10 -0.8473 0.0000
-2 3 11 -0.7811 0.0000
-2 3 12 -0.0150 0.0000
-2 3 13 -0.9885 0.0000
-2 4 1 -9.0578 0.0000
-2 4 2 12.8888 0.0000
-2 4 3 3.6982 0.0000
-2 4 4 -14.7974 0.0000
-2 4 5 7.4954 0.0000
-2 4 6 -0.3858 0.0000
-2 4 7 0.5039 0.0000
-2 4 8 3.0747 0.0000
-2 4 9 -1.6918 0.0000
-2 4 10 -0.9276 0.0000
-2 4 11 -0.3025 0.0000
-2 4 12 1.4590 0.0000
-2 4 13 0.8486 0.0000
-2 5 1 22.8045 0.0000
-2 5 2 -4.6733 0.0000
-2 5 3 -10.8016 0.0000
-2 5 4 7.7274 0.0000
-2 5 5 -7.5231 0.0000
-2 5 6 4.1455 0.0000
-2 5 7 4.3984 0.0000
-2 5 8 -1.6701 0.0000
-2 5 9 0.3665 0.0000
-2 5 10 -1.0310 0.0000
-2 5 11 0.0887 0.0000
-2 5 12 0.3455 0.0000
-2 5 13 -1.6285 0.0000
-2 6 1 -7.7364 0.0000
-2 6 2 -2.0196 0.0000
-2 6 3 1.8502 0.0000
-2 6 4 -13.0453 0.0000
-2 6 5 7.2370 0.0000
-2 6 6 1.0189 0.0000
-2 6 7 -0.2072 0.0000
-2 6 8 3.5094 0.0000
-2 6 9 -1.6557 0.0000
-2 6 10 -0.2375 0.0000
-2 6 11 0.0523 0.0000
-2 6 12 1.3821 0.0000
-2 6 13 0.8001 0.0000
-2 7 1 3.2676 0.0000
-2 7 2 -4.9609 0.0000
-2 7 3 -12.6079 0.0000
-2 7 4 5.1789 0.0000
-2 7 5 -4.5891 0.0000
-2 7 6 2.5786 0.0000
-2 7 7 4.4074 0.0000
-2 7 8 -2.8492 0.0000
-2 7 9 0.6977 0.0000
-2 7 10 -0.6029 0.0000
-2 7 11 -0.3149 0.0000
-2 7 12 0.9875 0.0000
-2 7 13 -2.9836 0.0000
-2 8 1 -4.5168 0.0000
-2 8 2 -8.9285 0.0000
-2 8 3 -0.4841 0.0000
-2 8 4 -8.9240 0.0000
-2 8 5 4.6084 0.0000
-2 8 6 2.3662 0.0000
-2 8 7 -1.7675 0.0000
-2 8 8 3.2442 0.0000
-2 8 9 -1.5338 0.0000
-2 8 10 0.1178 0.0000
-2 8 11 1.2925 0.0000
-2 8 12 -0.6271 0.0000
-2 9 1 -5.5677 0.0000
-2 9 2 -4.3083 0.0000
-2 9 3 -9.3867 0.0000
-2 9 4 2.2010 0.0000
-2 9 5 -1.3991 0.0000
-2 9 6 0.1229 0.0000
-2 9 7 3.8339 0.0000
-2 9 8 -3.4724 0.0000
-2 9 9 0.7030 0.0000
-2 9 10 0.3985 0.0000
-2 9 11 -1.4949 0.0000
-2 9 12 0.9921 0.0000
-2 10 1 -1.5954 0.0000
-2 10 2 -8.0330 0.0000
-2 10 3 -1.7110 0.0000
-2 10 4 -3.4724 0.0000
-2 10 5 2.0295 0.0000
-2 10 6 3.0595 0.0000
-2 10 7 -2.1959 0.0000
-2 10 8 2.3684 0.0000
-2 10 9 -0.4630 0.0000
-2 10 10 -0.2602 0.0000
-2 10 11 1.7428 0.0000
-2 10 12 -1.9446 0.0000
-2 11 1 -5.8425 0.0000
-2 11 2 -3.1452 0.0000
-2 11 3 -3.9214 0.0000
-2 11 4 0.5801 0.0000
-2 11 5 0.9798 0.0000
-2 11 6 -0.7730 0.0000
-2 11 7 2.4206 0.0000
-2 11 8 -2.3721 0.0000
-2 11 9 0.3445 0.0000
-2 11 10 0.8561 0.0000
-2 11 11 -1.5553 0.0000
-2 11 12 -0.0909 0.0000
-2 12 1 -0.0211 0.0000
-2 12 2 -3.8285 0.0000
-2 12 3 -1.8951 0.0000
-2 12 4 0.9771 0.0000
-2 12 5 1.1067 0.0000
-2 12 6 2.5520 0.0000
-2 12 7 -1.0952 0.0000
-2 12 8 0.9477 0.0000
-2 12 9 0.3403 0.0000
-2 12 10 -0.2321 0.0000
-2 12 11 0.3916 0.0000
-2 12 12 -2.0022 0.0000
-2 13 1 -3.0295 0.0000
-2 13 2 -2.1868 0.0000
-2 13 3 0.3993 0.0000
-2 13 4 0.1486 0.0000
-2 13 5 1.6126 0.0000
-2 13 6 0.0086 0.0000
-2 13 7 0.5278 0.0000
-2 13 8 -1.6294 0.0000
-2 13 9 -0.1333 0.0000
-2 13 10 -0.0426 0.0000
-2 13 11 -0.2107 0.0000
-2 14 1 0.0587 0.0000
-2 14 2 -0.1922 0.0000
-2 14 3 -1.5660 0.0000
-2 14 4 2.6631 0.0000
-2 14 5 0.9049 0.0000
-2 14 6 1.4720 0.0000
-2 14 7 -0.5718 0.0000
-2 14 8 -0.4066 0.0000
-2 14 9 -0.6537 0.0000
-2 14 10 0.0210 0.0000
-2 14 11 -1.1636 0.0000
-2 15 1 -0.6674 0.0000
-2 15 2 -1.6961 0.0000
-2 15 3 2.1263 0.0000
-2 15 4 0.2237 0.0000
-2 15 5 0.7428 0.0000
-2 15 6 0.2964 0.0000
-2 15 7 -0.5524 0.0000
-2 15 8 -2.3151 0.0000
-2 15 9 -1.0969 0.0000
-2 15 10 -0.7182 0.0000
-2 15 11 1.0984 0.0000
-2 16 1 -0.7373 0.0000
-2 16 2 1.4604 0.0000
-2 16 3 -0.5739 0.0000
-2 16 4 1.9779 0.0000
-2 16 5 0.1691 0.0000
-2 16 6 0.7713 0.0000
-2 16 7 -1.1617 0.0000
-2 16 8 -1.0609 0.0000
-2 16 9 -1.2579 0.0000
-2 16 10 -0.3790 0.0000
-2 16 11 -1.0324 0.0000
-2 17 1 0.2217 0.0000
-2 17 2 -1.2452 0.0000
-2 17 3 1.8387 0.0000
-2 17 4 0.8456 0.0000
-2 17 5 -0.3011 0.0000
-2 17 6 -0.3215 0.0000
-2 17 7 -0.7958 0.0000
-2 17 8 -1.7202 0.0000
-2 17 9 -2.1124 0.0000
-2 17 10 0.8186 0.0000
-2 18 1 -1.3170 0.0000
-2 18 2 1.2819 0.0000
-2 18 3 0.8262 0.0000
-2 18 4 0.7826 0.0000
-2 18 5 -0.3176 0.0000
-2 18 6 0.3273 0.0000
-2 18 7 -0.7546 0.0000
-2 18 8 -0.9537 0.0000
-2 18 9 0.8813 0.0000
-2 18 10 -0.4988 0.0000
-2 19 1 -0.4821 0.0000
-2 19 2 -0.7406 0.0000
-2 19 3 0.9521 0.0000
-2 19 4 1.6876 0.0000
-2 19 5 -0.5397 0.0000
-2 19 6 0.0383 0.0000
-2 19 7 -1.2823 0.0000
-2 19 8 1.0824 0.0000
-2 19 9 -1.6671 0.0000
-2 20 1 -1.0690 0.0000
-2 20 2 0.2998 0.0000
-2 20 3 1.1536 0.0000
-2 20 4 0.2908 0.0000
-2 20 5 0.3374 0.0000
-2 20 6 -0.2302 0.0000
-2 20 7 0.9889 0.0000
-2 20 8 -0.0900 0.0000
-2 20 9 3.1908 0.0000
-2 21 1 -1.9551 0.0000
-2 21 2 -0.7016 0.0000
-2 21 3 0.5997 0.0000
-2 21 4 1.5152 0.0000
-2 21 5 -0.2244 0.0000
-2 21 6 1.4253 0.0000
-2 21 7 -1.7176 0.0000
-2 21 8 2.5422 0.0000
-2 22 1 -0.2652 0.0000
-2 22 2 -0.1867 0.0000
-2 22 3 -0.1910 0.0000
-2 22 4 0.2292 0.0000
-2 22 5 0.9408 0.0000
-2 22 6 -0.4700 0.0000
-2 22 7 1.5470 0.0000
-2 22 8 1.2803 0.0000
-2 23 1 -2.6572 0.0000
-2 23 2 -0.8411 0.0000
-2 23 3 0.8039 0.0000
-2 23 4 0.1791 0.0000
-2 23 5 -0.0909 0.0000
-2 23 6 1.5474 0.0000
-2 23 7 -1.1372 0.0000
-2 24 1 0.6350 0.0000
-2 24 2 0.0240 0.0000
-2 24 3 -1.3876 0.0000
-2 24 4 -0.0754 0.0000
-2 24 5 0.3245 0.0000
-2 24 6 -0.1531 0.0000
-2 25 1 -2.3058 0.0000
-2 25 2 -0.0115 0.0000
-2 25 3 0.7492 0.0000
-2 25 4 -0.7085 0.0000
-2 25 5 -0.3045 0.0000
-2 26 1 1.3329 0.0000
-2 26 2 0.0718 0.0000
-2 26 3 -0.8731 0.0000
-2 26 4 -0.5377 0.0000
-2 27 1 -1.9660 0.0000
-2 27 2 1.5551 0.0000
-1 0 2 29.8617 0.0000
-1 0 4 -18.0167 0.0000
-1 0 6 -1.4735 0.0000
-1 0 8 1.8678 0.0000
-1 0 10 -0.7959 0.0000
-1 0 12 -1.1498 0.0000
-1 1 2 0.8138 0.0000
-1 1 3 -5.9298 0.0000
-1 1 4 3.5925 0.0000
-1 1 5 -10.6681 0.0000
-1 1 6 0.8089 0.0000
-1 1 7 3.1400 0.0000
-1 1 8 -0.9217 0.0000
-1 1 9 1.0565 0.0000
-1 1 10 -0.2266 0.0000
-1 1 11 -1.6313 0.0000
-1 1 12 0.0295 0.0000
-1 1 13 0.4891 0.0000
-1 2 3 5.8899 0.0000
-1 2 4 -17.6256 0.0000
-1 2 5 4.4225 0.0000
-1 2 6 -0.8550 0.0000
-1 2 7 -0.6202 0.0000
-1 2 8 2.2646 0.0000
-1 2 9 -1.6795 0.0000
-1 2 10 -1.3264 0.0000
-1 2 11 0.2827 0.0000
-1 2 12 -0.0706 0.0000
-1 2 13 -0.7345 0.0000
-1 3 2 1.7836 0.0000
-1 3 3 -9.4608 0.0000
-1 3 4 8.9765 0.0000
-1 3 5 -8.9346 0.0000
-1 3 6 2.3130 0.0000
-1 3 7 4.1973 0.0000
-1 3 8 -2.0022 0.0000
-1 3 9 0.3393 0.0000
-1 3 10 -0.5769 0.0000
-1 3 11 -1.0235 0.0000
-1 3 12 0.0428 0.0000
-1 3 13 0.1829 0.0000
-1 4 1 -3.3993 0.0000
-1 4 2 9.2269 0.0000
-1 4 3 8.1431 0.0000
-1 4 4 -15.8885 0.0000
-1 4 5 7.2649 0.0000
-1 4 6 0.8070 0.0000
-1 4 7 -0.8261 0.0000
-1 4 8 3.2272 0.0000
-1 4 9 -1.9616 0.0000
-1 4 10 -1.5480 0.0000
-1 4 11 -0.0640 0.0000
-1 4 12 1.5186 0.0000
-1 4 13 -0.3996 0.0000
-1 5 2 1.0059 0.0000
-1 5 3 -12.6874 0.0000
-1 5 4 9.8976 0.0000
-1 5 5 -5.7052 0.0000
-1 5 6 2.7967 0.0000
-1 5 7 5.3073 0.0000
-1 5 8 -2.3140 0.0000
-1 5 9 0.4767 0.0000
-1 5 10 -0.6649 0.0000
-1 5 11 -0.2937 0.0000
-1 5 12 0.2197 0.0000
-1 5 13 -1.2392 0.0000
-1 6 1 -3.4498 0.0000
-1 6 2 -3.8926 0.0000
-1 6 3 5.7830 0.0000
-1 6 4 -12.1831 0.0000
-1 6 5 6.9070 0.0000
-1 6 6 2.7537 0.0000
-1 6 7 -1.3574 0.0000
-1 6 8 4.0005 0.0000
-1 6 9 -1.5854 0.0000
-1 6 10 -0.5048 0.0000
-1 6 11 -0.1494 0.0000
-1 6 12 1.1516 0.0000
-1 6 13 0.0853 0.0000
-1 7 1 2.1537 0.0000
-1 7 2 -1.3715 0.0000
-1 7 3 -12.1938 0.0000
-1 7 4 6.5612 0.0000
-1 7 5 -2.1134 0.0000
-1 7 6 1.3293 0.0000
-1 7 7 5.3904 0.0000
-1 7 8 -2.8804 0.0000
-1 7 9 1.2332 0.0000
-1 7 10 -0.3595 0.0000
-1 7 11 -0.6110 0.0000
-1 7 12 0.6282 0.0000
-1 7 13 -3.0544 0.0000
-1 8 1 -3.2315 0.0000
-1 8 2 -9.4712 0.0000
-1 8 3 1.3177 0.0000
-1 8 4 -7.1375 0.0000
-1 8 5 3.7930 0.0000
-1 8 6 3.8029 0.0000
-1 8 7 -2.2261 0.0000
-1 8 8 3.6286 0.0000
-1 8 9 -1.2174 0.0000
-1 8 10 0.0534 0.0000
-1 8 11 0.5804 0.0000
-1 8 12 -0.9344 0.0000
-1 9 1 -6.7686 0.0000
-1 9 2 -3.4995 0.0000
-1 9 3 -8.0676 0.0000
-1 9 4 2.2306 0.0000
-1 9 5 0.4519 0.0000
-1 9 6 -0.7957 0.0000
-1 9 7 3.9866 0.0000
-1 9 8 -3.0207 0.0000
-1 9 9 1.0820 0.0000
-1 9 10 0.3044 0.0000
-1 9 11 -2.0016 0.0000
-1 9 12 0.6546 0.0000
-1 10 1 -2.6412 0.0000
-1 10 2 -7.9170 0.0000
-1 10 3 -1.7740 0.0000
-1 10 4 -2.1862 0.0000
-1 10 5 0.9823 0.0000
-1 10 6 3.3883 0.0000
-1 10 7 -2.0453 0.0000
-1 10 8 1.9849 0.0000
-1 10 9 -0.4227 0.0000
-1 10 10 -0.5734 0.0000
-1 10 11 1.1495 0.0000
-1 10 12 -2.6000 0.0000
-1 11 1 -6.4785 0.0000
-1 11 2 -3.8424 0.0000
-1 11 3 -2.8609 0.0000
-1 11 4 0.0103 0.0000
-1 11 5 1.5733 0.0000
-1 11 6 -1.1338 0.0000
-1 11 7 1.6489 0.0000
-1 11 8 -2.1008 0.0000
-1 11 9 0.2563 0.0000
-1 11 10 0.8164 0.0000
-1 11 11 -2.5909 0.0000
-1 11 12 0.2197 0.0000
-1 12 1 -1.6765 0.0000
-1 12 2 -3.5205 0.0000
-1 12 3 -2.4680 0.0000
-1 12 4 1.3748 0.0000
-1 12 5 0.5441 0.0000
-1 12 6 2.2341 0.0000
-1 12 7 -0.8070 0.0000
-1 12 8 0.1086 0.0000
-1 12 9 0.0955 0.0000
-1 12 10 -0.7054 0.0000
-1 12 11 0.9351 0.0000
-1 12 12 -3.0559 0.0000
-1 13 1 -3.1104 0.0000
-1 13 2 -3.0508 0.0000
-1 13 3 0.9755 0.0000
-1 13 4 -0.1236 0.0000
-1 13 5 1.5606 0.0000
-1 13 6 0.2118 0.0000
-1 13 7 -0.2417 0.0000
-1 13 8 -1.7161 0.0000
-1 13 9 -0.2785 0.0000
-1 13 10 0.6819 0.0000
-1 13 11 -1.4208 0.0000
-1 14 1 -1.0984 0.0000
-1 14 2 0.0848 0.0000
-1 14 3 -1.9746 0.0000
-1 14 4 2.7025 0.0000
-1 14 5 1.0525 0.0000
-1 14 6 1.3484 0.0000
-1 14 7 -0.3530 0.0000
-1 14 8 -1.0510 0.0000
-1 14 9 -0.6702 0.0000
-1 14 10 -0.1407 0.0000
-1 14 11 0.4759 0.0000
-1 15 1 -0.4306 0.0000
-1 15 2 -2.3476 0.0000
-1 15 3 2.3239 0.0000
-1 15 4 0.1654 0.0000
-1 15 5 0.6851 0.0000
-1 15 6 0.9265 0.0000
-1 15 7 -0.8930 0.0000
-1 15 8 -2.3262 0.0000
-1 15 9 -1.0428 0.0000
-1 15 10 0.3899 0.0000
-1 15 11 0.1904 0.0000
-1 16 1 -1.0712 0.0000
-1 16 2 1.5339 0.0000
-1 16 3 -0.9846 0.0000
-1 16 4 1.9449 0.0000
-1 16 5 0.5960 0.0000
-1 16 6 0.7506 0.0000
-1 16 7 -0.7642 0.0000
-1 16 8 -1.4302 0.0000
-1 16 9 -1.0890 0.0000
-1 16 10 -0.3207 0.0000
-1 16 11 0.0132 0.0000
-1 17 1 0.6064 0.0000
-1 17 2 -1.5285 0.0000
-1 17 3 1.6275 0.0000
-1 17 4 0.4358 0.0000
-1 17 5 -0.5094 0.0000
-1 17 6 0.6732 0.0000
-1 17 7 -0.8915 0.0000
-1 17 8 -1.4135 0.0000
-1 17 9 -2.0642 0.0000
-1 17 10 0.9016 0.0000
-1 18 1 -0.7765 0.0000
-1 18 2 1.1512 0.0000
-1 18 3 0.4186 0.0000
-1 18 4 0.5686 0.0000
-1 18 5 -0.0436 0.0000
-1 18 6 0.0014 0.0000
-1 18 7 -0.0150 0.0000
-1 18 8 -0.8279 0.0000
-1 18 9 0.6907 0.0000
-1 18 10 -0.7462 0.0000
-1 19 1 -0.1646 0.0000
-1 19 2 -0.4213 0.0000
-1 19 3 0.5724 0.0000
-1 19 4 0.9257 0.0000
-1 19 5 -1.1380 0.0000
-1 19 6 1.2420 0.0000
-1 19 7 -0.7467 0.0000
-1 19 8 1.4542 0.0000
-1 19 9 -1.5137 0.0000
-1 20 1 -0.1032 0.0000
-1 20 2 0.2983 0.0000
-1 20 3 1.0789 0.0000
-1 20 4 -0.0560 0.0000
-1 20 5 0.4614 0.0000
-1 20 6 -0.6200 0.0000
-1 20 7 1.6609 0.0000
-1 20 8 1.2633 0.0000
-1 20 9 2.6476 0.0000
-1 21 1 -1.8972 0.0000
-1 21 2 -0.1103 0.0000
-1 21 3 0.4202 0.0000
-1 21 4 1.0109 0.0000
-1 21 5 -1.0371 0.0000
-1 21 6 2.4268 0.0000
-1 21 7 -0.0106 0.0000
-1 21 8 2.5465 0.0000
-1 22 1 0.1928 0.0000
-1 22 2 0.1106 0.0000
-1 22 3 0.1146 0.0000
-1 22 4 -0.2803 0.0000
-1 22 5 1.1483 0.0000
-1 22 6 -0.5678 0.0000
-1 22 7 1.4764 0.0000
-1 22 8 3.8421 0.0000
-1 23 1 -2.8788 0.0000
-1 23 2 -0.6098 0.0000
-1 23 3 0.4720 0.0000
-1 23 4 0.2820 0.0000
-1 23 5 -0.9349 0.0000
-1 23 6 1.9881 0.0000
-1 23 7 1.1369 0.0000
-1 24 1 0.2772 0.0000
-1 24 2 0.1565 0.0000
-1 24 3 -1.0500 0.0000
-1 24 4 -1.1315 0.0000
-1 24 5 0.5671 0.0000
-1 24 6 -0.1222 0.0000
-1 25 1 -2.7844 0.0000
-1 25 2 -0.1057 0.0000
-1 25 3 -0.4543 0.0000
-1 25 4 -0.4598 0.0000
-1 25 5 -1.1146 0.0000
-1 26 1 0.8928 0.0000
-1 26 2 -0.4252 0.0000
-1 26 3 -0.8700 0.0000
-1 26 4 -2.1429 0.0000
-1 27 1 -2.6972 0.0000
-1 27 2 1.5949 0.0000
-1 27 3 -1.5491 0.0000
0 0 2 20.2151 0.0000
0 0 4 -19.7931 0.0000
0 0 6 -0.7998 0.0000
0 0 8 1.8504 0.0000
0 0 10 -0.6846 0.0000
0 0 12 -0.4727 0.0000
0 1 2 2.7146 0.0000
0 1 3 -12.1080 0.0000
0 1 4 3.6911 0.0000
0 1 5 -9.7063 0.0000
0 1 6 0.3442 0.0000
0 1 7 3.3318 0.0000
0 1 8 -0.9825 0.0000
0 1 9 0.9744 0.0000
0 1 10 0.1023 0.0000
0 1 11 -0.9396 0.0000
0 1 12 0.0041 0.0000
0 1 13 1.7489 0.0000
0 2 2 15.3336 0.0000
0 2 3 7.7369 0.0000
0 2 4 -18.8201 0.0000
0 2 5 3.6905 0.0000
0 2 6 -0.1877 0.0000
0 2 7 -1.3506 0.0000
0 2 8 2.1381 0.0000
0 2 9 -1.4416 0.0000
0 2 10 -1.4002 0.0000
0 2 11 0.5435 0.0000
0 2 12 0.1355 0.0000
0 2 13 -1.6178 0.0000
0 3 2 6.5021 0.0000
0 3 3 -13.4772 0.0000
0 3 4 9.2952 0.0000
0 3 5 -7.5389 0.0000
0 3 6 0.9488 0.0000
0 3 7 4.2588 0.0000
0 3 8 -2.3180 0.0000
0 3 9 0.1985 0.0000
0 3 10 0.1290 0.0000
0 3 11 -1.0316 0.0000
0 3 12 -0.1451 0.0000
0 3 13 0.9400 0.0000
0 4 0 45.4528 0.0000
0 4 1 2.8084 0.0000
0 4 2 4.4537 0.0000
0 4 3 11.0444 0.0000
0 4 4 -15.5078 0.0000
0 4 5 6.0284 0.0000
0 4 6 1.6509 0.0000
0 4 7 -2.2128 0.0000
0 4 8 3.0347 0.0000
0 4 9 -1.7424 0.0000
0 4 10 -1.9849 0.0000
0 4 11 0.0119 0.0000
0 4 12 1.0102 0.0000
0 4 13 -1.6140 0.0000
0 5 1 20.6359 0.0000
0 5 2 6.1488 0.0000
0 5 3 -13.4033 0.0000
0 5 4 10.3726 0.0000
0 5 5 -3.5543 0.0000
0 5 6 0.9884 0.0000
0 5 7 5.4955 0.0000
0 5 8 -2.7058 0.0000
0 5 9 0.3415 0.0000
0 5 10 -0.0747 0.0000
0 5 11 -0.8474 0.0000
0 5 12 -0.1692 0.0000
0 5 13 -0.7792 0.0000
0 6 0 17.3743 0.0000
0 6 1 1.2605 0.0000
0 6 2 -4.9201 0.0000
0 6 3 8.4197 0.0000
0 6 4 -10.1297 0.0000
0 6 5 5.6356 0.0000
0 6 6 3.8804 0.0000
0 6 7 -2.5755 0.0000
0 6 8 3.9469 0.0000
0 6 9 -1.3576 0.0000
0 6 10 -1.1535 0.0000
0 6 11 -0.5983 0.0000
0 6 12 0.7252 0.0000
0 6 13 -0.5182 0.0000
0 7 1 1.6910 0.0000
0 7 2 1.9472 0.0000
0 7 3 -10.3771 0.0000
0 7 4 6.9342 0.0000
0 7 5 0.3429 0.0000
0 7 6 0.0427 0.0000
0 7 7 5.7072 0.0000
0 7 8 -2.6847 0.0000
0 7 9 1.1121 0.0000
0 7 10 -0.1614 0.0000
0 7 11 -1.0897 0.0000
0 7 12 0.3301 0.0000
0 8 0 -1.0875 0.0000
0 8 1 -1.7293 0.0000
0 8 2 -8.3097 0.0000
0 8 3 2.6960 0.0000
0 8 4 -4.6900 0.0000
0 8 5 2.8956 0.0000
0 8 6 4.6967 0.0000
0 8 7 -2.3658 0.0000
0 8 8 3.5519 0.0000
0 8 9 -0.9230 0.0000
0 8 10 -0.6426 0.0000
0 8 11 -0.2746 0.0000
0 8 12 -0.7203 0.0000
0 9 1 -6.5006 0.0000
0 9 2 -2.5782 0.0000
0 9 3 -5.8290 0.0000
0 9 4 2.2792 0.0000
0 9 5 2.1141 0.0000
0 9 6 -1.0755 0.0000
0 9 7 3.9769 0.0000
0 9 8 -2.1883 0.0000
0 9 9 0.8451 0.0000
0 9 10 0.1532 0.0000
0 9 11 -2.3726 0.0000
0 9 12 0.7022 0.0000
0 10 0 -6.8864 0.0000
0 10 1 -3.6455 0.0000
0 10 2 -6.5208 0.0000
0 10 3 -1.5829 0.0000
0 10 4 -0.8542 0.0000
0 10 5 0.4475 0.0000
0 10 6 3.5288 0.0000
0 10 7 -1.4025 0.0000
0 10 8 1.6508 0.0000
0 10 9 -0.2550 0.0000
0 10 10 -1.3467 0.0000
0 10 11 0.4189 0.0000
0 10 12 -2.2980 0.0000
0 11 1 -6.1270 0.0000
0 11 2 -4.2974 0.0000
0 11 3 -1.6547 0.0000
0 11 4 -0.1628 0.0000
0 11 5 1.9727 0.0000
0 11 6 -0.9848 0.0000
0 11 7 1.2496 0.0000
0 11 8 -1.3163 0.0000
0 11 9 -0.0131 0.0000
0 11 10 0.8296 0.0000
0 11 11 -3.3529 0.0000
0 11 12 0.5025 0.0000
0 12 0 -5.4038 0.0000
0 12 1 -3.3856 0.0000
0 12 2 -2.7151 0.0000
0 12 3 -2.7067 0.0000
0 12 4 1.4400 0.0000
0 12 5 0.1474 0.0000
0 12 6 1.8956 0.0000
0 12 7 -0.3918 0.0000
0 12 8 -0.2203 0.0000
0 12 9 0.3133 0.0000
0 12 10 -1.4112 0.0000
0 12 11 0.9287 0.0000
0 12 12 -3.2893 0.0000
0 13 1 -2.8197 0.0000
0 13 2 -3.7605 0.0000
0 13 3 1.3183 0.0000
0 13 4 -0.2146 0.0000
0 13 5 1.3183 0.0000
0 13 6 0.1088 0.0000
0 13 7 -0.5810 0.0000
0 13 8 -1.1682 0.0000
0 13 9 -0.1702 0.0000
0 13 10 1.4804 0.0000
0 13 11 -2.5494 0.0000
0 14 0 -2.5358 0.0000
0 14 1 -2.2860 0.0000
0 14 2 0.5177 0.0000
0 14 3 -2.2088 0.0000
0 14 4 2.4128 0.0000
0 14 5 0.8188 0.0000
0 14 6 1.0252 0.0000
0 14 7 -0.4024 0.0000
0 14 8 -1.0392 0.0000
0 14 9 0.0411 0.0000
0 14 10 -0.3887 0.0000
0 14 11 1.1454 0.0000
0 15 1 -0.1240 0.0000
0 15 2 -2.9319 0.0000
0 15 3 2.4429 0.0000
0 15 4 0.1659 0.0000
0 15 5 0.4387 0.0000
0 15 6 0.7647 0.0000
0 15 7 -1.0247 0.0000
0 15 8 -1.6635 0.0000
0 15 9 -0.4721 0.0000
0 15 10 1.5448 0.0000
0 15 11 -0.7807 0.0000
0 16 0 -0.3522 0.0000
0 16 1 -1.3358 0.0000
0 16 2 1.7781 0.0000
0 16 3 -1.3932 0.0000
0 16 4 1.8148 0.0000
0 16 5 0.6587 0.0000
0 16 6 0.4150 0.0000
0 16 7 -0.7636 0.0000
0 16 8 -1.2337 0.0000
0 16 9 -0.3527 0.0000
0 16 10 -0.2337 0.0000
0 17 1 0.8834 0.0000
0 17 2 -1.8556 0.0000
0 17 3 1.6114 0.0000
0 17 4 0.0816 0.0000
0 17 5 -0.7838 0.0000
0 17 6 0.9980 0.0000
0 17 7 -0.8716 0.0000
0 17 8 -0.8413 0.0000
0 17 9 -1.6213 0.0000
0 17 10 0.9567 0.0000
0 18 0 0.4928 0.0000
0 18 1 -0.0749 0.0000
0 18 2 1.1979 0.0000
0 18 3 -0.3325 0.0000
0 18 4 0.4694 0.0000
0 18 5 0.1521 0.0000
0 18 6 -0.4017 0.0000
0 18 7 0.1824 0.0000
0 18 8 -0.5627 0.0000
0 18 9 0.3706 0.0000
0 18 10 -1.0525 0.0000
0 19 1 0.0478 0.0000
0 19 2 -0.2545 0.0000
0 19 3 0.4240 0.0000
0 19 4 -0.0181 0.0000
0 19 5 -1.5631 0.0000
0 19 6 2.0169 0.0000
0 19 7 -0.1210 0.0000
0 19 8 1.3344 0.0000
0 19 9 -1.6201 0.0000
0 20 0 -0.4817 0.0000
0 20 1 1.1104 0.0000
0 20 2 0.4313 0.0000
0 20 3 0.3362 0.0000
0 20 4 -0.2038 0.0000
0 20 5 0.5870 0.0000
0 20 6 -0.7300 0.0000
0 20 7 1.6208 0.0000
0 20 8 2.0222 0.0000
0 20 9 1.3385 0.0000
0 21 1 -1.6160 0.0000
0 21 2 0.4995 0.0000
0 21 3 0.2859 0.0000
0 21 4 0.0578 0.0000
0 21 5 -1.4619 0.0000
0 21 6 3.1567 0.0000
0 21 7 1.6441 0.0000
0 21 8 1.7445 0.0000
0 22 0 -1.8538 0.0000
0 22 1 0.9802 0.0000
0 22 2 0.4975 0.0000
0 22 3 -0.0976 0.0000
0 22 4 -0.5321 0.0000
0 22 5 1.3416 0.0000
0 22 6 -0.2475 0.0000
0 22 7 0.8579 0.0000
0 22 8 5.3123 0.0000
0 23 1 -2.5281 0.0000
0 23 2 0.0279 0.0000
0 23 3 -0.0069 0.0000
0 23 4 0.0082 0.0000
0 23 5 -1.2763 0.0000
0 23 6 2.3616 0.0000
0 23 7 3.1843 0.0000
0 24 0 -1.7870 0.0000
0 24 1 0.1926 0.0000
0 24 2 0.2703 0.0000
0 24 3 -0.7939 0.0000
0 24 4 -1.7743 0.0000
0 24 5 0.8675 0.0000
0 24 6 0.1711 0.0000
0 25 1 -2.6519 0.0000
0 25 2 0.2737 0.0000
0 25 3 -1.8632 0.0000
0 25 4 -0.3776 0.0000
0 25 5 -1.4377 0.0000
0 26 0 -1.0731 0.0000
0 26 1 0.4875 0.0000
0 26 2 -1.0635 0.0000
0 26 3 -0.8161 0.0000
0 26 4 -3.1973 0.0000
0 27 1 -2.9137 0.0000
0 27 2 1.7362 0.0000
0 27 3 -3.5566 0.0000
1 0 2 8.6078 0.0000
1 0 4 -19.7204 0.0000
1 0 6 -0.2579 0.0000
1 0 8 1.6370 0.0000
1 0 10 -0.0584 0.0000
1 0 12 -0.7236 0.0000
1 1 2 4.1332 0.0000
1 1 3 -17.1482 0.0000
1 1 4 3.2647 0.0000
1 1 5 -8.0640 0.0000
1 1 6 -0.2476 0.0000
1 1 7 2.9578 0.0000
1 1 8 -0.8325 0.0000
1 1 9 1.0876 0.0000
1 1 10 0.4745 0.0000
1 1 11 -0.4216 0.0000
1 1 12 -0.0026 0.0000
1 1 13 2.3263 0.0000
1 2 1 5.9795 0.0000
1 2 2 5.6116 0.0000
1 2 3 8.3443 0.0000
1 2 4 -18.1558 0.0000
1 2 5 2.3923 0.0000
1 2 6 0.3605 0.0000
1 2 7 -2.0400 0.0000
1 2 8 1.8809 0.0000
1 2 9 -0.7841 0.0000
1 2 10 -0.9344 0.0000
1 2 11 0.5771 0.0000
1 2 12 -0.4823 0.0000
1 2 13 -1.9757 0.0000
1 3 2 9.9048 0.0000
1 3 3 -16.1519 0.0000
1 3 4 8.1670 0.0000
1 3 5 -5.5633 0.0000
1 3 6 -0.8268 0.0000
1 3 7 3.8063 0.0000
1 3 8 -2.0896 0.0000
1 3 9 0.2446 0.0000
1 3 10 0.9159 0.0000
1 3 11 -1.1306 0.0000
1 3 12 -0.3011 0.0000
1 3 13 1.2939 0.0000
1 4 0 43.3284 0.0000
1 4 1 8.1742 0.0000
1 4 2 -0.6709 0.0000
1 4 3 11.9547 0.0000
1 4 4 -13.5181 0.0000
1 4 5 3.7334 0.0000
1 4 6 2.1873 0.0000
1 4 7 -3.5520 0.0000
1 4 8 2.5858 0.0000
1 4 9 -0.9471 0.0000
1 4 10 -2.0340 0.0000
1 4 11 -0.2347 0.0000
1 4 12 -0.0401 0.0000
1 4 13 -2.2731 0.0000
1 5 0 5.8784 0.0000
1 5 1 16.8270 0.0000
1 5 2 9.6954 0.0000
1 5 3 -12.8291 0.0000
1 5 4 9.0855 0.0000
1 5 5 -1.2941 0.0000
1 5 6 -1.3867 0.0000
1 5 7 4.9576 0.0000
1 5 8 -2.4636 0.0000
1 5 9 -0.0267 0.0000
1 5 10 0.5563 0.0000
1 5 11 -1.4141 0.0000
1 5 12 -0.5340 0.0000
1 5 13 -0.3323 0.0000
1 6 0 16.8267 0.0000
1 6 1 5.1282 0.0000
1 6 2 -5.2979 0.0000
1 6 3 9.3246 0.0000
1 6 4 -7.1721 0.0000
1 6 5 3.3563 0.0000
1 6 6 4.3034 0.0000
1 6 7 -3.7590 0.0000
1 6 8 3.1815 0.0000
1 6 9 -0.7013 0.0000
1 6 10 -1.8190 0.0000
1 6 11 -1.2845 0.0000
1 6 12 0.2395 0.0000
1 7 0 2.9728 0.0000
1 7 1 1.5805 0.0000
1 7 2 4.2140 0.0000
1 7 3 -7.7212 0.0000
1 7 4 6.1983 0.0000
1 7 5 2.3837 0.0000
1 7 6 -1.5923 0.0000
1 7 7 5.1488 0.0000
1 7 8 -2.0161 0.0000
1 7 9 0.1844 0.0000
1 7 10 0.0582 0.0000
1 7 11 -1.3178 0.0000
1 7 12 0.1016 0.0000
1 8 0 -0.6523 0.0000
1 8 1 -0.6735 0.0000
1 8 2 -6.1406 0.0000
1 8 3 3.4250 0.0000
1 8 4 -2.0196 0.0000
1 8 5 1.6694 0.0000
1 8 6 4.8872 0.0000
1 8 7 -2.4921 0.0000
1 8 8 2.6077 0.0000
1 8 9 -0.4169 0.0000
1 8 10 -1.5247 0.0000
1 8 11 -1.2166 0.0000
1 8 12 0.1970 0.0000
1 9 0 -0.2925 0.0000
1 9 1 -5.0998 0.0000
1 9 2 -1.8457 0.0000
1 9 3 -3.2650 0.0000
1 9 4 2.2679 0.0000
1 9 5 3.3836 0.0000
1 9 6 -1.3251 0.0000
1 9 7 3.5499 0.0000
1 9 8 -1.0575 0.0000
1 9 9 -0.2626 0.0000
1 9 10 0.0079 0.0000
1 9 11 -1.8757 0.0000
1 9 12 0.8334 0.0000
1 10 0 -6.2838 0.0000
1 10 1 -4.7264 0.0000
1 10 2 -4.3681 0.0000
1 10 3 -1.1169 0.0000
1 10 4 0.4717 0.0000
1 10 5 0.1529 0.0000
1 10 6 3.5164 0.0000
1 10 7 -0.7356 0.0000
1 10 8 0.9239 0.0000
1 10 9 0.0254 0.0000
1 10 10 -2.0302 0.0000
1 10 11 -0.5728 0.0000
1 10 12 -0.4638 0.0000
1 11 0 -1.9435 0.0000
1 11 1 -4.9139 0.0000
1 11 2 -4.5091 0.0000
1 11 3 -0.4718 0.0000
1 11 4 0.0881 0.0000
1 11 5 2.3717 0.0000
1 11 6 -0.7054 0.0000
1 11 7 1.1586 0.0000
1 11 8 -0.1482 0.0000
1 11 9 -0.7331 0.0000
1 11 10 0.5434 0.0000
1 11 11 -2.7016 0.0000
1 11 12 0.5300 0.0000
1 12 0 -5.0176 0.0000
1 12 1 -5.1112 0.0000
1 12 2 -1.6007 0.0000
1 12 3 -2.4625 0.0000
1 12 4 1.4513 0.0000
1 12 5 -0.1139 0.0000
1 12 6 1.8057 0.0000
1 12 7 0.1905 0.0000
1 12 8 -0.3336 0.0000
1 12 9 0.5858 0.0000
1 12 10 -1.7684 0.0000
1 12 11 -0.0414 0.0000
1 13 0 -1.7632 0.0000
1 13 1 -2.1169 0.0000
1 13 2 -4.2384 0.0000
1 13 3 1.4029 0.0000
1 13 4 -0.0277 0.0000
1 13 5 1.1810 0.0000
1 13 6 -0.0779 0.0000
1 13 7 -0.2944 0.0000
1 13 8 0.0672 0.0000
1 13 9 -0.0775 0.0000
1 13 10 1.4215 0.0000
1 13 11 -2.3504 0.0000
1 14 0 -2.3422 0.0000
1 14 1 -3.5793 0.0000
1 14 2 0.9866 0.0000
1 14 3 -2.0522 0.0000
1 14 4 1.8762 0.0000
1 14 5 0.3044 0.0000
1 14 6 0.8496 0.0000
1 14 7 -0.1095 0.0000
1 14 8 -0.4774 0.0000
1 14 9 0.7400 0.0000
1 14 10 -0.3055 0.0000
1 14 11 0.3551 0.0000
1 15 0 -0.6569 0.0000
1 15 1 0.3466 0.0000
1 15 2 -3.3356 0.0000
1 15 3 2.2145 0.0000
1 15 4 0.3392 0.0000
1 15 5 0.1221 0.0000
1 15 6 0.2132 0.0000
1 15 7 -0.6040 0.0000
1 15 8 -0.2072 0.0000
1 15 9 0.3894 0.0000
1 15 10 1.7799 0.0000
1 15 11 -0.9607 0.0000
1 16 0 -0.3200 0.0000
1 16 1 -1.7975 0.0000
1 16 2 2.0353 0.0000
1 16 3 -1.4133 0.0000
1 16 4 1.3263 0.0000
1 16 5 0.2834 0.0000
1 16 6 0.0966 0.0000
1 16 7 -0.6199 0.0000
1 16 8 -0.4943 0.0000
1 16 9 0.3860 0.0000
1 16 10 0.1633 0.0000
1 17 0 0.5646 0.0000
1 17 1 1.1630 0.0000
1 17 2 -2.1043 0.0000
1 17 3 1.3955 0.0000
1 17 4 0.0673 0.0000
1 17 5 -1.0600 0.0000
1 17 6 0.5856 0.0000
1 17 7 -0.5492 0.0000
1 17 8 0.0758 0.0000
1 17 9 -0.8441 0.0000
1 17 10 0.9068 0.0000
1 18 0 0.3711 0.0000
1 18 1 0.2969 0.0000
1 18 2 1.3219 0.0000
1 18 3 -0.8187 0.0000
1 18 4 0.2496 0.0000
1 18 5 0.0334 0.0000
1 18 6 -0.6731 0.0000
1 18 7 -0.1670 0.0000
1 18 8 -0.3879 0.0000
1 18 9 0.0895 0.0000
1 18 10 -1.0165 0.0000
1 19 0 1.3203 0.0000
1 19 1 0.2020 0.0000
1 19 2 -0.2813 0.0000
1 19 3 0.3196 0.0000
1 19 4 -0.5103 0.0000
1 19 5 -1.6066 0.0000
1 19 6 1.7612 0.0000
1 19 7 0.1908 0.0000
1 19 8 0.8500 0.0000
1 19 9 -1.9362 0.0000
1 20 0 -0.5970 0.0000
1 20 1 1.9544 0.0000
1 20 2 0.6292 0.0000
1 20 3 -0.4677 0.0000
1 20 4 -0.0255 0.0000
1 20 5 0.6016 0.0000
1 20 6 -0.6616 0.0000
1 20 7 0.5198 0.0000
1 20 8 1.4112 0.0000
1 20 9 0.0280 0.0000
1 21 0 1.0457 0.0000
1 21 1 -1.2382 0.0000
1 21 2 0.7791 0.0000
1 21 3 0.3736 0.0000
1 21 4 -0.4938 0.0000
1 21 5 -1.1549 0.0000
1 21 6 2.9743 0.0000
1 21 7 2.1137 0.0000
1 21 8 0.4097 0.0000
1 22 0 -1.7865 0.0000
1 22 1 1.6316 0.0000
1 22 2 0.8766 0.0000
1 22 3 -0.5397 0.0000
1 22 4 0.0210 0.0000
1 22 5 1.7158 0.0000
1 22 6 0.1008 0.0000
1 22 7 -0.4551 0.0000
1 23 0 -0.1317 0.0000
1 23 1 -1.8418 0.0000
1 23 2 0.5102 0.0000
1 23 3 -0.0446 0.0000
1 23 4 0.1451 0.0000
1 23 5 -0.7240 0.0000
1 23 6 2.4833 0.0000
1 23 7 3.6502 0.0000
1 24 0 -1.5553 0.0000
1 24 1 0.2472 0.0000
1 24 2 0.3723 0.0000
1 24 3 -0.6466 0.0000
1 24 4 -1.1659 0.0000
1 24 5 1.7550 0.0000
1 24 6 0.3837 0.0000
1 25 0 -1.1146 0.0000
1 25 1 -2.0418 0.0000
1 25 2 0.6208 0.0000
1 25 3 -2.5395 0.0000
1 25 4 0.2471 0.0000
1 25 5 -0.9192 0.0000
1 26 0 -0.7727 0.0000
1 26 1 0.2186 0.0000
1 26 2 -1.6374 0.0000
1 26 3 -0.7119 0.0000
1 26 4 -2.8629 0.0000
1 27 0 -1.1312 0.0000
1 27 1 -2.5731 0.0000
1 27 2 1.7480 0.0000
2 0 2 -2.6147 0.0000
2 0 4 -17.8608 0.0000
2 0 6 0.5117 0.0000
2 0 8 1.7082 0.0000
2 0 10 0.3422 0.0000
2 0 12 -1.0397 0.0000
2 1 0 4.5269 0.0000
2 1 2 4.7561 0.0000
2 1 3 -20.0042 0.0000
2 1 4 2.2626 0.0000
2 1 5 -5.9608 0.0000
2 1 6 -0.9782 0.0000
2 1 7 2.6855 0.0000
2 1 8 -0.5430 0.0000
2 1 9 1.1581 0.0000
2 1 10 0.6784 0.0000
2 1 11 -0.4791 0.0000
2 1 12 0.1295 0.0000
2 1 13 3.1802 0.0000
2 2 1 8.6039 0.0000
2 2 2 -3.5407 0.0000
2 2 3 7.4973 0.0000
2 2 4 -15.7912 0.0000
2 2 5 0.4936 0.0000
2 2 6 1.0514 0.0000
2 2 7 -2.5458 0.0000
2 2 8 1.8750 0.0000
2 2 9 -0.1008 0.0000
2 2 10 -0.4956 0.0000
2 2 11 0.4161 0.0000
2 2 12 -1.0334 0.0000
2 3 0 10.6176 0.0000
2 3 2 11.2985 0.0000
2 3 3 -16.8109 0.0000
2 3 4 5.6020 0.0000
2 3 5 -3.3755 0.0000
2 3 6 -2.8007 0.0000
2 3 7 3.3075 0.0000
2 3 8 -1.3664 0.0000
2 3 9 0.3248 0.0000
2 3 10 1.3149 0.0000
2 3 11 -1.4140 0.0000
2 3 12 -0.0596 0.0000
2 4 0 37.3584 0.0000
2 4 1 11.5492 0.0000
2 4 2 -4.9919 0.0000
2 4 3 10.6927 0.0000
2 4 4 -10.3390 0.0000
2 4 5 0.6133 0.0000
2 4 6 2.5089 0.0000
2 4 7 -4.3290 0.0000
2 4 8 2.1361 0.0000
2 4 9 -0.0678 0.0000
2 4 10 -1.8024 0.0000
2 4 11 -0.6540 0.0000
2 4 12 -0.8741 0.0000
2 5 0 10.2785 0.0000
2 5 1 11.9339 0.0000
2 5 2 11.0440 0.0000
2 5 3 -10.9689 0.0000
2 5 4 6.2008 0.0000
2 5 5 0.5642 0.0000
2 5 6 -3.7670 0.0000
2 5 7 3.9767 0.0000
2 5 8 -1.4647 0.0000
2 5 9 -0.4878 0.0000
2 5 10 0.7792 0.0000
2 5 11 -1.8306 0.0000
2 5 12 -0.4299 0.0000
2 6 0 15.3099 0.0000
2 6 1 7.3381 0.0000
2 6 2 -4.9842 0.0000
2 6 3 8.4309 0.0000
2 6 4 -3.9816 0.0000
2 6 5 0.4021 0.0000
2 6 6 4.0161 0.0000
2 6 7 -4.2457 0.0000
2 6 8 1.9614 0.0000
2 6 9 0.0026 0.0000
2 6 10 -2.0929 0.0000
2 6 11 -2.0177 0.0000
2 6 12 -0.1296 0.0000
2 7 0 4.9852 0.0000
2 7 1 1.6470 0.0000
2 7 2 5.1794 0.0000
2 7 3 -4.7926 0.0000
2 7 4 4.3779 0.0000
2 7 5 3.4833 0.0000
2 7 6 -3.1918 0.0000
2 7 7 3.8474 0.0000
2 7 8 -0.7742 0.0000
2 7 9 -1.0553 0.0000
2 7 10 -0.0260 0.0000
2 7 11 -1.1855 0.0000
2 7 12 0.0973 0.0000
2 8 0 0.5548 0.0000
2 8 1 -0.2352 0.0000
2 8 2 -3.5837 0.0000
2 8 3 3.4332 0.0000
2 8 4 0.2284 0.0000
2 8 5 0.0601 0.0000
2 8 6 4.2626 0.0000
2 8 7 -2.3371 0.0000
2 8 8 0.9989 0.0000
2 8 9 0.0015 0.0000
2 8 10 -1.8790 0.0000
2 8 11 -2.1544 0.0000
2 8 12 1.1982 0.0000
2 9 0 -0.8420 0.0000
2 9 1 -3.0628 0.0000
2 9 2 -1.2253 0.0000
2 9 3 -0.9499 0.0000
2 9 4 1.9105 0.0000
2 9 5 3.8255 0.0000
2 9 6 -1.7052 0.0000
2 9 7 2.5624 0.0000
2 9 8 0.1975 0.0000
2 9 9 -1.6576 0.0000
2 9 10 -0.3565 0.0000
2 9 11 -0.5486 0.0000
2 9 12 0.9032 0.0000
2 10 0 -4.6561 0.0000
2 10 1 -5.5643 0.0000
2 10 2 -2.0345 0.0000
2 10 3 -0.4486 0.0000
2 10 4 1.4726 0.0000
2 10 5 -0.2467 0.0000
2 10 6 3.0545 0.0000
2 10 7 -0.2249 0.0000
2 10 8 -0.2916 0.0000
2 10 9 0.0376 0.0000
2 10 10 -1.8690 0.0000
2 10 11 -1.6673 0.0000
2 10 12 1.9048 0.0000
2 11 0 -3.7762 0.0000
2 11 1 -3.2276 0.0000
2 11 2 -4.2038 0.0000
2 11 3 0.4883 0.0000
2 11 4 0.4617 0.0000
2 11 5 2.4635 0.0000
2 11 6 -0.5218 0.0000
2 11 7 0.9037 0.0000
2 11 8 0.9012 0.0000
2 11 9 -1.6082 0.0000
2 11 10 -0.2088 0.0000
2 11 11 -0.5961 0.0000
2 12 0 -4.0466 0.0000
2 12 1 -6.3943 0.0000
2 12 2 -0.4939 0.0000
2 12 3 -1.6914 0.0000
2 12 4 1.4347 0.0000
2 12 5 -0.2841 0.0000
2 12 6 1.5833 0.0000
2 12 7 0.7533 0.0000
2 12 8 -0.7355 0.0000
2 12 9 0.2291 0.0000
2 12 10 -1.2025 0.0000
2 12 11 -1.4106 0.0000
2 13 0 -3.4734 0.0000
2 13 1 -1.2865 0.0000
2 13 2 -4.1355 0.0000
2 13 3 1.2431 0.0000
2 13 4 0.3766 0.0000
2 13 5 1.0399 0.0000
2 13 6 -0.0229 0.0000
2 13 7 0.0459 0.0000
2 13 8 1.2057 0.0000
2 13 9 -0.1918 0.0000
2 13 10 0.3141 0.0000
2 13 11 -0.6400 0.0000
2 14 0 -1.9453 0.0000
2 14 1 -4.6381 0.0000
2 14 2 1.1822 0.0000
2 14 3 -1.3492 0.0000
2 14 4 1.2765 0.0000
2 14 5 -0.0828 0.0000
2 14 6 0.6541 0.0000
2 14 7 0.6248 0.0000
2 14 8 -0.0862 0.0000
2 14 9 0.4084 0.0000
2 14 10 0.3121 0.0000
2 14 11 -0.9765 0.0000
2 15 0 -1.5339 0.0000
2 15 1 0.7089 0.0000
2 15 2 -3.2274 0.0000
2 15 3 1.5404 0.0000
2 15 4 0.7355 0.0000
2 15 5 -0.0830 0.0000
2 15 6 0.0705 0.0000
2 15 7 0.0172 0.0000
2 15 8 1.2194 0.0000
2 15 9 1.0408 0.0000
2 15 10 0.8822 0.0000
2 16 0 -0.3334 0.0000
2 16 1 -2.3678 0.0000
2 16 2 1.8747 0.0000
2 16 3 -0.8210 0.0000
2 16 4 0.6634 0.0000
2 16 5 -0.1037 0.0000
2 16 6 -0.0264 0.0000
2 16 7 0.0648 0.0000
2 16 8 0.2532 0.0000
2 16 9 0.2704 0.0000
2 16 10 0.7866 0.0000
2 17 0 0.5891 0.0000
2 17 1 1.2880 0.0000
2 17 2 -2.0190 0.0000
2 17 3 0.6971 0.0000
2 17 4 0.4198 0.0000
2 17 5 -0.9715 0.0000
2 17 6 0.2077 0.0000
2 17 7 0.0220 0.0000
2 17 8 1.0305 0.0000
2 17 9 0.0144 0.0000
2 17 10 0.7648 0.0000
2 18 0 0.0693 0.0000
2 18 1 0.1133 0.0000
2 18 2 1.0930 0.0000
2 18 3 -0.6818 0.0000
2 18 4 -0.0305 0.0000
2 18 5 -0.3021 0.0000
2 18 6 -0.5720 0.0000
2 18 7 -0.3795 0.0000
2 18 8 -0.3188 0.0000
2 18 9 -0.1882 0.0000
2 19 0 1.9067 0.0000
2 19 1 0.3117 0.0000
2 19 2 -0.3926 0.0000
2 19 3 -0.1069 0.0000
2 19 4 -0.4619 0.0000
2 19 5 -1.0773 0.0000
2 19 6 0.9113 0.0000
2 19 7 0.2052 0.0000
2 19 8 0.5357 0.0000
2 19 9 -2.0228 0.0000
2 20 0 -0.7312 0.0000
2 20 1 1.9604 0.0000
2 20 2 0.5367 0.0000
2 20 3 -0.8662 0.0000
2 20 4 0.2913 0.0000
2 20 5 0.2785 0.0000
2 20 6 -0.5269 0.0000
2 20 7 -0.7975 0.0000
2 20 8 -0.1293 0.0000
2 21 0 1.5213 0.0000
2 21 1 -0.7592 0.0000
2 21 2 0.5992 0.0000
2 21 3 0.3597 0.0000
2 21 4 -0.4805 0.0000
2 21 5 -0.3691 0.0000
2 21 6 1.9452 0.0000
2 21 7 1.2313 0.0000
2 21 8 -0.5359 0.0000
2 22 0 -1.3986 0.0000
2 22 1 1.6580 0.0000
2 22 2 0.9727 0.0000
2 22 3 -0.8506 0.0000
2 22 4 0.9780 0.0000
2 22 5 1.8562 0.0000
2 22 6 -0.0149 0.0000
2 22 7 -1.7757 0.0000
2 23 0 -0.3510 0.0000
2 23 1 -1.0038 0.0000
2 23 2 0.4895 0.0000
2 23 3 0.2591 0.0000
2 23 4 0.8306 0.0000
2 23 5 0.1899 0.0000
2 23 6 2.1519 0.0000
2 23 7 2.2419 0.0000
2 24 0 -0.8808 0.0000
2 24 1 0.1117 0.0000
2 24 2 0.3472 0.0000
2 24 3 -0.4228 0.0000
2 24 4 0.3255 0.0000
2 24 5 2.8239 0.0000
2 24 6 0.1010 0.0000
2 25 0 -1.9148 0.0000
2 25 1 -1.3213 0.0000
2 25 2 0.5646 0.0000
2 25 3 -2.2280 0.0000
2 25 4 1.6011 0.0000
2 25 5 0.0673 0.0000
2 26 0 -0.1524 0.0000
2 26 1 -0.1102 0.0000
2 26 2 -2.0731 0.0000
2 26 3 -0.3556 0.0000
2 26 4 -1.2678 0.0000
2 27 0 -1.8778 0.0000
2 27 1 -2.1562 0.0000
2 27 2 1.3896 0.0000
3 0 0 49.1012 0.0000
3 0 2 -10.9403 0.0000
3 0 4 -14.4360 0.0000
3 0 6 1.8124 0.0000
3 0 8 2.0616 0.0000
3 0 10 0.1477 0.0000
3 0 12 -0.1854 0.0000
3 1 0 5.5184 0.0000
3 1 1 18.0086 0.0000
3 1 2 4.3873 0.0000
3 1 3 -19.9367 0.0000
3 1 4 0.8574 0.0000
3 1 5 -3.5462 0.0000
3 1 6 -1.5609 0.0000
3 1 7 2.9078 0.0000
3 1 8 -0.2350 0.0000
3 1 9 0.7661 0.0000
3 1 10 0.6729 0.0000
3 1 11 -0.6499 0.0000
3 1 12 0.4086 0.0000
3 2 0 43.2089 0.0000
3 2 1 9.2705 0.0000
3 2 2 -10.0276 0.0000
3 2 3 5.2894 0.0000
3 2 4 -12.2259 0.0000
3 2 5 -1.4846 0.0000
3 2 6 2.0456 0.0000
3 2 7 -2.5674 0.0000
3 2 8 2.1070 0.0000
3 2 9 0.2186 0.0000
3 2 10 -0.3715 0.0000
3 2 11 0.3268 0.0000
3 2 12 -0.3688 0.0000
3 3 0 12.7991 0.0000
3 3 1 13.5023 0.0000
3 3 2 10.3492 0.0000
3 3 3 -15.3044 0.0000
3 3 4 2.1675 0.0000
3 3 5 -1.4433 0.0000
3 3 6 -4.1335 0.0000
3 3 7 3.0399 0.0000
3 3 8 -0.5135 0.0000
3 3 9 0.1994 0.0000
3 3 10 1.2638 0.0000
3 3 11 -1.4516 0.0000
3 3 12 0.7503 0.0000
3 4 0 28.8105 0.0000
3 4 1 12.2131 0.0000
3 4 2 -7.4330 0.0000
3 4 3 7.5737 0.0000
3 4 4 -6.9003 0.0000
3 4 5 -2.3114 0.0000
3 4 6 2.6487 0.0000
3 4 7 -4.0618 0.0000
3 4 8 1.8197 0.0000
3 4 9 0.2280 0.0000
3 4 10 -1.3293 0.0000
3 4 11 -0.6534 0.0000
3 4 12 -0.6730 0.0000
3 5 1 7.1304 0.0000
3 5 2 10.0989 0.0000
3 5 3 -8.3060 0.0000
3 5 4 2.5252 0.0000
3 5 5 1.4765 0.0000
3 5 6 -5.0103 0.0000
3 5 7 2.9093 0.0000
3 5 8 -0.2823 0.0000
3 5 9 -0.8180 0.0000
3 5 10 0.5777 0.0000
3 5 11 -1.8806 0.0000
3 5 12 0.6170 0.0000
3 6 0 13.1512 0.0000
3 6 1 7.6591 0.0000
3 6 2 -3.9528 0.0000
3 6 3 6.1205 0.0000
3 6 4 -1.5057 0.0000
3 6 5 -2.1322 0.0000
3 6 6 3.2163 0.0000
3 6 7 -3.5977 0.0000
3 6 8 0.8008 0.0000
3 6 9 -0.0043 0.0000
3 6 10 -1.7578 0.0000
3 6 11 -2.0298 0.0000
3 6 12 -0.2811 0.0000
3 7 0 5.5726 0.0000
3 7 1 1.9248 0.0000
3 7 2 5.0024 0.0000
3 7 3 -2.2967 0.0000
3 7 4 2.0070 0.0000
3 7 5 3.3643 0.0000
3 7 6 -3.8314 0.0000
3 7 7 2.3267 0.0000
3 7 8 0.4018 0.0000
3 7 9 -1.8907 0.0000
3 7 10 -0.4075 0.0000
3 7 11 -1.0440 0.0000
3 7 12 0.8671 0.0000
3 8 0 2.2069 0.0000
3 8 1 -0.0742 0.0000
3 8 2 -1.1595 0.0000
3 8 3 2.8367 0.0000
3 8 4 1.4229 0.0000
3 8 5 -1.3318 0.0000
3 8 6 3.1300 0.0000
3 8 7 -1.6843 0.0000
3 8 8 -0.5441 0.0000
3 8 9 -0.2829 0.0000
3 8 10 -1.4900 0.0000
3 8 11 -2.4210 0.0000
3 8 12 1.3392 0.0000
3 9 0 -1.4417 0.0000
3 9 1 -0.8349 0.0000
3 9 2 -0.4933 0.0000
3 9 3 0.5779 0.0000
3 9 4 1.1800 0.0000
3 9 5 3.2885 0.0000
3 9 6 -1.8298 0.0000
3 9 7 1.3759 0.0000
3 9 8 1.0429 0.0000
3 9 9 -2.5063 0.0000
3 9 10 -0.8342 0.0000
3 9 11 0.5339 0.0000
3 9 12 1.2456 0.0000
3 10 0 -2.4768 0.0000
3 10 1 -5.4977 0.0000
3 10 2 -0.0140 0.0000
3 10 3 0.2511 0.0000
3 10 4 1.7710 0.0000
3 10 5 -0.6743 0.0000
3 10 6 2.1698 0.0000
3 10 7 0.0776 0.0000
3 10 8 -1.5181 0.0000
3 10 9 -0.4917 0.0000
3 10 10 -0.8483 0.0000
3 10 11 -2.2250 0.0000
3 11 0 -4.9905 0.0000
3 11 1 -1.4658 0.0000
3 11 2 -3.1651 0.0000
3 11 3 0.9943 0.0000
3 11 4 0.6443 0.0000
3 11 5 1.9330 0.0000
3 11 6 -0.4320 0.0000
3 11 7 0.3549 0.0000
3 11 8 1.3541 0.0000
3 11 9 -2.0885 0.0000
3 11 10 -0.9463 0.0000
3 11 11 1.5750 0.0000
3 12 0 -2.8784 0.0000
3 12 1 -6.5199 0.0000
3 12 2 0.3554 0.0000
3 12 3 -0.6317 0.0000
3 12 4 1.1865 0.0000
3 12 5 -0.3673 0.0000
3 12 6 0.8611 0.0000
3 12 7 0.9309 0.0000
3 12 8 -1.4959 0.0000
3 12 9 -0.7281 0.0000
3 12 10 0.1811 0.0000
3 12 11 -2.2016 0.0000
3 13 0 -4.6973 0.0000
3 13 1 -0.6223 0.0000
3 13 2 -3.2545 0.0000
3 13 3 0.9197 0.0000
3 13 4 0.7198 0.0000
3 13 5 0.5178 0.0000
3 13 6 0.2091 0.0000
3 13 7 -0.1284 0.0000
3 13 8 1.5406 0.0000
3 13 9 -0.4257 0.0000
3 13 10 -0.9481 0.0000
3 13 11 1.5148 0.0000
3 14 0 -1.6635 0.0000
3 14 1 -4.8633 0.0000
3 14 2 1.0144 0.0000
3 14 3 -0.3500 0.0000
3 14 4 0.7152 0.0000
3 14 5 -0.1636 0.0000
3 14 6 -0.0499 0.0000
3 14 7 1.1514 0.0000
3 14 8 -0.4275 0.0000
3 14 9 -0.9434 0.0000
3 14 10 1.3129 0.0000
3 15 0 -2.4445 0.0000
3 15 1 0.7025 0.0000
3 15 2 -2.4731 0.0000
3 15 3 0.7664 0.0000
3 15 4 1.0864 0.0000
3 15 5 -0.3328 0.0000
3 15 6 0.4421 0.0000
3 15 7 0.1377 0.0000
3 15 8 1.6475 0.0000
3 15 9 1.1574 0.0000
3 15 10 -0.3956 0.0000
3 16 0 -0.5498 0.0000
3 16 1 -2.6456 0.0000
3 16 2 1.2654 0.0000
3 16 3 0.1048 0.0000
3 16 4 0.2514 0.0000
3 16 5 -0.2022 0.0000
3 16 6 -0.3244 0.0000
3 16 7 0.7867 0.0000
3 16 8 0.3778 0.0000
3 16 9 -0.9285 0.0000
3 16 10 1.3843 0.0000
3 17 0 -0.0293 0.0000
3 17 1 1.1144 0.0000
3 17 2 -1.4789 0.0000
3 17 3 -0.0564 0.0000
3 17 4 0.8115 0.0000
3 17 5 -0.4850 0.0000
3 17 6 0.3635 0.0000
3 17 7 0.4179 0.0000
3 17 8 1.3254 0.0000
3 17 9 0.6353 0.0000
3 18 0 -0.2547 0.0000
3 18 1 -0.4282 0.0000
3 18 2 0.4733 0.0000
3 18 3 -0.0650 0.0000
3 18 4 0.0202 0.0000
3 18 5 -0.5464 0.0000
3 18 6 -0.3036 0.0000
3 18 7 -0.1935 0.0000
3 18 8 -0.3214 0.0000
3 18 9 -0.7409 0.0000
3 19 0 1.4649 0.0000
3 19 1 0.3676 0.0000
3 19 2 -0.3772 0.0000
3 19 3 -0.6637 0.0000
3 19 4 -0.2050 0.0000
3 19 5 -0.0850 0.0000
3 19 6 0.3932 0.0000
3 19 7 0.1851 0.0000
3 19 8 0.4691 0.0000
3 19 9 -1.5622 0.0000
3 20 0 -0.5257 0.0000
3 20 1 1.1775 0.0000
3 20 2 0.0088 0.0000
3 20 3 -0.7811 0.0000
3 20 4 0.6183 0.0000
3 20 5 -0.2549 0.0000
3 20 6 -0.3815 0.0000
3 20 7 -1.3057 0.0000
3 20 8 -1.4211 0.0000
3 21 0 1.2411 0.0000
3 21 1 -0.2390 0.0000
3 21 2 0.1963 0.0000
3 21 3 -0.0085 0.0000
3 21 4 -0.3459 0.0000
3 21 5 0.3958 0.0000
3 21 6 0.9609 0.0000
3 21 7 -0.0064 0.0000
3 22 0 -0.4811 0.0000
3 22 1 1.0483 0.0000
3 22 2 0.5279 0.0000
3 22 3 -0.9674 0.0000
3 22 4 1.5260 0.0000
3 22 5 1.3771 0.0000
3 22 6 -0.5450 0.0000
3 22 7 -2.1351 0.0000
3 23 0 -0.4710 0.0000
3 23 1 -0.2480 0.0000
3 23 2 0.0832 0.0000
3 23 3 0.3418 0.0000
3 23 4 1.2917 0.0000
3 23 5 0.6625 0.0000
3 23 6 1.5860 0.0000
3 24 0 0.0578 0.0000
3 24 1 -0.2144 0.0000
3 24 2 0.0173 0.0000
3 24 3 -0.2652 0.0000
3 24 4 1.5235 0.0000
3 24 5 3.0638 0.0000
3 25 0 -1.9555 0.0000
3 25 1 -0.8135 0.0000
3 25 2 0.1318 0.0000
3 25 3 -1.4225 0.0000
3 25 4 2.6923 0.0000
3 26 0 0.2367 0.0000
3 26 1 -0.5314 0.0000
3 26 2 -2.2937 0.0000
3 26 3 0.0557 0.0000
3 27 0 -1.9177 0.0000
3 27 1 -1.9877 0.0000
4 0 0 30.9909 0.0000
4 0 2 -14.8601 0.0000
4 0 4 -10.0080 0.0000
4 0 6 3.2231 0.0000
4 0 8 2.2378 0.0000
4 0 10 -0.2223 0.0000
4 0 12 1.7345 0.0000
4 1 0 5.2897 0.0000
4 1 1 4.9456 0.0000
4 1 2 3.1985 0.0000
4 1 3 -17.1481 0.0000
4 1 4 -0.4663 0.0000
4 1 5 -1.1302 0.0000
4 1 6 -1.6842 0.0000
4 1 7 3.1677 0.0000
4 1 8 -0.0356 0.0000
4 1 9 -0.0352 0.0000
4 1 10 0.5817 0.0000
4 1 11 -0.4382 0.0000
4 1 12 0.6419 0.0000
4 2 0 27.6917 0.0000
4 2 1 7.9277 0.0000
4 2 2 -12.7645 0.0000
4 2 3 2.4561 0.0000
4 2 4 -8.2107 0.0000
4 2 5 -2.7066 0.0000
4 2 6 3.0116 0.0000
4 2 7 -2.0628 0.0000
4 2 8 2.2361 0.0000
4 2 9 0.1364 0.0000
4 2 10 -0.2655 0.0000
4 2 11 0.4588 0.0000
4 2 12 1.3554 0.0000
4 3 0 12.0975 0.0000
4 3 1 4.4101 0.0000
4 3 2 7.5509 0.0000
4 3 3 -12.3145 0.0000
4 3 4 -0.9262 0.0000
4 3 5 -0.0817 0.0000
4 3 6 -4.1640 0.0000
4 3 7 2.8177 0.0000
4 3 8 0.0009 0.0000
4 3 9 -0.0384 0.0000
4 3 10 1.1963 0.0000
4 3 11 -1.0040 0.0000
4 3 12 1.7710 0.0000
4 4 0 19.6734 0.0000
4 4 1 10.2838 0.0000
4 4 2 -7.7786 0.0000
4 4 3 3.7129 0.0000
4 4 4 -4.0919 0.0000
4 4 5 -3.8238 0.0000
4 4 6 2.6079 0.0000
4 4 7 -2.9743 0.0000
4 4 8 1.6581 0.0000
4 4 9 -0.1147 0.0000
4 4 10 -0.5408 0.0000
4 4 11 0.2596 0.0000
4 4 12 0.3759 0.0000
4 5 0 11.1715 0.0000
4 5 1 3.4888 0.0000
4 5 2 7.4883 0.0000
4 5 3 -5.7496 0.0000
4 5 4 -0.5934 0.0000
4 5 5 1.4350 0.0000
4 5 6 -4.5604 0.0000
4 5 7 2.0264 0.0000
4 5 8 0.2523 0.0000
4 5 9 -0.7570 0.0000
4 5 10 0.7146 0.0000
4 5 11 -1.6412 0.0000
4 5 12 2.5116 0.0000
4 6 0 10.7665 0.0000
4 6 1 6.4318 0.0000
4 6 2 -2.6020 0.0000
4 6 3 3.3163 0.0000
4 6 4 -0.2554 0.0000
4 6 5 -3.1646 0.0000
4 6 6 2.3699 0.0000
4 6 7 -2.3331 0.0000
4 6 8 0.1543 0.0000
4 6 9 -0.7681 0.0000
4 6 10 -0.9440 0.0000
4 6 11 -0.4625 0.0000
4 6 12 -0.3568 0.0000
4 7 0 4.9084 0.0000
4 7 1 2.3964 0.0000
4 7 2 4.0906 0.0000
4 7 3 -0.8312 0.0000
4 7 4 0.0234 0.0000
4 7 5 2.4844 0.0000
4 7 6 -3.1791 0.0000
4 7 7 1.1699 0.0000
4 7 8 0.6233 0.0000
4 7 9 -1.9223 0.0000
4 7 10 -0.2342 0.0000
4 7 11 -1.3761 0.0000
4 8 0 3.7908 0.0000
4 8 1 0.1855 0.0000
4 8 2 0.6181 0.0000
4 8 3 1.9878 0.0000
4 8 4 1.5768 0.0000
4 8 5 -1.7910 0.0000
4 8 6 2.1675 0.0000
4 8 7 -0.9627 0.0000
4 8 8 -1.3887 0.0000
4 8 9 -1.2574 0.0000
4 8 10 -0.7967 0.0000
4 8 11 -1.1385 0.0000
4 9 0 -1.6309 0.0000
4 9 1 1.1988 0.0000
4 9 2 0.3659 0.0000
4 9 3 1.1170 0.0000
4 9 4 0.4531 0.0000
4 9 5 2.3521 0.0000
4 9 6 -1.4658 0.0000
4 9 7 0.5279 0.0000
4 9 8 0.9536 0.0000
4 9 9 -2.4718 0.0000
4 9 10 -0.7442 0.0000
4 9 11 0.2885 0.0000
4 10 0 -0.3044 0.0000
4 10 1 -4.2450 0.0000
4 10 2 1.3585 0.0000
4 10 3 0.8425 0.0000
4 10 4 1.5093 0.0000
4 10 5 -0.7557 0.0000
4 10 6 1.3990 0.0000
4 10 7 0.0483 0.0000
4 10 8 -2.2159 0.0000
4 10 9 -1.2998 0.0000
4 10 10 0.2644 0.0000
4 10 11 -1.6805 0.0000
4 11 0 -5.0421 0.0000
4 11 1 0.1374 0.0000
4 11 2 -1.6335 0.0000
4 11 3 1.0274 0.0000
4 11 4 0.6310 0.0000
4 11 5 1.0974 0.0000
4 11 6 -0.3598 0.0000
4 11 7 -0.1431 0.0000
4 11 8 1.1880 0.0000
4 11 9 -1.9236 0.0000
4 11 10 -0.9985 0.0000
4 11 11 2.2889 0.0000
4 12 0 -1.7584 0.0000
4 12 1 -5.2753 0.0000
4 12 2 0.8897 0.0000
4 12 3 0.3251 0.0000
4 12 4 0.7198 0.0000
4 12 5 -0.2738 0.0000
4 12 6 -0.0552 0.0000
4 12 7 0.5977 0.0000
4 12 8 -2.2018 0.0000
4 12 9 -1.5103 0.0000
4 12 10 1.6562 0.0000
4 12 11 -2.0980 0.0000
4 13 0 -4.9286 0.0000
4 13 1 -0.1329 0.0000
4 13 2 -1.9574 0.0000
4 13 3 0.5932 0.0000
4 13 4 0.7599 0.0000
4 13 5 -0.3833 0.0000
4 13 6 0.3087 0.0000
4 13 7 -0.6457 0.0000
4 13 8 1.2995 0.0000
4 13 9 -0.4894 0.0000
4 13 10 -1.4074 0.0000
4 14 0 -1.5466 0.0000
4 14 1 -4.0648 0.0000
4 14 2 0.7357 0.0000
4 14 3 0.3543 0.0000
4 14 4 0.1891 0.0000
4 14 5 -0.0835 0.0000
4 14 6 -1.2331 0.0000
4 14 7 0.9430 0.0000
4 14 8 -1.2606 0.0000
4 14 9 -2.1639 0.0000
4 14 10 2.3813 0.0000
4 15 0 -2.9479 0.0000
4 15 1 0.4251 0.0000
4 15 2 -1.5067 0.0000
4 15 3 0.3633 0.0000
4 15 4 0.9400 0.0000
4 15 5 -0.9265 0.0000
4 15 6 0.7047 0.0000
4 15 7 -0.3447 0.0000
4 15 8 1.1493 0.0000
4 15 9 0.9573 0.0000
4 15 10 -1.1679 0.0000
4 16 0 -0.9103 0.0000
4 16 1 -2.3840 0.0000
4 16 2 0.7109 0.0000
4 16 3 0.6361 0.0000
4 16 4 0.1528 0.0000
4 16 5 -0.1859 0.0000
4 16 6 -1.1880 0.0000
4 16 7 0.7297 0.0000
4 16 8 -0.1435 0.0000
4 16 9 -2.3837 0.0000
4 17 0 -0.9025 0.0000
4 17 1 0.7577 0.0000
4 17 2 -0.7668 0.0000
4 17 3 -0.1657 0.0000
4 17 4 0.7202 0.0000
4 17 5 -0.2206 0.0000
4 17 6 0.6542 0.0000
4 17 7 0.3452 0.0000
4 17 8 0.6914 0.0000
4 17 9 0.9634 0.0000
4 18 0 -0.4570 0.0000
4 18 1 -0.8867 0.0000
4 18 2 0.0321 0.0000
4 18 3 0.4715 0.0000
4 18 4 0.4326 0.0000
4 18 5 -0.5917 0.0000
4 18 6 -0.4731 0.0000
4 18 7 -0.1699 0.0000
4 18 8 -0.3532 0.0000
4 18 9 -1.6064 0.0000
4 19 0 0.3588 0.0000
4 19 1 0.3933 0.0000
4 19 2 -0.0834 0.0000
4 19 3 -0.7083 0.0000
4 19 4 -0.1367 0.0000
4 19 5 0.6575 0.0000
4 19 6 0.4943 0.0000
4 19 7 0.2739 0.0000
4 19 8 0.1908 0.0000
4 20 0 0.0479 0.0000
4 20 1 0.2291 0.0000
4 20 2 -0.5268 0.0000
4 20 3 -0.4239 0.0000
4 20 4 0.8444 0.0000
4 20 5 -0.5995 0.0000
4 20 6 -0.4169 0.0000
4 20 7 -1.0361 0.0000
4 20 8 -1.7000 0.0000
4 21 0 0.5713 0.0000
4 21 1 0.1526 0.0000
4 21 2 0.0548 0.0000
4 21 3 -0.4278 0.0000
4 21 4 -0.4794 0.0000
4 21 5 0.6640 0.0000
4 21 6 0.7672 0.0000
4 21 7 -0.4882 0.0000
4 22 0 0.6986 0.0000
4 22 1 0.3713 0.0000
4 22 2 -0.2506 0.0000
4 22 3 -1.0427 0.0000
4 22 4 1.2748 0.0000
4 22 5 0.4972 0.0000
4 22 6 -1.0138 0.0000
4 23 0 -0.1401 0.0000
4 23 1 0.1721 0.0000
4 23 2 -0.2884 0.0000
4 23 3 0.0089 0.0000
4 23 4 0.7566 0.0000
4 23 5 0.4037 0.0000
4 23 6 1.2654 0.0000
4 24 0 0.8554 0.0000
4 24 1 -0.3837 0.0000
4 24 2 -0.5295 0.0000
4 24 3 -0.6274 0.0000
4 24 4 1.6224 0.0000
4 24 5 2.0248 0.0000
4 25 0 -0.9896 0.0000
4 25 1 -0.5813 0.0000
4 25 2 -0.4556 0.0000
4 25 3 -0.7282 0.0000
4 25 4 2.2584 0.0000
4 26 0 0.1308 0.0000
4 26 1 -0.8470 0.0000
4 26 2 -2.1645 0.0000
5 0 0 15.6577 0.0000
5 0 2 -14.8750 0.0000
5 0 4 -5.4667 0.0000
5 0 6 3.8252 0.0000
5 0 8 2.0845 0.0000
5 0 10 -0.1853 0.0000
5 0 12 3.1596 0.0000
5 1 0 4.0793 0.0000
5 1 1 -3.2907 0.0000
5 1 2 1.7365 0.0000
5 1 3 -12.9179 0.0000
5 1 4 -1.2643 0.0000
5 1 5 0.7957 0.0000
5 1 6 -1.3878 0.0000
5 1 7 2.7613 0.0000
5 1 8 0.0098 0.0000
5 1 9 -0.5478 0.0000
5 1 10 0.5065 0.0000
5 1 11 -0.2392 0.0000
5 1 12 0.5624 0.0000
5 2 0 14.5892 0.0000
5 2 1 5.3395 0.0000
5 2 2 -12.4182 0.0000
5 2 3 0.0460 0.0000
5 2 4 -4.4698 0.0000
5 2 5 -2.8568 0.0000
5 2 6 3.3456 0.0000
5 2 7 -1.3868 0.0000
5 2 8 2.1543 0.0000
5 2 9 -0.0250 0.0000
5 2 10 0.1027 0.0000
5 2 11 0.5606 0.0000
5 3 0 9.1627 0.0000
5 3 1 -1.1981 0.0000
5 3 2 4.1798 0.0000
5 3 3 -9.0122 0.0000
5 3 4 -2.6964 0.0000
5 3 5 0.7286 0.0000
5 3 6 -3.2098 0.0000
5 3 7 2.3333 0.0000
5 3 8 0.0546 0.0000
5 3 9 -0.0292 0.0000
5 3 10 1.4959 0.0000
5 3 11 -0.6974 0.0000
5 4 0 11.9275 0.0000
5 4 1 6.8461 0.0000
5 4 2 -6.8825 0.0000
5 4 3 0.5091 0.0000
5 4 4 -2.1300 0.0000
5 4 5 -3.7110 0.0000
5 4 6 2.4209 0.0000
5 4 7 -1.8537 0.0000
5 4 8 1.6682 0.0000
5 4 9 -0.3616 0.0000
5 4 10 0.3088 0.0000
5 4 11 1.7173 0.0000
5 5 0 8.2318 0.0000
5 5 1 1.3517 0.0000
5 5 2 4.4035 0.0000
5 5 3 -3.9697 0.0000
5 5 4 -2.2476 0.0000
5 5 5 1.0757 0.0000
5 5 6 -3.1471 0.0000
5 5 7 1.4400 0.0000
5 5 8 0.0205 0.0000
5 5 9 -0.2670 0.0000
5 5 10 1.9382 0.0000
5 5 11 -1.6759 0.0000
5 6 0 8.5294 0.0000
5 6 1 4.3967 0.0000
5 6 2 -1.6156 0.0000
5 6 3 1.0287 0.0000
5 6 4 0.1988 0.0000
5 6 5 -2.7309 0.0000
5 6 6 1.8916 0.0000
5 6 7 -1.4130 0.0000
5 6 8 0.1590 0.0000
5 6 9 -1.2415 0.0000
5 6 10 -0.1474 0.0000
5 6 11 2.4407 0.0000
5 7 0 3.5183 0.0000
5 7 1 2.8248 0.0000
5 7 2 2.9232 0.0000
5 7 3 -0.3583 0.0000
5 7 4 -0.9893 0.0000
5 7 5 1.7356 0.0000
5 7 6 -1.9842 0.0000
5 7 7 0.5914 0.0000
5 7 8 -0.1292 0.0000
5 7 9 -1.2499 0.0000
5 7 10 1.3855 0.0000
5 7 11 -2.3004 0.0000
5 8 0 4.8306 0.0000
5 8 1 0.5565 0.0000
5 8 2 1.4291 0.0000
5 8 3 1.2777 0.0000
5 8 4 1.4561 0.0000
5 8 5 -1.3341 0.0000
5 8 6 1.7468 0.0000
5 8 7 -0.8096 0.0000
5 8 8 -1.3814 0.0000
5 8 9 -1.9827 0.0000
5 8 10 -0.3186 0.0000
5 8 11 1.6161 0.0000
5 9 0 -1.3102 0.0000
5 9 1 2.7115 0.0000
5 9 2 1.1138 0.0000
5 9 3 1.0735 0.0000
5 9 4 0.0920 0.0000
5 9 5 1.7869 0.0000
5 9 6 -0.9427 0.0000
5 9 7 0.1495 0.0000
5 9 8 0.0277 0.0000
5 9 9 -1.7153 0.0000
5 9 10 0.4655 0.0000
5 9 11 -1.1828 0.0000
5 10 0 1.4491 0.0000
5 10 1 -2.3291 0.0000
5 10 2 2.0139 0.0000
5 10 3 1.3103 0.0000
5 10 4 1.3487 0.0000
5 10 5 -0.3514 0.0000
5 10 6 1.0874 0.0000
5 10 7 -0.4142 0.0000
5 10 8 -2.1946 0.0000
5 10 9 -1.8296 0.0000
5 10 10 0.8322 0.0000
5 11 0 -4.0375 0.0000
5 11 1 1.4932 0.0000
5 11 2 -0.1716 0.0000
5 11 3 0.9383 0.0000
5 11 4 0.6557 0.0000
5 11 5 0.6115 0.0000
5 11 6 -0.3168 0.0000
5 11 7 -0.3065 0.0000
5 11 8 0.7254 0.0000
5 11 9 -1.2216 0.0000
5 11 10 -0.3020 0.0000
5 12 0 -0.6642 0.0000
5 12 1 -3.2876 0.0000
5 12 2 1.2205 0.0000
5 12 3 0.9896 0.0000
5 12 4 0.4343 0.0000
5 12 5 0.1010 0.0000
5 12 6 -0.5216 0.0000
5 12 7 0.0131 0.0000
5 12 8 -2.4012 0.0000
5 12 9 -1.5673 0.0000
5 12 10 2.5399 0.0000
5 13 0 -4.1815 0.0000
5 13 1 0.3964 0.0000
5 13 2 -0.8756 0.0000
5 13 3 0.4813 0.0000
5 13 4 0.5852 0.0000
5 13 5 -1.0693 0.0000
5 13 6 0.1691 0.0000
5 13 7 -0.8320 0.0000
5 13 8 1.2710 0.0000
5 13 9 -0.2004 0.0000
5 13 10 -1.0707 0.0000
5 14 0 -1.3078 0.0000
5 14 1 -2.7282 0.0000
5 14 2 0.6735 0.0000
5 14 3 0.4212 0.0000
5 14 4 -0.2167 0.0000
5 14 5 0.0669 0.0000
5 14 6 -2.0583 0.0000
5 14 7 0.3189 0.0000
5 14 8 -1.8384 0.0000
5 14 9 -2.2051 0.0000
5 14 10 3.1495 0.0000
5 15 0 -2.8156 0.0000
5 15 1 0.2254 0.0000
5 15 2 -0.9952 0.0000
5 15 3 0.4640 0.0000
5 15 4 0.2175 0.0000
5 15 5 -1.6911 0.0000
5 15 6 0.4528 0.0000
5 15 7 -0.6602 0.0000
5 15 8 0.8677 0.0000
5 15 9 0.8679 0.0000
5 16 0 -1.1537 0.0000
5 16 1 -1.7779 0.0000
5 16 2 0.6797 0.0000
5 16 3 0.2503 0.0000
5 16 4 -0.0053 0.0000
5 16 5 -0.2569 0.0000
5 16 6 -2.1926 0.0000
5 16 7 -0.0515 0.0000
5 16 8 -0.6848 0.0000
5 16 9 -2.8673 0.0000
5 17 0 -1.4886 0.0000
5 17 1 0.4489 0.0000
5 17 2 -0.4245 0.0000
5 17 3 0.4338 0.0000
5 17 4 -0.0475 0.0000
5 17 5 -0.7519 0.0000
5 17 6 0.4797 0.0000
5 17 7 0.1778 0.0000
5 17 8 -0.0810 0.0000
5 17 9 1.1759 0.0000
5 18 0 -0.5315 0.0000
5 18 1 -0.9730 0.0000
5 18 2 0.2786 0.0000
5 18 3 0.3866 0.0000
5 18 4 0.5374 0.0000
5 18 5 -0.5322 0.0000
5 18 6 -1.2725 0.0000
5 18 7 -0.7728 0.0000
5 18 8 -0.2902 0.0000
5 19 0 -0.6291 0.0000
5 19 1 0.3896 0.0000
5 19 2 0.3631 0.0000
5 19 3 -0.0592 0.0000
5 19 4 -0.4079 0.0000
5 19 5 0.2892 0.0000
5 19 6 0.6732 0.0000
5 19 7 0.5121 0.0000
5 19 8 -0.4433 0.0000
5 20 0 0.6112 0.0000
5 20 1 -0.1826 0.0000
5 20 2 -0.4750 0.0000
5 20 3 -0.1127 0.0000
5 20 4 0.5988 0.0000
5 20 5 -0.5266 0.0000
5 20 6 -0.8454 0.0000
5 20 7 -0.8941 0.0000
5 21 0 0.1613 0.0000
5 21 1 0.2992 0.0000
5 21 2 0.4587 0.0000
5 21 3 -0.4283 0.0000
5 21 4 -0.8369 0.0000
5 21 5 0.1138 0.0000
5 21 6 1.1296 0.0000
5 22 0 1.5467 0.0000
5 22 1 0.2758 0.0000
5 22 2 -0.6985 0.0000
5 22 3 -1.1740 0.0000
5 22 4 0.4092 0.0000
5 22 5 -0.1967 0.0000
5 22 6 -1.1455 0.0000
5 23 0 0.7482 0.0000
5 23 1 0.2318 0.0000
5 23 2 -0.2777 0.0000
5 23 3 -0.2994 0.0000
5 23 4 -0.6225 0.0000
5 23 5 -0.3044 0.0000
5 24 0 1.1780 0.0000
5 24 1 -0.1094 0.0000
5 24 2 -0.8255 0.0000
5 24 3 -1.6454 0.0000
5 24 4 0.8165 0.0000
5 25 0 0.5996 0.0000
5 25 1 -0.4358 0.0000
5 25 2 -0.9736 0.0000
5 25 3 -0.2955 0.0000
5 26 0 -0.2245 0.0000
5 26 1 -0.8758 0.0000
6 0 0 5.4123 0.0000
6 0 2 -12.9172 0.0000
6 0 4 -1.5754 0.0000
6 0 6 3.1903 0.0000
6 0 8 2.1107 0.0000
6 0 10 0.2438 0.0000
6 1 0 2.4650 0.0000
6 1 1 -7.0076 0.0000
6 1 2 0.5494 0.0000
6 1 3 -8.7060 0.0000
6 1 4 -1.5203 0.0000
6 1 5 1.9059 0.0000
6 1 6 -1.0050 0.0000
6 1 7 1.7305 0.0000
6 1 8 -0.0064 0.0000
6 1 9 -0.1042 0.0000
6 1 10 0.4049 0.0000
6 1 11 -0.9439 0.0000
6 2 0 5.8255 0.0000
6 2 1 2.6602 0.0000
6 2 2 -10.7264 0.0000
6 2 3 -1.3841 0.0000
6 2 4 -1.3605 0.0000
6 2 5 -2.4419 0.0000
6 2 6 2.8139 0.0000
6 2 7 -0.8903 0.0000
6 2 8 2.1667 0.0000
6 2 9 0.0646 0.0000
6 2 10 0.4473 0.0000
6 2 11 0.2066 0.0000
6 3 0 5.3806 0.0000
6 3 1 -3.7455 0.0000
6 3 2 1.4515 0.0000
6 3 3 -6.2020 0.0000
6 3 4 -3.2176 0.0000
6 3 5 1.2340 0.0000
6 3 6 -2.2003 0.0000
6 3 7 1.6087 0.0000
6 3 8 0.0255 0.0000
6 3 9 0.3174 0.0000
6 3 10 1.9520 0.0000
6 3 11 -1.4513 0.0000
6 4 0 6.6077 0.0000
6 4 1 3.3651 0.0000
6 4 2 -5.8985 0.0000
6 4 3 -1.3812 0.0000
6 4 4 -0.5787 0.0000
6 4 5 -2.9377 0.0000
6 4 6 2.1348 0.0000
6 4 7 -1.1684 0.0000
6 4 8 1.7732 0.0000
6 4 9 0.1971 0.0000
6 4 10 0.5341 0.0000
6 4 11 2.5561 0.0000
6 5 0 4.6256 0.0000
6 5 1 0.2804 0.0000
6 5 2 1.8735 0.0000
6 5 3 -2.8684 0.0000
6 5 4 -2.6861 0.0000
6 5 5 1.0312 0.0000
6 5 6 -1.9604 0.0000
6 5 7 1.0993 0.0000
6 5 8 -0.1828 0.0000
6 5 9 0.2341 0.0000
6 5 10 3.8434 0.0000
6 5 11 -2.4933 0.0000
6 6 0 6.6283 0.0000
6 6 1 2.3328 0.0000
6 6 2 -1.3905 0.0000
6 6 3 -0.3505 0.0000
6 6 4 0.7101 0.0000
6 6 5 -1.8812 0.0000
6 6 6 1.7635 0.0000
6 6 7 -1.1045 0.0000
6 6 8 0.5705 0.0000
6 6 9 -0.4134 0.0000
6 6 10 0.0521 0.0000
6 6 11 4.9717 0.0000
6 7 0 1.8796 0.0000
6 7 1 2.8729 0.0000
6 7 2 1.8279 0.0000
6 7 3 -0.2107 0.0000
6 7 4 -1.2651 0.0000
6 7 5 1.5214 0.0000
6 7 6 -1.1798 0.0000
6 7 7 0.4360 0.0000
6 7 8 -0.8388 0.0000
6 7 9 -0.2974 0.0000
6 7 10 4.0234 0.0000
6 7 11 -3.3738 0.0000
6 8 0 5.0749 0.0000
6 8 1 0.7704 0.0000
6 8 2 1.3512 0.0000
6 8 3 0.8163 0.0000
6 8 4 1.7395 0.0000
6 8 5 -0.6597 0.0000
6 8 6 1.5452 0.0000
6 8 7 -1.2100 0.0000
6 8 8 -0.6614 0.0000
6 8 9 -1.5651 0.0000
6 8 10 -0.1336 0.0000
6 9 0 -0.9234 0.0000
6 9 1 3.4455 0.0000
6 9 2 1.4882 0.0000
6 9 3 1.1165 0.0000
6 9 4 0.0274 0.0000
6 9 5 1.6053 0.0000
6 9 6 -0.7056 0.0000
6 9 7 0.0338 0.0000
6 9 8 -1.0153 0.0000
6 9 9 -0.4438 0.0000
6 9 10 2.3883 0.0000
6 10 0 2.5386 0.0000
6 10 1 -0.6468 0.0000
6 10 2 2.0867 0.0000
6 10 3 1.6367 0.0000
6 10 4 1.6579 0.0000
6 10 5 0.2277 0.0000
6 10 6 0.8720 0.0000
6 10 7 -1.1754 0.0000
6 10 8 -1.4542 0.0000
6 10 9 -1.8064 0.0000
6 10 10 0.9714 0.0000
6 11 0 -2.7573 0.0000
6 11 1 2.4583 0.0000
6 11 2 0.8047 0.0000
6 11 3 1.1223 0.0000
6 11 4 0.7883 0.0000
6 11 5 0.5516 0.0000
6 11 6 -0.4014 0.0000
6 11 7 -0.2238 0.0000
6 11 8 0.1996 0.0000
6 11 9 -0.1527 0.0000
6 11 10 0.5793 0.0000
6 12 0 0.4321 0.0000
6 12 1 -1.4656 0.0000
6 12 2 1.4329 0.0000
6 12 3 1.4277 0.0000
6 12 4 0.6176 0.0000
6 12 5 0.6666 0.0000
6 12 6 -0.4355 0.0000
6 12 7 -0.5272 0.0000
6 12 8 -1.9830 0.0000
6 12 9 -1.1573 0.0000
6 13 0 -3.0159 0.0000
6 13 1 1.0589 0.0000
6 13 2 -0.2695 0.0000
6 13 3 0.7067 0.0000
6 13 4 0.4761 0.0000
6 13 5 -1.0356 0.0000
6 13 6 -0.0637 0.0000
6 13 7 -0.4206 0.0000
6 13 8 1.7557 0.0000
6 13 9 0.2505 0.0000
6 14 0 -0.6734 0.0000
6 14 1 -1.4945 0.0000
6 14 2 0.9024 0.0000
6 14 3 0.1485 0.0000
6 14 4 -0.3122 0.0000
6 14 5 0.4171 0.0000
6 14 6 -1.7745 0.0000
6 14 7 0.0124 0.0000
6 14 8 -1.8419 0.0000
6 14 9 -1.1562 0.0000
6 15 0 -2.1852 0.0000
6 15 1 0.3360 0.0000
6 15 2 -1.0729 0.0000
6 15 3 0.8167 0.0000
6 15 4 -0.5166 0.0000
6 15 5 -1.9481 0.0000
6 15 6 0.0162 0.0000
6 15 7 -0.1378 0.0000
6 15 8 1.7326 0.0000
6 15 9 0.8461 0.0000
6 16 0 -1.0533 0.0000
6 16 1 -1.1888 0.0000
6 16 2 1.1106 0.0000
6 16 3 -0.6960 0.0000
6 16 4 -0.4625 0.0000
6 16 5 -0.1378 0.0000
6 16 6 -2.3015 0.0000
6 16 7 -0.5550 0.0000
6 16 8 -0.8041 0.0000
6 17 0 -1.4774 0.0000
6 17 1 0.2640 0.0000
6 17 2 -0.6695 0.0000
6 17 3 1.0534 0.0000
6 17 4 -0.9179 0.0000
6 17 5 -1.7177 0.0000
6 17 6 -0.0261 0.0000
6 17 7 0.6025 0.0000
6 17 8 0.2159 0.0000
6 18 0 -0.5800 0.0000
6 18 1 -0.7745 0.0000
6 18 2 1.0081 0.0000
6 18 3 -0.2643 0.0000
6 18 4 -0.3038 0.0000
6 18 5 -0.2537 0.0000
6 18 6 -1.9430 0.0000
6 18 7 -1.5125 0.0000
6 19 0 -0.9071 0.0000
6 19 1 0.2459 0.0000
6 19 2 0.6107 0.0000
6 19 3 0.5937 0.0000
6 19 4 -0.7212 0.0000
6 19 5 -1.1666 0.0000
6 19 6 0.4600 0.0000
6 19 7 1.0345 0.0000
6 20 0 0.7904 0.0000
6 20 1 0.0439 0.0000
6 20 2 0.1802 0.0000
6 20 3 -0.0508 0.0000
6 20 4 -0.5003 0.0000
6 20 5 -0.0843 0.0000
6 20 6 -1.4330 0.0000
6 21 0 0.3570 0.0000
6 21 1 0.2067 0.0000
6 21 2 1.1295 0.0000
6 21 3 -0.0908 0.0000
6 21 4 -1.0710 0.0000
6 21 5 -1.1372 0.0000
6 21 6 1.2335 0.0000
6 22 0 1.7814 0.0000
6 22 1 0.8147 0.0000
6 22 2 -0.3803 0.0000
6 22 3 -1.3106 0.0000
6 22 4 -0.7015 0.0000
6 22 5 -0.3533 0.0000
6 23 0 1.8143 0.0000
6 23 1 0.1643 0.0000
6 23 2 0.1076 0.0000
6 23 3 -0.1436 0.0000
6 23 4 -1.8962 0.0000
6 24 0 1.1218 0.0000
6 24 1 0.5141 0.0000
6 24 2 -0.4636 0.0000
6 24 3 -2.7730 0.0000
6 25 0 1.9464 0.0000
6 25 1 -0.1985 0.0000
7 0 0 0.0495 0.0000
7 0 2 -10.5556 0.0000
7 0 4 1.3448 0.0000
7 0 6 1.8940 0.0000
7 0 8 2.8567 0.0000
7 0 10 0.5738 0.0000
7 1 0 1.0326 0.0000
7 1 1 -7.8226 0.0000
7 1 2 -0.1759 0.0000
7 1 3 -5.1461 0.0000
7 1 4 -1.5371 0.0000
7 1 5 2.2547 0.0000
7 1 6 -0.7394 0.0000
7 1 7 0.9179 0.0000
7 1 8 0.0674 0.0000
7 1 9 1.2000 0.0000
7 1 10 0.1931 0.0000
7 1 11 -2.6503 0.0000
7 2 0 1.1665 0.0000
7 2 1 0.7300 0.0000
7 2 2 -8.9224 0.0000
7 2 3 -2.0608 0.0000
7 2 4 1.0739 0.0000
7 2 5 -2.0879 0.0000
7 2 6 1.8280 0.0000
7 2 7 -0.5240 0.0000
7 2 8 2.5220 0.0000
7 2 9 0.4142 0.0000
7 2 10 0.2878 0.0000
7 2 11 -0.6445 0.0000
7 3 0 2.0829 0.0000
7 3 1 -4.4825 0.0000
7 3 2 -0.2485 0.0000
7 3 3 -3.8946 0.0000
7 3 4 -3.2517 0.0000
7 3 5 1.5667 0.0000
7 3 6 -1.5845 0.0000
7 3 7 0.9801 0.0000
7 3 8 0.3599 0.0000
7 3 9 0.6155 0.0000
7 3 10 1.9575 0.0000
7 4 0 3.5141 0.0000
7 4 1 0.8511 0.0000
7 4 2 -5.2933 0.0000
7 4 3 -2.3183 0.0000
7 4 4 0.9080 0.0000
7 4 5 -2.4369 0.0000
7 4 6 1.7664 0.0000
7 4 7 -0.6399 0.0000
7 4 8 1.6735 0.0000
7 4 9 1.3608 0.0000
7 4 10 -0.2770 0.0000
7 5 0 1.5080 0.0000
7 5 1 -0.3717 0.0000
7 5 2 0.1907 0.0000
7 5 3 -1.8961 0.0000
7 5 4 -2.7345 0.0000
7 5 5 1.2673 0.0000
7 5 6 -1.3527 0.0000
7 5 7 0.8609 0.0000
7 5 8 0.3640 0.0000
7 5 9 0.1176 0.0000
7 5 10 4.9529 0.0000
7 6 0 5.0044 0.0000
7 6 1 0.7442 0.0000
7 6 2 -1.7401 0.0000
7 6 3 -1.1224 0.0000
7 6 4 1.5192 0.0000
7 6 5 -1.4166 0.0000
7 6 6 1.6529 0.0000
7 6 7 -0.8107 0.0000
7 6 8 0.8865 0.0000
7 6 9 1.3534 0.0000
7 6 10 -0.5199 0.0000
7 7 0 0.3076 0.0000
7 7 1 2.3467 0.0000
7 7 2 0.8868 0.0000
7 7 3 0.1725 0.0000
7 7 4 -1.3524 0.0000
7 7 5 1.4101 0.0000
7 7 6 -0.8393 0.0000
7 7 7 0.5357 0.0000
7 7 8 -0.6314 0.0000
7 7 9 0.4183 0.0000
7 7 10 5.8934 0.0000
7 8 0 4.4700 0.0000
7 8 1 0.6681 0.0000
7 8 2 0.7230 0.0000
7 8 3 0.4214 0.0000
7 8 4 2.2106 0.0000
7 8 5 -0.2666 0.0000
7 8 6 1.1123 0.0000
7 8 7 -1.4896 0.0000
7 8 8 0.5329 0.0000
7 8 9 -0.2392 0.0000
7 8 10 -0.0194 0.0000
7 9 0 -0.9379 0.0000
7 9 1 3.2281 0.0000
7 9 2 1.3948 0.0000
7 9 3 1.4630 0.0000
7 9 4 -0.0628 0.0000
7 9 5 1.1048 0.0000
7 9 6 -0.7066 0.0000
7 9 7 0.1803 0.0000
7 9 8 -1.5150 0.0000
7 9 9 1.1214 0.0000
7 9 10 3.8496 0.0000
7 10 0 2.7188 0.0000
7 10 1 0.2783 0.0000
7 10 2 1.6796 0.0000
7 10 3 1.6459 0.0000
7 10 4 1.9648 0.0000
7 10 5 0.6043 0.0000
7 10 6 0.2458 0.0000
7 10 7 -1.8703 0.0000
7 10 8 -0.0329 0.0000
7 10 9 -1.3855 0.0000
7 11 0 -1.9279 0.0000
7 11 1 2.7039 0.0000
7 11 2 1.1917 0.0000
7 11 3 1.5197 0.0000
7 11 4 0.7672 0.0000
7 11 5 0.2511 0.0000
7 11 6 -0.6317 0.0000
7 11 7 -0.0720 0.0000
7 11 8 -0.3402 0.0000
7 11 9 1.0906 0.0000
7 12 0 1.2197 0.0000
7 12 1 -0.2921 0.0000
7 12 2 1.3912 0.0000
7 12 3 1.6155 0.0000
7 12 4 0.9289 0.0000
7 12 5 1.1053 0.0000
7 12 6 -0.4118 0.0000
7 12 7 -0.9814 0.0000
7 12 8 -1.1973 0.0000
7 12 9 -0.7735 0.0000
7 13 0 -1.9884 0.0000
7 13 1 1.5836 0.0000
7 13 2 0.0629 0.0000
7 13 3 1.0859 0.0000
7 13 4 0.4763 0.0000
7 13 5 -0.6065 0.0000
7 13 6 -0.3053 0.0000
7 13 7 0.0426 0.0000
7 13 8 2.2815 0.0000
7 13 9 0.4268 0.0000
7 14 0 0.2396 0.0000
7 14 1 -0.5917 0.0000
7 14 2 1.1612 0.0000
7 14 3 0.0852 0.0000
7 14 4 -0.1309 0.0000
7 14 5 0.9847 0.0000
7 14 6 -0.7779 0.0000
7 14 7 0.2156 0.0000
7 14 8 -1.7548 0.0000
7 15 0 -1.3241 0.0000
7 15 1 0.6686 0.0000
7 15 2 -1.1450 0.0000
7 15 3 1.0686 0.0000
7 15 4 -0.5819 0.0000
7 15 5 -1.3680 0.0000
7 15 6 -0.1459 0.0000
7 15 7 0.7612 0.0000
7 15 8 3.3803 0.0000
7 16 0 -0.5782 0.0000
7 16 1 -0.7121 0.0000
7 16 2 1.5570 0.0000
7 16 3 -1.1524 0.0000
7 16 4 -0.9972 0.0000
7 16 5 0.5850 0.0000
7 16 6 -1.1489 0.0000
7 16 7 -0.0896 0.0000
7 16 8 -0.8465 0.0000
7 17 0 -0.9198 0.0000
7 17 1 0.1295 0.0000
7 17 2 -1.0082 0.0000
7 17 3 1.0647 0.0000
7 17 4 -0.9093 0.0000
7 17 5 -2.0956 0.0000
7 17 6 -0.2435 0.0000
7 17 7 1.6432 0.0000
7 18 0 -0.6218 0.0000
7 18 1 -0.5738 0.0000
7 18 2 1.5592 0.0000
7 18 3 -0.6937 0.0000
7 18 4 -1.7741 0.0000
7 18 5 0.5738 0.0000
7 18 6 -1.4842 0.0000
7 18 7 -1.4988 0.0000
7 19 0 -0.5144 0.0000
7 19 1 -0.1560 0.0000
7 19 2 0.4938 0.0000
7 19 3 0.4776 0.0000
7 19 4 -0.4561 0.0000
7 19 5 -2.5065 0.0000
7 19 6 0.0623 0.0000
7 20 0 0.6055 0.0000
7 20 1 0.3080 0.0000
7 20 2 0.8181 0.0000
7 20 3 -0.1045 0.0000
7 20 4 -2.1536 0.0000
7 20 5 0.6436 0.0000
7 20 6 -1.4527 0.0000
7 21 0 0.8589 0.0000
7 21 1 -0.0973 0.0000
7 21 2 1.4483 0.0000
7 21 3 0.0148 0.0000
7 21 4 -0.8317 0.0000
7 21 5 -2.3208 0.0000
7 22 0 1.6833 0.0000
7 22 1 1.3186 0.0000
7 22 2 0.3761 0.0000
7 22 3 -1.3345 0.0000
7 22 4 -1.7047 0.0000
7 23 0 2.4290 0.0000
7 23 1 0.1253 0.0000
7 23 2 0.5251 0.0000
7 23 3 0.3160 0.0000
7 24 0 1.0883 0.0000
7 24 1 1.0745 0.0000
7 24 2 0.3825 0.0000
8 0 0 -2.0472 0.0000
8 0 2 -8.0339 0.0000
8 0 4 3.1530 0.0000
8 0 6 0.9090 0.0000
8 0 8 4.0895 0.0000
8 0 10 0.5576 0.0000
8 1 0 0.1359 0.0000
8 1 1 -7.0373 0.0000
8 1 2 -0.5762 0.0000
8 1 3 -2.1439 0.0000
8 1 4 -1.4818 0.0000
8 1 5 2.0503 0.0000
8 1 6 -0.4638 0.0000
8 1 7 1.0070 0.0000
8 1 8 0.2849 0.0000
8 1 9 2.5908 0.0000
8 1 10 -0.0697 0.0000
8 2 0 -0.8030 0.0000
8 2 1 -0.2398 0.0000
8 2 2 -7.0332 0.0000
8 2 3 -2.4272 0.0000
8 2 4 2.6778 0.0000
8 2 5 -1.7858 0.0000
8 2 6 1.0290 0.0000
8 2 7 -0.0084 0.0000
8 2 8 2.9787 0.0000
8 2 9 0.7733 0.0000
8 2 10 -0.2888 0.0000
8 3 0 0.0296 0.0000
8 3 1 -4.2774 0.0000
8 3 2 -1.2364 0.0000
8 3 3 -1.8111 0.0000
8 3 4 -3.1594 0.0000
8 3 5 1.5658 0.0000
8 3 6 -0.9840 0.0000
8 3 7 0.7023 0.0000
8 3 8 1.0381 0.0000
8 3 9 0.4902 0.0000
8 3 10 1.2758 0.0000
8 4 0 1.8152 0.0000
8 4 1 -0.4597 0.0000
8 4 2 -4.7167 0.0000
8 4 3 -2.8621 0.0000
8 4 4 2.0089 0.0000
8 4 5 -2.1114 0.0000
8 4 6 1.3437 0.0000
8 4 7 0.1611 0.0000
8 4 8 1.0333 0.0000
8 4 9 2.2057 0.0000
8 4 10 -1.5660 0.0000
8 5 0 -0.4800 0.0000
8 5 1 -0.8685 0.0000
8 5 2 -0.8940 0.0000
8 5 3 -0.8399 0.0000
8 5 4 -2.6745 0.0000
8 5 5 1.2387 0.0000
8 5 6 -0.7705 0.0000
8 5 7 0.5953 0.0000
8 5 8 1.3795 0.0000
8 5 9 -0.8113 0.0000
8 5 10 4.2074 0.0000
8 6 0 3.5126 0.0000
8 6 1 -0.1833 0.0000
8 6 2 -2.1908 0.0000
8 6 3 -1.6179 0.0000
8 6 4 1.9928 0.0000
8 6 5 -1.1465 0.0000
8 6 6 1.4012 0.0000
8 6 7 -0.0793 0.0000
8 6 8 0.6085 0.0000
8 6 9 2.5785 0.0000
8 6 10 -1.3903 0.0000
8 7 0 -0.8816 0.0000
8 7 1 1.3635 0.0000
8 7 2 0.0912 0.0000
8 7 3 0.6456 0.0000
8 7 4 -1.3402 0.0000
8 7 5 0.8622 0.0000
8 7 6 -0.4043 0.0000
8 7 7 0.8336 0.0000
8 7 8 0.2046 0.0000
8 7 9 0.4749 0.0000
8 8 0 3.1267 0.0000
8 8 1 0.4155 0.0000
8 8 2 -0.1582 0.0000
8 8 3 -0.0157 0.0000
8 8 4 2.0874 0.0000
8 8 5 0.0097 0.0000
8 8 6 0.6173 0.0000
8 8 7 -1.2093 0.0000
8 8 8 1.6773 0.0000
8 8 9 0.8591 0.0000
8 9 0 -1.2769 0.0000
8 9 1 2.1125 0.0000
8 9 2 0.9306 0.0000
8 9 3 1.6969 0.0000
8 9 4 -0.2342 0.0000
8 9 5 -0.0166 0.0000
8 9 6 -0.5329 0.0000
8 9 7 0.8044 0.0000
8 9 8 -1.4058 0.0000
8 9 9 2.3916 0.0000
8 10 0 1.7918 0.0000
8 10 1 0.5354 0.0000
8 10 2 0.8018 0.0000
8 10 3 1.1690 0.0000
8 10 4 1.5582 0.0000
8 10 5 0.7722 0.0000
8 10 6 -0.5709 0.0000
8 10 7 -2.1685 0.0000
8 10 8 1.6679 0.0000
8 10 9 -0.8037 0.0000
8 11 0 -1.6340 0.0000
8 11 1 1.9522 0.0000
8 11 2 1.0115 0.0000
8 11 3 1.6584 0.0000
8 11 4 0.3850 0.0000
8 11 5 -0.7212 0.0000
8 11 6 -0.8330 0.0000
8 11 7 0.1623 0.0000
8 11 8 -0.7470 0.0000
8 12 0 1.1376 0.0000
8 12 1 0.2284 0.0000
8 12 2 0.8352 0.0000
8 12 3 1.3137 0.0000
8 12 4 0.7197 0.0000
8 12 5 1.1835 0.0000
8 12 6 -0.9726 0.0000
8 12 7 -1.4003 0.0000
8 12 8 -0.4397 0.0000
8 13 0 -1.2958 0.0000
8 13 1 1.5010 0.0000
8 13 2 0.2805 0.0000
8 13 3 1.1893 0.0000
8 13 4 0.3378 0.0000
8 13 5 -0.6355 0.0000
8 13 6 -0.6416 0.0000
8 13 7 -0.1604 0.0000
8 13 8 2.3428 0.0000
8 14 0 0.9131 0.0000
8 14 1 0.0448 0.0000
8 14 2 1.0482 0.0000
8 14 3 0.3520 0.0000
8 14 4 -0.0988 0.0000
8 14 5 1.4138 0.0000
8 14 6 -0.3560 0.0000
8 14 7 0.3966 0.0000
8 14 8 -2.1302 0.0000
8 15 0 -0.4631 0.0000
8 15 1 0.8987 0.0000
8 15 2 -0.5983 0.0000
8 15 3 0.9876 0.0000
8 15 4 0.0406 0.0000
8 15 5 -0.6016 0.0000
8 15 6 -0.2100 0.0000
8 15 7 0.8487 0.0000
8 16 0 0.0895 0.0000
8 16 1 -0.2081 0.0000
8 16 2 1.6621 0.0000
8 16 3 -0.4179 0.0000
8 16 4 -1.3182 0.0000
8 16 5 1.6406 0.0000
8 16 6 0.2453 0.0000
8 16 7 0.7842 0.0000
8 17 0 -0.1156 0.0000
8 17 1 0.0173 0.0000
8 17 2 -0.6492 0.0000
8 17 3 0.5565 0.0000
8 17 4 0.3121 0.0000
8 17 5 -1.4638 0.0000
8 17 6 -0.1225 0.0000
8 17 7 2.4034 0.0000
8 18 0 -0.5253 0.0000
8 18 1 -0.5229 0.0000
8 18 2 1.6295 0.0000
8 18 3 -0.0802 0.0000
8 18 4 -2.8096 0.0000
8 18 5 1.8395 0.0000
8 18 6 0.0755 0.0000
8 19 0 0.0448 0.0000
8 19 1 -0.6901 0.0000
8 19 2 0.3076 0.0000
8 19 3 -0.2746 0.0000
8 19 4 0.7172 0.0000
8 19 5 -2.4820 0.0000
8 20 0 0.3913 0.0000
8 20 1 -0.0452 0.0000
8 20 2 0.9768 0.0000
8 20 3 0.1266 0.0000
8 20 4 -3.3041 0.0000
8 20 5 1.5554 0.0000
8 21 0 1.0486 0.0000
8 21 1 -0.5573 0.0000
8 21 2 1.0995 0.0000
8 21 3 -0.3596 0.0000
8 21 4 -0.0089 0.0000
8 22 0 1.6526 0.0000
8 22 1 1.0244 0.0000
8 22 2 0.8764 0.0000
8 22 3 -1.1425 0.0000
8 23 0 2.2237 0.0000
8 23 1 -0.0033 0.0000
8 23 2 0.6132 0.0000
9 0 0 -2.4881 0.0000
9 0 2 -5.1163 0.0000
9 0 4 3.5928 0.0000
9 0 6 0.6363 0.0000
9 0 8 4.8746 0.0000
9 1 0 -0.1531 0.0000
9 1 1 -5.2211 0.0000
9 1 2 -0.8169 0.0000
9 1 3 0.2338 0.0000
9 1 4 -1.2267 0.0000
9 1 5 1.3848 0.0000
9 1 6 -0.0077 0.0000
9 1 7 1.7459 0.0000
9 1 8 0.5503 0.0000
9 1 9 3.3340 0.0000
9 2 0 -1.4324 0.0000
9 2 1 -0.4923 0.0000
9 2 2 -4.7244 0.0000
9 2 3 -2.5326 0.0000
9 2 4 3.0685 0.0000
9 2 5 -1.1235 0.0000
9 2 6 0.6977 0.0000
9 2 7 0.6857 0.0000
9 2 8 3.0111 0.0000
9 2 9 0.9667 0.0000
9 3 0 -0.6557 0.0000
9 3 1 -3.3753 0.0000
9 3 2 -1.8572 0.0000
9 3 3 -0.0822 0.0000
9 3 4 -2.6000 0.0000
9 3 5 1.0238 0.0000
9 3 6 0.0076 0.0000
9 3 7 0.7030 0.0000
9 3 8 1.6230 0.0000
9 3 9 0.0987 0.0000
9 4 0 0.8216 0.0000
9 4 1 -0.8612 0.0000
9 4 2 -3.7541 0.0000
9 4 3 -3.0083 0.0000
9 4 4 2.0944 0.0000
9 4 5 -1.3429 0.0000
9 4 6 0.9667 0.0000
9 4 7 1.0947 0.0000
9 4 8 -0.1040 0.0000
9 4 9 2.1538 0.0000
9 5 0 -1.1991 0.0000
9 5 1 -1.0733 0.0000
9 5 2 -1.5942 0.0000
9 5 3 -0.0676 0.0000
9 5 4 -2.1052 0.0000
9 5 5 0.6426 0.0000
9 5 6 0.1515 0.0000
9 5 7 0.2660 0.0000
9 5 8 1.9612 0.0000
9 5 9 -1.9668 0.0000
9 6 0 2.1841 0.0000
9 6 1 -0.4916 0.0000
9 6 2 -2.4522 0.0000
9 6 3 -1.7191 0.0000
9 6 4 1.4789 0.0000
9 6 5 -0.5814 0.0000
9 6 6 1.1990 0.0000
9 6 7 0.6999 0.0000
9 6 8 -0.4160 0.0000
9 6 9 2.3136 0.0000
9 7 0 -1.3569 0.0000
9 7 1 0.3257 0.0000
9 7 2 -0.4706 0.0000
9 7 3 0.6502 0.0000
9 7 4 -0.9114 0.0000
9 7 5 0.0313 0.0000
9 7 6 0.2678 0.0000
9 7 7 1.1370 0.0000
9 7 8 0.6999 0.0000
9 7 9 -0.1984 0.0000
9 8 0 1.4567 0.0000
9 8 1 0.3236 0.0000
9 8 2 -1.1189 0.0000
9 8 3 -0.2880 0.0000
9 8 4 1.0937 0.0000
9 8 5 0.4242 0.0000
9 8 6 0.6405 0.0000
9 8 7 -0.7094 0.0000
9 8 8 1.9389 0.0000
9 9 0 -1.4047 0.0000
9 9 1 0.5781 0.0000
9 9 2 0.3426 0.0000
9 9 3 1.3755 0.0000
9 9 4 -0.2036 0.0000
9 9 5 -1.0233 0.0000
9 9 6 -0.0970 0.0000
9 9 7 1.6973 0.0000
9 9 8 -1.0436 0.0000
9 10 0 0.0183 0.0000
9 10 1 0.5036 0.0000
9 10 2 -0.3920 0.0000
9 10 3 0.3988 0.0000
9 10 4 0.5204 0.0000
9 10 5 0.9378 0.0000
9 10 6 -0.7943 0.0000
9 10 7 -2.0391 0.0000
9 10 8 2.6954 0.0000
9 11 0 -1.4717 0.0000
9 11 1 0.4502 0.0000
9 11 2 0.3738 0.0000
9 11 3 1.2860 0.0000
9 11 4 -0.1002 0.0000
9 11 5 -1.7514 0.0000
9 11 6 -0.8166 0.0000
9 11 7 0.4754 0.0000
9 11 8 -0.7265 0.0000
9 12 0 -0.0294 0.0000
9 12 1 0.2239 0.0000
9 12 2 -0.2307 0.0000
9 12 3 0.5009 0.0000
9 12 4 -0.0734 0.0000
9 12 5 0.9995 0.0000
9 12 6 -1.8313 0.0000
9 12 7 -1.6808 0.0000
9 12 8 -0.0201 0.0000
9 13 0 -0.9197 0.0000
9 13 1 0.6286 0.0000
9 13 2 0.2672 0.0000
9 13 3 0.7917 0.0000
9 13 4 -0.0304 0.0000
9 13 5 -1.4065 0.0000
9 13 6 -1.1013 0.0000
9 13 7 -1.0288 0.0000
9 14 0 0.8133 0.0000
9 14 1 0.3408 0.0000
9 14 2 0.3702 0.0000
9 14 3 0.6004 0.0000
9 14 4 -0.5834 0.0000
9 14 5 1.2738 0.0000
9 14 6 -1.2293 0.0000
9 14 7 0.0478 0.0000
9 15 0 0.1338 0.0000
9 15 1 0.7094 0.0000
9 15 2 0.4711 0.0000
9 15 3 0.5489 0.0000
9 15 4 0.6702 0.0000
9 15 5 -0.6424 0.0000
9 15 6 -0.7527 0.0000
9 15 7 -0.3028 0.0000
9 16 0 0.5759 0.0000
9 16 1 0.2833 0.0000
9 16 2 1.3963 0.0000
9 16 3 1.0769 0.0000
9 16 4 -1.5048 0.0000
9 16 5 2.0434 0.0000
9 16 6 0.4765 0.0000
9 17 0 0.5520 0.0000
9 17 1 -0.0162 0.0000
9 17 2 0.6020 0.0000
9 17 3 0.0843 0.0000
9 17 4 1.8572 0.0000
9 17 5 -0.5956 0.0000
9 17 6 -0.3864 0.0000
9 18 0 -0.2369 0.0000
9 18 1 -0.6067 0.0000
9 18 2 1.5700 0.0000
9 18 3 1.4618 0.0000
9 18 4 -2.7707 0.0000
9 18 5 2.6508 0.0000
9 19 0 0.3289 0.0000
9 19 1 -0.9445 0.0000
9 19 2 0.4686 0.0000
9 19 3 -0.7684 0.0000
9 19 4 2.2587 0.0000
9 20 0 0.3882 0.0000
9 20 1 -1.0723 0.0000
9 20 2 0.9484 0.0000
9 20 3 0.8290 0.0000
9 20 4 -3.1161 0.0000
9 21 0 0.6436 0.0000
9 21 1 -0.9250 0.0000
9 21 2 0.3860 0.0000
9 21 3 -0.7621 0.0000
9 22 0 1.7170 0.0000
9 22 1 -0.1720 0.0000
10 0 0 -2.3780 0.0000
10 0 2 -2.2827 0.0000
10 0 4 2.6223 0.0000
10 0 6 0.6804 0.0000
10 0 8 4.4486 0.0000
10 1 0 -0.0331 0.0000
10 1 1 -2.9578 0.0000
10 1 2 -0.9424 0.0000
10 1 3 1.5017 0.0000
10 1 4 -0.6882 0.0000
10 1 5 0.3392 0.0000
10 1 6 0.4951 0.0000
10 1 7 2.2405 0.0000
10 1 8 0.7277 0.0000
10 2 0 -1.5958 0.0000
10 2 1 -0.4565 0.0000
10 2 2 -2.3450 0.0000
10 2 3 -2.1650 0.0000
10 2 4 2.1655 0.0000
10 2 5 -0.1305 0.0000
10 2 6 0.6221 0.0000
10 2 7 1.2292 0.0000
10 2 8 2.3730 0.0000
10 3 0 -0.4353 0.0000
10 3 1 -2.0516 0.0000
10 3 2 -2.1712 0.0000
10 3 3 0.8578 0.0000
10 3 4 -1.3659 0.0000
10 3 5 0.0588 0.0000
10 3 6 1.0687 0.0000
10 3 7 0.7318 0.0000
10 3 8 1.7997 0.0000
10 4 0 0.1721 0.0000
10 4 1 -0.8665 0.0000
10 4 2 -2.5409 0.0000
10 4 3 -2.4433 0.0000
10 4 4 1.1057 0.0000
10 4 5 -0.1825 0.0000
10 4 6 0.7423 0.0000
10 4 7 1.6227 0.0000
10 4 8 -1.1913 0.0000
10 5 0 -1.0283 0.0000
10 5 1 -0.9136 0.0000
10 5 2 -1.8913 0.0000
10 5 3 0.0686 0.0000
10 5 4 -0.8770 0.0000
10 5 5 -0.2163 0.0000
10 5 6 0.9733 0.0000
10 5 7 -0.0418 0.0000
10 5 8 1.7447 0.0000
10 6 0 1.2052 0.0000
10 6 1 -0.4244 0.0000
10 6 2 -2.5291 0.0000
10 6 3 -1.1783 0.0000
10 6 4 0.1875 0.0000
10 6 5 0.0747 0.0000
10 6 6 1.2316 0.0000
10 6 7 0.8839 0.0000
10 6 8 -1.7527 0.0000
10 7 0 -1.1013 0.0000
10 7 1 -0.3530 0.0000
10 7 2 -0.6631 0.0000
10 7 3 0.0165 0.0000
10 7 4 -0.0921 0.0000
10 7 5 -0.4508 0.0000
10 7 6 0.6158 0.0000
10 7 7 1.0752 0.0000
10 7 8 0.4829 0.0000
10 8 0 0.1444 0.0000
10 8 1 0.5164 0.0000
10 8 2 -1.9722 0.0000
10 8 3 -0.1379 0.0000
10 8 4 -0.1284 0.0000
10 8 5 0.6331 0.0000
10 8 6 1.2732 0.0000
10 8 7 -0.5771 0.0000
10 8 8 0.8637 0.0000
10 9 0 -0.9475 0.0000
10 9 1 -0.5887 0.0000
10 9 2 -0.0580 0.0000
10 9 3 0.6357 0.0000
10 9 4 0.1121 0.0000
10 9 5 -0.9619 0.0000
10 9 6 0.1169 0.0000
10 9 7 2.0528 0.0000
10 9 8 -0.6877 0.0000
10 10 0 -1.6755 0.0000
10 10 1 0.5086 0.0000
10 10 2 -1.4453 0.0000
10 10 3 -0.1423 0.0000
10 10 4 -0.2305 0.0000
10 10 5 0.9707 0.0000
10 10 6 -0.1341 0.0000
10 10 7 -1.7373 0.0000
10 11 0 -1.0689 0.0000
10 11 1 -0.9311 0.0000
10 11 2 -0.3368 0.0000
10 11 3 0.7714 0.0000
10 11 4 -0.2393 0.0000
10 11 5 -1.7601 0.0000
10 11 6 -0.6852 0.0000
10 11 7 0.5880 0.0000
10 12 0 -1.6764 0.0000
10 12 1 -0.0977 0.0000
10 12 2 -1.3086 0.0000
10 12 3 -0.2861 0.0000
10 12 4 -0.6698 0.0000
10 12 5 0.7452 0.0000
10 12 6 -2.2235 0.0000
10 12 7 -1.6801 0.0000
10 13 0 -0.7963 0.0000
10 13 1 -0.5967 0.0000
10 13 2 0.0342 0.0000
10 13 3 0.2403 0.0000
10 13 4 -0.3212 0.0000
10 13 5 -2.1640 0.0000
10 13 6 -1.5186 0.0000
10 14 0 -0.1334 0.0000
10 14 1 0.1536 0.0000
10 14 2 -0.5993 0.0000
10 14 3 0.6057 0.0000
10 14 4 -1.3049 0.0000
10 14 5 0.5511 0.0000
10 14 6 -2.6628 0.0000
10 15 0 0.2183 0.0000
10 15 1 0.0593 0.0000
10 15 2 1.4355 0.0000
10 15 3 0.0021 0.0000
10 15 4 0.7045 0.0000
10 15 5 -1.5925 0.0000
10 15 6 -1.8225 0.0000
10 16 0 0.4572 0.0000
10 16 1 0.4294 0.0000
10 16 2 0.9662 0.0000
10 16 3 2.1899 0.0000
10 16 4 -1.7874 0.0000
10 16 5 1.1565 0.0000
10 17 0 0.7597 0.0000
10 17 1 0.0391 0.0000
10 17 2 2.0150 0.0000
10 17 3 0.0058 0.0000
10 17 4 2.4002 0.0000
10 18 0 -0.0048 0.0000
10 18 1 -0.8635 0.0000
10 18 2 1.8339 0.0000
10 18 3 2.7957 0.0000
10 18 4 -2.0781 0.0000
10 19 0 0.2379 0.0000
10 19 1 -0.5700 0.0000
10 19 2 0.9270 0.0000
10 19 3 -0.4424 0.0000
10 20 0 0.4941 0.0000
10 20 1 -2.2875 0.0000
10 20 2 1.3307 0.0000
10 21 0 -0.0677 0.0000
11 0 0 -2.3333 0.0000
11 0 2 -0.5226 0.0000
11 0 4 0.9407 0.0000
11 0 6 0.4686 0.0000
11 0 8 2.9082 0.0000
11 1 0 0.0978 0.0000
11 1 1 -1.1606 0.0000
11 1 2 -0.9588 0.0000
11 1 3 1.5135 0.0000
11 1 4 -0.1390 0.0000
11 1 5 -0.7711 0.0000
11 1 6 0.6975 0.0000
11 1 7 1.8860 0.0000
11 1 8 0.7602 0.0000
11 2 0 -1.8072 0.0000
11 2 1 -0.5525 0.0000
11 2 2 -0.7311 0.0000
11 2 3 -1.3990 0.0000
11 2 4 0.6629 0.0000
11 2 5 0.4999 0.0000
11 2 6 0.4450 0.0000
11 2 7 1.3222 0.0000
11 2 8 1.3268 0.0000
11 3 0 -0.1945 0.0000
11 3 1 -0.9558 0.0000
11 3 2 -2.1667 0.0000
11 3 3 0.9892 0.0000
11 3 4 -0.0763 0.0000
11 3 5 -0.9012 0.0000
11 3 6 1.4754 0.0000
11 3 7 0.6445 0.0000
11 4 0 -0.4424 0.0000
11 4 1 -0.9848 0.0000
11 4 2 -1.5321 0.0000
11 4 3 -1.2837 0.0000
11 4 4 -0.1864 0.0000
11 4 5 0.4989 0.0000
11 4 6 0.6462 0.0000
11 4 7 1.5393 0.0000
11 5 0 -0.7920 0.0000
11 5 1 -0.6902 0.0000
11 5 2 -1.7794 0.0000
11 5 3 -0.1568 0.0000
11 5 4 0.3364 0.0000
11 5 5 -0.8574 0.0000
11 5 6 1.0990 0.0000
11 5 7 -0.1552 0.0000
11 6 0 0.5367 0.0000
11 6 1 -0.3549 0.0000
11 6 2 -2.4593 0.0000
11 6 3 -0.1834 0.0000
11 6 4 -0.9849 0.0000
11 6 5 0.1091 0.0000
11 6 6 1.3578 0.0000
11 6 7 0.5159 0.0000
11 7 0 -0.6270 0.0000
11 7 1 -0.5903 0.0000
11 7 2 -0.5106 0.0000
11 7 3 -0.7166 0.0000
11 7 4 0.4801 0.0000
11 7 5 -0.3431 0.0000
11 7 6 0.2296 0.0000
11 7 7 0.5446 0.0000
11 8 0 -0.3605 0.0000
11 8 1 0.8322 0.0000
11 8 2 -2.4444 0.0000
11 8 3 0.3141 0.0000
11 8 4 -0.7453 0.0000
11 8 5 0.0098 0.0000
11 8 6 1.8588 0.0000
11 8 7 -0.8320 0.0000
11 9 0 -0.1143 0.0000
11 9 1 -0.8496 0.0000
11 9 2 -0.0946 0.0000
11 9 3 0.0637 0.0000
11 9 4 0.2447 0.0000
11 9 5 0.1138 0.0000
11 9 6 -0.3347 0.0000
11 9 7 1.3284 0.0000
11 10 0 -2.2804 0.0000
11 10 1 0.7300 0.0000
11 10 2 -1.8571 0.0000
11 10 3 -0.1588 0.0000
11 10 4 -0.0111 0.0000
11 10 5 0.3480 0.0000
11 10 6 0.7405 0.0000
11 11 0 -0.3535 0.0000
11 11 1 -1.3076 0.0000
11 11 2 -0.5743 0.0000
11 11 3 0.6922 0.0000
11 11 4 -0.0801 0.0000
11 11 5 -0.5289 0.0000
11 11 6 -0.7822 0.0000
11 12 0 -2.7061 0.0000
11 12 1 -0.2835 0.0000
11 12 2 -1.7354 0.0000
11 12 3 -0.4130 0.0000
11 12 4 -0.3232 0.0000
11 12 5 0.3146 0.0000
11 12 6 -1.8239 0.0000
11 13 0 -0.7086 0.0000
11 13 1 -1.3621 0.0000
11 13 2 0.0038 0.0000
11 13 3 0.1535 0.0000
11 13 4 -0.2502 0.0000
11 13 5 -1.9812 0.0000
11 14 0 -1.3844 0.0000
11 14 1 -0.2613 0.0000
11 14 2 -1.2558 0.0000
11 14 3 0.5803 0.0000
11 14 4 -1.5263 0.0000
11 14 5 -0.3239 0.0000
11 15 0 -0.1366 0.0000
11 15 1 -0.6958 0.0000
11 15 2 1.9076 0.0000
11 15 3 -0.2279 0.0000
11 15 4 0.2445 0.0000
11 16 0 -0.3792 0.0000
11 16 1 0.0467 0.0000
11 16 2 0.6275 0.0000
11 16 3 2.2190 0.0000
11 16 4 -2.0572 0.0000
11 17 0 0.4124 0.0000
11 17 1 0.1189 0.0000
11 17 2 2.6417 0.0000
11 17 3 0.2384 0.0000
11 18 0 -0.1839 0.0000
11 18 1 -1.4074 0.0000
11 18 2 2.3516 0.0000
11 19 0 -0.1237 0.0000
11 19 1 0.3189 0.0000
12 0 0 -2.3086 0.0000
12 0 2 -0.1527 0.0000
12 0 4 -0.2699 0.0000
12 0 6 -0.1003 0.0000
12 1 0 -0.0873 0.0000
12 1 1 -0.3511 0.0000
12 1 2 -0.9017 0.0000
12 1 3 0.9864 0.0000
12 1 4 -0.0114 0.0000
12 1 5 -1.4873 0.0000
12 1 6 0.4493 0.0000
12 1 7 0.8923 0.0000
12 2 0 -2.1404 0.0000
12 2 1 -0.9390 0.0000
12 2 2 -0.2043 0.0000
12 2 3 -0.6985 0.0000
12 2 4 -0.3781 0.0000
12 2 5 0.1644 0.0000
12 2 6 0.0474 0.0000
12 3 0 -0.6383 0.0000
12 3 1 -0.6097 0.0000
12 3 2 -1.9355 0.0000
12 3 3 0.9172 0.0000
12 3 4 0.3134 0.0000
12 3 5 -1.5134 0.0000
12 3 6 1.0040 0.0000
12 4 0 -1.3476 0.0000
12 4 1 -1.4061 0.0000
12 4 2 -0.9038 0.0000
12 4 3 -0.1776 0.0000
12 4 4 -0.9171 0.0000
12 4 5 0.0818 0.0000
12 4 6 0.5251 0.0000
12 5 0 -1.1810 0.0000
12 5 1 -0.8246 0.0000
12 5 2 -1.4186 0.0000
12 5 3 -0.0648 0.0000
12 5 4 0.6823 0.0000
12 5 5 -1.1930 0.0000
12 5 6 0.6329 0.0000
12 6 0 -0.2876 0.0000
12 6 1 -0.5035 0.0000
12 6 2 -2.0989 0.0000
12 6 3 0.6835 0.0000
12 6 4 -1.3954 0.0000
12 6 5 -0.6414 0.0000
12 6 6 1.2930 0.0000
12 7 0 -0.5731 0.0000
12 7 1 -0.6594 0.0000
12 7 2 -0.2510 0.0000
12 7 3 -0.8097 0.0000
12 7 4 0.2621 0.0000
12 7 5 -0.0953 0.0000
12 7 6 -0.4550 0.0000
12 8 0 -0.3567 0.0000
12 8 1 1.0259 0.0000
12 8 2 -2.2680 0.0000
12 8 3 0.6099 0.0000
12 8 4 -0.6018 0.0000
12 8 5 -1.3766 0.0000
12 8 6 1.7837 0.0000
12 9 0 0.5302 0.0000
12 9 1 -0.3476 0.0000
12 9 2 0.0842 0.0000
12 9 3 0.0817 0.0000
12 9 4 -0.3279 0.0000
12 9 5 1.1418 0.0000
12 10 0 -1.6373 0.0000
12 10 1 1.1759 0.0000
12 10 2 -1.4814 0.0000
12 10 3 0.0417 0.0000
12 10 4 0.8160 0.0000
12 10 5 -1.1169 0.0000
12 11 0 0.5066 0.0000
12 11 1 -0.5608 0.0000
12 11 2 -0.1743 0.0000
12 11 3 1.1172 0.0000
12 11 4 -0.2210 0.0000
12 11 5 0.9337 0.0000
12 12 0 -2.4744 0.0000
12 12 1 0.1401 0.0000
12 12 2 -1.3075 0.0000
12 12 3 0.0764 0.0000
12 12 4 0.7019 0.0000
12 13 0 -0.2934 0.0000
12 13 1 -1.1705 0.0000
12 13 2 0.5425 0.0000
12 13 3 0.6645 0.0000
12 13 4 -0.0293 0.0000
12 14 0 -2.1469 0.0000
12 14 1 -0.2693 0.0000
12 14 2 -1.2040 0.0000
12 14 3 0.7672 0.0000
12 15 0 -0.4420 0.0000
12 15 1 -1.0320 0.0000
12 15 2 2.0452 0.0000
12 15 3 0.0557 0.0000
12 16 0 -1.4655 0.0000
12 16 1 -0.5184 0.0000
12 16 2 0.5109 0.0000
12 17 0 -0.2465 0.0000
12 17 1 0.1962 0.0000
13 0 0 -1.6157 0.0000
13 0 2 -0.4569 0.0000
13 0 4 -0.3449 0.0000
13 1 0 -0.5100 0.0000
13 1 1 -0.1025 0.0000
13 1 2 -0.7718 0.0000
13 1 3 0.8482 0.0000
13 1 4 -0.4202 0.0000
13 1 5 -1.5662 0.0000
13 2 0 -2.1398 0.0000
13 2 1 -1.3180 0.0000
13 2 2 -0.2699 0.0000
13 2 3 -0.4371 0.0000
13 2 4 -0.4750 0.0000
13 2 5 -0.8967 0.0000
13 3 0 -1.5556 0.0000
13 3 1 -0.8542 0.0000
13 3 2 -1.5434 0.0000
13 3 3 1.1807 0.0000
13 3 4 -0.4363 0.0000
13 3 5 -1.7627 0.0000
13 4 0 -2.5638 0.0000
13 4 1 -1.7778 0.0000
13 4 2 -0.4598 0.0000
13 4 3 0.3348 0.0000
13 4 4 -0.9480 0.0000
13 4 5 -0.9893 0.0000
13 5 0 -2.0020 0.0000
13 5 1 -1.3697 0.0000
13 5 2 -0.9946 0.0000
13 5 3 0.6248 0.0000
13 5 4 0.1040 0.0000
13 5 5 -1.4771 0.0000
13 6 0 -1.7086 0.0000
13 6 1 -0.7131 0.0000
13 6 2 -1.2744 0.0000
13 6 3 1.0229 0.0000
13 6 4 -1.1986 0.0000
13 6 5 -1.4112 0.0000
13 7 0 -1.0066 0.0000
13 7 1 -0.7987 0.0000
13 7 2 -0.1518 0.0000
13 7 3 -0.0604 0.0000
13 7 4 -0.4534 0.0000
13 7 5 -0.2290 0.0000
13 8 0 -0.6085 0.0000
13 8 1 0.9959 0.0000
13 8 2 -1.3509 0.0000
13 8 3 0.4822 0.0000
13 8 4 -0.2141 0.0000
13 9 0 0.6380 0.0000
13 9 1 0.3416 0.0000
13 9 2 0.1013 0.0000
13 9 3 0.5917 0.0000
13 9 4 -1.3748 0.0000
13 10 0 -0.5961 0.0000
13 10 1 1.6282 0.0000
13 10 2 -0.5906 0.0000
13 10 3 -0.0378 0.0000
13 10 4 1.2982 0.0000
13 11 0 1.2225 0.0000
13 11 1 0.5973 0.0000
13 11 2 0.3696 0.0000
13 11 3 1.5089 0.0000
13 12 0 -1.3681 0.0000
13 12 1 1.1090 0.0000
13 12 2 -0.4860 0.0000
13 12 3 0.4913 0.0000
13 13 0 0.5536 0.0000
13 13 1 -0.2985 0.0000
13 13 2 1.3446 0.0000
13 14 0 -2.0114 0.0000
13 14 1 0.4329 0.0000
13 15 0 -0.2579 0.0000
14 0 0 0.2712 0.0000
14 0 2 -0.6200 0.0000
14 0 4 0.3043 0.0000
14 1 0 -0.7105 0.0000
14 1 1 0.3570 0.0000
14 1 2 -0.5001 0.0000
14 1 3 1.2296 0.0000
14 1 4 -1.0120 0.0000
14 2 0 -1.2943 0.0000
14 2 1 -1.1626 0.0000
14 2 2 -0.3528 0.0000
14 2 3 -0.5179 0.0000
14 2 4 -0.0592 0.0000
14 3 0 -1.9117 0.0000
14 3 1 -1.0889 0.0000
14 3 2 -0.9376 0.0000
14 3 3 1.6050 0.0000
14 3 4 -1.5789 0.0000
14 4 0 -3.6208 0.0000
14 4 1 -1.5284 0.0000
14 4 2 -0.0798 0.0000
14 4 3 0.3036 0.0000
14 5 0 -2.2678 0.0000
14 5 1 -1.9220 0.0000
14 5 2 -0.5893 0.0000
14 5 3 1.4284 0.0000
14 6 0 -3.4632 0.0000
14 6 1 -0.6672 0.0000
14 6 2 -0.1366 0.0000
14 6 3 0.9468 0.0000
14 7 0 -1.3210 0.0000
14 7 1 -0.8917 0.0000
14 7 2 -0.3108 0.0000
14 7 3 0.9917 0.0000
14 8 0 -1.4201 0.0000
14 8 1 0.7854 0.0000
14 8 2 0.0587 0.0000
14 9 0 0.3622 0.0000
14 9 1 0.8353 0.0000
14 9 2 -0.2634 0.0000
14 10 0 -0.0996 0.0000
14 10 1 1.7461 0.0000
14 11 0 1.5049 0.0000
14 11 1 1.3520 0.0000
14 12 0 -0.3551 0.0000
15 0 0 2.7951 0.0000
15 0 2 -0.5657 0.0000
15 1 0 -0.3418 0.0000
15 1 1 1.1529 0.0000
15 1 2 -0.0583 0.0000
15 2 0 0.2365 0.0000
15 2 1 -0.3024 0.0000
15 3 0 -0.9829 0.0000
15 3 1 -0.9715 0.0000
15 4 0 -3.9161 0.0000
15 4 1 -0.5654 0.0000
15 5 0 -1.3219 0.0000
15 5 1 -2.0549 0.0000
15 6 0 -4.6073 0.0000
15 7 0 -0.9653 0.0000
0 0 0 0.0 0.0
;
_olex2_submission_special_instructions 'No special instructions were received'
_oxdiff_exptl_absorpt_empirical_details
;
Empirical correction (ABSPACK) includes:
- Absorption correction using spherical harmonics
- Frame scaling
;
_oxdiff_exptl_absorpt_empirical_full_max 1.649
_oxdiff_exptl_absorpt_empirical_full_min 0.695
loop_
_space_group_symop_operation_xyz
'x, y, z'
'-x, y+1/2, -z+1/2'
'-x, -y, -z'
'x, -y-1/2, z-1/2'
loop_
_atom_site_label
_atom_site_type_symbol
_atom_site_fract_x
_atom_site_fract_y
_atom_site_fract_z
_atom_site_U_iso_or_equiv
_atom_site_adp_type
_atom_site_occupancy
_atom_site_site_symmetry_order
_atom_site_calc_flag
_atom_site_refinement_flags_posn
_atom_site_refinement_flags_adp
_atom_site_refinement_flags_occupancy
_atom_site_disorder_assembly
_atom_site_disorder_group
Sb01 Sb 0.52113(2) 0.60264(2) 0.77133(2) 0.03627(8) Uani 1 1 d . . . . .
N002 N 0.5941(2) 0.56460(11) 0.6253(2) 0.0397(7) Uani 1 1 d . . . . .
N003 N 0.3518(2) 0.60478(11) 0.7746(3) 0.0395(6) Uani 1 1 d . . . . .
N004 N 0.4811(2) 0.50904(12) 0.7588(2) 0.0411(7) Uani 1 1 d . . . . .
N005 N 0.4809(2) 0.66845(12) 0.6242(2) 0.0376(6) Uani 1 1 d . . . . .
C006 C 0.6073(3) 0.50243(14) 0.6238(3) 0.0417(8) Uani 1 1 d . . . . .
C007 C 0.2897(3) 0.65746(14) 0.7572(3) 0.0415(8) Uani 1 1 d . . . . .
C008 C 0.5314(3) 0.75163(14) 0.5213(3) 0.0416(8) Uani 1 1 d . . . . .
H008 H 0.5692 0.7775 0.4750 0.050 Uiso 1 1 calc R . . . .
C009 C 0.3194(3) 0.71027(14) 0.6976(3) 0.0382(7) Uani 1 1 d . . . . .
C00A C 0.5471(3) 0.47157(14) 0.7035(3) 0.0426(8) Uani 1 1 d . . . . .
C00B C 0.5587(3) 0.68948(14) 0.5528(3) 0.0367(7) Uani 1 1 d . . . . .
C00C C 0.4419(3) 0.76653(15) 0.5696(3) 0.0423(8) Uani 1 1 d . . . . .
H00C H 0.4073 0.8043 0.5611 0.051 Uiso 1 1 calc R . . . .
C00D C 0.4087(3) 0.71556(14) 0.6356(3) 0.0367(7) Uani 1 1 d . . . . .
C00E C 0.3305(3) 0.50248(14) 0.8732(3) 0.0418(8) Uani 1 1 d . . . . .
C00F C 0.2976(3) 0.56249(15) 0.8411(3) 0.0426(8) Uani 1 1 d . . . . .
C00G C 0.6417(3) 0.65436(14) 0.5161(3) 0.0388(8) Uani 1 1 d . . . . .
C00H C 0.2469(3) 0.76435(14) 0.6997(3) 0.0409(8) Uani 1 1 d . . . . .
C00I C 0.1931(3) 0.64711(16) 0.8073(4) 0.0526(9) Uani 1 1 d . . . . .
H00I H 0.1360 0.6746 0.8059 0.063 Uiso 1 1 calc R . . . .
C00J C 0.2451(3) 0.48938(17) 1.0663(3) 0.0483(9) Uani 1 1 d . . . . .
C00K C 0.2663(3) 0.46642(14) 0.9522(3) 0.0418(8) Uani 1 1 d . . . . .
C00L C 0.4185(3) 0.47545(14) 0.8278(3) 0.0410(8) Uani 1 1 d . . . . .
C00M C 0.7227(3) 0.68168(14) 0.4447(3) 0.0402(8) Uani 1 1 d . . . . .
C00N C 0.6763(3) 0.48956(15) 0.5362(3) 0.0478(9) Uani 1 1 d . . . . .
H00N H 0.6988 0.4509 0.5153 0.057 Uiso 1 1 calc R . . . .
C00O C 0.2290(3) 0.40805(16) 0.9176(4) 0.0525(10) Uani 1 1 d . . . . .
C00P C 0.6946(3) 0.71418(15) 0.3334(3) 0.0477(9) Uani 1 1 d . . . . .
H00P H 0.6216 0.7206 0.3015 0.057 Uiso 1 1 calc R . . . .
C00Q C 0.6520(3) 0.59146(14) 0.5428(3) 0.0391(8) Uani 1 1 d . . . . .
C00R C 0.1981(3) 0.58984(16) 0.8581(4) 0.0527(10) Uani 1 1 d . . . . .
H00R H 0.1449 0.5717 0.8973 0.063 Uiso 1 1 calc R . . . .
C00S C 0.4538(3) 0.41382(15) 0.8210(4) 0.0490(9) Uani 1 1 d . . . . .
H00S H 0.4289 0.3807 0.8627 0.059 Uiso 1 1 calc R . . . .
C00T C 0.7046(3) 0.54350(16) 0.4869(3) 0.0477(9) Uani 1 1 d . . . . .
H00T H 0.7503 0.5481 0.4272 0.057 Uiso 1 1 calc R . . . .
C00U C 0.5302(3) 0.41139(15) 0.7431(3) 0.0512(9) Uani 1 1 d . . . . .
H00U H 0.5647 0.3764 0.7203 0.061 Uiso 1 1 calc R . . . .
C00V C 0.7727(4) 0.73707(17) 0.2694(4) 0.0557(10) Uani 1 1 d . . . . .
H00V H 0.7522 0.7589 0.1950 0.067 Uiso 1 1 calc R . . . .
C00W C 0.8805(4) 0.72787(18) 0.3145(4) 0.0666(12) Uani 1 1 d . . . . .
H00W H 0.9333 0.7435 0.2711 0.080 Uiso 1 1 calc R . . . .
C00X C 0.1760(4) 0.3737(2) 0.9950(4) 0.0629(11) Uani 1 1 d . . . . .
C00Y C 0.9102(4) 0.69570(19) 0.4236(4) 0.0670(11) Uani 1 1 d . . . . .
H00Y H 0.9833 0.6892 0.4543 0.080 Uiso 1 1 calc R . . . .
C00Z C 0.2507(3) 0.79984(18) 0.8043(4) 0.0613(11) Uani 1 1 d . . . . .
H00Z H 0.3010 0.7911 0.8758 0.074 Uiso 1 1 calc R . . . .
C010 C 0.8317(3) 0.67278(17) 0.4885(4) 0.0524(9) Uani 1 1 d . . . . .
H010 H 0.8528 0.6510 0.5629 0.063 Uiso 1 1 calc R . . . .
C011 C 0.1893(4) 0.4548(2) 1.1429(4) 0.0573(11) Uani 1 1 d . . . . .
C012 C 0.1552(4) 0.3971(2) 1.1077(4) 0.0629(11) Uani 1 1 d . . . . .
C013 C 0.1804(4) 0.8491(2) 0.8060(6) 0.0817(15) Uani 1 1 d . . . . .
H013 H 0.1841 0.8732 0.8779 0.098 Uiso 1 1 calc R . . . .
C015 C 0.1059(5) 0.8619(2) 0.7011(6) 0.0861(17) Uani 1 1 d . . . . .
H015 H 0.0580 0.8943 0.7017 0.103 Uiso 1 1 calc R . . . .
C017 C 0.1721(4) 0.7792(2) 0.5966(4) 0.0764(14) Uani 1 1 d . . . . .
H017 H 0.1684 0.7559 0.5236 0.092 Uiso 1 1 calc R . . . .
C018 C 0.1025(4) 0.8274(3) 0.5980(5) 0.100(2) Uani 1 1 d . . . . .
H018 H 0.0524 0.8363 0.5264 0.120 Uiso 1 1 calc R . . . .
H00X H 0.156(4) 0.333(2) 0.975(4) 0.084(14) Uiso 1 1 d . . . . .
H012 H 0.117(3) 0.3742(17) 1.156(3) 0.052(10) Uiso 1 1 d . . . . .
H011 H 0.178(3) 0.4736(17) 1.209(4) 0.059(12) Uiso 1 1 d . . . . .
H00J H 0.276(3) 0.5266(16) 1.092(3) 0.041(9) Uiso 1 1 d . . . . .
H00O H 0.237(3) 0.3934(14) 0.840(3) 0.041(9) Uiso 1 1 d . . . . .
loop_
_atom_site_aniso_label
_atom_site_aniso_U_11
_atom_site_aniso_U_22
_atom_site_aniso_U_33
_atom_site_aniso_U_23
_atom_site_aniso_U_13
_atom_site_aniso_U_12
Sb01 0.04167(14) 0.02723(11) 0.04135(13) -0.00161(10) 0.01101(9) 0.00061(10)
N002 0.0487(18) 0.0279(14) 0.0466(16) -0.0012(11) 0.0196(14) 0.0021(12)
N003 0.0410(16) 0.0290(13) 0.0511(16) 0.0041(12) 0.0153(13) 0.0027(12)
N004 0.0482(17) 0.0287(14) 0.0495(17) -0.0031(11) 0.0176(15) -0.0018(12)
N005 0.0397(16) 0.0299(13) 0.0458(15) 0.0054(11) 0.0146(13) 0.0042(12)
C006 0.050(2) 0.0311(17) 0.0444(19) -0.0041(14) 0.0081(17) 0.0070(15)
C007 0.043(2) 0.0341(17) 0.049(2) 0.0016(14) 0.0138(16) 0.0062(15)
C008 0.047(2) 0.0315(16) 0.0487(19) 0.0058(14) 0.0136(16) -0.0021(14)
C009 0.0378(19) 0.0309(16) 0.0471(19) 0.0035(14) 0.0108(15) 0.0035(14)
C00A 0.050(2) 0.0289(16) 0.050(2) -0.0048(14) 0.0120(17) 0.0023(15)
C00B 0.0353(19) 0.0334(16) 0.0428(18) 0.0022(14) 0.0107(14) 0.0000(14)
C00C 0.044(2) 0.0319(17) 0.052(2) 0.0052(14) 0.0112(17) 0.0035(15)
C00D 0.0349(19) 0.0308(16) 0.0442(18) 0.0011(13) 0.0061(15) 0.0019(14)
C00E 0.048(2) 0.0344(18) 0.0440(19) -0.0021(14) 0.0098(16) -0.0061(15)
C00F 0.045(2) 0.0365(18) 0.049(2) 0.0016(15) 0.0162(17) -0.0031(15)
C00G 0.042(2) 0.0361(18) 0.0395(18) 0.0009(14) 0.0103(15) 0.0014(15)
C00H 0.039(2) 0.0357(17) 0.052(2) 0.0103(15) 0.0207(17) 0.0061(15)
C00I 0.045(2) 0.044(2) 0.074(3) 0.0089(18) 0.0250(19) 0.0049(17)
C00J 0.053(2) 0.040(2) 0.052(2) 0.0011(16) 0.0112(18) -0.0089(18)
C00K 0.046(2) 0.0352(17) 0.0439(19) 0.0051(14) 0.0078(16) -0.0036(15)
C00L 0.050(2) 0.0277(16) 0.0463(19) 0.0004(14) 0.0097(16) -0.0049(15)
C00M 0.046(2) 0.0376(18) 0.0409(18) -0.0027(14) 0.0185(16) 0.0018(15)
C00N 0.060(3) 0.0360(18) 0.051(2) -0.0053(15) 0.0184(18) 0.0114(17)
C00O 0.066(3) 0.041(2) 0.053(2) -0.0020(17) 0.016(2) -0.0129(18)
C00P 0.055(2) 0.0416(19) 0.049(2) -0.0022(16) 0.0143(18) -0.0007(17)
C00Q 0.041(2) 0.0385(19) 0.0393(17) -0.0011(14) 0.0114(15) 0.0019(15)
C00R 0.054(2) 0.043(2) 0.067(2) 0.0099(17) 0.0267(19) -0.0028(17)
C00S 0.056(2) 0.0311(18) 0.061(2) 0.0040(15) 0.0117(19) 0.0007(16)
C00T 0.051(2) 0.048(2) 0.048(2) -0.0014(16) 0.0187(17) 0.0084(17)
C00U 0.065(3) 0.0287(18) 0.062(2) -0.0024(15) 0.015(2) 0.0042(16)
C00V 0.074(3) 0.049(2) 0.050(2) 0.0039(17) 0.027(2) -0.003(2)
C00W 0.077(3) 0.052(2) 0.081(3) -0.003(2) 0.043(3) -0.012(2)
C00X 0.070(3) 0.047(2) 0.075(3) -0.001(2) 0.022(2) -0.022(2)
C00Y 0.048(3) 0.066(3) 0.093(3) 0.001(2) 0.029(2) 0.008(2)
C00Z 0.052(3) 0.050(2) 0.082(3) -0.008(2) 0.009(2) 0.0081(19)
C010 0.046(2) 0.057(2) 0.058(2) 0.0049(18) 0.0195(18) 0.0072(18)
C011 0.064(3) 0.063(3) 0.048(2) 0.003(2) 0.020(2) -0.002(2)
C012 0.062(3) 0.062(3) 0.068(3) 0.015(2) 0.020(2) -0.015(2)
C013 0.065(3) 0.052(3) 0.134(5) -0.029(3) 0.032(3) 0.000(2)
C015 0.074(4) 0.051(3) 0.148(5) 0.030(3) 0.060(4) 0.030(2)
C017 0.060(3) 0.110(4) 0.062(3) 0.011(2) 0.016(2) 0.043(3)
C018 0.075(4) 0.140(5) 0.091(4) 0.045(4) 0.034(3) 0.066(4)
loop_
_atom_type_symbol
_atom_type_description
_atom_type_scat_dispersion_real
_atom_type_scat_dispersion_imag
_atom_type_scat_source
C C 0.0033 0.0016 'International Tables Vol C Tables 4.2.6.8 and 6.1.1.4'
H H 0.0000 0.0000 'International Tables Vol C Tables 4.2.6.8 and 6.1.1.4'
N N 0.0061 0.0033 'International Tables Vol C Tables 4.2.6.8 and 6.1.1.4'
Sb Sb -0.5866 1.5461 'International Tables Vol C Tables 4.2.6.8 and 6.1.1.4'
loop_
_geom_angle_atom_site_label_1
_geom_angle_atom_site_label_2
_geom_angle_atom_site_label_3
_geom_angle
_geom_angle_site_symmetry_1
_geom_angle_site_symmetry_3
N002 Sb01 N003 124.92(11) . .
N002 Sb01 N004 72.21(10) . .
N002 Sb01 N005 78.18(10) . .
N003 Sb01 N005 83.19(10) . .
N004 Sb01 N003 78.21(10) . .
N004 Sb01 N005 125.67(10) . .
C006 N002 Sb01 118.0(2) . .
C00Q N002 Sb01 130.6(2) . .
C00Q N002 C006 110.1(3) . .
C007 N003 Sb01 123.6(2) . .
C007 N003 C00F 108.3(3) . .
C00F N003 Sb01 123.7(2) . .
C00A N004 Sb01 117.3(2) . .
C00A N004 C00L 110.4(3) . .
C00L N004 Sb01 129.5(2) . .
C00B N005 Sb01 121.5(2) . .
C00D N005 Sb01 121.0(2) . .
C00D N005 C00B 108.6(2) . .
N002 C006 C00A 113.2(3) . .
N002 C006 C00N 107.2(3) . .
C00A C006 C00N 139.5(3) . .
N003 C007 C009 124.5(3) . .
N003 C007 C00I 107.9(3) . .
C009 C007 C00I 127.6(3) . .
C00B C008 H008 125.6 . .
C00C C008 H008 125.6 . .
C00C C008 C00B 108.7(3) . .
C007 C009 C00H 116.3(3) . .
C00D C009 C007 125.4(3) . .
C00D C009 C00H 118.4(3) . .
N004 C00A C006 113.3(3) . .
N004 C00A C00U 107.5(3) . .
C006 C00A C00U 139.1(3) . .
N005 C00B C008 106.3(3) . .
C00G C00B N005 125.5(3) . .
C00G C00B C008 128.0(3) . .
C008 C00C H00C 125.4 . .
C008 C00C C00D 109.2(3) . .
C00D C00C H00C 125.4 . .
N005 C00D C009 124.2(3) . .
N005 C00D C00C 107.1(3) . .
C009 C00D C00C 128.7(3) . .
C00F C00E C00K 118.4(3) . .
C00L C00E C00F 121.6(3) . .
C00L C00E C00K 119.9(3) . .
N003 C00F C00R 106.8(3) . .
C00E C00F N003 126.6(3) . .
C00E C00F C00R 126.3(3) . .
C00B C00G C00M 121.3(3) . .
C00B C00G C00Q 121.9(3) . .
C00Q C00G C00M 116.8(3) . .
C00Z C00H C009 121.7(3) . .
C00Z C00H C017 117.4(4) . .
C017 C00H C009 120.8(3) . .
C007 C00I H00I 125.9 . .
C00R C00I C007 108.2(3) . .
C00R C00I H00I 125.9 . .
C00K C00J H00J 117(2) . .
C011 C00J C00K 120.7(4) . .
C011 C00J H00J 122(2) . .
C00J C00K C00E 120.5(3) . .
C00J C00K C00O 117.7(3) . .
C00O C00K C00E 121.7(3) . .
N004 C00L C00E 120.4(3) . .
N004 C00L C00S 105.8(3) . .
C00E C00L C00S 133.1(3) . .
C00P C00M C00G 123.4(3) . .
C010 C00M C00G 118.8(3) . .
C010 C00M C00P 117.8(3) . .
C006 C00N H00N 125.9 . .
C00T C00N C006 108.1(3) . .
C00T C00N H00N 125.9 . .
C00K C00O H00O 119(2) . .
C00X C00O C00K 121.2(4) . .
C00X C00O H00O 120(2) . .
C00M C00P H00P 119.5 . .
C00V C00P C00M 121.1(4) . .
C00V C00P H00P 119.5 . .
N002 C00Q C00G 120.9(3) . .
N002 C00Q C00T 106.5(3) . .
C00G C00Q C00T 132.1(3) . .
C00F C00R H00R 125.6 . .
C00I C00R C00F 108.8(3) . .
C00I C00R H00R 125.6 . .
C00L C00S H00S 125.7 . .
C00U C00S C00L 108.6(3) . .
C00U C00S H00S 125.7 . .
C00N C00T C00Q 108.1(3) . .
C00N C00T H00T 126.0 . .
C00Q C00T H00T 126.0 . .
C00A C00U H00U 126.2 . .
C00S C00U C00A 107.5(3) . .
C00S C00U H00U 126.2 . .
C00P C00V H00V 119.8 . .
C00W C00V C00P 120.3(4) . .
C00W C00V H00V 119.8 . .
C00V C00W H00W 120.2 . .
C00Y C00W C00V 119.6(4) . .
C00Y C00W H00W 120.2 . .
C00O C00X C012 120.5(4) . .
C00O C00X H00X 121(3) . .
C012 C00X H00X 118(3) . .
C00W C00Y H00Y 119.9 . .
C00W C00Y C010 120.2(4) . .
C010 C00Y H00Y 119.9 . .
C00H C00Z H00Z 119.5 . .
C00H C00Z C013 121.0(4) . .
C013 C00Z H00Z 119.5 . .
C00M C010 C00Y 121.0(4) . .
C00M C010 H010 119.5 . .
C00Y C010 H010 119.5 . .
C00J C011 H011 114(3) . .
C012 C011 C00J 120.4(4) . .
C012 C011 H011 126(3) . .
C00X C012 H012 119(2) . .
C011 C012 C00X 119.5(4) . .
C011 C012 H012 121(2) . .
C00Z C013 H013 120.2 . .
C015 C013 C00Z 119.6(5) . .
C015 C013 H013 120.2 . .
C013 C015 H015 120.2 . .
C018 C015 C013 119.6(4) . .
C018 C015 H015 120.2 . .
C00H C017 H017 119.1 . .
C00H C017 C018 121.7(5) . .
C018 C017 H017 119.1 . .
C015 C018 C017 120.6(5) . .
C015 C018 H018 119.7 . .
C017 C018 H018 119.7 . .
loop_
_geom_bond_atom_site_label_1
_geom_bond_atom_site_label_2
_geom_bond_distance
_geom_bond_site_symmetry_2
Sb01 N002 2.105(3) .
Sb01 N003 2.119(3) .
Sb01 N004 2.108(3) .
Sb01 N005 2.136(2) .
N002 C006 1.371(4) .
N002 C00Q 1.363(4) .
N003 C007 1.385(4) .
N003 C00F 1.406(4) .
N004 C00A 1.364(4) .
N004 C00L 1.373(4) .
N005 C00B 1.406(4) .
N005 C00D 1.388(4) .
C006 C00A 1.400(5) .
C006 C00N 1.401(5) .
C007 C009 1.400(4) .
C007 C00I 1.415(5) .
C008 H008 0.9300 .
C008 C00B 1.430(4) .
C008 C00C 1.344(5) .
C009 C00D 1.391(5) .
C009 C00H 1.492(4) .
C00A C00U 1.410(5) .
C00B C00G 1.397(5) .
C00C H00C 0.9300 .
C00C C00D 1.419(4) .
C00E C00F 1.403(5) .
C00E C00K 1.484(5) .
C00E C00L 1.402(5) .
C00F C00R 1.417(5) .
C00G C00M 1.488(5) .
C00G C00Q 1.408(4) .
C00H C00Z 1.359(5) .
C00H C017 1.367(5) .
C00I H00I 0.9300 .
C00I C00R 1.364(5) .
C00J C00K 1.388(5) .
C00J C011 1.384(5) .
C00J H00J 0.92(3) .
C00K C00O 1.390(5) .
C00L C00S 1.425(5) .
C00M C00P 1.386(5) .
C00M C010 1.379(5) .
C00N H00N 0.9300 .
C00N C00T 1.363(5) .
C00O C00X 1.366(5) .
C00O H00O 0.91(3) .
C00P H00P 0.9300 .
C00P C00V 1.374(5) .
C00Q C00T 1.421(4) .
C00R H00R 0.9300 .
C00S H00S 0.9300 .
C00S C00U 1.366(5) .
C00T H00T 0.9300 .
C00U H00U 0.9300 .
C00V H00V 0.9300 .
C00V C00W 1.370(6) .
C00W H00W 0.9300 .
C00W C00Y 1.364(6) .
C00X C012 1.376(6) .
C00X H00X 0.94(5) .
C00Y H00Y 0.9300 .
C00Y C010 1.384(5) .
C00Z H00Z 0.9300 .
C00Z C013 1.392(6) .
C010 H010 0.9300 .
C011 C012 1.368(6) .
C011 H011 0.85(4) .
C012 H012 0.91(4) .
C013 H013 0.9300 .
C013 C015 1.367(7) .
C015 H015 0.9300 .
C015 C018 1.334(7) .
C017 H017 0.9300 .
C017 C018 1.369(6) .
C018 H018 0.9300 .
loop_
_refln_index_h
_refln_index_k
_refln_index_l
_refln_F_squared_meas
_refln_F_squared_sigma
-3 0 0 5067.01 205.95
-4 0 0 3462.2 142.08
-5 0 0 1601.86 68
-6 0 0 1144.27 50.36
-7 0 0 186.31 12.86
-8 0 0 10.36 6.56
8 0 0 12.22 3.69
-9 0 0 70.98 10.06
-9 0 0 43.05 12.37
9 0 0 52.24 10.81
9 0 0 69.57 5.75
-10 0 0 49.9 13.56
10 0 0 21.73 4.81
-10 0 0 12.36 9.41
10 0 0 45.97 12.67
11 0 0 -14.96 12.68
-11 0 0 -4.6 9.98
11 0 0 8.72 4.82
-11 0 0 8.7 13.39
-12 0 0 27.03 15.8
-12 0 0 7.61 11.45
12 0 0 5.14 4.75
-13 0 0 2.14 15.91
-13 0 0 8.35 12.03
-14 0 0 27.49 13.52
-14 0 0 58.94 20.73
-15 0 0 36.37 22.22
-15 0 0 13.36 15.08
-16 0 0 21.89 17.71
17 0 0 40.71 17.95
-2 -1 0 73.29 5.63
-2 -1 0 68.85 4.75
-3 -1 0 360.79 16.28
-3 -1 0 322.04 17.36
3 1 0 339.86 16.12
-4 -1 0 245.47 13.05
-5 -1 0 161.61 10.64
-5 1 0 176.04 10.97
-6 -1 0 402.5 19.85
-6 1 0 370.71 19.53
-6 -1 0 355.22 21.59
-7 -1 0 161.73 12.79
-7 1 0 203.21 13.21
-7 -1 0 227.56 16.64
7 -1 0 202.14 9.56
8 1 0 203.82 16.34
-8 -1 0 252.98 15.7
8 -1 0 223.76 10.91
-8 -1 0 225.08 18.28
-8 1 0 245.86 15.51
-9 -1 0 317.7 20.06
9 -1 0 322.22 15.01
9 1 0 342.51 16.32
-9 -1 0 303.18 23.04
9 1 0 329.75 21.9
-9 1 0 342.33 20.09
10 1 0 186.44 17.37
10 -1 0 173.34 9.45
-10 1 0 182.17 15.41
10 -1 0 194.6 17.6
-10 -1 0 175.49 18.84
-10 -1 0 200.67 16.18
10 1 0 189.38 11.1
11 1 0 103.26 8.12
-11 1 0 123.95 14.1
-11 1 0 109.82 16.4
11 1 0 100.57 15.45
11 -1 0 86.2 6.12
-11 -1 0 89.37 16.36
-11 -1 0 113.13 13.61
-12 1 0 74.77 13.06
-12 -1 0 111.3 18.61
12 1 0 103.94 17.3
-12 -1 0 66.47 13.16
-12 1 0 79.76 16.7
12 1 0 71.06 7.61
13 1 0 17.26 5.8
-13 1 0 12.53 12.36
-13 -1 0 41.89 18.57
-13 1 0 27.23 17.01
-13 -1 0 15.56 12.69
13 1 0 15.18 16.04
-14 -1 0 15.45 13.99
-14 1 0 18.19 13.49
-14 1 0 9.24 18.19
-14 -1 0 -9.68 19.05
-15 -1 0 10.14 15.58
-15 -1 0 42.15 21.25
-15 1 0 79.45 17.87
-15 1 0 30.55 22.3
-16 1 0 21.68 17.59
-16 -1 0 9.21 17.12
17 -1 0 -7.74 16.88
-2 -2 0 1189.43 49.51
2 2 0 1154.02 48.56
-2 -2 0 1151.02 48.47
3 2 0 379.18 17.82
-3 -2 0 382.25 18.05
-3 -2 0 392.78 19.46
-4 -2 0 563.54 25.18
-4 -2 0 495.16 26.67
4 2 0 562.47 24.87
5 2 0 -1.37 4.48
-5 -2 0 4.75 6.64
-5 -2 0 -2 5.21
-6 -2 0 284.96 19.17
-6 -2 0 317.94 17.12
6 2 0 310.21 17.81
7 2 0 67.02 9.54
-7 2 0 63.2 8.18
7 -2 0 71.64 4.11
-7 -2 0 74.6 11.15
-7 -2 0 88.98 8.84
-8 -2 0 5.75 7.05
-8 -2 0 17.99 10.16
8 2 0 4.8 8.11
8 -2 0 7.23 2.22
-8 2 0 7.96 6.49
9 -2 0 24.49 2.57
-9 -2 0 13.19 12.03
-9 -2 0 32.69 8.79
-9 2 0 20.87 8.05
9 2 0 38.46 10.86
-10 2 0 7.09 8.83
-10 -2 0 14.86 13.23
10 2 0 1.83 5.5
-10 -2 0 4.21 9.37
10 2 0 12.44 11.52
-11 2 0 1.13 9.58
-11 -2 0 42.33 11.54
11 2 0 18.1 13.35
11 2 0 0.48 5.83
-11 -2 0 31.41 14.48
12 2 0 7.78 5.96
-12 -2 0 31.26 12.45
-12 2 0 7.54 13.89
-12 2 0 -3.77 10.88
-12 -2 0 12.32 15.66
12 2 0 -1.54 14.03
-13 -2 0 32.96 13.74
-13 -2 0 2.26 16.71
-13 2 0 -26.95 17.92
13 2 0 13.65 15.34
13 2 0 5.37 6.61
-13 2 0 23.7 13.04
14 2 0 -1.88 17.37
-14 -2 0 -6.31 13.94
-14 2 0 -4.56 17.62
-14 2 0 -1.53 12.99
14 -2 0 -1.79 16.99
14 2 0 -14.07 6.89
-14 -2 0 14.81 18.91
-15 -2 0 -21.5 21.25
-15 2 0 -5.01 20.49
-15 -2 0 10.29 15.57
-15 2 0 9.92 14.76
-16 2 0 -14.42 17.06
16 -2 0 9.06 15.16
17 -2 0 20.64 17.22
-2 -3 0 897.63 40.47
-2 -3 0 933.98 39.32
2 3 0 930.24 39.26
2 3 0 912.71 39.33
-3 -3 0 122.1 9.96
3 3 0 105.08 7.91
3 3 0 94.02 7.43
-3 -3 0 100.89 7.44
4 3 0 2033.47 85.29
-4 -3 0 2041.07 85.59
4 3 0 2060.22 85.99
-4 -3 0 2064.93 87.47
-5 -3 0 592.14 29.1
5 3 0 546.62 27.1
-5 -3 0 571.74 26.57
5 3 0 546.04 26.07
6 3 0 398.84 21.92
-6 -3 0 409.65 20.95
-6 -3 0 397.89 23.55
-7 -3 0 276.61 19.81
7 3 0 253.85 17.42
-7 -3 0 289.59 16.85
-8 -3 0 199.84 17.17
8 3 0 174.2 14.66
-8 -3 0 181.62 13.72
-8 3 0 162.6 13.48
-9 -3 0 476.31 26.27
-9 3 0 485.66 26.04
-9 -3 0 471.77 30.29
9 3 0 463.6 27.7
-10 3 0 277.48 19.39
-10 -3 0 279.37 19.93
-10 -3 0 334.8 24.77
10 3 0 288.36 21.62
11 3 0 118.24 16.49
-11 -3 0 81.82 13.8
-11 -3 0 93.49 17.53
-11 3 0 87.7 12.47
11 3 0 87.87 8.87
-12 3 0 215.78 19.21
12 3 0 245.23 22.68
-12 -3 0 216.94 24.58
-12 -3 0 241.96 19.91
12 3 0 244.23 14.63
12 -3 0 223.61 21.91
13 3 0 274.83 24.69
13 -3 0 273.06 24.39
-13 -3 0 203.81 21.1
-13 3 0 314.37 22.17
-13 3 0 287.81 26.35
-13 -3 0 289.17 28.49
13 3 0 226.54 15.33
-14 3 0 99.64 21.68
14 3 0 63.64 9.39
-14 -3 0 93.38 23.81
-14 3 0 93.47 16.35
14 -3 0 61.91 19.33
14 3 0 114.04 21.59
-14 -3 0 96.21 17.78
-15 -3 0 78.82 18.46
-15 3 0 81.82 24.49
-15 -3 0 46.79 23.26
-15 3 0 68.44 17.69
15 -3 0 30.61 15.48
15 3 0 48.45 8.68
-16 3 0 16.2 17.2
16 -3 0 52.67 17.19
0 4 0 63.23 4.54
-1 4 0 791.12 31.6
1 4 0 703.99 31.31
1 4 0 711.6 30.88
-1 -4 0 763.83 33.19
-1 -4 0 757.73 31.39
1 -4 0 744.94 31.77
-1 -4 0 724.59 30.9
-2 -4 0 1094.6 45.74
-2 -4 0 995.47 47.58
2 4 0 1097.48 46.12
2 4 0 1092.21 45.9
-3 -4 0 4596.95 185.16
-3 -4 0 4562.04 186.95
3 4 0 4444.23 184.86
3 4 0 4518.11 185.01
4 4 0 72.39 6.9
-4 -4 0 85.27 9.09
-4 -4 0 79.17 7.64
4 4 0 63.41 7.66
-5 -4 0 552.82 28.95
-5 -4 0 624.31 27.06
5 4 0 560.8 27.33
5 4 0 498.46 25.8
6 4 0 1512.51 66.71
-6 -4 0 1544.98 69.06
-6 -4 0 1516.14 66.05
-7 -4 0 848.76 41.81
7 4 0 781.76 38.91
-7 -4 0 818.59 38.44
-8 -4 0 128.75 11.97
8 4 0 109.77 12.59
-8 -4 0 127.49 15
-9 -4 0 105.14 12.54
9 4 0 121.31 13.86
-9 4 0 115.33 11.74
-9 -4 0 109.2 16.31
-10 -4 0 11.13 9.67
10 4 0 20.41 11.44
-10 4 0 14.58 9.97
-10 -4 0 7.09 14.39
11 4 0 45.49 7.89
-11 4 0 46.31 11.49
11 -4 0 41.4 13.24
-11 -4 0 47.19 15.85
-11 -4 0 38.32 11.87
11 4 0 37.03 14.04
-12 -4 0 13.67 12.92
-12 -4 0 36.92 16.72
12 -4 0 17.31 13.8
12 4 0 6.39 7.7
-12 4 0 29.27 12.17
12 4 0 1.59 14.5
-13 -4 0 -1.5 13.2
-13 4 0 -1.4 11.88
13 4 0 12.14 7.93
-13 -4 0 26.22 19.59
13 4 0 10.51 16.32
13 -4 0 14.38 15.13
-14 4 0 3.07 13.68
-14 -4 0 24.51 15.86
-14 4 0 -2.27 18.18
14 4 0 12.95 8.44
-14 -4 0 23.4 21.36
14 -4 0 1.75 17.79
-15 -4 0 -8.86 16.87
-15 -4 0 45.23 24.34
15 4 0 -9.41 8.54
-15 4 0 -1.68 15.34
15 -4 0 13.47 15.42
16 -4 0 14.26 15.86
0 -5 0 -3.44 3.64
0 5 0 7.01 4.38
1 5 0 391.51 17.5
-1 -5 0 376.63 17.77
-1 5 0 376.37 18.2
1 -5 0 411.22 18.8
-1 -5 0 404.93 17.62
2 5 0 96.62 7.54
-2 -5 0 99.78 9.6
2 5 0 90.21 5.92
-2 -5 0 88.35 7.02
2 5 0 93.28 8.18
-3 -5 0 37.3 6.48
3 5 0 46.8 6.19
3 5 0 38.88 6.12
-3 -5 0 28.95 7.8
-4 -5 0 10.82 5.12
-4 -5 0 20.06 8.48
4 5 0 11.37 5.66
4 5 0 19.77 5.49
-5 -5 0 -2.99 8.48
5 5 0 13.67 7.13
-5 -5 0 31.84 6.28
6 5 0 0.77 7.17
-6 -5 0 2.11 6.93
-6 -5 0 12.56 9.34
-7 -5 0 89.05 9.79
-7 -5 0 89.72 14.1
7 5 0 95.01 11.03
-8 -5 0 8.81 11.57
8 5 0 10.17 8.99
-8 -5 0 16.4 7.78
-9 -5 0 19.5 9.05
9 5 0 24.17 10.5
-9 -5 0 32.98 13.69
-10 -5 0 -14.9 10.2
10 5 0 -5.17 11.05
-10 -5 0 -22.08 14.42
-10 5 0 11.77 8.5
-11 5 0 23.55 10.85
11 5 0 31.88 13.7
-11 -5 0 42.83 16.26
-11 -5 0 43.25 11.67
-12 -5 0 13.48 16.64
-12 -5 0 29.38 13.21
12 -5 0 -1.42 13.49
12 5 0 4.17 7.89
-12 5 0 2.6 10.93
12 5 0 12.87 14.95
-13 5 0 19.83 13.03
13 5 0 -5.03 8.96
13 5 0 10.68 16.75
13 -5 0 3.16 15.39
-13 -5 0 7.4 18.89
-13 -5 0 19.9 13.99
14 -5 0 8.64 17.06
-14 -5 0 32.23 21.33
-14 5 0 -7.75 13.54
14 -5 0 11.47 13.95
14 5 0 -2.16 9.17
-14 -5 0 9.97 15.39
15 -5 0 19.92 15.8
-15 5 0 3.39 14.76
-15 -5 0 37.8 24.95
15 5 0 -5.03 9.24
-15 -5 0 -5.39 17.38
16 -5 0 6.49 16.8
0 6 0 623.17 27.59
0 -6 0 631.26 27.47
-1 -6 0 2439.52 99.32
-1 6 0 2472.38 99.84
1 -6 0 2379.02 100.17
1 6 0 2438.21 99.26
-1 -6 0 2368.17 99.34
-2 -6 0 1149.93 50.74
2 6 0 1103.3 47.87
2 -6 0 1140.02 48.42
2 6 0 1109.12 47.01
-2 -6 0 1099.14 47.89
-2 6 0 1152.69 48.56
3 6 0 2042.77 86.11
-3 -6 0 2045.37 88.55
3 6 0 2098.84 86.31
-3 6 0 2018.53 86.15
4 6 0 822.68 36.06
4 6 0 746.97 35.51
-4 -6 0 812.64 36.12
-4 -6 0 785.76 38.81
-4 6 0 773.46 32.46
-5 -6 0 197.51 16.15
-5 -6 0 190.74 13.18
5 6 0 205.84 13.59
-6 -6 0 159.21 15.59
6 6 0 153.05 12.63
-6 -6 0 135.84 11.57
7 6 0 309.01 18.69
-7 -6 0 262.74 21.29
-7 -6 0 275.82 17.73
-8 -6 0 126.45 16.4
8 6 0 101.01 10.21
8 6 0 79.1 12.22
-8 -6 0 91.48 11.32
-9 -6 0 17.26 13.47
9 6 0 -3.53 10.54
9 6 0 15.46 7.75
-9 -6 0 5.3 9.29
-10 -6 0 11.77 10.33
10 6 0 2.64 11.39
-10 -6 0 1.92 14.36
-11 -6 0 19.5 12.18
-11 6 0 19.34 10.2
11 6 0 16.19 13.69
-11 -6 0 8.48 15.94
-12 6 0 -13.22 11.4
-12 -6 0 5.71 12.66
-12 -6 0 6.99 17.93
12 -6 0 18.29 13.97
12 6 0 24.56 15.98
12 -6 0 24 11.93
12 6 0 18.82 8.6
-13 6 0 33.24 13.66
13 -6 0 17.79 12.49
13 6 0 55.11 10.42
13 -6 0 43.61 16.59
-13 -6 0 6.22 14.31
-13 -6 0 30.5 20.84
13 6 0 14.33 17.26
-14 -6 0 32.02 16.11
14 -6 0 -20.5 18.68
14 -6 0 -8.82 14.47
-14 6 0 -18.83 14.45
14 6 0 -13.36 9.86
-14 -6 0 -13.78 22.18
-15 6 0 11.98 15.18
-15 -6 0 21.83 17.91
15 -6 0 17.23 16.44
15 6 0 7.18 10.24
16 -6 0 -13.3 17.67
0 -7 0 1.62 3.81
0 7 0 0.33 4.14
1 7 0 2.08 3.45
1 -7 0 3.19 4.74
-1 -7 0 8.8 4.01
1 -7 0 1.49 4.27
-1 -7 0 2.94 3.79
-1 7 0 4.56 4.65
-2 7 0 6.7 5.64
2 7 0 6.96 4.44
-2 -7 0 10.05 5.02
2 7 0 6.63 3.48
-2 -7 0 14.43 8.24
-2 7 0 5.75 4.63
2 -7 0 8.43 5.24
-3 7 0 512.3 24.29
-3 -7 0 523.33 27.01
3 7 0 485.57 24.11
3 7 0 462.41 23.59
-4 7 0 364.37 19.5
-4 7 0 368.29 16.09
-4 -7 0 393.98 22.6
4 7 0 326.4 19.11
5 7 0 695.86 32.56
-5 -7 0 661.83 35.38
-5 7 0 670.3 28.12
-5 -7 0 674.97 32.67
-6 -7 0 927.62 47.59
-6 -7 0 892.95 43.9
6 7 0 1032.45 44.72
7 7 0 1011.8 46.82
7 -7 0 988.69 45.43
-7 -7 0 922.92 46.07
-7 -7 0 1042.12 50.33
8 7 0 1179.11 53.3
-8 -7 0 1137.71 52.33
8 -7 0 1053.14 51.05
-8 -7 0 1059.5 56.3
8 7 0 1141.06 50.9
9 7 0 743.02 36.24
-9 -7 0 809.04 43.58
9 7 0 710.1 38.64
-9 -7 0 729.02 37.87
-10 -7 0 334.73 23.47
10 7 0 406.34 25.93
-10 -7 0 363.72 29.6
-11 -7 0 420.57 33.61
-11 -7 0 503.78 29.76
11 7 0 496.88 31.18
11 -7 0 440.19 27.64
-11 7 0 490.03 28.53
-12 7 0 452.58 28.75
12 -7 0 511.21 30.84
12 7 0 450.42 31.75
-12 -7 0 441.44 29.78
12 7 0 460.14 25.28
12 -7 0 481.98 29.08
-12 -7 0 436.16 35.49
-13 7 0 193.53 19.81
13 7 0 195.51 22.98
13 -7 0 186.71 19.43
-13 -7 0 197.1 27.35
13 -7 0 215.33 22.01
13 7 0 177.2 15.23
-13 -7 0 209.28 21.2
14 -7 0 82.72 19.32
-14 -7 0 88.33 25.29
-14 7 0 94.41 17.02
-14 -7 0 42.85 16.89
14 7 0 83.35 12.8
14 -7 0 99.2 17.34
-15 7 0 53.79 17.36
15 7 0 65.84 12.45
15 -7 0 65.78 17.48
0 -8 0 956.48 40.75
0 8 0 926.74 40.78
1 8 0 668.93 29.17
1 -8 0 711.26 30.72
-1 -8 0 622.97 29.11
1 -8 0 666.01 29.69
-1 8 0 647.1 29.77
2 -8 0 406.35 21
-2 8 0 412.64 20.62
-2 -8 0 466.25 24.68
-3 8 0 756.98 33.87
-3 -8 0 749.98 37.12
3 8 0 763.03 33.35
3 8 0 639.71 33.58
4 8 0 170.13 12.43
-4 -8 0 175.14 15.88
5 8 0 22.28 7.86
-5 -8 0 38.11 11.57
-5 8 0 21.81 3.07
-6 -8 0 374.75 25.75
-6 -8 0 399.27 22.45
6 8 0 397.06 22.44
-7 -8 0 245.07 17.09
7 8 0 213.49 16.49
7 -8 0 230.41 15.34
-7 -8 0 210.95 20.53
-8 -8 0 127.73 17.92
8 8 0 150.77 14.83
-8 -8 0 138.52 14.29
8 -8 0 149.09 12.71
8 8 0 135.36 12.2
9 8 0 1.81 7.59
-9 -8 0 -2.29 10.39
9 8 0 22.2 11.72
-9 -8 0 31.92 15.11
-10 -8 0 10.01 11.82
10 8 0 9.81 8.15
10 8 0 48.02 14.37
-10 -8 0 4.15 15.43
11 -8 0 18.45 11.14
11 8 0 -1.52 13.02
-11 -8 0 11.38 16.59
-11 -8 0 15.13 12.95
12 -8 0 5.32 11.96
12 -8 0 2.75 13.63
-12 -8 0 5.97 13.79
12 8 0 11.29 9.54
-12 -8 0 32.33 19.92
-12 8 0 -18.17 12.17
12 8 0 -1.67 14.96
13 8 0 -0.9 9.96
-13 -8 0 -8.14 14.77
13 -8 0 5.74 13.08
13 -8 0 12.15 15.94
13 8 0 -3.66 17.04
-13 8 0 -4.54 12.64
-13 -8 0 8.12 20.92
-14 -8 0 52.71 24.84
-14 -8 0 -5.28 16.26
14 -8 0 7.7 14.05
-14 8 0 23 15.32
14 8 0 21.39 11.3
14 -8 0 8.34 16.8
15 -8 0 -4.91 15.93
-15 8 0 1.77 16.42
15 8 0 9.3 11.33
0 -9 0 3.35 4.56
0 9 0 -2.16 4.84
-1 -9 0 -1.58 4.43
1 9 0 1.57 4.78
1 -9 0 6.49 4.79
1 -9 0 -1.74 5.3
-1 -9 0 2.82 2.04
-1 9 0 8.11 5.22
-2 9 0 2.69 5.37
2 -9 0 -1.22 5.93
3 9 0 330.86 18.21
-3 -9 0 344.23 22.62
-3 9 0 380.45 19.67
4 9 0 143.98 9.44
4 9 0 159.37 11.73
-4 -9 0 147.38 15.4
5 9 0 126.24 11.34
-5 -9 0 134.65 15.36
-5 9 0 129.9 7.39
-6 -9 0 370.52 24.75
-6 9 0 329.18 19.76
-6 9 0 327.53 14.65
6 9 0 307.93 19.81
-7 9 0 214.12 15.32
7 9 0 191.81 17.28
7 9 0 199.52 16.48
-7 -9 0 194.84 16.04
7 -9 0 190.38 14.18
-7 -9 0 204.88 19.61
-8 -9 0 177.6 16.34
8 9 0 171.96 17.56
8 -9 0 163.25 13.93
8 9 0 201.79 17.19
-8 -9 0 171.09 19.85
8 9 0 199.73 14.6
9 9 0 92.32 11.04
-9 -9 0 76.24 13.07
-9 -9 0 90.19 17.87
9 9 0 79.23 13.75
9 -9 0 46.67 10.77
10 9 0 74 15.12
10 9 0 61.32 10.41
-10 -9 0 51.25 13.22
-10 -9 0 79.51 18.12
11 9 0 44.7 15.42
11 9 0 14.12 9.25
-11 -9 0 37.22 13.6
-11 -9 0 40 18.72
-12 -9 0 2.56 18.87
-12 -9 0 21.72 14.1
12 9 0 -5.08 15.49
12 -9 0 35.28 13.92
12 -9 0 13.68 12.56
-13 -9 0 13.43 15.7
13 -9 0 36.06 15.97
13 9 0 8.63 10.74
13 9 0 29.52 17.85
-13 -9 0 13.92 21.54
13 -9 0 -2.95 13.29
-13 9 0 20.2 13.39
-14 -9 0 -3.63 17.48
14 9 0 6.99 11.3
14 -9 0 47.21 16.52
-14 -9 0 -6.01 23.78
14 -9 0 6.6 17.02
-14 9 0 1.68 14.5
15 9 0 -2.98 11.58
15 -9 0 11.7 16.68
0 10 0 3113.63 131.21
0 -10 0 3233.31 131.12
1 -10 0 3621.4 147.42
1 -10 0 3615.72 148.35
-1 10 0 3530.42 147.56
-1 -10 0 3531.04 146.92
2 -10 0 2048.46 87.48
-2 -10 0 2067.67 85.75
-2 10 0 2035.66 86.84
3 -10 0 690.5 32.88
-3 -10 0 660.29 36.26
-4 -10 0 825.19 39.62
4 10 0 702.96 33.73
4 10 0 682.65 31.7
-5 10 0 808.62 35.66
5 10 0 865.08 39.78
5 10 0 847.98 36.98
-5 -10 0 894.4 44.47
-6 10 0 600.96 26
-6 -10 0 575.03 35.73
6 10 0 622.46 31.41
-6 10 0 604.15 31.18
-7 -10 0 421.77 30.8
7 10 0 475.46 29.45
7 -10 0 510.93 26.38
-7 10 0 508.54 27.27
7 10 0 444.89 25.51
7 10 0 510.37 27.65
8 10 0 206.6 17.74
-8 10 0 185.07 16.45
8 -10 0 207.63 15.78
8 10 0 220.93 19.32
-8 -10 0 181.15 20.68
8 10 0 212.54 15.35
9 -10 0 -4.39 8.88
9 10 0 12.84 12.49
-9 -10 0 20.4 15.32
9 10 0 2.91 8.18
-9 -10 0 5.01 11.14
-10 -10 0 -1.36 12.26
-10 -10 0 20.05 16.58
10 10 0 9.33 9.51
10 10 0 5.68 13.16
-11 -10 0 58.25 20.05
11 10 0 46.86 16.13
11 10 0 18.79 10.32
-11 -10 0 7.4 13.6
12 -10 0 21.47 14.23
12 10 0 11.97 15.95
-12 -10 0 31.72 20.15
12 -10 0 -4.2 12.76
-12 -10 0 11.2 13.99
-13 10 0 1.6 13.49
13 -10 0 10.4 15.27
13 -10 0 9.03 13.71
13 10 0 29.85 18.15
-13 -10 0 22.46 16.96
13 10 0 -1.02 10.94
-13 -10 0 22.91 22.35
14 10 0 13.71 11.51
-14 10 0 10.3 15.22
14 -10 0 4.9 17.18
-14 -10 0 24.7 24.74
14 -10 0 -1.61 15.37
15 10 0 7.42 12.76
0 11 0 2.67 5.4
0 -11 0 11.85 5.25
1 -11 0 93.6 9.52
-1 -11 0 111.59 8.21
-1 -11 0 121.07 8.19
1 -11 0 109.12 8.95
-1 11 0 97.54 5.73
-1 11 0 120.82 9.44
-2 11 0 106.2 9.89
-2 -11 0 107.66 8.68
2 -11 0 124.86 10.85
-2 -11 0 114.26 9
-3 -11 0 17.45 6.53
3 11 0 4.12 4.97
3 -11 0 6.93 7.05
-4 -11 0 100.01 15.47
4 11 0 110.83 8.65
4 11 0 112.26 10.78
-5 11 0 480.53 25.6
5 11 0 455.17 22.35
-5 11 0 465.98 21.24
5 11 0 474.29 25.12
-5 -11 0 426.84 29.58
6 -11 0 464.55 25.24
6 11 0 455.13 28.82
6 11 0 537.86 27.36
-6 11 0 457.92 21.24
-6 11 0 442.98 26.02
6 11 0 504.16 23.31
-6 -11 0 527.57 32.15
7 -11 0 191.26 14.61
-7 -11 0 214.3 21.26
-7 11 0 187.64 9.6
-7 11 0 182.84 15.86
7 11 0 205.24 15.14
7 11 0 227.11 17.07
7 11 0 201.57 18.3
8 -11 0 82.06 11.12
8 11 0 59.63 13.07
8 11 0 86.5 10.83
8 11 0 75.51 13.34
-8 -11 0 35.1 15.14
-9 -11 0 131.5 20.06
9 11 0 85.17 14.68
9 -11 0 83.8 12.03
9 11 0 79.55 15.57
9 11 0 103.95 12.34
-10 -11 0 198.08 24.36
10 11 0 210.96 20.43
10 11 0 212.42 16.73
-11 -11 0 167.14 19.19
-11 -11 0 167.91 24.62
11 11 0 115.84 18.72
11 11 0 175.51 16.42
-12 -11 0 55.72 16.35
-12 -11 0 65.24 23.94
12 11 0 85.03 19.12
12 -11 0 77.03 15.96
12 -11 0 76.03 15.68
12 11 0 81.12 13.86
13 11 0 49.5 12.71
13 -11 0 43.09 15.18
13 -11 0 24.99 15.62
-13 -11 0 17.62 23.17
-13 -11 0 51.13 17.86
14 -11 0 26.33 16.41
-14 11 0 26.44 16.46
14 11 0 16.67 12.64
14 -11 0 51.69 18.41
15 11 0 10.18 13.4
0 -12 0 463.58 21.84
0 -12 0 492.9 23.61
-1 -12 0 480.77 22.17
-1 12 0 459.23 23.58
-1 -12 0 457.17 22.69
1 -12 0 434.15 24.35
-1 12 0 464.73 19.79
1 -12 0 476.27 23.43
-2 12 0 138.03 11.31
-2 -12 0 151.97 10.51
2 -12 0 132.45 11.6
2 -12 0 141.94 11.06
-2 -12 0 151.97 10.11
3 12 0 196.75 12.01
-3 -12 0 200.28 13.03
3 -12 0 202.65 14.47
4 12 0 89.41 8.11
-4 12 0 97.12 11.27
-4 -12 0 110.29 15.83
-5 12 0 4.93 7.56
5 12 0 19.91 5.91
-5 -12 0 36.49 12.73
5 12 0 26.9 9.06
-5 12 0 26.67 5.04
5 12 0 2.98 9.95
5 -12 0 28.83 6.88
-6 -12 0 63.76 15.19
6 -12 0 87.26 9.97
6 12 0 92.14 11
6 12 0 88.87 11.65
-6 12 0 58.29 5.95
6 12 0 95.8 14.14
6 12 0 69.98 8.04
7 12 0 120.24 9.94
-7 -12 0 96.83 17.4
7 12 0 105.33 11.63
7 12 0 133.1 16.08
-7 12 0 108.41 7.11
7 12 0 121.58 13.64
7 -12 0 90.65 11.22
8 -12 0 56.39 10.47
-8 -12 0 52.97 16.4
8 12 0 62.55 12.96
8 12 0 59.21 13.67
8 12 0 45.13 10.16
9 -12 0 9.37 9.93
9 12 0 -7.38 9.21
9 12 0 1.33 12.47
9 12 0 14.32 12.56
-9 -12 0 17.58 16.51
10 12 0 4.39 9.66
10 -12 0 2.53 10.54
10 12 0 32.32 14.75
-10 -12 0 11.9 17.89
11 12 0 55.86 13.59
-11 -12 0 12.9 19.61
11 12 0 -1.61 15.5
12 -12 0 -6.57 14.3
12 12 0 8.76 16.95
12 12 0 2.46 11.68
-12 -12 0 27.96 22.68
-13 -12 0 12.06 23.41
13 -12 0 1.45 15.19
13 -12 0 -3.17 14.02
13 12 0 4.55 12.22
14 -12 0 43.18 18.39
14 -12 0 -25.39 16.75
14 12 0 -1.17 12.8
15 12 0 7.21 14.21
0 -13 0 -1.52 4.45
0 -13 0 6.14 5.92
-1 -13 0 249.32 14.17
-1 -13 0 236.01 13.18
1 -13 0 222.53 15.73
1 -13 0 220.42 14.55
2 13 0 16.34 6.1
-2 -13 0 19.94 6.05
-2 13 0 30.35 7.83
-2 -13 0 14.37 3.02
-2 -13 0 19.65 5.9
2 -13 0 35.14 8.28
2 -13 0 32.64 7.43
-3 -13 0 56.48 7.68
3 -13 0 34.81 9.08
3 13 0 59.04 7.42
3 -13 0 55.06 7.98
4 13 0 247.67 13.9
4 13 0 209.12 19.04
4 -13 0 220.68 15.08
5 -13 0 374.27 20.57
-5 13 0 356.52 17.51
-5 -13 0 294.71 25.61
5 13 0 324.85 18.2
5 13 0 367.65 25.18
5 13 0 336.18 21.13
6 13 0 240.25 13.84
6 13 0 201.73 19.6
-6 -13 0 221.28 22.18
6 13 0 228.67 16.89
6 -13 0 173.4 14.79
-6 13 0 220.36 12.06
6 13 0 242.43 16.79
-7 -13 0 163.58 21.44
7 -13 0 186.13 14.81
7 13 0 201.29 15.51
7 13 0 155.38 16.08
-7 13 0 152.96 9.68
7 13 0 182.75 12.45
7 13 0 160.27 18.87
8 13 0 132.15 15.39
8 13 0 124.45 13.48
-8 -13 0 74.72 18.85
8 13 0 131.39 17.08
8 -13 0 133.85 13.94
8 13 0 125.96 10.91
9 13 0 266.8 16.32
9 13 0 280.14 22.04
-9 -13 0 283.65 27.33
9 13 0 200.78 22.3
9 13 0 250.67 18.95
9 -13 0 302.67 20.5
10 13 0 133.96 18.54
10 13 0 123.99 14.25
10 -13 0 179.68 17.29
-10 -13 0 150.01 22.92
11 13 0 74.9 17.14
-11 -13 0 53.03 22.23
11 13 0 71.49 12.81
-12 13 0 96.23 18.83
12 13 0 107.91 15.16
12 -13 0 105.39 16.5
-12 -13 0 94.51 25.58
12 13 0 61.98 18.65
13 13 0 106.68 15.95
13 -13 0 61.71 16.55
13 -13 0 56.18 17.52
-13 -13 0 83.26 28.36
14 -13 0 4.75 17.65
14 13 0 35.81 14.14
15 13 0 19.03 14.97
0 -14 0 921.03 41.23
0 -14 0 889.38 39.34
1 -14 0 863.7 41.78
1 -14 0 918.54 40.62
-1 -14 0 862.2 39.99
-1 -14 0 865.95 38.83
2 -14 0 1238.19 56.2
2 -14 0 1213.33 54.84
-2 -14 0 1262.97 54.14
-2 14 0 1175.1 55.05
2 14 0 1231.44 53.95
-2 -14 0 1242.01 53.68
3 14 0 1253.47 62.71
3 14 0 1291.86 56.13
3 -14 0 1291.98 57.59
3 -14 0 1288.58 58.76
4 -14 0 1103.45 52.29
4 14 0 1166.72 50.71
4 14 0 1160.93 57.83
4 14 0 1173.58 54.2
-5 -14 0 583.9 35.45
5 14 0 513.02 25.58
-5 14 0 521.74 24.9
5 14 0 521.32 32.54
5 -14 0 510.91 27.61
5 14 0 528.4 28.8
-6 14 0 225.01 13.26
6 14 0 240.1 14.74
-6 -14 0 249.32 24.13
6 14 0 261.29 18.31
6 14 0 224.03 21.52
6 -14 0 257.19 17.1
-7 14 0 116.51 8.57
7 14 0 136.33 14.13
-7 -14 0 165.57 21.05
7 14 0 130.7 17.87
7 14 0 112.02 10.39
7 14 0 135.29 15.02
7 -14 0 135.58 13.73
8 14 0 114.1 17.72
8 14 0 131.99 14.31
8 14 0 164.15 12.35
8 -14 0 149.4 14.79
8 14 0 120.26 16.1
-8 -14 0 178.13 23.08
-9 -14 0 40.44 19.07
9 14 0 52.25 16.21
9 14 0 47.37 8.71
9 14 0 75.98 15.5
9 14 0 35.36 10.93
9 -14 0 46.54 11.5
10 14 0 26.57 15.3
10 14 0 18.82 8.3
10 -14 0 21.67 12.25
-10 -14 0 53.53 21.13
10 14 0 3.54 10.69
10 14 0 39.4 15.68
-11 -14 0 38.32 23.48
11 14 0 -3.31 16.28
11 14 0 12.24 11.87
-11 14 0 -8.19 15.22
11 14 0 4.38 8.73
-12 -14 0 -23.52 23.65
12 -14 0 9.01 14.3
-12 14 0 7.01 15.26
12 14 0 10.79 17.64
12 14 0 -4.61 9.26
12 14 0 1.28 12.35
13 -14 0 2.85 15.92
13 14 0 9.47 13.46
13 -14 0 11.66 15.91
-13 -14 0 -6.31 24.04
13 14 0 10.1 13.74
14 -14 0 -10.97 18.09
14 14 0 10.37 14.94
0 -15 0 3.46 5.11
0 -15 0 -4.31 6.25
1 -15 0 141.99 11.57
-1 -15 0 140.18 10.01
1 -15 0 127.6 12.69
1 15 0 143.67 11.54
-1 -15 0 167.69 11.63
1 15 0 95.37 15.96
-2 -15 0 0.68 6.39
2 15 0 4.69 6.32
2 -15 0 2.97 7.76
2 -15 0 4.87 7.27
-2 -15 0 8.73 6.2
-2 15 0 4.11 3.52
2 15 0 8.29 11.3
3 -15 0 -3.45 7.09
3 15 0 10.16 11.41
3 -15 0 -11.21 9.23
3 15 0 -1.92 6.49
4 15 0 190.04 12.71
4 15 0 139.51 18.01
4 15 0 141.46 15.05
4 -15 0 209.44 14.72
5 15 0 33.45 7.55
5 15 0 28.7 9.91
5 15 0 44.84 13.61
-5 15 0 30.82 7.07
5 -15 0 39.31 8.69
6 15 0 88.03 16.27
6 -15 0 94.93 11.47
-6 15 0 95.32 8.62
-6 -15 0 83.51 18.72
6 15 0 114.85 13.09
6 15 0 98.07 10.05
7 15 0 182.4 20.42
-7 -15 0 189.27 23.81
7 15 0 186.08 16.46
-7 15 0 154.47 10.7
7 15 0 189.12 13.18
7 -15 0 161.53 15.19
8 15 0 13.96 10.24
8 15 0 -0.67 7.7
-8 -15 0 2.33 16.17
8 -15 0 -2.42 10.03
8 15 0 15.66 14.19
9 15 0 6.04 14.29
9 15 0 9.02 8.05
-9 -15 0 -27.21 19.48
9 15 0 -20.13 11.62
9 15 0 1.41 13.9
9 -15 0 -13.01 10.77
10 -15 0 74.05 14.92
10 15 0 50.95 16.29
10 15 0 63.33 18.6
-10 -15 0 57.98 22.05
10 15 0 70.01 13.26
-10 15 0 67.81 15.7
10 15 0 44.76 10.1
11 15 0 28.62 17.78
-11 15 0 3.37 15.55
11 15 0 16.43 12
-11 -15 0 62.08 23.76
11 15 0 15.85 9.51
11 -15 0 52.38 14.67
12 -15 0 -16.57 15.08
12 15 0 3.95 10.01
12 15 0 -7.91 13.3
13 -15 0 20.46 16.39
13 15 0 6.88 13.66
13 15 0 14.95 11.09
13 15 0 -15.93 15.11
13 -15 0 28.26 16.85
14 -15 0 7.75 17.49
0 -16 0 808.35 37.86
0 16 0 776.41 37.93
0 -16 0 774.75 35.37
0 16 0 878.68 45.54
-1 -16 0 387.76 21.14
-1 -16 0 448.51 23.22
1 -16 0 462.05 25.51
1 16 0 427.11 29.85
1 16 0 458.79 23.55
1 -16 0 418.95 20.46
1 -16 0 449.57 23.62
2 -16 0 168.3 15.5
-2 16 0 174.11 9.05
2 -16 0 166 13.79
-2 -16 0 202.03 13.74
2 16 0 206.34 13.75
2 16 0 193.3 20.16
-2 -16 0 186.93 12.48
-3 -16 0 289.21 13.19
3 -16 0 266.81 18.04
3 16 0 320.56 17.37
3 16 0 304.92 24.07
3 -16 0 318.08 19.97
-3 -16 0 262.17 12.03
4 16 0 239.58 15.01
4 16 0 211.75 17.68
4 16 0 220.37 21.19
4 -16 0 214.6 16.35
5 -16 0 116.14 12.45
5 16 0 125.04 17.99
5 16 0 99.17 13.57
5 16 0 110.48 10.77
-5 16 0 125.53 10.28
-6 -16 0 226.99 24.8
6 16 0 208.87 22.34
6 16 0 190.2 17.27
6 -16 0 208.65 16.28
6 16 0 207.42 14.05
-6 16 0 196.86 12.83
-7 -16 0 101.69 20.3
7 16 0 112.64 17.99
7 -16 0 70.51 12.07
7 16 0 76.12 9.75
7 16 0 93.01 13.61
-7 16 0 74.19 7.99
8 -16 0 -6.29 10.42
8 16 0 7.35 10.07
8 16 0 46.98 16.51
-8 -16 0 7.3 17.36
-8 16 0 30.48 13.75
8 16 0 13.2 8.24
9 16 0 17.14 8.71
-9 -16 0 10.29 19.05
9 16 0 16.8 16.08
9 -16 0 -4.04 11.01
-9 16 0 10.79 13.07
9 16 0 -17.3 11.63
10 16 0 19.13 12.76
-10 -16 0 -8.19 21.11
-10 16 0 -21.22 14.92
10 16 0 -3.72 8.77
10 -16 0 -8.64 12.58
10 16 0 -2.18 16.57
11 -16 0 -1.54 13.88
11 16 0 -3.91 12.81
-11 16 0 -15.62 15.6
11 16 0 10.84 9.6
-11 -16 0 17.47 22.4
12 -16 0 6.3 14.8
-12 -16 0 -9.32 25.21
12 16 0 -13.5 14.3
12 16 0 7.26 10.37
13 -16 0 -16.77 17.31
13 16 0 -2.8 13.62
14 -16 0 -7.65 17.68
0 17 0 17.11 13.93
0 17 0 1.7 8.02
0 -17 0 -0.47 5.56
0 -17 0 14.82 7.97
1 -17 0 6.06 8.14
-1 -17 0 8.01 5.79
1 17 0 32.09 14.46
1 17 0 10.57 8.08
-1 -17 0 17.65 8.07
1 -17 0 14.84 5.48
1 -17 0 11.24 9.84
2 17 0 -1.89 12.67
-2 -17 0 3.07 6.19
2 -17 0 -5.64 9.68
2 17 0 1.55 7.63
2 -17 0 10.16 8.5
-2 -17 0 -3.11 8.15
3 -17 0 23.05 10.03
3 17 0 30.68 14
3 17 0 25.38 8.13
3 -17 0 8.69 8.89
4 -17 0 37.64 10.17
4 17 0 38.28 8.72
4 17 0 41.74 12.05
4 17 0 23.51 14.5
-5 17 0 70.27 9.02
5 -17 0 75.26 11.38
5 17 0 89.94 17.76
5 17 0 75.15 13.71
5 17 0 98.28 10.14
-6 17 0 310.85 17.27
6 -17 0 269.72 20.34
6 17 0 305.55 27.16
6 17 0 295.78 21.68
6 17 0 316.67 18.3
7 17 0 259.04 20.23
7 -17 0 257.2 19.41
7 17 0 228.43 24.61
7 17 0 252.91 16.5
-7 -17 0 310.52 28.89
-8 17 0 244.17 21.3
8 17 0 269.7 20.68
8 -17 0 259.21 20.35
-8 -17 0 243.96 27.86
8 17 0 236.71 25.48
8 17 0 241.16 16.48
9 17 0 267.42 26.51
9 17 0 230.65 19.16
-9 -17 0 192.5 28.38
9 -17 0 205.84 19.88
9 17 0 241.98 16.49
-9 17 0 233.46 22.31
-10 -17 0 178.22 27.8
10 17 0 115 16.26
10 17 0 138.72 13.75
10 -17 0 176.67 18.66
-10 17 0 169.38 20.59
10 17 0 115.5 22.65
-11 17 0 109.34 20.03
-11 -17 0 93.07 26.57
11 17 0 140.66 13.46
11 -17 0 125.12 18.92
11 17 0 150.8 17.74
12 -17 0 105.79 17.52
12 17 0 139.93 14.17
12 17 0 96.66 16.31
13 -17 0 40.02 17.11
13 17 0 74.54 17.44
0 18 0 313.25 26.2
0 18 0 304.36 19.6
0 -18 0 311.63 19.09
0 -18 0 285.23 16.11
-1 18 0 265.78 18.84
1 -18 0 302 18.9
-1 -18 0 252.95 15.41
1 -18 0 250.72 14.53
1 18 0 281.27 18.06
1 -18 0 277.51 20.22
1 18 0 293.63 25.56
-1 -18 0 297.77 18.08
-2 -18 0 97.49 11.11
2 18 0 112.75 17.77
2 18 0 104.72 11.2
2 -18 0 106.76 13.7
2 -18 0 102.13 12.43
3 -18 0 45.2 11.19
-3 18 0 29.7 5.13
3 18 0 24.41 14.71
3 -18 0 24.45 9.56
3 18 0 20.82 8.55
4 -18 0 40.65 10.7
4 18 0 35.83 11.74
-4 -18 0 25.25 3.78
4 18 0 27.06 8.67
4 18 0 10.36 14.25
-4 -18 0 23.82 4.92
-5 18 0 142.1 12.13
5 18 0 149.84 13.1
5 -18 0 143.99 15
5 18 0 109.52 20.13
5 18 0 176.64 17.38
6 18 0 221.13 18.83
6 -18 0 212.75 17.34
6 18 0 205.7 23.33
6 18 0 190.88 14.41
-6 18 0 187.01 13.75
7 18 0 58.72 19.01
7 18 0 38.44 9.51
7 -18 0 56.88 12.58
7 18 0 25.73 11.95
8 18 0 42.32 18.43
8 18 0 42.76 9.89
8 -18 0 22.86 12
8 18 0 39.15 13.24
-8 -18 0 18.47 20.26
9 18 0 91.6 21.59
9 18 0 61.73 10.96
9 -18 0 73.03 14.59
-9 18 0 51.23 16.44
-9 -18 0 83.41 24.45
9 18 0 71.36 14.46
10 -18 0 33.65 13.77
-10 -18 0 -2.93 22.14
10 18 0 13.65 13.42
10 18 0 18.08 10.28
-10 18 0 33.24 16.48
11 18 0 39.44 11.11
11 -18 0 31.79 13.04
-11 -18 0 27.89 24.85
11 -18 0 21.15 15.11
11 18 0 12.52 13.54
12 18 0 -7.43 10.62
12 -18 0 -15.94 15.05
12 18 0 -8.5 13.79
0 19 0 13.52 9.91
0 -19 0 5.81 6.36
0 -19 0 22.66 12.36
0 19 0 -10.82 14.58
0 -19 0 -6.57 8.64
1 -19 0 -2.54 10.89
1 -19 0 -1.95 9.1
1 19 0 6.41 15.08
-1 19 0 -3.05 10.07
1 -19 0 1.73 5.61
-1 -19 0 20.05 9.02
-1 -19 0 10.55 6.71
1 19 0 4.6 9.1
2 -19 0 48.1 11.03
2 19 0 38.06 10
2 19 0 44.84 16.57
2 -19 0 65.65 6.89
2 -19 0 43.21 12.72
3 -19 0 15.1 10.31
3 19 0 32.3 16.2
-3 19 0 24.43 4.29
3 -19 0 18.09 12.15
3 19 0 10.24 9.04
4 19 0 3.3 8.47
4 19 0 1.45 11.55
4 19 0 -21.86 17.44
4 -19 0 -2.25 9.85
-5 19 0 45.86 9.2
5 19 0 27.45 12.25
5 19 0 75.44 19.79
5 -19 0 28.28 11.46
5 19 0 32.15 9.46
6 -19 0 107.77 13.92
6 19 0 67.99 14.19
6 19 0 102.25 11.71
6 19 0 78.79 20.11
-6 19 0 101.89 10.76
7 19 0 84.28 20.57
7 19 0 64.04 11.32
7 19 0 82.2 14.66
7 -19 0 49.72 12.67
8 19 0 65.87 11.13
8 19 0 57.82 14.85
8 -19 0 69.45 13.96
8 19 0 74.19 21.43
9 19 0 41.18 10.82
9 19 0 35.05 13.45
9 -19 0 48.73 14.12
-9 -19 0 28.75 22.07
9 19 0 42.92 20.05
10 -19 0 12.56 13.88
10 19 0 17.92 10.35
-10 19 0 3.6 15.66
-10 -19 0 9.1 23.89
10 19 0 16.94 13.94
11 19 0 20.15 14.65
11 -19 0 20.41 13.71
11 19 0 5.78 10.36
12 19 0 13.13 15.01
0 20 0 772.93 46.66
0 -20 0 729.44 40.02
0 -20 0 693.07 33.26
0 -20 0 751.67 37.39
0 20 0 804.02 38.11
-1 -20 0 489.23 24.89
1 -20 0 490.39 23.94
1 -20 0 534.37 28.73
1 20 0 511.24 28.45
-1 20 0 512.28 29.08
1 -20 0 508.07 30.71
1 20 0 512.43 36.55
-1 -20 0 515.14 28.06
2 20 0 208.27 24.74
2 -20 0 222.9 17.34
2 20 0 204.77 16.64
2 -20 0 204.11 12.28
2 -20 0 213.54 19.57
3 20 0 218.28 25.1
3 -20 0 204.56 19.67
3 20 0 240.09 16.66
3 -20 0 194.73 17.53
4 20 0 290.07 18.15
-4 20 0 232.53 11.63
4 -20 0 277.9 20.04
4 20 0 290.11 27.58
-4 20 0 238.36 13.32
4 20 0 280.06 22.72
-5 20 0 210.04 15.66
5 -20 0 231.56 19.02
5 20 0 204.24 16.16
5 20 0 204 20.29
5 20 0 205.01 24.69
6 20 0 254.48 28.02
6 20 0 277.85 18.63
6 20 0 282.21 22.73
6 -20 0 258.26 21.29
7 -20 0 217.5 20.01
7 20 0 234.39 21.17
7 20 0 319.68 29.88
7 20 0 215.43 17.01
8 20 0 24 9.94
8 20 0 56.14 14.75
8 20 0 28.99 19.42
8 -20 0 60.33 14.14
9 20 0 1.46 13.53
9 20 0 6.64 10
9 -20 0 -7.61 13
10 20 0 5.02 10.25
10 -20 0 1.61 14.1
10 20 0 5.84 13.74
-10 -20 0 21.84 24.89
11 -20 0 -10.47 12.89
11 20 0 16.95 11.65
11 20 0 16.39 15.2
0 21 0 -7.27 18.3
0 -21 0 8.46 10.65
0 -21 0 31.18 13.87
0 21 0 5.4 10.42
0 -21 0 3.86 6.33
1 -21 0 32.6 10.9
-1 -21 0 22.44 10.18
1 21 0 21.58 19.32
1 -21 0 23.43 6.37
-1 21 0 24.91 11.78
1 -21 0 24.04 13.8
1 21 0 48.48 11.59
2 -21 0 1.42 12.69
2 -21 0 9.06 10.57
2 21 0 24.83 10.92
2 21 0 19.12 17.96
2 -21 0 14.39 5.87
3 -21 0 207.5 17.42
3 -21 0 159.55 18.23
3 -21 0 158.78 10.7
3 21 0 194.89 15.94
3 21 0 131.92 23.71
-4 21 0 153.79 10.02
4 -21 0 179.77 17.48
4 21 0 179.98 19.87
4 21 0 198.73 26.04
-4 21 0 206.95 15.68
4 21 0 185.11 15.71
-5 21 0 112.09 12.77
5 -21 0 141.47 16.01
5 21 0 92.58 16.97
5 21 0 115.15 13.43
5 21 0 168.57 25.11
6 21 0 96.4 22.65
6 21 0 60.76 16.24
6 21 0 54.87 11.25
6 -21 0 56.49 14.01
7 21 0 24.8 14.25
7 21 0 44.92 20.56
7 -21 0 46.57 13.24
7 21 0 37.38 11.02
8 -21 0 141.18 17.78
8 21 0 144.95 18.39
8 21 0 123.25 14.19
9 21 0 108.3 13.61
9 -21 0 119.2 17.55
9 21 0 130.64 17.77
10 -21 0 60.57 13.04
10 21 0 79.05 13.08
10 21 0 90.82 17.63
11 21 0 60.02 17.03
0 -22 0 -1.49 12.38
0 -22 0 -2.23 10.62
0 22 0 4.55 11.58
1 -22 0 13.28 6.21
1 22 0 -7.59 19.56
1 -22 0 23.79 14.12
1 22 0 -1.09 11.21
1 -22 0 6.88 10.93
-1 22 0 1.19 11.76
-1 -22 0 17.21 11.06
2 22 0 17.63 20.52
2 -22 0 10.71 11.44
2 22 0 6.27 10.37
2 -22 0 2.46 5.7
2 -22 0 1.49 12.87
3 22 0 -15.16 19.71
3 -22 0 -1.24 11.71
3 22 0 6.07 10.72
3 -22 0 9.2 5.67
3 -22 0 4.53 12.91
4 22 0 4.91 10.35
-4 22 0 -1.97 10.44
4 22 0 1.69 14.26
4 -22 0 -7.74 12.18
-5 22 0 -6.95 4.68
5 22 0 -5.73 10.71
5 22 0 -5.01 13.96
-5 22 0 0.2 4.39
5 -22 0 8.07 11.75
5 22 0 30.72 21.37
-5 22 0 4.61 6.53
6 22 0 -10.33 20.78
6 -22 0 19.6 13.3
6 22 0 -3.74 10.12
6 22 0 -8.13 14.21
7 22 0 6.47 14.85
7 22 0 -5.2 20.65
7 -22 0 -10.26 13.35
7 22 0 -10.97 10.99
8 22 0 2.7 10.9
8 -22 0 1.54 13.06
9 22 0 23.7 15.64
9 -22 0 10.24 10.1
9 22 0 1.78 10.62
9 -22 0 11.35 14.37
10 22 0 -14.11 15.83
0 23 0 2.4 11.86
0 -23 0 20.45 14
0 -23 0 -8.2 11.33
1 23 0 -14.93 12.3
-1 -23 0 36.19 12.2
1 -23 0 4.84 11
-1 -23 0 12.56 14.41
1 -23 0 24.96 14.22
2 -23 0 16.82 5.76
2 -23 0 13.71 12.14
2 -23 0 21.89 13.93
2 23 0 24.22 12.41
3 -23 0 28.49 14.38
3 -23 0 32.28 12.68
3 -23 0 9.08 5.35
3 23 0 -26.57 23.39
3 23 0 20.17 12.17
4 23 0 13.34 22.15
4 -23 0 38.97 13.19
4 -23 0 32.56 6.05
4 23 0 44.24 17.12
4 23 0 37.17 12.33
-4 23 0 49.93 12.84
5 23 0 56.28 23.25
5 23 0 75.21 18.1
5 23 0 67.19 12.52
-5 23 0 43.55 7.14
5 -23 0 43.5 14.38
6 23 0 78.25 23.86
6 -23 0 42.22 14.59
-6 23 0 55.69 7.54
6 23 0 71.52 13.16
6 23 0 50.93 16.67
7 23 0 -1.69 15.1
7 23 0 12.47 11.63
7 -23 0 31.93 14.67
8 -23 0 39.84 15.51
8 23 0 61.11 12.92
9 23 0 49.27 16.83
9 23 0 50.8 12.72
0 -24 0 295.36 21.06
0 24 0 244.84 20.62
0 -24 0 191.45 22.31
1 -24 0 171.76 18.08
-1 -24 0 190.09 21.39
1 24 0 189.41 18.42
1 -24 0 165.06 20.96
-1 -24 0 228.39 18.82
2 -24 0 198.52 22.34
2 -24 0 263.03 20.9
2 24 0 222.67 19.81
-3 24 0 164.78 17.27
3 -24 0 186.11 19.04
3 24 0 215.09 18.37
3 -24 0 213.62 21.7
4 24 0 114.96 14.9
4 -24 0 80.22 5.71
4 -24 0 92.26 16.1
4 24 0 109.17 19.62
5 -24 0 78.54 15.69
5 24 0 61.87 17.43
5 24 0 41.02 12.74
5 -24 0 55.89 5.52
6 -24 0 1.52 14.51
6 24 0 17.41 12.3
-6 24 0 8.76 4.33
-6 24 0 19.29 7.47
6 24 0 14.16 16.56
7 24 0 7.03 17.15
7 24 0 6 11.99
7 -24 0 33.12 16.09
8 24 0 23.52 12.51
8 24 0 20.86 16.89
0 -25 0 31.05 16.93
0 -25 0 37.3 14.06
-1 -25 0 -5.21 15.39
-1 -25 0 6.17 12.32
1 25 0 26.52 14.34
1 -25 0 -6.85 15.23
1 -25 0 21.3 13.72
2 25 0 -10.93 13.15
2 -25 0 5.46 12.79
2 -25 0 32.67 16.38
3 -25 0 25.28 13.65
3 25 0 26.95 13.46
-3 25 0 37.31 13.2
3 -25 0 51.88 16.73
4 -25 0 4.36 13.41
4 25 0 21.45 13.62
4 25 0 -11.6 18.59
5 25 0 -15.21 18.44
5 25 0 4.4 12.66
5 -25 0 10.55 14.62
6 -25 0 7.85 14.75
6 25 0 33.2 18.27
6 25 0 20.31 13.23
7 25 0 -5.21 13.31
7 25 0 20.09 18.63
0 -26 0 57.46 18.17
0 -26 0 57.69 14.65
1 -26 0 77.78 16.05
1 -26 0 87.63 18.49
1 26 0 68.6 16.29
-1 -26 0 107.17 19.95
2 -26 0 70.1 15.86
-2 -26 0 63.8 18.83
2 26 0 67.25 15.47
-2 26 0 48.31 14.55
2 -26 0 88.07 19.14
3 -26 0 32.13 14.63
3 -26 0 48.67 17.82
3 26 0 45.35 14.34
4 26 0 14.19 13.44
4 26 0 50.47 20.23
4 -26 0 28.71 15.12
5 26 0 38.83 13.74
5 -26 0 34.36 16.06
5 26 0 55.35 20.34
6 26 0 33.35 14.24
7 26 0 11.89 13.67
0 -27 0 -22.44 17.15
0 -27 0 6.98 14.77
-1 -27 0 7.58 16.19
1 -27 0 -16.76 17.36
1 -27 0 -1.45 14.47
-2 -27 0 17.17 17.91
2 27 0 14.57 15.29
2 -27 0 34.28 15.54
2 -27 0 11.23 17.08
3 -27 0 31.95 19.02
3 -27 0 3.05 15.24
3 27 0 -14.04 14.8
4 -27 0 70.49 17.6
4 27 0 50.58 15.51
5 27 0 75.04 15.94
6 27 0 84.05 16.46
0 -28 0 42.77 19.45
0 -28 0 54.87 16.41
-1 -28 0 70.96 20.69
1 -28 0 95.97 18.48
1 -28 0 102.6 21.95
2 -28 0 50.68 19.27
-2 -28 0 41.82 19.51
2 -28 0 54.16 17.25
2 28 0 38.54 16.61
3 28 0 7.99 14.67
4 28 0 6.41 14.94
5 28 0 49.63 16.27
1 -29 0 -9.32 16.43
-16 0 1 3.78 16.87
-15 0 1 1.74 15.25
-14 0 1 24.02 13.99
14 0 -1 -3.31 3.4
13 0 -1 1.16 4.99
-13 0 1 -1.46 12.33
13 0 -1 11.49 15.16
12 0 -1 -17.83 14.28
-12 0 1 1.33 11.23
-12 0 1 3.81 15.21
12 0 -1 1.32 4.89
-11 0 1 -2.42 10.16
-11 0 1 -13.69 12.86
-10 0 1 -6.1 11.85
-10 0 1 -6.56 8.64
-9 0 1 -2.7 10.21
-9 0 1 -3.9 8.04
-8 0 1 -5.14 7.33
-8 0 1 -10.67 9
-7 0 1 4.47 6.39
-6 0 1 0.64 5.93
-5 0 1 0.53 4.92
-4 0 1 -0.86 4.13
-3 0 1 0.67 4.64
-2 0 1 -0.24 2.27
2 0 1 -2.85 3.67
-2 0 -1 3.41 2.27
2 0 1 0.94 2.65
2 0 1 -0.99 2.2
3 0 1 1.14 4.94
3 0 1 1.23 2.72
4 0 1 3.84 5.36
-5 0 -1 -5.7 4.75
5 0 1 2.36 5.88
-6 0 -1 -2.69 5.18
6 0 1 -0.78 3.12
6 0 1 -2.82 6.73
7 0 1 -5.79 7.33
7 0 1 -0.88 3.49
-7 0 -1 8.32 5.67
-8 0 -1 1.49 6.14
8 0 1 0.95 8.49
8 0 1 -0.97 3.79
9 0 1 -3.12 4.24
-9 0 -1 -4.27 7.51
9 0 1 17.42 10.44
10 0 1 8.62 11.73
-10 0 -1 12.81 12.03
-10 0 -1 6.79 8.61
10 0 1 0.71 4.68
-11 0 -1 3.56 13.11
-11 0 -1 -9.84 10.39
11 0 1 6.28 5.15
-12 0 -1 1.21 11.53
-12 0 -1 -17.74 15.24
-13 0 -1 -4.35 16.72
-13 0 -1 4 11.6
-14 0 -1 8.79 13.96
-14 0 -1 -2.4 17.93
-15 0 -1 -31.74 22.61
-15 0 -1 1.61 14.62
15 0 1 -7.65 13.38
16 0 1 -6.74 14.7
17 0 1 25.35 16.02
-16 1 1 22.5 16.84
-16 -1 1 42.12 19.04
15 1 -1 16.98 4.56
-15 -1 1 3.53 16.04
-15 1 1 25.91 15.75
-14 -1 1 100.49 17.09
14 1 -1 67.52 19.16
14 1 -1 49.71 6.91
-14 1 1 18.98 13.72
-13 -1 1 124.28 22.62
-13 1 1 181.41 17.78
13 1 -1 123.25 9.43
-13 -1 1 166.09 17.99
13 1 -1 142.93 19.7
12 1 -1 160.75 19.5
-12 -1 1 140.27 15.82
12 1 -1 152.99 9.48
12 -1 -1 97.84 6.86
-12 1 1 110.46 14.99
-12 -1 1 78.67 17.75
-12 1 1 153.03 19.65
-11 -1 1 216.72 21.56
-11 -1 1 196.54 17.74
-11 1 1 189.59 20.69
-11 1 1 210.87 17.52
11 -1 -1 210.7 10.72
-10 1 1 421.34 24.37
-10 1 1 398.14 27.01
-10 -1 1 408.39 24.41
-10 -1 1 346.24 26.96
-9 -1 1 489.23 27.19
-9 1 1 482.69 27.09
-9 -1 1 531.65 30.55
-8 1 1 344.08 19.19
-8 -1 1 296.47 18.84
-8 -1 1 284.38 21.14
-7 -1 1 91.18 12.04
-7 1 1 112.58 9.92
-7 -1 1 96.94 9.88
-6 1 1 639.45 30.78
-6 -1 1 657.5 31.06
-6 -1 1 647.38 32.53
-5 -1 1 231.58 14.5
-5 -1 1 202.43 12.49
-5 1 1 215.32 12.67
5 1 -1 191.57 12.21
-4 1 1 914.17 40
-4 -1 1 897.98 41.09
-4 -1 1 929.82 40.18
-3 1 1 386.04 17.48
-3 -1 1 334.11 17.58
-3 -1 1 398.86 18.7
-2 1 1 833.86 34.58
-2 -1 1 760.11 34.86
-2 -1 1 841.9 34.75
-2 -1 -1 980.02 39.47
-2 1 -1 960.76 40.02
2 -1 1 960.98 39.55
2 1 1 931.8 39.5
-2 -1 -1 913.27 39.16
2 -1 1 965.63 40.17
-2 1 -1 933.49 39.1
2 1 1 979.67 40.57
3 1 1 4133.43 168.38
3 -1 1 4216.47 169.5
-3 1 -1 4078.53 167.77
-3 -1 -1 4150.71 168.6
3 1 1 4322.46 170.04
4 -1 1 2240.97 94.77
4 1 1 2316.42 95.28
-4 -1 -1 2268.06 93.92
5 1 1 283.63 16.3
5 -1 1 261.31 12.61
5 -1 1 272.61 15.67
-5 -1 -1 296.5 14.65
-6 -1 -1 362.08 18.63
6 -1 1 343.39 16.01
6 1 1 350.18 16.74
6 1 1 377.95 20.17
6 -1 1 373.37 19.86
7 -1 1 229.28 15.66
-7 -1 -1 201.07 13.76
-7 1 -1 238.47 14.16
7 -1 1 222.28 10.92
7 1 1 200.1 15.6
7 1 1 224.1 11.68
8 1 1 444.98 20.5
-8 -1 -1 471.36 23.48
-8 -1 -1 439.72 26.78
8 -1 1 409.94 19.4
8 1 1 443.16 25.03
8 -1 1 451.67 24.84
-8 1 -1 428.98 23.07
9 1 1 346.09 22
9 1 1 310.98 16.4
-9 1 -1 325.57 19.65
-9 -1 -1 362.89 24.33
-9 -1 -1 335.54 19.87
-10 -1 -1 321.35 24.54
10 1 1 313.89 16.06
10 1 1 313.99 22.66
-10 -1 -1 268.77 19.62
-10 1 -1 298.35 19.68
-11 -1 -1 138.06 18.35
-11 1 -1 136.45 13.9
11 1 1 120.3 9.45
-11 -1 -1 128.31 14.4
11 1 1 136.09 17.16
12 1 1 140.79 10.44
-12 1 -1 175.43 16.64
-12 -1 -1 155.41 20.9
-12 1 -1 165.35 21.37
-12 -1 -1 165.41 16.4
-13 -1 -1 136.07 22.54
-13 1 -1 136.62 16.44
-13 1 -1 102.88 21.17
-13 -1 -1 137.58 17.05
13 -1 1 150.39 20.82
14 -1 1 24.61 12.77
14 -1 1 46.22 19.07
-14 -1 -1 13.36 13.32
-14 -1 -1 34.48 20.58
-14 1 -1 11.69 13.11
-14 1 -1 11.78 18.65
-15 1 -1 23.99 15.44
-15 1 -1 25.9 20.5
-15 -1 -1 48.83 16.44
15 1 1 14.83 12.85
15 -1 1 -6.58 13.47
-15 -1 -1 18.76 20.54
16 -1 1 18.03 15.11
16 1 1 18.31 14.38
17 -1 1 44.97 17.52
-16 -2 1 17.51 17.9
-16 2 1 50.48 17.97
-15 2 1 39.45 16.59
15 2 -1 6.95 6.48
-15 -2 1 26.87 17.43
14 2 -1 3.25 6.51
14 2 -1 -5.52 16.71
-14 -2 1 18.19 13.97
-14 2 1 -7.91 14.7
13 2 -1 23.74 6.95
-13 2 1 23.29 13.16
-13 -2 1 3.02 12.9
13 2 -1 31.95 15.84
-13 -2 1 26.75 17.88
12 2 -1 33.44 14.38
-12 2 1 51.5 12.89
-12 -2 1 20.63 11.72
-12 -2 1 50.7 16.8
-11 2 1 46.48 11.69
-11 -2 1 71.44 16.14
11 2 -1 53.26 13.65
-11 -2 1 31.25 11.3
10 -2 -1 107.04 6.11
-10 -2 1 101.53 16.27
-10 -2 1 105.57 13.03
-10 2 1 105.77 12.74
-9 2 1 479.99 26.36
-9 -2 1 489.12 30.01
-9 -2 1 473.99 26.59
-8 -2 1 158.88 15.93
-8 2 1 175 13.01
-8 -2 1 147.96 12.97
-7 -2 1 1000.47 46.07
-7 -2 1 1050.8 48.72
-7 2 1 982.76 45.75
-6 -2 1 2030.52 87.14
-6 -2 1 1938.19 84.92
-6 2 1 2025.3 84.9
5 2 -1 1743.67 76.26
-5 -2 1 1775.64 76.58
-5 -2 1 1778.82 78.26
-5 2 1 1915.74 76.69
-4 -2 1 2810.42 116.38
-4 -2 1 2754.95 115.16
-3 -2 1 641.87 30.98
-3 -2 1 689.87 29.92
-2 -2 1 745.06 33.8
-2 -2 1 827.27 34.47
-1 2 -1 6649.09 276.83
1 2 1 7175.4 277.29
2 -2 1 2708.92 106.41
2 2 1 2520.16 106.28
-2 -2 -1 2526.88 105.9
-2 2 -1 2634.13 106.46
2 2 1 2622.2 105.8
-2 -2 -1 2392.72 107.63
2 2 1 2729.92 107.21
2 -2 1 2666.38 106.44
-3 -2 -1 1500.05 65.07
3 2 1 1476.27 64.43
3 2 1 1585.81 63
3 -2 1 1486.57 63.61
3 2 1 1501.37 63.07
-3 -2 -1 1565.85 63.08
3 -2 1 1554.77 63.35
-3 2 -1 1492.65 62.02
-4 -2 -1 223.05 13.86
4 2 1 194.06 12.87
4 -2 1 214.47 12.07
-4 -2 -1 205.12 11.27
-5 -2 -1 195.4 11.68
5 2 1 192.06 13.41
5 -2 1 192.85 12.52
-5 -2 -1 212.97 14.57
-6 -2 -1 1410.58 62.33
6 2 1 1321.46 60.28
6 -2 1 1314.39 59.82
-6 -2 -1 1417.84 59.25
6 2 1 1375.86 57.76
-7 -2 -1 249.61 18.43
7 2 1 250.09 13.1
7 -2 1 237.65 15.99
-7 -2 -1 250.01 15.37
7 2 1 227.7 16.37
-8 -2 -1 72.19 12.88
8 2 1 79.48 11.13
8 2 1 73.85 7.1
-8 2 -1 79.62 9.43
-8 -2 -1 82.64 9.79
-9 2 -1 50.9 9.03
-9 -2 -1 68.5 14.12
9 2 1 46.94 6.77
9 2 1 44 11.6
-9 -2 -1 56 9.59
-10 -2 -1 20.15 13.69
10 2 1 26.77 12.65
-10 -2 -1 19.8 9.91
-10 2 -1 41.75 9.64
10 2 1 38.62 6.84
-11 -2 -1 1.11 9.64
11 2 1 6.24 6.26
-11 -2 -1 1.87 14.07
-11 2 -1 4.34 9.35
11 2 1 38.56 14.1
-12 2 -1 79.56 12.81
12 2 1 34.87 7.49
12 -2 1 51.04 15.52
12 2 1 47.49 15.75
-12 -2 -1 64.59 19.15
-12 -2 -1 59.43 12.95
-13 2 -1 -10.62 16.88
-13 -2 -1 57.34 19.9
13 -2 1 -24.96 17.2
13 2 1 24.38 16.5
13 2 1 14.3 7.3
-13 -2 -1 -1.37 12.36
13 -2 1 26.99 11.79
-13 2 -1 13.36 11.85
14 -2 1 -7.32 17.96
-14 -2 -1 -9.04 13.81
-14 2 -1 9.31 17.66
-14 2 -1 16.21 13.11
-14 -2 -1 -17.53 19.18
14 -2 1 12.67 13.23
15 -2 1 35.11 14.83
-15 2 -1 28.78 15.63
-15 2 -1 2.56 21.02
16 -2 1 31.44 16.12
16 2 1 19 14.26
17 -2 1 41.76 17.69
-16 -3 1 25.59 18.84
-15 -3 1 14.61 16.53
15 3 -1 15.8 7.58
-15 3 1 3.45 14.92
-14 3 1 12.72 14.6
-14 -3 1 55.53 16.52
14 3 -1 52.02 18.44
14 3 -1 31.92 8.21
14 -3 -1 40.06 17.82
-13 -3 1 57.17 15.44
-13 -3 1 59.54 19.49
-13 3 1 100.27 15.22
13 3 -1 74.27 9.16
13 3 -1 57.75 16.73
12 3 -1 52.33 16.31
-12 3 1 46.07 12.99
-12 -3 1 50.01 18.25
-12 -3 1 48.01 13.83
-11 -3 1 -16.97 15.62
11 3 -1 -1.38 13.06
-11 -3 1 -5.12 11.35
-11 3 1 -1.19 9.37
-10 -3 1 13.86 10.49
-10 3 1 -4.28 8.58
-10 -3 1 5.08 13.04
10 3 -1 1.23 10.91
-9 3 1 202.5 14.65
-9 -3 1 157.02 14.96
-9 -3 1 179.51 18.05
-8 -3 1 150.19 16.05
-8 -3 1 158.03 13.01
-8 3 1 148.61 12.69
-7 -3 1 88.36 9.93
-7 3 1 96.27 9.8
-7 -3 1 106.2 13.1
-6 -3 1 15.83 8.89
-6 -3 1 32.1 7.21
5 3 -1 508.81 25.04
-5 -3 1 533.2 25.76
-5 -3 1 529.02 27.47
-4 -3 1 127.2 11.01
4 3 -1 129.2 9.08
-4 -3 1 129.38 9.25
3 -3 -1 419.64 18.45
-3 -3 1 474.24 20.93
-3 -3 1 414.28 21.81
-2 -3 1 1375.35 57.55
-2 -3 1 1317.04 56.59
-2 3 1 1297.29 55.12
2 -3 -1 1376.43 55.07
-1 3 1 313.59 14.07
-1 3 1 325.93 14.03
-1 -3 1 320.06 15.75
1 -3 -1 292.83 13.86
1 -3 -1 317.09 13.83
0 -3 -1 99.33 5.4
0 3 1 102.87 5.5
0 -3 1 113.4 5.6
0 3 -1 106.84 5.47
1 3 1 896.78 37.36
1 -3 1 881.46 37.94
-1 3 -1 877.99 37.33
-1 -3 -1 891.56 38.62
2 3 1 84.07 7.93
-2 3 -1 105.66 6.94
2 -3 1 94.3 6.22
-2 -3 -1 119.42 6.55
-2 -3 -1 96.94 8.83
2 3 1 104.95 6.25
2 3 1 100.84 6.68
3 3 1 128.75 7.68
3 -3 1 148.18 8.47
-3 -3 -1 124.39 7.87
3 3 1 132.54 9.56
3 -3 1 123.97 8.03
-3 -3 -1 147.11 11.08
4 -3 1 6.79 4.32
4 3 1 12.43 6.34
4 -3 1 4.18 4.83
-4 -3 -1 9.23 3.77
-4 -3 -1 4.34 6.76
5 3 1 43.56 8.21
-5 -3 -1 52.23 6.59
-5 -3 -1 43.53 8.77
5 -3 1 46.27 7.12
6 3 1 177.54 13.07
-6 -3 -1 182.28 14.77
-6 -3 -1 151.38 11.25
6 3 1 172.62 10.23
7 3 1 75.92 10.24
7 3 1 97.13 7.89
-7 -3 -1 78.4 9.46
-7 -3 -1 98.2 12.69
8 3 1 47.42 6.45
-8 -3 -1 53.79 9.19
-8 -3 -1 37 11.27
8 3 1 38.67 10.13
-9 -3 -1 128.09 12.53
9 3 1 153.45 10.71
9 3 1 166.04 15.79
-9 3 -1 137.25 12.84
-9 -3 -1 173.89 18.02
10 3 1 105 15.31
10 3 1 98.53 9.41
-10 -3 -1 115.52 12.8
-10 3 -1 110.2 12.62
-10 -3 -1 101.41 17.62
11 3 1 30.93 7.48
-11 3 -1 13.17 10.22
11 3 1 28.92 13.82
-11 -3 -1 23.83 11.06
11 -3 1 31.91 12.98
-11 -3 -1 34.92 15.44
12 -3 1 1.48 13.6
12 3 1 15.99 15.47
12 3 1 10.32 7.48
-12 -3 -1 -1.27 11.19
-12 3 -1 -2.42 10.7
-12 -3 -1 -10.69 17.06
12 -3 1 12.24 10.57
-13 -3 -1 4.2 12.92
13 -3 1 12.1 12.02
13 3 1 42.21 16.71
13 3 1 9.74 8.47
13 -3 1 3.29 15.85
-13 -3 -1 7.03 17.53
-13 3 -1 14.73 12.61
14 -3 1 5.21 12.67
-14 3 -1 -11.84 13.3
-14 -3 -1 5.12 20.24
14 -3 1 -28.91 19.39
-14 3 -1 16.25 18.19
-14 -3 -1 -3.07 14.02
14 3 1 -1.74 7.58
-15 3 -1 6.47 15.18
15 -3 1 11.11 14.32
16 -3 1 5.87 15.21
16 3 1 1.23 13.94
17 -3 1 15.32 17.03
-16 -4 1 -3.98 19.51
-15 -4 1 12.98 17.39
-15 4 1 17.42 15.66
15 4 -1 -1.85 8.12
-14 4 1 20.76 14.12
14 4 -1 35.62 18.3
-14 -4 1 39.46 16.21
14 -4 -1 -8.61 17.09
-14 -4 1 33.6 21.59
14 4 -1 7.1 7.85
-13 4 1 4.36 13.34
13 4 -1 -10.28 16.28
-13 -4 1 -21.28 19.42
-13 -4 1 7.91 13.83
13 4 -1 20.28 8.02
-12 -4 1 17.26 16.91
-12 4 1 7.93 11.22
-12 -4 1 2.9 12.43
12 4 -1 -7.79 14.57
11 4 -1 16.83 13.41
-11 4 1 9.6 10.27
-11 -4 1 13.16 11.26
-11 -4 1 11.7 15.36
-10 4 1 73.86 11.28
-10 -4 1 59.43 12.12
-10 -4 1 77.19 16.66
10 4 -1 83.83 13.35
-9 -4 1 145.19 14.1
-9 -4 1 133.18 17.38
9 4 -1 139.7 14.61
-9 4 1 123.18 12.22
-8 -4 1 199.86 17.98
-8 4 1 189.77 14.19
-8 -4 1 210.75 15.67
-7 -4 1 284.22 21.44
-7 -4 1 369.81 20.17
-6 -4 1 288.71 17.3
-6 -4 1 289.54 19.93
5 4 -1 743.75 32.02
-5 -4 1 741.29 34.6
5 -4 -1 652.98 28.15
-5 -4 1 747.56 32.56
4 4 -1 222.77 13.09
-4 -4 1 220.44 13.26
-4 -4 1 217.41 15.12
-3 -4 1 1106.66 50.06
-3 -4 1 1222.59 51.57
-2 4 1 645.7 27.24
-2 -4 1 669.22 30.21
2 -4 -1 620.61 27.06
-2 4 1 638.81 27.95
-1 -4 1 726.99 29.13
-1 4 1 675.44 29.48
1 -4 -1 683.08 29.64
1 4 -1 676.31 29.74
0 4 -1 2653.71 103.39
0 4 1 2562.87 104.21
0 -4 -1 2781.5 103.69
0 4 1 2429.39 103.37
0 4 -1 2725.68 103.84
0 -4 -1 2297.69 103.25
0 4 -1 2520.19 104.24
1 4 1 623.92 25.2
-1 4 -1 608.64 26.5
1 -4 1 617.25 26.98
1 4 1 579.64 27.9
-1 -4 -1 575.31 25.09
-1 -4 -1 670.28 28.32
2 4 1 543.83 23.54
-2 4 -1 588.59 25.4
2 4 1 581.55 24.84
-2 -4 -1 643.15 27.79
3 -4 1 148.1 8.82
3 4 1 149.85 10.05
3 4 1 124.98 8.35
-3 -4 -1 147.18 8.78
-3 -4 -1 138.43 11.51
-4 -4 -1 35.4 7.83
4 -4 1 35.58 5.54
4 4 1 23.71 6.6
-4 -4 -1 35.09 5.45
-5 -4 -1 19.53 5.6
-5 -4 -1 13.93 8.02
5 4 1 27.79 7.35
5 -4 1 28.59 5.26
-6 -4 -1 53.58 7.37
6 4 1 78.77 9.7
-6 -4 -1 52.15 10.47
-7 -4 -1 111.16 10.79
7 4 1 151.1 12.93
7 4 1 137.91 9.76
-7 -4 -1 142.77 14.56
-8 -4 -1 44.3 12.24
8 4 1 34.51 10.19
-8 -4 -1 46.2 8.15
8 4 1 40.88 6.77
9 4 1 37.7 11.45
-9 -4 -1 15.73 8.3
9 4 1 31.44 6.95
9 -4 1 29.84 10.61
-9 -4 -1 27.37 12.89
10 -4 1 14.23 8.32
10 -4 1 -3.51 11.28
10 4 1 4.3 6.55
-10 4 -1 5.04 9.03
-10 -4 -1 -3.13 9.45
-10 -4 -1 1.8 13.72
10 4 1 6.58 11.95
-11 -4 -1 55.87 17.31
11 4 1 20.5 7.86
11 -4 1 -5.24 9.14
-11 -4 -1 1.17 10.51
11 -4 1 5.25 12.08
11 4 1 4.39 13.41
-11 4 -1 12.29 9.66
-12 -4 -1 35.17 18.18
12 4 1 38.79 16.45
12 -4 1 38.01 15.2
-12 -4 -1 38.92 12.9
-12 4 -1 40.63 11.87
12 4 1 27.62 8.6
12 -4 1 20.63 11
-13 -4 -1 1.43 12.7
13 -4 1 6.22 12.41
-13 4 -1 -1.35 12.68
13 -4 1 -3.24 15.93
13 4 1 -3.55 16.07
13 4 1 -4.84 8.45
-14 -4 -1 1.56 15.32
14 -4 1 -1.79 17.23
14 -4 1 10.7 12.89
-14 -4 -1 2.62 20.19
-14 4 -1 -16.34 13.53
14 4 1 4.09 8.52
15 -4 1 -1.43 14.77
-15 4 -1 1.63 14.72
16 -4 1 13.54 15.92
-16 -5 1 76.3 21.46
16 -5 -1 65.48 18.61
-15 -5 1 133.37 20.91
15 5 -1 89.61 11.55
-15 5 1 94.77 17.91
14 5 -1 189.61 15.23
-14 -5 1 235.12 23.3
14 -5 -1 243.31 24.75
-14 5 1 200.68 21.09
-14 -5 1 237.13 30.19
-13 -5 1 334.29 26.32
-13 -5 1 371.94 32.33
13 5 -1 365.18 28.53
-13 5 1 330.31 24.8
12 5 -1 587.28 35.3
-12 5 1 530.76 31.6
-12 -5 1 512.87 33.07
-12 -5 1 532.45 37.57
11 5 -1 560.02 33.17
-11 -5 1 566.16 32.42
-11 -5 1 531.88 36.14
-11 5 1 523.53 30.86
-10 5 1 235.6 17.98
-10 -5 1 251.38 19.67
-10 -5 1 243.75 23.27
10 5 -1 283.47 20.91
-9 -5 1 364.29 26.25
-9 5 1 329.11 21.38
9 5 -1 368.44 23.33
-9 -5 1 373.11 23.17
8 5 -1 616.84 32.07
-8 -5 1 590.02 34.84
-8 -5 1 618.17 31.9
-7 -5 1 1357.75 62.02
-7 -5 1 1427.02 65.3
-6 -5 1 898.6 42.97
-6 -5 1 982.63 46.2
5 5 -1 285.87 16.75
-5 -5 1 300.19 19.72
-5 -5 1 341.32 18.28
-4 -5 1 8.81 7.15
4 5 -1 9.66 6.22
-4 -5 1 7.45 5.64
-3 -5 1 808.12 36.87
3 5 -1 795.16 34.99
-3 5 1 749.62 32.52
-3 -5 1 767.89 35.14
-2 5 1 48.73 5.72
-2 -5 1 35.22 8.87
-2 5 1 42.97 4.46
-1 5 1 33.3 3.8
-1 5 1 37.6 4.35
1 5 -1 29.51 4.8
-1 -5 1 31.78 3.62
1 -5 -1 21.94 5.06
1 -5 -1 34.52 5.14
1 5 -1 28.19 3.84
0 -5 -1 2581.19 102.43
0 -5 -1 2184.6 101.62
0 5 -1 2567.56 102.95
0 -5 -1 2565.51 101.82
0 5 1 2529.84 101.83
0 5 -1 2506.71 102.32
0 5 -1 2715.48 101.82
0 5 1 2568.28 102.44
1 -5 1 64.52 6.55
-1 5 -1 87.11 6.37
-1 -5 -1 68.27 4.55
1 5 1 72.67 9.32
1 5 1 70.37 4.78
-1 -5 -1 61.58 8.29
-2 5 -1 501.93 22.06
2 5 1 426.81 24.03
-2 -5 -1 458.58 22.33
-2 -5 -1 462.11 24.29
2 5 1 489.59 21.67
3 5 1 1920.79 87.19
-3 -5 -1 2055 85.76
3 5 1 2074.21 85.86
-3 -5 -1 2074.68 87.65
4 5 1 321.62 18.43
-4 -5 -1 356.25 20.5
4 -5 1 336.8 17.12
-4 -5 -1 330.23 17.27
-5 -5 -1 639.86 34.16
-5 -5 -1 701.49 31.31
5 5 1 634.14 32.39
5 -5 1 682.65 31.03
6 5 1 1803.14 76.47
6 5 1 1812.17 78.66
-6 -5 -1 1857.47 81.08
-6 -5 -1 1774.1 77.31
7 5 1 838 39.34
-7 -5 -1 758.26 41.26
-7 -5 -1 783.15 37.51
8 -5 1 380.61 21.98
8 5 1 363.79 19.54
8 5 1 393.23 23.6
-8 -5 -1 354.36 25.96
-8 -5 -1 379.92 21.76
9 -5 1 508.28 28.18
9 5 1 493.33 25.05
9 -5 1 483.66 26.5
-9 -5 -1 535.9 27.69
-9 -5 -1 530.83 32.72
9 5 1 459 28.62
-10 -5 -1 516.32 34.11
10 -5 1 510.22 27.52
10 -5 1 466.63 28.76
10 5 1 558.86 31.27
10 5 1 489.75 25.42
-10 -5 -1 491.34 28.37
-11 5 -1 469.87 27.83
-11 -5 -1 479.01 28.89
11 5 1 538.88 31.93
11 5 1 486.21 25.25
-11 -5 -1 474.42 34.11
11 -5 1 485.18 29.91
11 -5 1 479.26 27.79
12 -5 1 352.36 25.66
12 5 1 306.19 18.97
-12 -5 -1 308.3 29.56
-12 5 -1 328.1 22.75
12 -5 1 328.9 22.15
12 5 1 271.04 24.96
-12 -5 -1 307.63 23.76
-13 5 -1 162.03 17.42
-13 -5 -1 116.83 23.27
13 -5 1 148.63 19.89
13 -5 1 139.33 17.04
13 5 1 140.72 13.37
13 5 1 145.13 21.07
-13 -5 -1 178.98 18.94
14 5 1 125.47 13.32
14 -5 1 105.88 16.8
-14 5 -1 129.37 18.11
-14 -5 -1 120.77 18.72
14 -5 1 151.53 22.3
-14 -5 -1 122 26.07
15 -5 1 112.6 18.76
-15 5 -1 106.58 18.46
16 -5 1 24.73 16.69
16 -6 -1 -17.17 17.66
-16 -6 1 -20.35 20.27
-15 -6 1 -1.9 17.74
-15 -6 1 2.97 24.42
-15 6 1 17.66 15.09
15 -6 -1 21 16.12
15 6 -1 -7.88 9.48
-14 -6 1 33.58 16.6
-14 -6 1 11.01 22.07
14 6 -1 25.57 10.03
14 -6 -1 42.04 17.49
-14 6 1 4.87 13.69
-13 6 1 1.48 12.69
13 6 -1 -8.76 16.28
-13 -6 1 -20.2 21.66
-13 -6 1 -8.17 14.33
-12 -6 1 25.38 18.81
-12 -6 1 13.54 14.13
12 6 -1 31.83 15.85
-12 6 1 9.55 11.95
11 6 -1 12.95 13.54
-11 6 1 6.2 10.23
-11 -6 1 -5.51 11.78
-11 -6 1 -16.82 17.06
-10 6 1 13.56 9.18
10 6 -1 15.14 8.47
-10 -6 1 1.9 14.15
-10 -6 1 12.53 11.15
10 6 -1 1.29 11.54
-9 -6 1 20.58 12.63
-9 -6 1 9.05 9.14
9 6 -1 -4.62 7.8
9 6 -1 2.3 9.7
-8 -6 1 113.96 12.41
8 6 -1 101.95 12.39
-8 -6 1 92.35 15.25
-7 -6 1 287.15 22.66
7 6 -1 344.97 20.01
-7 -6 1 321.79 19.92
6 6 -1 671.54 33.13
-6 -6 1 660.07 33.59
-6 -6 1 760.11 37.34
5 6 -1 594.26 28.66
5 6 -1 597.93 28.66
-5 -6 1 591.61 31.75
-5 -6 1 564.35 29.2
-4 6 1 1620.54 67
4 6 -1 1618.7 70
-4 -6 1 1771.43 72.87
4 6 -1 1554.52 68.99
-4 -6 1 1627.51 70.36
-3 -6 1 966.76 45.49
-3 6 1 998.42 42.43
3 6 -1 955.33 43.24
-3 6 1 965.9 40.78
3 6 -1 954.85 42.06
-2 6 1 169.3 10.07
2 6 -1 181.18 9.75
2 -6 -1 159.16 9.71
2 -6 -1 153.35 9.43
2 6 -1 152.07 9.04
-2 -6 1 153.27 12.56
-2 6 1 156.91 8.87
1 -6 -1 1998.2 83.95
-1 6 1 2035.19 83.76
-1 -6 1 2023.31 82.69
-1 -6 1 2026.18 83.96
1 6 -1 2066.37 83.04
1 -6 -1 1986.38 84.04
-1 -6 1 2021.21 83.17
1 6 -1 2046.44 83.92
0 6 1 2595.99 105.23
0 6 -1 2464.57 104.75
0 -6 -1 2548.35 105.16
0 6 -1 2643.78 105.8
0 -6 -1 2601.99 104.26
1 -6 1 519.59 22.6
-1 6 -1 475.79 21.81
-1 -6 -1 474.24 24.02
1 6 1 459.02 20.56
-1 -6 -1 457.75 20.45
1 6 1 473.66 24.37
2 -6 1 832.74 37.03
-2 -6 -1 898.93 39.2
-2 -6 -1 802.59 36.73
-2 6 -1 785.56 36.22
2 6 1 864.06 39.05
-3 -6 -1 555.21 25.33
3 6 1 497.79 26.66
-3 6 -1 496.02 24.54
3 6 1 511.82 25.09
-3 -6 -1 530.29 27.45
-4 -6 -1 428.74 21.75
4 6 1 455.34 22.83
-4 -6 -1 413.53 22.31
-4 -6 -1 467.51 25.08
-5 -6 -1 445.02 22.36
5 6 1 436.44 23.47
-5 -6 -1 426.43 25.46
6 6 1 26.55 8.24
6 6 1 0.56 5.32
-6 -6 -1 12.14 7.14
-6 -6 -1 -6.14 9.41
-7 -6 -1 31.61 8.06
-7 -6 -1 41.68 12.31
7 6 1 37.85 9.41
-8 -6 -1 120.34 16.61
8 -6 1 163.11 13.47
-8 -6 -1 156.46 13.39
8 6 1 139.57 14.51
-9 -6 -1 34.93 14.98
9 -6 1 42.91 10.44
-9 -6 -1 37.57 9.87
9 6 1 46.31 11.92
9 6 1 53.29 8.53
10 6 1 20.33 12.69
10 -6 1 28.46 11.79
-10 -6 -1 45.32 11.72
-10 -6 -1 13.58 14.77
10 6 1 39.34 8.6
10 -6 1 23.33 9.47
-11 -6 -1 -4.91 11.89
-11 -6 -1 -2.15 16.29
11 -6 1 34.59 12.91
11 -6 1 13.37 10.44
-11 6 -1 21.29 11.22
11 6 1 31.52 14.4
11 6 1 24.58 8.62
12 -6 1 -18.53 14.62
-12 6 -1 7.73 11.39
12 -6 1 42.53 12.53
12 6 1 3.94 8.91
-12 -6 -1 -4.71 17.7
-12 -6 -1 -4.06 13.03
12 6 1 1.65 15.37
13 -6 1 1.58 15.94
-13 6 -1 12.67 12.87
13 6 1 -0.82 9.26
-13 -6 -1 -7.7 20.3
13 -6 1 11.84 13.02
13 6 1 -9.04 16.68
-13 -6 -1 -13.31 13.21
14 -6 1 25.35 14.21
-14 -6 -1 -33.47 23.65
14 -6 1 -3.47 17.62
-14 -6 -1 4.83 15.01
14 6 1 10.98 10.41
-14 6 -1 10.68 14.04
-15 6 -1 18.28 15.98
15 -6 1 -1.5 15.78
16 -6 1 19.09 16.79
-15 7 1 -5.38 15.14
15 -7 -1 -13.23 16
-15 -7 1 -15.48 18.44
15 7 -1 20.57 10.89
14 -7 -1 19.96 17.23
-14 -7 1 5.4 15.84
14 7 -1 5.03 9.2
-14 -7 1 -25.49 23.56
14 -7 -1 32.49 14.78
-14 7 1 -4.93 14
-13 -7 1 16.63 14.28
-13 7 1 53.14 14.44
13 7 -1 40.95 17.22
-13 -7 1 28.73 20.88
-12 -7 1 33.58 19.31
12 7 -1 4.84 14.48
-12 -7 1 9.22 13.11
-12 7 1 37.58 12.79
-11 -7 1 26.26 16.69
11 7 -1 20.41 14.19
-11 7 1 19.12 11.11
-11 -7 1 -4.23 12.19
-10 -7 1 121.13 18.92
10 7 -1 120.59 16.35
10 7 -1 109.96 12.8
-10 -7 1 119.36 14.98
-9 -7 1 77.03 12.69
9 7 -1 82.78 10.61
9 7 -1 97.19 13.62
-9 -7 1 70 15.52
8 7 -1 14.47 9.33
-8 -7 1 28.56 9.28
-8 -7 1 20.99 12.45
-7 -7 1 49.44 12.18
-7 -7 1 67.7 9.83
7 7 -1 41.51 9.52
6 7 -1 72.23 9.72
-6 -7 1 79.29 10.15
-6 -7 1 88.96 13.07
-5 -7 1 431.56 23.01
5 7 -1 385.34 21.4
-5 -7 1 405.36 24.84
-4 7 1 84.78 8.44
-4 -7 1 100.96 12.19
-4 7 1 78.89 5.79
4 7 -1 76.34 8.22
4 7 -1 74.15 8.65
-3 -7 1 86.07 11.09
-3 7 1 105.03 6.66
3 7 -1 89.83 9.77
-3 7 1 103.02 8.91
3 7 -1 109.34 8.05
2 7 -1 18.88 4.36
2 7 -1 19.11 4.64
2 -7 -1 11.6 4.83
-2 7 1 19.1 5.58
-2 7 1 18.31 3.98
2 -7 -1 22.83 4.7
-1 -7 1 207.29 10.41
-1 -7 1 202.27 11.56
-1 -7 1 212.43 9.77
1 7 -1 209.81 11.62
1 7 -1 222.55 10.4
1 -7 -1 227.65 12.13
1 -7 -1 204.92 11.46
0 -7 -1 25.6 3.87
0 7 -1 26.99 4.75
0 -7 -1 22.53 2.59
0 7 1 30.21 4.45
1 7 1 21.95 8.12
-1 7 -1 37.18 5.57
-1 -7 -1 29.49 3.83
1 -7 1 37.32 6.2
2 -7 1 189.94 11.31
-2 -7 -1 155.17 10.57
-2 -7 -1 198.95 14.03
-2 7 -1 151.14 10.59
2 7 1 140.05 13.36
-3 -7 -1 54.01 7.56
-3 -7 -1 50.11 10.21
-3 7 -1 57.65 7.23
-4 -7 -1 312.52 20.89
4 7 1 293.07 17.77
-4 -7 -1 324.9 17.66
5 7 1 51.14 8.56
-5 -7 -1 38.03 8.07
-5 -7 -1 66.06 11.87
-6 -7 -1 163.14 16.87
-6 -7 -1 177.96 12.97
6 7 1 162.75 13.99
6 7 1 168.54 11.78
7 7 1 130.37 12.83
-7 -7 -1 116.86 11.27
7 -7 1 112.14 10.43
-7 -7 -1 100.04 15.13
-8 -7 -1 1.64 12.13
8 7 1 14.48 10.52
8 -7 1 17.86 8.5
-8 -7 -1 15.52 8.82
9 7 1 111.88 10.93
9 7 1 127.73 15.14
-9 -7 -1 125.66 13.35
-9 -7 -1 96.43 17.9
9 -7 1 93.41 12.63
-10 -7 -1 38.58 12.12
10 7 1 47.61 9.31
10 -7 1 50.48 12.97
10 7 1 30.25 13.26
10 -7 1 43.06 10.45
-10 -7 -1 52.27 16.41
11 -7 1 12.65 13.04
-11 -7 -1 -11.3 11.85
11 7 1 -6.07 14.19
11 -7 1 1.15 9.61
-11 -7 -1 -11.07 17.19
11 7 1 3.31 9.18
-12 -7 -1 -6.9 12.37
12 -7 1 -28.15 13.85
12 -7 1 22.44 11.85
12 7 1 -22.93 10.52
-12 -7 -1 4.86 18.07
-12 7 -1 5.31 11.61
12 7 1 -20.01 15.59
-13 -7 -1 18.11 13.89
-13 -7 -1 -10.6 20.29
13 -7 1 12.13 12.88
13 7 1 7.92 9.99
-13 7 -1 1.44 12.64
13 7 1 1.83 17.13
13 -7 1 4.67 15.71
14 -7 1 41.19 18.42
-14 7 -1 6.26 14.73
14 7 1 10.02 10.96
14 -7 1 20.21 14.06
-14 -7 -1 8.61 22.61
15 -7 1 23.1 16.24
-15 7 -1 -1.69 15.28
-15 8 1 -10.89 16.09
15 8 -1 5.51 10.73
15 -8 -1 -27.04 17.51
-15 -8 1 21.82 18.66
-14 8 1 16.79 14.68
-14 -8 1 8.72 22.48
14 -8 -1 -4.94 17.15
-14 -8 1 11.08 16.61
14 8 -1 28.81 10.37
14 -8 -1 -4.76 15.13
13 8 -1 -3.61 16.66
-13 -8 1 25.67 15.96
-13 -8 1 18.8 22.15
13 -8 -1 2.96 13.15
-13 8 1 7.76 12.85
-12 -8 1 40.94 15.19
12 8 -1 65.7 17.36
-12 8 1 51.27 13.64
-12 -8 1 54.31 20.14
-11 -8 1 49.64 18.53
11 8 -1 47.4 14.45
-11 -8 1 23.16 13.02
-11 8 1 67.06 13.11
11 8 -1 26.1 10.08
-10 -8 1 35.86 12.75
-10 -8 1 37.03 15.87
10 8 -1 23.99 12.91
10 8 -1 27.42 10
-9 -8 1 80.37 16.74
9 8 -1 83.37 13.54
-9 -8 1 85.34 13.17
9 8 -1 86.03 10.78
-8 -8 1 78.46 12.11
-8 -8 1 61.07 15.54
8 8 -1 77.47 12.17
8 8 -1 54.91 11.33
-7 -8 1 151.16 14.28
7 8 -1 178.83 14.56
-7 -8 1 184.56 18.28
-6 -8 1 702.39 34.99
6 8 -1 700.43 33.88
-6 -8 1 646.39 37.5
5 8 -1 247.13 16.02
-5 -8 1 318.51 21.2
-5 8 1 264.39 12.96
-4 -8 1 113.54 13.44
4 8 -1 115.24 9.9
-4 8 1 132.3 7.62
4 8 -1 117.02 10.58
-4 8 1 114.12 9.7
-3 8 1 676.43 29.26
3 8 -1 652.1 32.17
3 8 -1 658.29 30.26
-3 8 1 645.12 31.08
-3 -8 1 699.73 34.6
-2 8 1 2204.79 91.23
2 -8 -1 2087.88 92.03
2 8 -1 2247.7 91.27
2 8 -1 2214.71 91.58
2 -8 -1 2246.97 92.08
-1 -8 1 1674.78 65.49
1 8 -1 1589.95 67.36
1 -8 -1 1580.39 67.35
-1 -8 1 1551.52 67.32
-1 -8 1 1573.14 66.16
1 -8 -1 1517.96 67.61
0 -8 -1 1061.62 45.38
0 -8 1 1062.07 45.9
0 8 -1 1124.25 46.14
0 8 1 1026.05 45.43
1 8 1 1986.77 86.29
-1 -8 -1 2018 82.28
1 -8 1 2112.36 84.53
-1 -8 -1 1962.83 81.39
-1 8 -1 1939.97 83.52
-2 -8 -1 1854.48 82.69
-2 -8 -1 2004.27 85.9
-2 8 -1 2041.47 82.74
2 -8 1 1874.63 83.44
2 8 1 1913.96 85.35
-2 -8 -1 2022.42 81.02
-3 8 -1 432.84 21.03
-3 -8 -1 384.01 23.63
-3 -8 -1 383.52 20.77
4 8 1 98.39 10.51
4 8 1 132.86 7.59
-4 -8 -1 132.31 13.67
5 8 1 355.06 21.08
5 8 1 374.88 19.81
-5 -8 -1 383.93 24.31
-6 -8 -1 305.87 18.78
-6 8 -1 296.29 13.02
6 -8 1 337.13 18.06
6 8 1 345.2 19.94
-6 -8 -1 377.25 24.17
7 8 1 226.06 17.83
7 -8 1 230.33 14.75
-7 -8 -1 162.57 18.39
7 8 1 204.48 16.53
-7 -8 -1 210.25 15.43
8 8 1 77.59 12.64
-8 -8 -1 75.47 15.69
-8 -8 -1 68.39 10.88
9 8 1 5.06 11.66
9 8 1 14.94 7.71
-9 -8 -1 1.9 13.93
-9 -8 -1 12.95 9.51
9 -8 1 27.12 10.58
10 -8 1 -1.08 9.58
10 8 1 2.8 12.48
10 8 1 24.14 8.65
-10 -8 -1 4.19 15.02
10 -8 1 9.96 11.02
-10 -8 -1 1.19 10.88
11 8 1 4.39 8.96
11 -8 1 29.97 13.04
-11 -8 -1 20.71 18.12
11 8 1 4.62 14.67
-11 -8 -1 1.3 11.47
11 -8 1 3.54 10.48
12 -8 1 14.09 12.06
12 8 1 32.05 17.3
-12 -8 -1 14.26 13
12 8 1 1.83 9.72
-12 -8 -1 7.54 18.6
12 -8 1 12.51 14.33
-13 8 -1 -2.96 13.34
13 -8 1 -6.92 12.89
13 -8 1 4.6 15.61
-13 -8 -1 9.3 14.58
13 8 1 -14.72 16.71
-13 -8 -1 -19.13 21.71
13 8 1 10.29 10.32
14 8 1 12.62 11.4
14 -8 1 -1.48 14.56
14 -8 1 -6.77 17.4
-14 8 -1 11.23 14.47
-14 -8 -1 44.32 25.15
-15 8 -1 6.9 16.92
15 -8 1 65.08 18.34
15 -9 -1 15.49 17.13
-15 -9 1 -12.19 19.12
15 9 -1 1.96 11.28
-14 -9 1 65.82 27.36
-14 9 1 6.87 14.43
14 -9 -1 40.47 16.23
-14 -9 1 -17.06 18.63
14 -9 -1 60.3 18
13 9 -1 102.47 19.93
-13 9 1 55.42 14.81
13 -9 -1 65.2 15.65
-13 -9 1 81.21 18.05
-13 -9 1 69.15 23.64
-12 -9 1 86.63 23.59
12 9 -1 185.62 21.6
-12 -9 1 150.42 19.21
-12 9 1 178.84 17.99
11 9 -1 371.34 22.9
11 9 -1 316.4 25.32
-11 -9 1 325.48 24.96
-11 -9 1 320.27 29.92
10 9 -1 801.12 41.89
10 9 -1 766.51 39.16
-10 -9 1 795.7 41.77
-10 -9 1 726.01 45.67
9 9 -1 295.78 21.61
-9 -9 1 292.89 21.7
9 9 -1 299.51 19.67
-9 -9 1 296.09 26.07
-8 -9 1 176.17 19.69
-8 -9 1 154.61 15.87
8 9 -1 183.86 16.14
8 9 -1 176.4 17.11
8 9 -1 170.8 14.26
7 9 -1 298.18 19.74
7 9 -1 358.43 22.8
-7 -9 1 304.42 20.73
-7 -9 1 268.25 23.33
7 -9 -1 297.57 18.51
6 9 -1 473.04 25.28
-6 -9 1 441.18 29.2
-5 9 1 918.86 39.61
5 9 -1 954.34 42.77
-5 -9 1 914.8 47.11
-4 -9 1 51.54 11.76
-4 9 1 60.48 5.53
4 9 -1 52.82 7.75
3 9 -1 239.18 15.02
-3 9 1 218.94 11.77
-3 -9 1 214.56 17.09
3 9 -1 202.52 12.72
2 9 -1 5.11 4.71
2 -9 -1 -3.8 5.41
2 -9 -1 2.55 5.37
2 9 -1 0.44 4.84
1 -9 -1 95.56 8.27
1 -9 -1 102.37 7.89
-1 -9 1 102.9 5.08
-1 9 1 88.38 5.3
1 9 -1 89.15 7.92
-1 -9 1 84.75 7.73
-1 9 1 76.33 4.89
-1 -9 1 89.15 6.17
0 -9 -1 860.61 35.87
0 9 -1 830.87 36.55
0 -9 1 754.54 33.87
0 -9 1 853.74 36.55
0 9 -1 846.91 33.68
-1 -9 -1 119.99 7.41
-1 9 -1 107.17 8.71
-1 -9 -1 94.56 5.65
1 -9 1 93.64 9.19
1 9 1 102.25 11.91
2 -9 1 41.72 7.16
-2 -9 -1 61.94 10.2
-2 -9 -1 52.92 5.16
-2 9 -1 40.78 6.68
2 9 1 42.71 9.57
3 9 1 436.92 19.62
-3 9 -1 402.8 22.01
-3 -9 -1 437.01 25.86
-4 -9 -1 726.28 38.04
4 9 1 708.16 30.95
5 9 1 646.79 33.47
-5 -9 -1 748.06 38.39
5 9 1 694.45 30.13
5 9 1 673.13 32.62
-6 -9 -1 868.6 47.65
6 -9 1 935.79 42.84
6 9 1 934.56 43.98
7 9 1 329.24 22.76
-7 9 -1 440.5 23.74
7 9 1 400.82 25.37
7 -9 1 375.82 21.48
-7 -9 -1 355.12 26.81
-8 -9 -1 264.16 23.14
8 9 1 213.11 18.06
8 9 1 206.31 14.8
-8 -9 -1 187.34 16.44
9 9 1 601.06 30.72
-9 -9 -1 618.76 38.42
9 9 1 545.26 33.45
-9 -9 -1 606.64 32.98
9 -9 1 629.77 32.15
10 9 1 207.54 20.79
10 9 1 246.38 17.07
-10 -9 -1 216.55 24.15
10 9 1 247.19 16.98
10 -9 1 212.58 18.12
10 -9 1 286.95 20.04
-10 -9 -1 220.33 19.31
11 -9 1 160.26 17.62
11 -9 1 167.96 16.13
11 9 1 136.74 14.29
11 9 1 127.72 18.53
-11 -9 -1 160.17 17.89
-11 -9 -1 111.36 22.51
12 9 1 223.08 22.74
12 9 1 169.86 16.3
12 -9 1 269.01 21.63
12 -9 1 242.64 19.75
-12 -9 -1 211.78 27.8
-12 -9 -1 156.99 19.23
-13 -9 -1 25.71 15.61
13 9 1 78.29 12.77
-13 -9 -1 36.49 21.79
13 -9 1 37.91 16.57
-13 9 -1 47.4 14.74
13 -9 1 41.32 14.62
-14 9 -1 60.71 16.59
14 -9 1 33.65 16.01
-14 -9 -1 81.9 26.75
14 -9 1 23.39 18.04
14 9 1 33.93 12.56
15 -9 1 73.21 18.63
15 10 -1 10.44 11.84
-14 10 1 -1.75 14.59
14 -10 -1 11.58 14.87
-14 -10 1 -17.51 19.19
-14 -10 1 3.07 23.92
-13 10 1 19.51 13.91
-13 -10 1 1.81 16.38
13 10 -1 16.66 18.12
-13 -10 1 8.53 22.58
13 -10 -1 26.31 14.98
-12 -10 1 -2.62 20.08
12 10 -1 -1.26 11.06
12 10 -1 15.25 16.87
-12 -10 1 -3.37 14.4
-11 -10 1 48.25 20.31
11 10 -1 14.22 11.03
-11 -10 1 12.47 13.38
11 10 -1 7.74 14.26
-10 -10 1 7.21 12.92
10 -10 -1 9.88 10.15
10 10 -1 5.59 12.95
10 10 -1 23.34 10.07
-10 -10 1 -2.21 15.97
9 -10 -1 19.3 9.89
9 10 -1 18.81 12.17
9 10 -1 6.34 8.83
-9 -10 1 18.63 11.76
-9 -10 1 20.29 15.77
9 10 -1 -6.62 11.15
8 -10 -1 -1.04 8.19
8 10 -1 16.75 10.7
8 10 -1 -4.62 10.18
-8 -10 1 -1.86 13.44
-8 -10 1 22.13 11.35
8 10 -1 6.02 8.25
7 -10 -1 56.47 9.21
7 10 -1 64.53 12.5
-7 -10 1 37.6 13.28
7 10 -1 59.17 10.76
-6 10 1 69.64 6.12
6 10 -1 68.18 10.42
-6 -10 1 120.37 15.64
5 10 -1 11.93 7.2
-5 10 1 13.18 4.47
-5 -10 1 13.18 11.23
-4 10 1 59.59 5.84
-4 -10 1 50.21 12.32
4 10 -1 52.63 7.97
-3 10 1 40.92 5.75
3 10 -1 42.09 7.06
-2 -10 1 250.44 11.64
2 -10 -1 251.64 14.41
2 -10 -1 236.06 14.82
1 -10 -1 614.75 28.73
1 10 -1 617.8 28.01
-1 10 1 553.49 27.75
-1 10 1 570.03 25.09
1 -10 -1 613.16 27.87
-1 -10 1 656.06 28.29
-1 -10 1 633.01 26.12
0 10 -1 142.88 10.49
0 -10 -1 154.1 9.76
0 -10 1 153.64 7.6
0 -10 1 146.91 10.24
-1 10 -1 135.28 10.23
-1 10 -1 125.29 7.91
1 10 1 128.43 12.93
-1 10 -1 139.37 6.87
-1 -10 -1 140.55 8.65
1 -10 1 127.55 10.87
-1 -10 -1 115.92 6.5
-2 -10 -1 28.76 4.93
2 -10 1 27.09 7.23
-2 10 -1 23.74 6.43
-3 -10 -1 8.65 9.41
3 -10 1 18.76 6.89
3 10 1 22.3 4.62
-3 10 -1 16.02 6.29
4 10 1 -0.69 4.09
-4 -10 -1 2.69 10.19
4 10 1 2.08 6.65
5 10 1 23.96 4.93
-5 -10 -1 21.87 11.46
-6 -10 -1 102.73 15.24
6 10 1 38.27 10.95
6 -10 1 51.43 8.5
6 10 1 83.85 12.04
6 10 1 75.52 6.58
-6 10 -1 60.95 10
7 10 1 80.8 13.03
7 10 1 107.13 13.3
-7 -10 -1 77.61 15.43
-7 10 -1 97.18 12.16
7 -10 1 100.18 10.74
8 10 1 35.6 11.7
8 10 1 59.48 9.39
8 -10 1 46.14 9.59
-8 10 -1 37.61 10.77
8 10 1 60.74 13.29
-8 -10 -1 33.85 15.44
9 -10 1 17.87 10.19
9 10 1 22.27 13.12
9 10 1 6.18 7.84
-9 10 -1 9.3 10.14
-9 -10 -1 2.05 15.13
-9 -10 -1 2.35 11.28
10 -10 1 9.68 11.18
-10 10 -1 -4.34 11.03
-10 -10 -1 -26.93 17.02
10 10 1 14.12 9.45
10 10 1 1.9 8.73
-10 -10 -1 23.18 12.12
10 10 1 -15.86 13.81
11 10 1 -3.15 14.5
11 -10 1 3.79 10.95
-11 -10 -1 17.15 18.04
11 -10 1 1.22 12.5
-11 -10 -1 -7.02 13.81
11 10 1 2.96 9.9
12 10 1 -1.72 15.74
12 10 1 24.87 11.84
12 -10 1 8.13 14.31
-12 -10 -1 25.9 14.39
12 -10 1 -1.36 12.44
-12 -10 -1 69.31 22.18
-13 -10 -1 31.75 22.82
13 -10 1 -1.47 14.05
13 -10 1 8.99 15.87
13 10 1 5.3 11.2
-14 10 -1 -3.37 14.62
14 -10 1 4.71 15.04
14 10 1 -2.17 11.91
14 -10 1 -11.56 18.21
15 11 -1 28.75 13.18
-14 11 1 34.04 16.16
-14 -11 1 33.62 18.83
-14 -11 1 47.18 25.56
14 -11 -1 28.7 16.33
-13 11 1 70.16 16.4
13 11 -1 61.85 19.72
13 -11 -1 91.87 17.34
-13 -11 1 57.32 18.2
-13 -11 1 58.41 24.93
-12 -11 1 113.31 25.06
-12 -11 1 137.68 19.87
12 11 -1 159.18 16.6
12 11 -1 170.11 21.61
11 11 -1 45.47 16.6
11 11 -1 47.41 12.54
-11 -11 1 54.83 19.45
-11 -11 1 43.19 15.81
-10 -11 1 66.55 19.05
10 -11 -1 82.49 13.06
-10 -11 1 50.42 14.6
10 11 -1 74.7 12.03
10 11 -1 72.55 14.8
-10 11 1 54.49 13.61
9 11 -1 171.93 17.84
-9 -11 1 162.46 22.36
9 11 -1 171.4 19.61
9 -11 -1 185.75 16.24
9 11 -1 187.46 15.85
8 11 -1 32.12 11.45
-8 -11 1 50.58 15.68
8 11 -1 30.77 11.59
8 -11 -1 11.76 8.24
8 11 -1 16.72 8.67
7 11 -1 47.91 11.75
7 -11 -1 19.55 7.68
-7 -11 1 43.33 14.77
7 11 -1 47.81 10.47
7 11 -1 33.51 9.59
6 -11 -1 247.31 16.03
6 11 -1 277.14 20.28
-6 -11 1 255.09 22.72
6 11 -1 212.18 16.89
-6 11 1 251.87 13.02
-5 11 1 100.61 7.42
5 11 -1 93.56 8.74
-5 -11 1 122.1 16.02
5 11 -1 85.52 10.1
-4 -11 1 14.6 10.91
-4 11 1 5.66 4.76
4 11 -1 4.54 6.44
-3 11 1 183.06 10.84
3 11 -1 167.3 11.35
3 -11 -1 149.67 12.39
3 -11 -1 160.82 11.8
-2 -11 1 74.21 4.95
2 -11 -1 89.93 9.42
-2 -11 1 86.6 6.4
2 -11 -1 93.8 8.83
-1 -11 1 14.97 5.51
1 -11 -1 17.53 6.24
-1 11 1 17.41 2.49
1 -11 -1 20.28 5.46
1 11 -1 16.84 6.02
0 -11 -1 10.49 4.78
0 -11 1 5.19 2.88
0 11 -1 3.44 5.35
0 -11 1 14.62 6.02
-1 11 -1 -1.21 2.69
-1 -11 -1 3.91 4.63
-1 11 -1 1.49 3.74
-1 11 -1 9.84 5.99
-1 -11 -1 0.86 2.11
-1 -11 -1 1.07 2.08
1 -11 1 4.62 6.72
1 -11 1 5.77 2.56
-2 11 -1 143.88 11.54
-2 -11 -1 153.38 9.58
2 -11 1 142.09 12.28
2 11 1 143.26 9.42
-3 -11 -1 123.05 14.88
-3 11 -1 78.29 9.47
3 -11 1 65.3 9.05
3 11 1 82.09 6.69
4 11 1 102.56 13.55
-4 -11 -1 221.07 18.77
4 11 1 86.12 7.21
5 11 1 248.02 20.01
-5 11 -1 243.36 17.39
5 11 1 275.53 14
-5 -11 -1 281.49 22.4
6 11 1 180.73 17.07
6 11 1 137.99 9.82
6 -11 1 163.32 12.53
-6 -11 -1 182.54 19.04
-6 11 -1 150.05 13.86
7 11 1 217.31 12.15
7 11 1 211.49 18.76
-7 11 -1 184.44 9.33
-7 11 -1 207.03 16.48
7 -11 1 201.4 14.89
-7 -11 -1 238.67 22.41
7 11 1 199.61 17.53
8 11 1 126.66 15.58
8 -11 1 134.2 13.08
8 11 1 105.08 15.5
-8 -11 -1 82.53 18.45
8 11 1 98.33 11.44
-8 11 -1 149.4 15.01
9 11 1 64.94 10.24
9 11 1 61.47 14.07
-9 11 -1 58.98 12.86
9 -11 1 68.52 11.51
-9 -11 -1 42.71 17.29
-10 -11 -1 167.3 23.61
10 -11 1 144.28 15.29
10 11 1 149.37 18.39
-10 11 -1 142.8 16.86
10 11 1 159.56 14.94
10 11 1 130.39 13.66
11 11 1 299.3 24.72
11 11 1 261.98 19.17
11 -11 1 270.12 21.42
11 -11 1 223.85 20.27
-11 -11 -1 254.81 28.04
11 11 1 269.98 19.15
-11 11 -1 222.81 22.05
12 11 1 110.11 14.43
12 -11 1 86.9 16.77
12 11 1 106.31 19.89
12 -11 1 95.38 16.13
-12 -11 -1 131.52 25.81
-12 11 -1 51.7 16.55
13 11 1 34.86 13.04
13 -11 1 19.22 16.23
13 -11 1 24.1 14.68
-13 -11 -1 -8.89 23.34
14 -11 1 29.4 18.32
-14 11 -1 45.14 16.96
14 11 1 1.14 12.58
14 -11 1 27.36 15.81
15 12 -1 -3.51 13.7
14 -12 -1 18.94 17.01
-13 12 1 -17.03 15.52
13 12 -1 9.73 13.4
-13 -12 1 -23.95 24.19
-12 12 1 11.11 14.02
12 12 -1 19.19 17.75
12 12 -1 20.98 12.54
-12 -12 1 -11.09 21.84
-11 12 1 13.28 12.61
11 12 -1 3.73 10.81
-11 -12 1 2.56 19.54
11 12 -1 -23.93 16.4
11 -12 -1 -5.64 12.45
-10 12 1 -4.11 11.41
-10 -12 1 7.1 17.61
10 12 -1 2.9 13.48
10 12 -1 16.66 10.74
10 -12 -1 14.38 10.75
-9 -12 1 87.8 19.94
9 12 -1 74.54 12.3
9 12 -1 124.93 17.1
-9 12 1 92.55 14.32
9 12 -1 91.54 15.06
9 -12 -1 96.48 12.85
8 12 -1 313.58 24.16
8 12 -1 318.16 22.28
8 12 -1 321.55 20.81
8 -12 -1 300.5 20.2
-8 -12 1 295.91 26.81
7 12 -1 493.86 30.64
-7 -12 1 471.09 32.31
7 -12 -1 460.23 26.3
7 12 -1 485.9 26.9
7 12 -1 459.38 27.07
6 -12 -1 1057.52 50.03
-6 12 1 1056.14 46.45
6 12 -1 1121.75 50.59
6 12 -1 1083.06 54.74
6 12 -1 1089.92 48.15
-6 -12 1 1123.34 56.77
-5 12 1 801.32 36.87
5 12 -1 881.87 38.34
5 12 -1 868.38 39.88
-5 -12 1 827.37 45.77
5 -12 -1 818.18 39.51
4 -12 -1 1025.06 46.85
4 12 -1 1031.36 45.52
4 12 -1 1034.21 46.31
-4 12 1 1013.42 44.85
3 -12 -1 1488.22 65.2
3 -12 -1 1513.06 65.7
-3 12 1 1480.15 63.81
-2 -12 1 1497.97 60.84
2 -12 -1 1499.14 64.48
-2 -12 1 1479.37 61.86
2 -12 -1 1398.55 64.73
-2 12 1 1482.9 61.27
1 -12 -1 1706.52 76.88
1 -12 -1 1739.42 75.9
-1 -12 1 1888.71 76.28
0 -12 1 1611.29 66.88
0 12 -1 1669.4 70.12
0 -12 -1 1640.04 69.32
0 -12 1 1606.84 69.77
1 -12 1 558.74 22.72
-1 12 -1 495.04 26.37
1 12 1 532.73 25.38
-1 12 -1 531.8 23.82
-1 -12 -1 512.32 25.59
-1 -12 -1 519.27 25.18
1 -12 1 518.53 27.61
2 -12 1 761.09 37.62
-2 -12 -1 791.76 36.31
-2 12 -1 808.73 37.04
2 12 1 793.09 35.08
-2 -12 -1 767.58 34.93
3 -12 1 1681.66 73.47
-3 12 -1 1704.83 72.53
3 12 1 1632.19 70.1
-4 -12 -1 314.13 24.27
-4 12 -1 347.28 20.82
4 12 1 358.74 23.83
4 12 1 332.64 16.95
5 12 1 544.17 25.24
-5 12 -1 541.06 29.26
5 12 1 514.36 31.64
5 -12 1 557.06 27.95
-5 -12 -1 546.42 34.06
6 12 1 453.68 28.96
6 12 1 457.55 21.45
6 -12 1 392.6 23.98
-6 -12 -1 425.24 30.77
-6 12 -1 482.7 26.3
-7 12 -1 387.24 23.95
7 -12 1 406.52 22.63
7 12 1 372.35 18.92
-7 12 -1 351.69 16.68
7 12 1 387.65 21.89
7 12 1 370.61 26.2
-7 -12 -1 462.37 30.54
-8 12 -1 219.95 18.15
8 12 1 213.07 13.13
8 12 1 244.62 21.15
8 12 1 202.27 15.79
8 12 1 194.81 18.67
-8 -12 -1 210.46 23.14
8 -12 1 193.1 16.22
-9 -12 -1 -22.14 16.8
9 12 1 -1.06 6.45
9 12 1 1.37 12.43
9 12 1 -0.95 8.61
-9 12 -1 1.41 11.15
9 -12 1 13.67 10.46
10 12 1 -2.02 9.17
-10 12 -1 18.36 12.67
10 12 1 -17.96 14.72
-10 -12 -1 31.21 19.07
10 12 1 -13.72 10.65
10 -12 1 -6.28 11.06
-11 12 -1 11.55 14
11 12 1 2.14 9.77
11 -12 1 9.47 13.36
11 -12 1 10.73 12.27
-11 -12 -1 31.24 20.59
11 12 1 -4.89 15.92
11 12 1 17.58 11.48
12 12 1 10.63 16.63
-12 -12 -1 42.26 22.96
12 -12 1 4.33 13.01
12 12 1 -5.73 12.02
12 -12 1 21.12 14.43
-13 -12 -1 27.33 24.95
13 -12 1 26.29 15.09
13 12 1 4.74 12.48
13 -12 1 -19.01 16.25
14 12 1 -1.2 13.74
14 -12 1 -8.25 17.31
14 -12 1 19.35 17.87
15 13 -1 19.76 13.71
14 -13 -1 4.72 16.76
-13 -13 1 -6.12 23.99
13 13 -1 4.23 13.73
12 13 -1 38.86 17.65
-12 13 1 32.6 15.7
-12 -13 1 -5.69 21.29
12 13 -1 18.84 12.93
11 -13 -1 99.5 15.53
-11 -13 1 108.35 23.3
11 13 -1 66.3 17.61
-11 13 1 91.2 16.05
11 13 -1 93.52 14.48
10 13 -1 61.87 15.59
-10 13 1 28.29 13.09
10 -13 -1 45.6 12.34
10 13 -1 41.27 16.04
-10 -13 1 73.65 19.83
10 13 -1 33.29 11.62
-9 -13 1 -4.57 16.57
9 13 -1 24.18 13.97
9 13 -1 8 12.5
9 13 -1 5.93 10.18
-9 13 1 2.62 11.24
9 -13 -1 1.24 9.97
-8 13 1 62.07 12.48
-8 -13 1 83.18 18.52
8 13 -1 51.43 9.05
8 13 -1 41.88 12.75
8 13 -1 80.77 11.85
8 13 -1 59.3 14.09
8 -13 -1 55.98 10.64
-7 13 1 140.31 14.54
7 -13 -1 144.06 13.25
-7 -13 1 114.1 19.18
7 13 -1 114.74 11.14
7 13 -1 140.87 17.12
-7 13 1 138 9.43
7 13 -1 150.21 15.03
7 13 -1 121.86 13.87
-6 13 1 93.56 8.23
6 -13 -1 95.94 10.92
6 13 -1 76.26 11.77
6 13 -1 107.57 9.94
6 13 -1 111.59 15.53
-6 -13 1 124.24 18.14
6 13 -1 97.33 12.09
-5 -13 1 295.88 24.05
5 13 -1 230.51 16.35
5 13 -1 256.53 21.19
-5 13 1 257.92 14.01
5 -13 -1 218.6 16.17
5 13 -1 251.59 15.21
4 13 -1 369.75 20.22
4 13 -1 381.69 19.74
4 -13 -1 364.48 20.89
-4 13 1 349.23 18.81
3 -13 -1 1.51 6.47
-3 13 1 14.96 5.95
3 -13 -1 6.58 7.35
3 13 -1 5.54 6.42
-2 13 1 1.66 3.16
-2 -13 1 0.59 3.68
-2 -13 1 4.02 2.27
2 -13 -1 -4.14 6.39
2 -13 -1 5.56 7.63
1 -13 -1 16.97 6.19
1 -13 -1 18.05 7.71
-1 -13 1 19.58 6.37
0 13 -1 -4.76 6.7
0 -13 1 3.31 5.89
0 -13 -1 -1.15 5.33
-1 13 -1 103.89 10.25
1 -13 1 112.78 9.89
-1 -13 -1 85.53 8.89
1 13 1 115.59 9.22
1 -13 1 80.26 10.46
-1 13 -1 102.8 7
-1 -13 -1 102.83 8.68
1 -13 1 102.9 5.76
2 -13 1 -4.6 7.81
-2 -13 -1 6.68 4.96
2 -13 1 -5.2 5.8
-2 -13 -1 3.96 5.98
-2 13 -1 5.36 6.83
2 13 1 3.6 5.56
-2 -13 -1 8.79 3.03
2 13 1 19.64 11.14
-3 13 -1 13.17 7.61
3 13 1 5.3 5.13
3 13 1 2.92 10.63
3 -13 1 10.55 8.05
4 13 1 12.08 10.01
4 -13 1 21.83 6.54
-4 -13 -1 4.94 12.59
4 13 1 24.61 5.83
-5 -13 -1 74.31 9.78
5 13 1 74.6 7.54
-5 13 -1 47.19 10.2
5 13 1 82.7 14.21
-5 -13 -1 68.59 15.73
5 -13 1 74.59 9.28
6 -13 1 400.47 22.26
6 13 1 366.22 18.92
6 13 1 332.81 25.56
6 13 1 403.91 22.63
-6 13 -1 390.92 24
-6 -13 -1 327.78 27.72
-7 -13 -1 351.56 28.99
-7 13 -1 369.12 17.38
7 -13 1 360.04 22.5
7 13 1 351.56 26.75
7 13 1 395.85 19.28
7 13 1 385.24 22.31
-7 13 -1 354.62 23.97
-8 13 -1 280.53 21.04
8 13 1 284.96 15.76
8 -13 1 265.6 19.57
8 13 1 276.44 23.69
-8 -13 -1 269.62 26.92
8 13 1 260.78 18.18
9 -13 1 180.43 16.44
-9 -13 -1 156.05 22.87
-9 13 -1 159.35 17.71
9 13 1 159.39 14.33
9 -13 1 149.76 14.49
9 13 1 140.86 11.53
9 13 1 169.3 18.83
9 13 1 166.25 20.68
10 13 1 99.13 13.82
10 13 1 75.85 12.45
10 -13 1 86.57 13.75
-10 13 -1 81.43 15.93
10 13 1 78.42 9.55
-10 -13 -1 118.76 22.86
10 13 1 61.05 16.36
11 13 1 102.93 14.52
11 13 1 86.91 13.48
11 -13 1 115.5 16.27
-11 -13 -1 96.26 24.52
11 13 1 104.6 18.98
11 13 1 92.99 10.75
12 13 1 60.14 13.75
12 -13 1 26.7 14.12
12 13 1 64.84 18.36
-12 -13 -1 54.85 23.88
12 13 1 31.58 12.22
12 -13 1 49.47 15.26
13 -13 1 34.68 17.14
13 13 1 30.01 13.47
-13 -13 -1 49.74 24.72
13 -13 1 19.05 14.84
14 -13 1 19.14 17.61
14 13 1 17.59 13.85
14 -14 -1 3.13 17.48
-13 -14 1 -3.15 24.54
13 14 -1 5.75 13.69
-12 14 1 -1.67 14.58
-12 -14 1 41.04 24.87
12 14 -1 7.15 17.05
12 14 -1 28.9 13.75
-11 -14 1 19.12 21.4
11 -14 -1 -7.4 12.75
-11 14 1 -4.68 13.38
11 14 -1 -9.85 16.1
11 14 -1 -10.56 12.3
10 14 -1 15.39 11.97
-10 -14 1 5.09 19.3
10 -14 -1 22.04 12.4
10 14 -1 26.43 14.6
-10 14 1 10.19 12.74
10 14 -1 10.48 14.7
-9 -14 1 80.84 20.23
9 14 -1 40.85 15.53
9 14 -1 52.86 14.28
-9 14 1 36.77 12.63
9 -14 -1 44.73 11.48
9 14 -1 36.49 8.85
9 14 -1 23.39 11.15
-8 -14 1 82.66 20.03
8 -14 -1 81.83 12.47
-8 14 1 78.97 12.89
8 14 -1 69.88 9.79
8 14 -1 64.12 12.32
8 14 -1 70.65 14.75
8 14 -1 97.78 17.23
-7 14 1 58.76 11.69
-7 14 1 48.78 6.86
7 14 -1 43.32 10.96
-7 -14 1 52.58 17.67
7 14 -1 37.83 11.73
7 14 -1 59.59 9.21
7 14 -1 63.25 14.55
7 -14 -1 36.23 9.59
6 14 -1 343.04 26.65
-6 14 1 417.05 23.98
6 -14 -1 353.82 21.94
6 14 -1 342.5 23.18
6 14 -1 394.12 23.1
-6 -14 1 330.22 28.03
-6 14 1 360.92 18.75
6 14 -1 382.41 20.52
5 -14 -1 533.41 28.35
5 14 -1 519.34 32.85
5 14 -1 515.6 27.63
-5 14 1 529.83 25.5
5 14 -1 548.84 26.68
4 -14 -1 97.11 10.73
-4 14 1 102.92 9.11
4 14 -1 107.71 9.97
4 14 -1 109.85 15.43
-3 -14 1 52.62 5.65
-3 14 1 60.91 7.76
3 -14 -1 45.64 8.81
3 -14 -1 83.34 10.22
-3 -14 1 57.37 4.79
3 14 -1 79.46 8.8
2 -14 -1 226.31 13.65
-2 14 1 156.06 8.38
2 -14 -1 180.48 13.95
-2 -14 1 198.62 9.89
1 -14 -1 86.2 10.35
-1 -14 1 84.37 9.13
1 -14 -1 109.78 9.75
0 14 1 38.03 7.88
0 14 1 43.01 11.9
0 -14 1 17.17 6.94
0 -14 -1 38.86 6.94
1 14 1 115.39 10.01
-1 14 -1 114.76 11.23
-1 14 -1 122.99 7.72
-1 -14 -1 143.26 10.05
1 -14 1 106.68 11.91
1 14 1 107.07 14.17
1 -14 1 145.11 11.21
1 -14 1 127.8 6.73
-1 -14 -1 105.05 10.1
-2 14 -1 6.56 7.36
2 -14 1 26.36 7.17
-2 -14 -1 13.51 5.76
2 14 1 24.2 10.74
2 -14 1 13.79 7.84
-2 -14 -1 8.88 2.86
-2 14 -1 11.7 3.44
2 14 1 13.01 6.09
3 14 1 53.21 7.17
3 -14 1 66.39 10.48
3 -14 1 66.29 8.57
3 14 1 42.18 12.35
-3 14 -1 55.21 9.3
4 -14 1 89.73 10.08
4 14 1 109.1 8.84
4 14 1 90.22 14.48
5 14 1 2 5.67
5 -14 1 16.04 7.43
5 14 1 18.24 12.09
-5 -14 -1 -5.6 14.55
5 14 1 -3.88 8.63
6 14 1 13.76 9.14
-6 14 -1 4.91 10.17
-6 -14 -1 21.72 15.41
6 14 1 10.25 12.59
6 -14 1 7.06 7.28
6 14 1 9.12 6.23
7 -14 1 114.5 12.82
-7 14 -1 108.96 7.86
-7 14 -1 142.29 15.1
7 14 1 101.03 9.44
7 14 1 90.71 16.54
7 14 1 104.17 12.57
-7 -14 -1 150.87 21.15
8 14 1 56.23 10.89
8 14 1 32.3 7.29
8 14 1 27.68 15.06
-8 -14 -1 40.21 17.5
-8 14 -1 45.98 13.09
8 -14 1 46.26 10.93
9 -14 1 44.63 12.14
9 14 1 68.93 11.51
9 14 1 33.08 8.13
9 -14 1 44.04 10.55
-9 -14 -1 16.73 17.49
9 14 1 29.01 15.91
10 14 1 19.86 8.08
10 14 1 19.95 11.82
10 -14 1 8.11 11.7
-10 -14 -1 28.19 20.36
10 14 1 10.78 10.16
11 14 1 -4.53 10.43
-11 -14 -1 38.55 23.18
11 14 1 10.16 8.34
11 14 1 20.69 13.28
11 -14 1 6.89 12.52
12 -14 1 6.41 14.53
12 14 1 4.02 8.74
12 14 1 17.86 12.47
-12 -14 -1 5.92 23.31
12 14 1 12.65 13.31
12 -14 1 19.85 13.96
13 14 1 6.58 14.09
13 -14 1 -5.69 16.06
13 14 1 5.65 9.28
13 -14 1 -13.04 16.31
14 14 1 -1.32 13.89
14 -14 1 4.73 18.05
14 -15 -1 32.56 17.88
13 15 -1 77.03 13.31
13 15 -1 104.1 17.89
-12 15 1 95.61 18.43
12 15 -1 86.58 21.06
-12 -15 1 96.43 27.79
12 15 -1 106.65 13.58
12 -15 -1 120.78 18.52
12 15 -1 125.06 16.83
11 -15 -1 145.04 18.17
-11 15 1 125.36 18.48
11 15 -1 118.5 16.37
11 15 -1 134.6 13.67
-11 -15 1 84.44 24.58
11 15 -1 122.62 19.99
10 -15 -1 226.47 20.31
10 15 -1 261.46 23.12
-10 15 1 233.87 21.97
-10 -15 1 231.72 28.88
10 15 -1 233.95 20.47
10 15 -1 265.52 25.62
10 15 -1 240.04 17.07
-9 -15 1 260.1 27.76
-9 15 1 219.83 20.02
9 15 -1 223.42 19.04
9 15 -1 239.47 20.79
9 -15 -1 240.79 19.48
9 15 -1 238.31 16.37
9 15 -1 217.35 24.3
8 15 -1 302.04 18.44
-8 -15 1 315.1 28.85
8 15 -1 247.6 24.81
8 15 -1 342.36 22.14
-8 15 1 265.12 21.35
8 -15 -1 314.86 21.7
8 15 -1 304.93 22.79
7 15 -1 782.66 38.06
-7 15 1 709.3 38.09
7 -15 -1 677.6 36.99
-7 15 1 743.76 32.93
7 15 -1 629.56 41.3
7 15 -1 732.86 34.72
7 15 -1 719.29 38.24
-7 -15 1 652.84 43.92
-6 15 1 850.35 42.45
-6 15 1 831.86 37.73
6 15 -1 853.72 42.83
6 15 -1 808.03 39.02
-6 -15 1 933.08 49.66
6 15 -1 827.91 46.31
6 -15 -1 821.55 41.17
6 15 -1 831.16 41.04
5 15 -1 268.35 22.69
5 15 -1 280.53 16.6
5 15 -1 259.98 19.94
-5 15 1 245.33 14.95
5 -15 -1 231.73 17.61
4 -15 -1 86.74 10.87
4 15 -1 106.25 15.59
4 15 -1 109.91 10.47
-4 15 1 95.88 9.56
3 15 -1 28.99 7.87
3 -15 -1 22.8 7.89
-3 15 1 40.86 7.77
3 15 -1 1.72 10.67
-3 15 1 26.65 4.45
3 -15 -1 27.58 9.12
-3 -15 1 26.42 4.84
-3 -15 1 23.33 3.54
2 -15 -1 -0.78 7.02
2 -15 -1 13.9 8.64
2 15 -1 -8.47 10.08
2 15 -1 7.93 6.89
1 -15 -1 32.74 7.6
1 -15 -1 35.1 9.11
-1 -15 1 67.24 8.86
1 15 -1 52.42 12.39
0 15 1 112.44 15.85
0 -15 -1 93.16 9.24
0 15 1 100.46 9.75
0 -15 1 96.12 9.93
1 15 1 24.03 11.65
-1 -15 -1 33.87 7.27
1 -15 1 37.43 9.72
1 -15 1 40.35 3.87
1 15 1 32.83 7.53
-1 -15 -1 52.06 7.78
-1 15 -1 25.73 8.42
1 -15 1 33.64 8.28
2 -15 1 139.75 13.76
-2 15 -1 143.87 12.73
-2 -15 -1 152.07 11.17
2 15 1 160.69 17.77
2 -15 1 129.84 7.23
-2 15 -1 143.6 7.47
2 15 1 177.75 11.72
-2 15 -1 138.94 9.21
2 -15 1 166.82 12.69
-3 15 -1 178.86 14.58
3 15 1 177.81 12.12
3 15 1 140.15 17.8
3 -15 1 215.8 16.3
3 -15 1 165.65 13.67
4 15 1 219.81 13.7
-4 -15 -1 233.84 15.58
4 -15 1 199.2 15.19
4 15 1 207.69 20.71
4 15 1 209.3 16.76
5 -15 1 172.6 14.27
5 15 1 193.47 12.03
-5 -15 -1 172.72 21.21
5 15 1 158.51 18.92
5 15 1 151.39 14.62
-6 -15 -1 158.27 22.78
6 15 1 186.76 12.34
6 15 1 183.43 15.71
6 15 1 180.25 19.7
6 -15 1 165.46 14.69
-6 15 -1 208.62 17.76
-7 15 -1 447.63 21.51
7 15 1 461.14 26.45
7 15 1 447.7 31.59
-7 -15 -1 488.37 34.67
7 -15 1 418.63 26.24
7 15 1 484.43 23.11
8 15 1 367.19 19.27
8 15 1 326.15 27.3
8 -15 1 355.1 23.39
8 15 1 363.78 22.65
-8 -15 -1 312.3 30.41
-9 -15 -1 220.63 26.9
9 15 1 220.53 14.37
9 -15 1 221 18.62
9 -15 1 259.94 17.68
9 15 1 197.46 17.61
9 15 1 223.15 24.76
10 15 1 185.23 18.67
10 15 1 194.48 14.06
10 -15 1 217 18.37
-10 -15 -1 233.19 29.21
10 15 1 194.44 17.3
11 15 1 127.85 11.75
11 -15 1 104.86 15.81
-11 -15 -1 110.78 26.59
11 15 1 109.3 14.94
11 15 1 150.91 17.3
12 -15 1 108.46 17.54
12 15 1 89.86 15.35
-12 -15 -1 130.85 28.61
12 15 1 127.82 12.44
12 15 1 151.36 18.1
12 -15 1 142.79 19.73
13 -15 1 94.26 18.96
13 15 1 46.96 15.47
14 -15 1 18.66 18.56
14 -16 -1 1.54 17.6
13 16 -1 -2.82 11.69
13 16 -1 -19.52 14.99
12 16 -1 -12.77 18.21
12 -16 -1 31.79 15.89
-12 -16 1 6.19 24.16
12 16 -1 -8.67 13.76
12 16 -1 -15.28 11.03
11 16 -1 25.22 18.06
11 16 -1 -1.67 17.22
-11 -16 1 31.96 22.57
11 16 -1 7.77 9.96
-11 16 1 11.61 14.65
11 16 -1 14.06 12.64
11 -16 -1 15.68 13.81
-10 16 1 36.05 13.82
10 16 -1 14.98 9.59
10 -16 -1 21.99 13.39
-10 -16 1 2.73 20.64
10 16 -1 37.2 18.29
10 16 -1 3.06 14.82
10 16 -1 32.9 12.89
-9 -16 1 56.71 21.32
9 16 -1 67.19 13.67
9 16 -1 46.82 10.14
9 16 -1 61.05 15.37
-9 16 1 60.89 15.43
9 16 -1 74.35 18.39
9 -16 -1 79.26 13.56
8 16 -1 68.18 13.55
-8 -16 1 68.33 20.42
8 16 -1 76.62 10.42
8 16 -1 61.2 14.42
-8 16 1 63.18 13.65
8 16 -1 78.06 16.99
8 -16 -1 85.27 13.17
-7 16 1 156.06 11.48
-7 16 1 163.91 17.23
7 16 -1 166.18 16.71
7 16 -1 178.2 20.6
7 16 -1 161.48 13
7 16 -1 161.28 16.03
-7 -16 1 171.23 22.42
7 -16 -1 133.7 14.79
6 16 -1 175.14 17.32
6 16 -1 172.8 13.81
-6 16 1 164.78 12.2
6 -16 -1 192.81 15.97
6 16 -1 188.81 21.51
-5 16 1 264 15.81
5 -16 -1 242.57 18.23
5 16 -1 269.62 17.26
5 16 -1 313.48 24.54
5 16 -1 243.06 19.63
4 -16 -1 286.01 19.14
4 16 -1 285.23 24.32
-4 -16 1 291 14.29
-4 16 1 288.69 17.51
4 16 -1 316.34 18.07
-3 16 1 675.56 31.42
-3 -16 1 686.43 26.84
3 16 -1 594.08 37.38
3 16 -1 621.64 31.27
-3 16 1 576.22 27.46
-3 -16 1 628.47 28.21
3 -16 -1 622.56 33.18
3 -16 -1 589.17 31.88
2 -16 -1 645.27 32.56
2 -16 -1 582.34 30.51
2 16 -1 579.27 36.95
2 16 -1 624.52 30.49
1 -16 -1 416.71 24.24
1 -16 -1 392.42 22.2
1 16 -1 422.11 28.76
-1 -16 1 394.23 22.32
0 -16 1 614.14 30.9
0 -16 -1 605.75 29.46
0 16 1 603.58 30.69
0 -16 -1 638.91 30.37
1 16 1 887.73 49.41
1 -16 1 911.97 45.43
-1 -16 -1 954.76 42.67
1 -16 1 904.15 43.64
1 16 1 962.84 42.96
2 -16 1 843.7 39.83
2 -16 1 780.78 34.11
2 -16 1 861.89 41.52
2 16 1 856.56 38.26
-2 16 -1 824.3 35.84
2 16 1 779.32 45.16
-2 -16 -1 917.07 38.39
-2 16 -1 842.92 40.15
3 16 1 247.12 22.24
-3 16 -1 242.86 17.38
3 16 1 236.54 14.53
-3 -16 -1 216.53 11.21
3 -16 1 247.21 16.73
3 -16 1 247.3 18.08
4 -16 1 166.67 14.56
4 16 1 188.24 15.99
-4 -16 -1 202.92 14.54
4 16 1 180.19 20.01
4 16 1 186.59 12.69
5 16 1 281.78 15.9
5 16 1 236.72 18.86
5 16 1 279.27 24.37
5 -16 1 269.05 18.34
6 16 1 252.14 14.59
6 16 1 236.56 17.82
6 16 1 203.77 21.7
6 -16 1 205.78 17.06
-6 -16 -1 218.66 25.16
7 16 1 80.11 17.54
7 16 1 43.46 10.88
7 -16 1 47.87 11.17
7 16 1 74.69 8.7
-7 16 -1 55.89 7.03
-7 -16 -1 71.4 19.23
8 16 1 9.43 7.71
8 -16 1 12.9 8.72
8 16 1 40.62 17.5
8 -16 1 4.97 10.23
8 16 1 13.36 9.56
-8 -16 -1 26.77 18.91
9 16 1 -2.27 10.86
9 16 1 7.23 7.47
9 16 1 14.61 17.22
9 -16 1 8.43 9.83
-9 -16 -1 2.58 18.59
9 -16 1 7.95 11.33
10 16 1 3.49 10.92
10 -16 1 2.92 11.39
10 16 1 16.86 12.98
10 -16 1 -11.33 12.99
10 16 1 5.6 8.17
-10 -16 -1 -24.65 23.23
10 16 1 26.32 18.89
11 16 1 20.31 12
11 16 1 10.93 8.65
-11 -16 -1 8.77 22.7
11 16 1 18.8 13.78
11 -16 1 3.31 13.3
12 -16 1 4.96 15.21
-12 -16 -1 3.12 24.92
12 16 1 11.2 13.26
12 16 1 8.63 8.76
12 16 1 -6.97 14.51
13 -16 1 -5.53 16.1
13 17 -1 -22.09 12.47
12 17 -1 4.61 11.31
12 17 -1 -7.42 14.18
-12 -17 1 -3.19 24.89
12 -17 -1 1.71 15.25
11 17 -1 -3.39 17.49
11 17 -1 -6.22 10.93
11 17 -1 -18.94 14.9
-11 17 1 18.91 15.39
11 -17 -1 22.55 14.52
-11 -17 1 45.03 25.16
-10 -17 1 22.64 23.35
10 17 -1 1.42 13.03
10 17 -1 -1.55 16.5
10 -17 -1 18.11 13.47
10 17 -1 -2.27 17.82
10 17 -1 0.86 9.69
-10 17 1 -8.16 14.11
-9 -17 1 2.68 19.64
-9 17 1 13.92 13.95
9 17 -1 1.66 9.48
9 17 -1 4.21 14.33
9 -17 -1 2.82 11.77
9 17 -1 15.38 12.74
9 17 -1 4.44 16.53
8 17 -1 27.62 9.41
8 17 -1 12.88 16.07
8 17 -1 12.58 12.32
-8 -17 1 12.72 19.78
-8 17 1 23.39 12.93
8 -17 -1 15.8 11.78
7 17 -1 33.74 15.86
-7 17 1 9.59 7.04
7 -17 -1 22.11 10.72
7 17 -1 15.34 11.76
7 17 -1 23.2 9.05
-6 17 1 72.23 9.08
6 -17 -1 72.32 12.67
6 17 -1 69.89 10.53
6 17 -1 72.45 17.16
6 17 -1 48.48 13.16
-5 17 1 10.46 7.3
5 17 -1 -14.01 11.32
5 17 -1 13.52 8.6
5 17 -1 6.09 13.43
5 -17 -1 9.64 9.53
-4 17 1 45.11 8.93
4 17 -1 38.92 9.22
4 17 -1 19.89 13.94
4 -17 -1 21 9.61
-4 -17 1 33.7 6.02
-4 -17 1 28.32 4.43
4 17 -1 43.38 12.6
3 -17 -1 29.29 9.92
-3 17 1 26.82 8.5
-3 17 1 18.33 3.68
3 17 -1 7.8 12.24
3 17 -1 15.29 8.51
3 -17 -1 45.99 9.91
-3 17 1 18.08 4.03
2 17 -1 32.77 14.05
2 -17 -1 -6.19 8.92
2 -17 -1 1.07 9.22
2 17 -1 9.97 8.22
1 -17 -1 5.33 9.48
-1 -17 1 8.61 7.82
1 17 -1 17.41 12.95
1 17 -1 -18.14 9.11
1 -17 -1 5 7.69
0 -17 -1 -1.89 6.51
0 17 1 13.86 8.14
0 -17 1 6.18 8.23
0 -17 -1 -2.33 7.44
1 -17 1 18.18 8.72
1 -17 1 3.54 9.71
1 17 1 10.7 7.93
-1 -17 -1 10.41 7.6
-2 -17 -1 24.26 7.86
2 -17 1 15.43 2.64
2 -17 1 14.26 10.18
2 -17 1 4.76 8
-2 17 -1 11.42 4.9
2 17 1 30.19 8.34
3 -17 1 4.87 9.64
3 17 1 21.84 7.69
3 -17 1 15.04 8.36
-3 17 -1 20.17 4.39
-3 -17 -1 11.64 3.12
3 17 1 13.23 14.35
-3 17 -1 13.56 9.58
4 17 1 9.79 7.43
4 17 1 6.04 9.84
4 17 1 3.86 14.78
4 -17 1 -2.09 8.97
-4 -17 -1 -4.6 7.88
5 17 1 5.91 13.6
5 -17 1 5.47 8.51
5 17 1 16.31 7.27
5 17 1 5.93 9.83
6 17 1 -12.02 15.7
6 17 1 1.23 7.31
6 -17 1 4.6 9.34
6 17 1 9.38 10.25
7 17 1 -4.1 15.53
7 17 1 1.83 7.41
7 17 1 -7.09 10.51
7 -17 1 -2.43 9.69
-8 -17 -1 35.5 18.99
8 17 1 42.45 18.24
8 -17 1 21.48 8.99
8 17 1 16.4 10.29
8 17 1 33.19 8.34
8 -17 1 25.75 11.9
9 -17 1 105.49 15.23
9 17 1 73.4 10.1
-9 -17 -1 32.14 21.54
9 17 1 77.8 13.53
9 -17 1 52.43 11.77
9 17 1 54.29 19.18
10 -17 1 21.8 11.84
10 17 1 31.71 18.55
10 17 1 8.17 13.19
10 17 1 24.18 11.95
-10 -17 -1 11.34 22.64
10 -17 1 26.24 13.35
10 17 1 14.64 8.66
-11 -17 -1 -3.01 23.62
11 17 1 -0.65 9.06
11 17 1 -9.88 12.57
11 17 1 -5.64 14.18
11 -17 1 5.38 12.74
12 17 1 -5.12 12.83
12 -17 1 -4.86 14.9
13 17 1 -9.28 14.23
12 18 -1 -3.05 14.8
12 18 -1 12.21 11.53
-11 18 1 8.9 16.32
-11 -18 1 6.19 24.04
11 18 -1 7.26 11.5
11 -18 -1 -9.92 15.06
11 18 -1 -18.06 15.18
-10 -18 1 8.8 23.1
10 -18 -1 7.76 13.26
10 18 -1 -11.79 18.9
10 18 -1 7.32 13.48
-10 18 1 -15.22 15.71
10 18 -1 7.94 10.3
-9 18 1 25.64 15.08
9 18 -1 8.64 9.43
9 -18 -1 -14.54 12.89
9 18 -1 14.56 13.79
9 18 -1 25.45 18.38
-9 -18 1 30.62 22.97
8 18 -1 11.71 13.21
8 -18 -1 20.43 12.12
8 18 -1 8.49 9.51
8 18 -1 -2.25 16.96
7 -18 -1 61.16 13.22
7 18 -1 75.77 10.96
7 18 -1 58.48 14.03
7 18 -1 79.56 19.51
6 -18 -1 283.47 20.17
-6 18 1 257.59 16.51
6 18 -1 268.79 18.11
6 18 -1 261.18 25.76
6 18 -1 252.44 21.75
5 -18 -1 331.25 22.03
5 18 -1 347.87 20.51
-5 18 1 335.09 19.68
5 18 -1 322.86 24.22
-5 -18 1 326.22 16.45
5 18 -1 324.88 28.37
4 18 -1 343.67 20.95
-4 -18 1 333.12 17.53
-4 18 1 384.31 21.12
4 -18 -1 382.19 22.85
4 18 -1 384.75 29.19
-4 18 1 351.4 17.14
4 18 -1 378.65 25.58
3 18 -1 372.26 21.27
3 -18 -1 320.75 21.57
-3 18 1 361.88 20.95
3 18 -1 359.28 29.05
3 -18 -1 342.5 22.85
2 18 -1 262.71 23.73
2 -18 -1 218.05 17.74
2 18 -1 209.63 16.03
2 -18 -1 204.9 15.88
1 -18 -1 408.62 25.91
1 18 -1 467.16 24.9
-1 -18 1 421.63 24.32
1 18 -1 426.1 31.76
1 -18 -1 414.7 23.9
0 18 -1 587.36 32.44
0 -18 1 606.63 34.3
0 18 1 622.13 32.1
0 -18 -1 678.3 31.98
0 -18 1 624.65 32.39
0 18 -1 695.75 40.35
-1 -18 -1 263.99 17.56
1 -18 1 324.68 19.44
1 18 1 267.28 17.72
1 -18 1 265.66 20.37
2 -18 1 205.12 18.34
2 -18 1 221.31 16.63
2 18 1 208.33 15.17
-2 -18 -1 233.89 15.3
3 18 1 174.31 13.39
-3 -18 -1 143.2 13.26
-3 18 -1 176.1 11
3 -18 1 163.32 16.33
-3 18 -1 168.75 8.64
3 -18 1 185.72 15.31
-3 18 -1 140.92 15.24
-4 -18 -1 43.7 5.49
4 -18 1 52.83 10.91
4 18 1 53.9 9.39
-4 -18 -1 59.05 10.19
4 18 1 43.62 11.89
5 -18 1 29.85 10.32
5 18 1 13.49 7.75
5 18 1 26.58 11.41
6 18 1 66.08 9.26
6 18 1 25.32 17.27
6 -18 1 48.12 11.37
6 18 1 62.04 12.69
7 18 1 98.96 10.85
7 18 1 96.35 21.29
7 -18 1 102.84 9.89
-7 -18 -1 112.82 22.7
7 18 1 82.01 13.29
7 -18 1 75.87 13.48
8 18 1 53.84 9.28
8 18 1 46.4 18.8
8 18 1 66.49 12.95
8 -18 1 58.39 9.89
8 -18 1 48.08 12.99
-8 -18 -1 44.95 21.39
9 18 1 1.23 11.42
9 -18 1 7.1 9.88
9 18 1 29.43 19.35
9 -18 1 5.66 12.23
-9 -18 -1 8.35 21.6
9 18 1 -3.22 7.99
10 18 1 5.7 13.29
-10 18 -1 -10.91 16.79
-10 -18 -1 26.41 22.79
10 18 1 4.56 8.57
10 -18 1 9.15 11.2
10 18 1 1.26 11.96
10 -18 1 4.51 13.31
11 -18 1 -12.55 13.56
11 18 1 14.01 13.1
-11 -18 -1 -21.75 26.15
11 18 1 0.66 9.01
12 -18 1 -5.92 14.62
12 18 1 2.62 13.7
13 18 1 32.41 15.39
12 19 -1 81.42 14.46
11 -19 -1 93.43 18.89
-11 -19 1 105.62 30.07
11 19 -1 104.07 18.55
11 19 -1 127.07 15.24
10 19 -1 128.02 14.74
-10 -19 1 118.16 28.24
10 19 -1 156.14 19.5
10 -19 -1 199.59 20.24
-10 19 1 148.23 21.29
9 -19 -1 169.37 18.6
9 19 -1 160.95 14.93
9 19 -1 151.46 24.76
9 19 -1 122.99 18.26
8 19 -1 67.98 20.43
8 19 -1 74.83 11.72
8 19 -1 106.87 16.72
8 -19 -1 68.93 14.69
7 19 -1 105.76 12.57
7 -19 -1 49.99 13.45
7 19 -1 48.58 19.23
7 19 -1 67.18 15.18
6 19 -1 43.48 18.04
6 19 -1 17.59 9.91
6 -19 -1 23.46 10.91
-6 19 1 29.96 9.01
6 19 -1 21.28 13.03
-5 19 1 80.54 11.03
5 -19 -1 56.87 12.41
5 19 -1 80.27 11.44
5 19 -1 74.33 19.33
5 19 -1 71.35 14.89
4 19 -1 145.46 13.64
-4 19 1 175.56 14.03
4 -19 -1 150.35 14.67
-4 19 1 140.61 9.01
4 19 -1 144.11 21.12
4 19 -1 165.51 17.96
-4 -19 1 144.44 9.59
3 -19 -1 14.68 11.67
3 19 -1 34.96 16.04
-3 19 1 32.4 9.48
3 -19 -1 23.95 10.51
3 19 -1 29.26 9.77
2 -19 -1 2.99 9.2
-2 19 1 17.77 9.08
2 19 -1 4.35 14.13
2 -19 -1 30.15 11.14
2 19 -1 10.38 9.72
1 19 -1 5.85 9.24
-1 -19 1 6.79 8.9
1 -19 -1 1.25 7.1
1 19 -1 24.05 16.51
1 -19 -1 5.6 8.73
1 -19 -1 -4.84 11.06
0 19 1 4.62 9.84
0 -19 1 1 8.97
0 -19 -1 20.31 9.25
0 -19 1 10.54 10.38
0 -19 -1 10.83 11.08
0 19 -1 -2.03 9.88
0 19 -1 -11.06 14.91
1 19 1 -0.87 8.64
1 -19 1 9.28 10.43
-1 -19 -1 -10.21 8.81
1 -19 1 7.15 9.5
2 19 1 1.64 8.18
-2 -19 -1 7.32 8.66
2 -19 1 13.82 10.19
2 -19 1 6.65 10.66
-3 19 -1 148.44 10.1
-3 -19 -1 153.81 13.25
3 19 1 147.36 13.16
3 -19 1 154.15 15.14
3 -19 1 128.79 15.71
4 19 1 343.31 24.07
4 -19 1 325.63 22.25
4 19 1 347.85 20.1
5 -19 1 210.37 18.01
5 19 1 243.2 15.8
5 19 1 229.28 20.02
6 -19 1 110.71 8.98
6 19 1 119.85 11.73
6 19 1 126.83 15.73
6 -19 1 110.58 14.28
7 -19 1 119.86 15.57
7 19 1 116.32 15.37
7 -19 1 91.96 9.47
7 19 1 101.15 10.91
8 19 1 100.33 11.5
-8 -19 -1 106.74 25.03
8 -19 1 133.03 16.5
8 19 1 103.55 15.04
8 -19 1 129.55 11.74
9 19 1 99.09 11.31
9 -19 1 99.64 12.42
-9 -19 -1 129.73 26.75
9 -19 1 114.21 16.63
9 19 1 90.08 15.71
-10 -19 -1 75.94 26.44
10 -19 1 82.29 13.39
10 19 1 95.31 15.9
10 19 1 116.07 11.79
10 -19 1 86.79 16.96
11 19 1 101.36 16.29
11 -19 1 57.54 14.2
12 19 1 30.91 15.21
11 20 -1 -7.7 12.01
11 20 -1 -4.81 15.12
10 -20 -1 -4.91 14
10 20 -1 -0.95 11.32
10 20 -1 7.87 15.92
9 20 -1 -14.21 14.81
9 -20 -1 16.95 14.13
9 20 -1 4.69 10.59
8 20 -1 38.25 10.82
8 20 -1 41.52 15.93
8 20 -1 34.24 19.31
8 -20 -1 41.95 13.99
7 20 -1 -1.59 13.21
7 20 -1 4.84 17.99
7 20 -1 13.86 9.84
7 -20 -1 1.36 12.27
6 20 -1 17.49 12.83
6 20 -1 21.26 10.56
6 20 -1 43.1 19.7
6 -20 -1 24.3 12.48
5 -20 -1 145.11 15.58
5 20 -1 114.38 13.46
5 20 -1 134.69 18.29
-5 20 1 124.22 9.34
5 20 -1 118.2 20.72
-5 20 1 108.72 12.33
4 20 -1 90.95 16.77
-4 20 1 76.73 5.64
-4 20 1 110.7 12.69
4 20 -1 69.95 11.73
4 20 -1 119.15 21.31
4 -20 -1 89.61 13.34
3 20 -1 50.74 18.58
-3 20 1 109.14 12.64
3 -20 -1 90.61 14.37
3 -20 -1 91.86 12.74
3 20 -1 81.72 12.48
2 20 -1 110.63 20.36
2 -20 -1 103.24 13.31
-2 20 1 96 12.32
2 20 -1 104.05 13.03
2 -20 -1 68.98 13.98
1 20 -1 315.25 29.32
1 -20 -1 318.99 23.3
-1 -20 1 305.71 21.2
1 20 -1 370.03 22.5
1 -20 -1 344.04 21.24
0 -20 -1 461.35 29.55
0 20 -1 476.12 28.03
0 20 -1 559.71 37.55
0 -20 -1 490.86 27.01
0 -20 1 475.49 27.97
0 20 1 497.64 27.66
0 -20 1 507.06 30.34
1 -20 1 153.53 17.11
1 20 1 143.29 13.84
-1 -20 -1 154.68 13.89
-1 20 -1 153.15 15.74
1 -20 1 123.35 14.61
2 -20 1 60.47 12.16
2 20 1 66.63 10.95
-2 -20 -1 48.29 9.95
2 -20 1 64.5 13.92
3 -20 1 37.21 11.01
3 20 1 38.96 9.53
-3 -20 -1 38.13 9.66
3 -20 1 14.27 12.44
-3 20 -1 26.46 6.23
4 -20 1 75.19 13.4
-4 20 -1 54.54 8.25
4 20 1 85.12 11.06
4 20 1 81.66 13.99
-4 20 -1 63.54 5.98
5 20 1 61.16 10.11
5 20 1 56.44 13.87
5 -20 1 35.95 4.65
5 -20 1 53.03 12.47
6 -20 1 7.77 5.82
6 20 1 8.87 8.94
6 20 1 -2.76 12.77
6 -20 1 -3.93 11.12
7 20 1 -1.37 11.76
7 -20 1 2.7 6.92
7 -20 1 -9.6 11.36
7 20 1 0.72 9
8 20 1 4.91 8.63
8 20 1 4.07 12.97
8 -20 1 -2.88 11.74
8 -20 1 10.34 8.15
9 20 1 4.02 12.22
-9 -20 -1 2.97 22.77
9 -20 1 1.52 12.76
9 20 1 8.93 8.74
9 -20 1 -2.8 9.57
10 20 1 10.82 13.46
10 -20 1 -3.2 14.42
10 20 1 -12.88 9.43
10 -20 1 22.42 11.02
-10 -20 -1 -25.05 25.73
11 20 1 6.8 13.84
12 20 1 9.64 14.28
11 21 -1 -3.98 12.36
10 21 -1 24.44 15.66
10 21 -1 54.37 13.16
9 -21 -1 42.71 14.91
9 21 -1 34.08 12.01
9 21 -1 32.81 15.88
8 21 -1 24.9 15.23
8 -21 -1 1.49 12.54
8 21 -1 8.71 10.9
7 -21 -1 1.4 12.19
7 21 -1 21.59 14.63
7 21 -1 28.03 11.11
7 21 -1 -5.05 20.06
6 21 -1 26.19 10.68
6 21 -1 55.25 20.52
6 21 -1 21.64 14.72
6 -21 -1 38.49 12.84
-6 21 1 44.71 8.22
5 21 -1 79.75 16.43
5 21 -1 45.13 11.9
-5 21 1 44.67 6.59
5 -21 -1 45.41 13.61
-5 21 1 50.79 11.07
5 21 -1 44.65 20.05
4 -21 -1 -1.2 10.8
4 21 -1 6.81 14.65
4 21 -1 -9.84 18.48
-4 21 1 -0.98 9.85
4 21 -1 2.01 10.09
3 -21 -1 20.49 12.7
3 -21 -1 -1.15 10.54
3 21 -1 12.35 11.13
-3 21 1 13.2 10.52
3 21 -1 2.43 17.35
2 21 -1 51.09 20
2 21 -1 9.51 10.72
2 -21 -1 17.54 11.85
-2 21 1 6.28 9.93
2 -21 -1 27.32 10.71
1 21 -1 -7.35 18.14
1 21 -1 5.45 10.92
1 -21 -1 8.12 12.53
-1 -21 1 1.08 9.83
1 -21 -1 14.57 10.27
0 -21 -1 31.86 10.84
0 -21 -1 6.8 12.35
0 -21 1 45.7 13.83
0 21 -1 14.93 18.26
0 21 -1 36.04 11.96
0 -21 1 24.5 11.02
1 -21 1 36.74 13.98
-1 21 -1 44.74 12.25
1 -21 1 43.56 11.75
1 21 1 29.35 10.88
-1 -21 -1 57.51 11.27
-2 21 -1 58.94 14.29
-2 -21 -1 75.62 10.93
2 -21 1 72.94 13.46
2 -21 1 70.74 15.3
2 21 1 72.32 11.91
3 -21 1 66.07 15.46
3 21 1 110.05 12.93
3 -21 1 116.96 14.76
-3 -21 -1 121.81 12.8
4 21 1 46.84 14.03
4 21 1 58.07 11.31
4 -21 1 46.87 12.72
-4 21 -1 43.54 7.86
5 21 1 49.34 10.73
5 -21 1 50.22 13.36
5 21 1 61.07 15.01
6 21 1 113.17 12.27
6 21 1 105.51 16.42
6 -21 1 89.82 7.04
6 -21 1 116.36 16.16
7 -21 1 62.78 14.38
7 21 1 62.03 11.12
7 -21 1 57.78 7.72
7 21 1 83.31 15.97
8 -21 1 2.55 7.86
8 21 1 28.33 13.67
8 -21 1 11.95 13.06
8 21 1 19.86 9.83
9 21 1 20.75 9.44
9 -21 1 5.13 8.94
9 -21 1 10.99 14.5
9 21 1 -2.8 13.09
10 21 1 33.58 15
11 21 1 40.79 16.09
10 22 -1 -1.01 12.2
9 -22 -1 22.77 15.47
9 22 -1 3.41 15.91
9 22 -1 36.29 12.72
8 22 -1 13.09 12.04
8 -22 -1 30.72 14.2
8 22 -1 25.83 15.87
7 22 -1 100.98 14.11
7 -22 -1 84.24 16.27
7 22 -1 96.83 18.78
7 22 -1 110.75 24.57
6 22 -1 197.6 21.52
6 22 -1 152.3 26.39
-6 22 1 171.22 11.64
6 22 -1 181.43 16.76
6 -22 -1 151.76 17.84
5 -22 -1 182.54 17.5
5 22 -1 256.9 23.18
5 22 -1 228.82 27.43
5 22 -1 201.15 16.25
4 -22 -1 205.82 18
4 22 -1 165.77 20.76
4 22 -1 188.66 16.74
-4 22 1 147.98 15.82
4 22 -1 167.87 26.23
3 -22 -1 205.49 19.9
3 22 -1 133.19 24.67
-3 22 1 182.64 16.51
3 -22 -1 204.4 17.87
3 22 -1 187.65 17.06
2 -22 -1 257.52 22.69
2 -22 -1 285.01 21.19
-2 22 1 327.03 21.4
2 22 -1 310.97 31.26
2 22 -1 313.35 21.7
1 -22 -1 426.2 29.1
1 22 -1 455.9 27.27
1 22 -1 455.22 37.27
1 -22 -1 455.1 26.65
-1 -22 1 424.04 26.7
-1 22 1 437.28 26.66
0 -22 1 470.45 32.01
0 -22 1 512.9 29.86
0 -22 -1 515.72 32.06
0 22 -1 564.03 41.22
0 -22 -1 542.94 29.44
0 22 -1 520.74 30.38
1 -22 1 579.11 32.66
1 22 1 590.07 31.95
-1 22 -1 620.18 33.75
1 -22 1 526.4 35.05
-1 22 -1 578.47 43.17
-1 -22 -1 611.3 31.81
-2 -22 -1 544.02 28.4
2 22 1 557.9 29.59
2 -22 1 537.17 31.07
-2 22 -1 532.19 31.81
2 -22 1 481.69 33.39
3 -22 1 343.3 26.93
3 -22 1 347.29 24.41
3 22 1 394.54 23.12
4 22 1 296.2 19.34
-4 22 -1 273.86 15.19
4 22 1 224.04 22.77
4 -22 1 292.07 22.55
5 -22 1 228.07 20.13
-5 22 -1 230.36 14.19
-5 22 -1 201.49 11.56
5 22 1 233.2 22.14
5 22 1 225.64 16.8
6 22 1 159.24 19.47
6 -22 1 163.59 18.48
6 22 1 160.15 14.7
7 -22 1 28.91 6
7 22 1 49.59 15.49
7 -22 1 26.69 13.34
7 22 1 23.79 10.27
8 -22 1 12.4 14.03
8 -22 1 6.69 7.05
8 22 1 5.37 9.62
8 22 1 23.67 15.13
9 22 1 -4.46 9.74
9 22 1 16.01 14.64
10 22 1 -1.45 14.83
11 22 1 2.91 15.22
9 23 -1 19.86 13.26
8 -23 -1 11.1 15.13
8 23 -1 8.94 16.04
8 23 -1 35.61 12.69
7 -23 -1 93.28 16.49
7 23 -1 91.87 14.15
7 23 -1 95.24 18.91
-7 23 1 83.73 10.27
6 -23 -1 62.98 15.06
6 23 -1 48.75 16.95
-6 23 1 37.92 5.86
6 23 -1 55.72 13.35
-6 23 1 27.05 6.81
5 23 -1 20.34 15.95
5 -23 -1 23.22 12.64
5 23 -1 29.51 12.68
5 23 -1 10.9 20.08
4 23 -1 18.62 16.25
4 -23 -1 25.04 13.42
-4 23 1 19.68 11.36
4 23 -1 78.63 23.46
4 23 -1 34.56 12.55
-3 23 1 26.1 11.78
3 23 -1 37.75 21.26
3 -23 -1 22.56 7.85
3 -23 -1 25.64 13.74
3 -23 -1 40.12 13.14
3 23 -1 27.39 12.44
-2 23 1 16.32 11.26
2 -23 -1 1.2 11.27
2 23 -1 39.83 13.35
2 -23 -1 22.45 14.49
-2 23 1 18.96 21.05
2 23 -1 2.71 20.93
1 -23 -1 19.5 11.42
1 23 -1 13.62 20.86
-1 23 1 -10.66 20.99
1 -23 -1 1.5 13.88
-1 -23 1 9.78 14.65
-1 -23 1 17.85 11.92
-1 23 1 7.17 11.45
1 23 -1 7.22 11.89
0 -23 1 -8.63 11.38
0 23 -1 -1.25 12.24
0 23 1 -1.23 11.29
0 -23 -1 6.67 11.43
0 -23 -1 -3.03 13.31
0 -23 1 9.79 14.1
0 23 1 -5.25 21.03
0 23 -1 52.44 23.41
-1 23 -1 70.03 23.39
1 -23 1 55.86 13.04
-1 -23 -1 38.3 11.65
-1 -23 -1 43.83 14.8
1 -23 1 123.17 18.79
-1 23 -1 24.65 13.8
2 -23 1 29.87 12.55
2 23 1 29.93 11.69
-2 -23 -1 25.58 9.44
2 -23 1 63.37 15.72
-2 23 -1 26.93 13.46
3 -23 1 18.13 14.21
3 23 1 14.73 11.24
3 -23 1 20.05 12.67
4 -23 1 78.59 15.16
4 23 1 83.5 17.31
4 23 1 86.04 12.73
5 23 1 124.21 18.82
5 -23 1 144.15 17.49
-5 23 -1 94.64 10.44
5 23 1 136.79 14
6 23 1 58.68 16.44
6 23 1 66.42 12.21
-6 23 -1 63.46 8.06
6 -23 1 43.03 14.47
7 23 1 25.15 16.23
7 23 1 20.72 10.38
7 -23 1 29.43 13.96
8 23 1 49.44 16.43
8 23 1 54.27 11.6
9 23 1 74.12 16.99
10 23 1 23.93 15.48
9 24 -1 -6.5 12.79
8 24 -1 14.19 12.88
7 24 -1 31.01 13.52
7 24 -1 24.25 17.01
7 -24 -1 -7.78 14.57
6 24 -1 -9.39 17.45
6 -24 -1 -10.39 14.61
-6 24 1 4.9 5.08
6 24 -1 -1.13 12.52
5 24 -1 1.15 12.81
5 24 -1 3.86 16.8
5 -24 -1 4.28 13.59
4 -24 -1 38.17 13.87
4 24 -1 27.23 16.91
4 24 -1 7.02 12.47
4 24 -1 68.14 23.64
3 -24 -1 41.08 15.46
-3 24 1 64.81 13.98
3 -24 -1 37.79 13.49
3 24 -1 62.29 23.97
3 -24 -1 28.29 8.44
3 24 -1 45.51 13.4
-2 24 1 25.71 23.52
-2 24 1 65.03 14.25
2 -24 -1 23.6 14.97
2 24 -1 36.93 22.51
2 -24 -1 36.34 13.27
2 24 -1 30.63 12.95
1 24 -1 57.25 24.14
-1 24 1 27.61 12.72
-1 24 1 67.31 24.91
1 -24 -1 36.1 14.67
-1 -24 1 34.27 15.58
1 24 -1 35.41 14.07
1 -24 -1 44.6 12.84
0 -24 1 70.01 16.53
0 24 1 64.3 13.7
0 -24 1 55.51 13.95
0 -24 -1 57.19 13.23
0 -24 -1 44.44 15.21
0 24 -1 66.91 14.43
0 24 1 35.91 22.72
0 24 -1 58.01 23.16
1 24 1 27.74 12.64
1 -24 1 18.63 13
1 -24 1 1.69 14.66
-1 -24 -1 18.98 11.76
1 24 1 19.16 21.94
-1 -24 -1 41.4 15.82
-1 24 -1 1.36 12.91
-1 24 -1 35.43 24.76
2 -24 1 1.7 14.51
2 24 1 14.08 11.44
2 24 1 32.73 23.23
2 -24 1 25.93 14.01
3 -24 1 46.47 15.86
3 -24 1 15.33 13.9
3 24 1 41.05 23.5
3 24 1 9.28 11.28
4 24 1 29.54 12.03
4 -24 1 12.94 13.11
4 24 1 -1.75 14.75
5 24 1 5.64 11.37
-5 24 -1 -6.41 7
5 24 1 -10.28 15.29
6 -24 1 3.08 13.78
-6 24 -1 1.06 4.56
6 24 1 13.47 11.17
6 24 1 28.19 16.78
7 24 1 -8.19 16.03
7 -24 1 20.85 15
7 24 1 11.22 11.01
8 24 1 1.61 15.89
9 24 1 -20.42 16.75
8 25 -1 69.58 15.71
7 25 -1 50.96 14.79
6 25 -1 67.08 15.37
6 -25 -1 50.91 16.16
5 25 -1 32.37 13.79
5 25 -1 34.04 18.49
5 -25 -1 51.74 15.71
4 25 -1 12.18 18.27
4 -25 -1 26.69 8.22
4 25 -1 9.8 13.54
4 -25 -1 35.33 14.37
3 25 -1 15.08 13.34
3 -25 -1 26.43 15.76
3 -25 -1 16.72 8.15
-3 25 1 22.73 13.51
3 -25 -1 29.86 13.98
2 -25 -1 14.84 15.17
2 25 -1 -5.14 13.94
2 -25 -1 15.66 13.31
-2 25 1 2.58 12.81
-2 25 1 39.01 25.16
2 25 -1 -8.95 23.79
-1 -25 1 3.6 14.77
-1 25 1 32.37 24.08
-1 25 1 10.56 13.5
1 25 -1 3 23.34
1 -25 -1 4.94 14.33
1 25 -1 2.66 13.81
1 -25 -1 19.02 13.15
0 25 1 -17.39 23.52
0 25 -1 26.05 14.17
0 -25 1 -8.92 15.3
0 25 -1 3.04 23.2
0 -25 1 4.05 13.36
0 -25 -1 14.65 12.35
0 -25 -1 14.92 15.3
0 25 1 -2.7 12.8
-1 25 -1 3.1 24.58
-1 -25 -1 8.16 11.85
-1 -25 -1 13.38 15.88
1 -25 1 15.97 15.28
-1 25 -1 2.84 14.39
1 -25 1 -2.78 12.89
1 25 1 2.87 22.83
1 25 1 -1.38 12.42
2 -25 1 35.66 15.84
2 25 1 21.32 13.5
2 -25 1 18.58 13.65
2 25 1 42.89 23.42
-2 25 -1 15.64 24.53
3 -25 1 55.65 16.95
3 25 1 42.97 24.93
3 25 1 37.82 12.61
3 -25 1 64.11 15.72
4 25 1 23.84 17.13
4 -25 1 32.94 15.03
4 25 1 28.83 12.57
5 25 1 72.91 13.7
5 -25 1 50.92 16.07
6 25 1 98.51 14.18
6 25 1 70.97 18.4
6 -25 1 81.31 17.81
7 25 1 121.08 20.51
7 25 1 93.22 14
8 25 1 65.24 18.77
7 26 -1 4.82 14.36
6 26 -1 67.42 16.31
5 26 -1 21.27 14.02
5 -26 -1 29 15.14
4 -26 -1 72.98 9.24
4 -26 -1 73.25 16.89
4 26 -1 101.08 16.67
3 -26 -1 104.47 17.64
3 26 -1 135.71 18.55
3 -26 -1 115.59 19.98
3 -26 -1 115.61 10.47
2 -26 -1 118.51 17.22
-2 -26 1 107.51 20.1
2 -26 -1 123.93 11.05
2 26 -1 115.69 17.68
2 -26 -1 94.78 19.42
-2 26 1 125.01 17.41
-1 26 1 113.53 17.32
1 -26 -1 113.35 20.11
1 26 -1 134.68 18.38
-1 -26 1 97.68 19.98
1 -26 -1 145.78 17.71
0 26 1 160.97 18.79
0 -26 1 150.5 22.14
0 -26 -1 167.59 21.68
0 26 -1 208.18 21.05
0 -26 -1 203.61 18.73
0 -26 1 165.75 19.86
1 -26 1 155.32 19.17
1 -26 1 168.39 21.79
-1 -26 -1 133.07 20.68
2 -26 1 83.53 17.17
2 -26 1 76.32 19.26
3 26 1 51.82 14.3
3 -26 1 69.23 19.31
3 -26 1 77.66 17.15
4 -26 1 54.44 16.45
4 26 1 59.42 18.67
4 26 1 77.59 14.43
5 26 1 31.8 12.82
5 26 1 1.87 17.96
6 26 1 3.6 17.48
6 26 1 31.35 12.88
6 27 -1 8.92 15.32
5 27 -1 -2.61 14.67
4 -27 -1 7.59 14.81
4 27 -1 6.64 14.08
3 -27 -1 12.58 17.29
3 -27 -1 13.17 15.01
3 27 -1 16.37 15.1
-2 27 1 1.43 14.83
2 -27 -1 1.42 14.13
2 -27 -1 -1.8 16.63
-2 -27 1 1.97 17.3
2 27 -1 -9.85 15.55
1 27 -1 18.85 15.51
-1 -27 1 19.59 18.32
1 -27 -1 -15.18 14.69
1 -27 -1 3.57 16.55
0 -27 1 -13.12 14.47
0 -27 1 17.42 18.32
0 -27 -1 14.4 17.56
1 -27 1 -1.51 14.76
1 -27 1 -5.77 17.71
-1 -27 -1 14.6 17.65
2 -27 1 15.52 17.08
2 -27 1 12.41 15.45
-2 -27 -1 14.71 17.74
3 -27 1 -5.85 17.71
3 -27 1 -25.44 16.91
4 27 1 2.24 13.35
5 27 1 3.21 12.6
3 -28 -1 71.37 17.62
2 -28 -1 80.33 20.18
2 -28 -1 72.58 17.02
1 -28 -1 50.22 17.78
0 -28 -1 26.15 17.82
-1 -28 -1 49.26 19.37
1 -28 1 23.51 16.04
-2 -28 -1 30.7 18.46
2 -28 1 9.67 16.15
-15 0 2 18.19 16.18
15 0 -2 -3.51 2.67
-15 0 2 7.6 20.39
-14 0 2 20.12 14.66
14 0 -2 28.35 17.54
-14 0 2 25.51 19.68
14 0 -2 12.12 5.22
-13 0 2 33.85 13.32
-12 0 2 12.6 12.29
-11 0 2 146.63 15.75
-10 0 2 393.55 24.11
-9 0 2 207.45 16.23
-8 0 2 367.23 24.66
-8 0 2 452.99 24
-7 0 2 1047.82 48.75
-7 0 2 1095.4 50.3
-6 0 2 1666.18 71.66
-6 0 2 1635.72 72.69
-5 0 2 2881.02 122.15
-5 0 2 2940.59 121.56
-4 0 2 1321.06 57.43
-4 0 2 1359.2 57.76
-3 0 2 6565.36 271.23
-3 0 2 6760.51 270.98
-2 0 2 51.93 5.56
-2 0 2 52.66 5.12
1 0 -2 5718.01 228.91
-1 0 2 5629.29 229.38
-1 0 2 5594.02 229.03
-1 0 2 5655.32 229.36
0 0 2 3927.42 161.88
0 0 -2 4036.46 161.11
0 0 2 3963.78 160.91
0 0 -2 3964.18 160.88
1 0 2 5103.82 205.85
-1 0 -2 5078.54 205.87
-2 0 -2 9033.51 367.94
-2 0 -2 8904.76 366.46
-2 0 -2 9225.16 367.29
2 0 2 9181.21 366.43
-3 0 -2 1957.72 81.15
3 0 2 1945.69 81.17
-3 0 -2 1907.91 79.68
-4 0 -2 3312.82 134.6
4 0 2 3226.96 136.71
-4 0 -2 3323.01 136.58
5 0 2 576.83 26.53
5 0 2 631.68 29.26
6 0 2 88.29 7.05
6 0 2 90.93 7.38
6 0 2 96.69 10.22
-6 0 -2 91.06 8.16
-7 0 -2 252.04 15.17
7 0 2 263.64 13.86
7 0 2 281.57 17.85
8 0 2 126.31 8.72
8 0 2 122.61 13.18
-8 0 -2 113.23 10.4
-9 0 -2 14.51 7.39
-10 0 -2 18.38 8.91
10 0 2 12.24 7.49
-10 0 -2 14.85 12.71
-11 0 -2 1.04 9.6
11 0 2 5.13 8.22
-11 0 -2 23.78 14.28
12 0 2 62.29 10.73
-12 0 -2 56.98 12.59
-12 0 -2 42.47 16.64
13 0 2 48.11 17.63
13 0 2 88.11 13.02
-13 0 -2 62.74 14.02
-13 0 -2 93.71 21.2
14 0 2 22.12 11.72
-14 0 -2 -2.46 19.03
-14 0 -2 35.31 14.47
15 0 2 41.11 13.69
16 0 2 33.39 14.46
-16 -1 2 23.96 18.34
-15 1 2 43.33 16.19
-15 -1 2 54.2 22.89
15 1 -2 12.93 5.92
-15 -1 2 16.67 15.9
-15 1 2 24.97 21.51
14 1 -2 28.44 6.82
14 1 -2 35.8 16.74
-14 1 2 69.54 15.5
-14 1 2 20.42 18.15
-14 -1 2 51.12 16.15
-13 -1 2 51.55 14.95
-13 1 2 18.19 12.79
13 -1 -2 35.42 5.3
-12 -1 2 218.75 20.84
-12 1 2 268.61 21
-11 -1 2 280.2 20.93
-11 1 2 274.18 20.83
-10 -1 2 5.86 8.8
-10 1 2 8.03 9.58
-9 1 2 44.08 9.53
-9 -1 2 51.5 10.04
-8 -1 2 139.04 15.45
-8 -1 2 190.87 14.22
-8 1 2 156.9 13.27
-7 -1 2 28.82 7.61
-7 1 2 27.09 7.15
-7 -1 2 29.79 9.21
-6 -1 2 -2.6 7.48
-6 -1 2 8.57 6.31
-6 1 2 4.81 5.74
-5 -1 2 68.81 8.88
-5 1 2 58.9 7.03
-5 -1 2 60.23 7.45
-4 1 2 35.05 5.46
-4 -1 2 32.03 5.49
-4 -1 2 31.59 7.02
-3 -1 2 360.07 16.53
-3 1 2 315.04 16.22
-3 -1 2 305.7 16.61
-2 -1 2 473.66 20.93
-2 1 2 458.57 20.63
-2 -1 2 456.15 21
2 1 -2 437.14 20.66
2 -1 -2 454.16 20.39
1 1 -2 365.77 18.95
-1 1 2 407.09 18.4
1 1 -2 449.44 18.65
-1 1 2 427.28 19.05
-1 -1 2 411.63 19.12
-1 -1 2 440.01 19.18
-1 1 2 431.3 19.09
-1 -1 2 431.16 19.23
1 -1 -2 421.63 18.29
0 -1 2 9.9 3.45
0 1 2 3.2 3.15
0 -1 2 12.29 3.21
-1 1 -2 3465.53 145.19
-1 -1 -2 3635.23 144.59
-1 1 -2 3567.63 145.62
1 -1 2 3581.74 145.18
-2 -1 -2 538.49 23.32
-2 1 -2 509.76 22.65
-2 1 -2 517.2 23.53
2 1 2 512.21 21.8
-2 -1 -2 541.13 21.91
2 1 2 543.94 23.61
2 -1 2 492.09 22.59
3 -1 2 370.03 17.49
3 1 2 382.2 19.31
-3 1 -2 387.54 17.65
-3 -1 -2 395.41 17.75
-3 1 -2 386.01 18.7
3 1 2 380.95 18.15
3 -1 2 379.24 19.05
-4 -1 -2 352.2 17.38
-4 1 -2 378.66 17.19
4 -1 2 384.25 19.54
-4 -1 -2 371.39 17.44
-4 1 -2 402.59 19.28
4 1 2 394.8 20.05
-5 -1 -2 650.05 29.19
-5 1 -2 644.22 28.14
5 1 2 636.07 31.33
5 -1 2 690 31.4
6 1 2 453.44 20.72
6 -1 2 391.52 20.82
6 -1 2 428.84 23.13
6 1 2 473.81 23.86
-6 -1 -2 430.17 21.09
-7 -1 -2 152.15 10.72
7 -1 2 137.89 10.08
7 1 2 134.24 12.58
-7 1 -2 147.01 10.62
7 1 2 121.75 9.11
7 -1 2 146.07 12.8
8 1 2 188.85 15.81
-8 -1 -2 166.02 12.69
-8 -1 -2 206.79 17.36
8 1 2 193.91 11.47
-8 1 -2 179.69 12.53
-9 -1 -2 177.54 13.79
9 1 2 186.73 11.96
-9 -1 -2 203.22 18.75
-9 1 -2 194.24 14.23
9 1 2 176.39 16.51
10 -1 2 91.2 10.47
10 1 2 76.65 8.76
-10 -1 -2 89.2 11.44
-10 1 -2 89.87 11.37
10 1 2 81.19 14.46
-10 -1 -2 76.88 15.09
-11 1 -2 67.23 11.61
-11 -1 -2 103.27 13.18
11 -1 2 79.18 10.48
-11 -1 -2 74.49 16.94
12 -1 2 78.9 17.17
12 -1 2 61.59 11.32
-12 -1 -2 55.68 17.44
-12 1 -2 73.11 13.15
-12 1 -2 86.06 18.68
12 1 2 68.17 10.72
-12 -1 -2 66.12 12.86
-13 -1 -2 27.07 12.59
-13 1 -2 3.86 12.32
-13 -1 -2 -2.27 18.26
13 -1 2 23.79 16.75
13 -1 2 39.39 11.86
-13 1 -2 24.19 17.43
-14 -1 -2 51.37 14.8
-14 1 -2 32.45 14.22
-14 1 -2 2.41 19.21
-14 -1 -2 12.57 19.48
14 1 2 27.69 11.93
14 -1 2 46.96 12.87
15 -1 2 -1.22 13.2
15 1 2 4.54 12.49
16 -1 2 -9 14.5
16 1 2 -1.19 13.3
-16 -2 2 8.12 17.88
-15 -2 2 -29.07 22.84
15 2 -2 10.74 6.73
-15 2 2 -2.44 19.59
-15 -2 2 37.65 18.21
-15 2 2 5.37 15.42
-14 -2 2 17.35 15.38
-14 2 2 39.85 19.48
-14 2 2 1.65 13.81
14 2 -2 -19.9 17.24
-13 -2 2 31.92 13.73
13 2 -2 26.38 16.07
-13 2 2 19.73 13.06
-12 -2 2 20.45 12.58
-12 2 2 4.17 10.85
-11 2 2 37.77 11.76
-11 -2 2 39.86 11.5
-10 2 2 18.1 9.84
-10 -2 2 15.61 10.78
-9 -2 2 182.77 18.56
-9 -2 2 211.71 16.19
-9 2 2 187.92 15.01
-8 -2 2 2.52 10.65
-8 2 2 12.56 7.75
-8 -2 2 -0.96 7.3
-7 -2 2 134.79 11.96
-7 2 2 141.65 11.63
-7 -2 2 144.73 14.1
-6 -2 2 10.15 8.26
-6 2 2 9.58 6.15
-6 -2 2 -4.44 6.22
-5 2 2 111.96 9.41
-5 -2 2 142.81 10.37
-5 -2 2 136.35 11.46
4 2 -2 -8.85 5.51
-4 2 2 -8.11 4.22
-4 -2 2 -0.63 6.49
-4 -2 2 -0.55 4.3
-3 -2 2 844.25 37.96
-3 2 2 878.11 37.45
3 2 -2 861.64 38.07
-3 -2 2 849.85 38.4
2 2 -2 1421.83 60.59
-2 -2 2 1422.01 60.52
-2 2 2 1452.56 59.84
-2 -2 2 1432.17 60.71
1 2 -2 23.16 5.1
-1 2 2 16.85 4.07
-1 2 2 28.21 3.34
-1 -2 2 21.17 4.28
-1 2 2 25.67 4.34
-1 -2 2 26.31 4.19
0 -2 2 84.05 6.29
0 2 2 99.96 6.29
0 -2 -2 86.86 5.47
0 -2 2 94.33 6.23
0 -2 -2 79.07 6.14
0 2 2 93.45 5.38
0 2 -2 84.9 5.75
-1 2 -2 6803.29 286.02
1 -2 2 7198.88 286.05
-1 2 -2 6895.73 286.54
-1 -2 -2 7258.37 286.5
1 2 2 7247.09 286.75
-2 2 -2 8959.94 388.93
2 -2 2 9726.86 388.55
2 2 2 9893.07 389.22
-2 -2 -2 9691.81 388.93
-2 -2 -2 9999 389.74
-2 2 -2 9522.95 388.62
3 -2 2 3724.82 153.3
3 -2 2 3675.97 152.59
-3 2 -2 3727.51 153.25
-3 -2 -2 3904.46 152.76
-3 -2 -2 3661.35 151.74
3 2 2 3707.91 152.97
-3 2 -2 3808.75 152.7
-3 -2 -2 3720.9 154.52
4 2 2 25.16 6.96
-4 -2 -2 34.58 4.13
-4 2 -2 24.4 3.73
-4 -2 -2 35.76 7.61
4 -2 2 27.88 6.72
-5 -2 -2 0.79 4.42
5 2 2 11.47 7.11
-5 -2 -2 -3.43 7.75
-5 2 -2 -1.15 2.96
5 -2 2 -11.79 6.51
-6 -2 -2 503.49 27.36
-6 -2 -2 464.22 23.37
6 2 2 501.97 23.27
6 2 2 491.98 25.94
-7 -2 -2 11.47 6.27
-7 -2 -2 5.91 9.39
7 2 2 -6.5 8.79
7 2 2 2.4 4.87
-8 -2 -2 2.14 6.3
-8 2 -2 8.01 6.35
-8 -2 -2 32.49 11.4
8 2 2 10.3 5.55
8 2 2 4.18 8.95
-9 -2 -2 52.01 12.99
-9 -2 -2 24.61 8.61
-9 2 -2 22.22 7.97
9 -2 2 24.56 7.53
9 2 2 32.82 11.67
9 2 2 43.28 7
-10 -2 -2 17.71 9.32
10 2 2 15.44 6.55
10 -2 2 5.82 7.88
-10 2 -2 23.29 9.13
-10 -2 -2 -1.72 12.8
10 2 2 31.35 12.19
11 -2 2 37.84 9.45
-11 -2 -2 18.92 10.3
11 2 2 28.8 7.7
-11 2 -2 17.68 10.02
11 -2 2 26.2 13.57
-11 -2 -2 15.29 14.68
11 2 2 26.04 13.26
12 -2 2 16.81 15.04
-12 -2 -2 18.87 12.06
12 -2 2 -6.08 9.72
-12 2 -2 -3.49 11.66
-12 -2 -2 -8.49 15.95
-13 2 -2 13.13 17.53
13 -2 2 5.5 10.77
-13 2 -2 -2.58 12.71
-13 -2 -2 5.24 12.51
-13 -2 -2 -16.39 18.92
13 2 2 -5.72 9.55
-14 2 -2 -8.55 13.36
14 2 2 5.14 10.48
-14 -2 -2 17.88 20.9
14 -2 2 -17.73 12.21
14 -2 2 12.85 17.96
15 2 2 2.19 12.22
15 -2 2 -3.78 13.47
16 2 2 -6.87 13.18
16 -2 2 -5.34 15.72
-16 -3 2 -2.06 18.02
-15 3 2 37.54 17.42
15 3 -2 37.19 8.53
-15 3 2 55.34 21.69
-15 -3 2 66.95 18.35
-15 -3 2 32.7 23.53
-14 -3 2 134.64 19.26
14 3 -2 155.46 21.75
-14 3 2 110.89 17.4
-14 3 2 124.46 22.52
-13 3 2 247.69 25.47
-13 -3 2 267.85 22.93
-13 3 2 230.98 22.21
13 3 -2 319.83 25.64
-12 3 2 338.57 23.45
-12 -3 2 303.74 24.66
-11 3 2 314.71 22.71
-11 -3 2 357.5 24.03
-10 3 2 307.19 20.88
-10 -3 2 347.92 22.48
-9 3 2 301.12 19.43
-9 -3 2 290.29 19.76
-9 -3 2 268.49 22.54
8 3 -2 625.18 31.83
-8 -3 2 647.85 33.3
-8 -3 2 651.96 35.82
-8 3 2 676.33 32.84
-7 3 2 434.27 22.96
-7 -3 2 399.69 25.14
-7 -3 2 433.95 23.64
-6 3 2 21.86 6.16
-6 -3 2 4.91 8.84
-6 -3 2 0.77 7.09
5 3 -2 1443.06 63.29
-5 -3 2 1435.6 64.13
-5 -3 2 1390.86 62.71
-5 3 2 1482.72 62.17
4 3 -2 82.8 8.74
-4 -3 2 67.87 7.75
-4 -3 2 59.17 8.6
-3 -3 2 40.6 6.19
3 3 -2 38.64 7.34
-3 -3 2 38.78 7.24
2 3 -2 132.62 9.98
-2 -3 2 126.81 9.63
2 -3 -2 107.42 7.34
-2 -3 2 99.73 8.39
-1 3 2 1509.64 63.6
-1 3 2 1537.53 63.14
1 3 -2 1526.94 63.27
1 3 -2 1466.78 64.31
-1 3 2 1587.47 63.45
-1 -3 2 1468.96 63.29
1 -3 -2 1480.46 63.27
-1 -3 2 1488.34 63.54
-1 -3 2 1624.5 63.31
0 -3 -2 593.9 25.69
0 3 2 625.43 25.73
0 3 2 580.28 26.19
0 -3 2 603.07 25.79
0 3 -2 531.32 25.56
0 -3 -2 588.38 25.51
0 -3 -2 598.87 25.75
0 3 -2 588.01 25.7
0 3 2 570.89 25.68
1 -3 2 100.27 6.39
1 -3 2 85.06 7.17
-1 -3 -2 67.09 7.05
-1 3 -2 85.96 6.94
1 3 2 85.54 6.67
1 3 2 84.97 7.29
-1 3 -2 99.6 6.34
-2 3 -2 202.45 10.21
-2 3 -2 187.45 11.13
2 3 2 175.58 11.58
2 3 2 184.22 10.64
-2 -3 -2 178.57 11.88
-2 3 -2 197.17 10.41
2 -3 2 187.68 10.29
-2 -3 -2 195.43 10.25
-3 3 -2 2140.82 88.78
3 3 2 2117.63 88.86
-3 3 -2 2167.55 88.73
3 -3 2 2094.27 88.8
-3 -3 -2 2127.63 87.62
-3 -3 -2 2181.53 90.56
3 -3 2 2157.48 88.65
4 3 2 907.52 37.32
-4 -3 -2 820.47 34.28
-4 3 -2 772.94 33.64
4 -3 2 707.22 34.93
-4 -3 -2 831.97 37.82
5 3 2 1231.21 52.92
-5 -3 -2 1172.12 53.79
-5 3 -2 1168.21 48.79
-5 -3 -2 1150.4 50.19
6 3 2 1674.81 71.26
6 3 2 1709.59 73.89
-6 -3 -2 1643.96 71.25
-6 -3 -2 1732.71 75.44
-7 -3 -2 444.8 23.86
-7 -3 -2 490.07 28.54
7 3 2 498.97 26.99
7 3 2 513.36 23.74
8 3 2 249.59 14.65
8 3 2 252.99 18.37
-8 -3 -2 253.51 19.94
-8 -3 -2 246.95 15.54
9 3 2 497.52 28.98
-9 -3 -2 487.64 31.37
-9 3 -2 495.88 26.3
9 3 2 497.66 24.54
9 -3 2 496.09 28.58
-9 -3 -2 469.57 25.86
9 -3 2 485.37 25.54
-10 3 -2 271.54 19.2
10 -3 2 312.54 18.98
10 3 2 318.99 17.64
-10 -3 -2 269.49 24.66
10 3 2 285.77 21.96
10 -3 2 309.55 21.94
-10 -3 -2 312.01 19.88
11 -3 2 145.61 13.68
-11 3 -2 153.55 15.01
-11 -3 -2 178.41 21.19
11 -3 2 162.09 17.72
11 3 2 149.31 12.11
11 3 2 156.73 18.49
-11 -3 -2 148.13 15.12
-12 -3 -2 208.04 19.07
12 -3 2 218.19 18.28
12 -3 2 283.89 23.44
12 3 2 243.21 15.79
-12 -3 -2 215.82 24.98
12 3 2 284.49 24.03
-12 3 -2 225.83 18.44
-13 -3 -2 119.42 23.01
-13 3 -2 137.41 16.42
13 -3 2 170.3 16.31
-13 -3 -2 151.05 17.42
13 3 2 101.7 11.69
13 3 2 125.42 13.72
13 -3 2 156.33 21
-14 -3 -2 117.21 24.54
14 -3 2 49.01 19.28
-14 3 -2 60.13 14.75
14 3 2 29.68 11.75
14 -3 2 63.52 14.33
-14 3 -2 107.64 22.83
15 3 2 23.11 12.08
15 -3 2 11.75 13.72
16 -3 2 -12.41 15.46
-16 -4 2 4.15 18.79
15 4 -2 -2.57 8.15
-15 -4 2 1.94 16.84
-15 4 2 -1.8 15.59
-15 4 2 16.68 20.14
-14 -4 2 -7.2 15.21
14 4 -2 12.95 17.89
-14 4 2 13.04 18.29
-14 4 2 4.99 13.99
-13 4 2 -3.96 16.01
-13 4 2 31.8 13.59
-13 -4 2 31.62 15.38
13 4 -2 20.22 15.48
-12 -4 2 -1.53 12.63
12 4 -2 3.06 13.97
-12 4 2 11.05 11.94
-11 4 2 8.74 9.72
-11 -4 2 27.99 12.42
-10 4 2 177.43 15.16
10 -4 -2 132.1 6.68
-10 -4 2 129.46 18.86
-10 -4 2 174.44 15.99
-9 4 2 188.98 15.28
9 -4 -2 178.35 9.12
-9 -4 2 191.98 19.64
-9 -4 2 202.2 16.1
8 4 -2 176.04 12.71
-8 -4 2 171.91 17.06
8 -4 -2 145.09 8.26
-8 -4 2 147.98 13.57
-8 4 2 180.46 13.5
-7 4 2 189.04 13.34
-7 -4 2 180.45 13.91
-7 -4 2 182.51 16.47
7 -4 -2 163.22 9.1
-6 -4 2 1648.92 72.93
-6 -4 2 1629.93 70.91
6 -4 -2 1602.31 66.96
-5 -4 2 1134.55 49.66
5 4 -2 1153.93 50.4
-5 -4 2 1110.29 51.19
5 -4 -2 1066.86 46.26
4 4 -2 1051.7 48.51
-4 -4 2 1065.49 49.14
-4 -4 2 1111.41 48.21
3 -4 -2 2200.11 97.01
-3 -4 2 2543.09 99.45
3 4 -2 2522.95 99.92
-3 -4 2 2387.76 100.14
2 -4 -2 3961.8 164.64
-2 -4 2 3968.37 166.76
-2 -4 2 4144.27 164.62
-2 4 2 3960.65 164.05
2 4 -2 4233.04 166.7
1 4 -2 845.06 33.96
-1 4 2 835.07 34.51
-1 -4 2 842.29 33.87
-1 -4 2 781.53 33.93
-1 -4 2 800.7 34.27
1 -4 -2 850.04 34.38
1 -4 -2 770.51 33.86
-1 4 2 803.19 34.08
-1 4 2 773.82 33.67
1 -4 -2 739.85 32.94
-1 4 2 741.48 33.74
0 -4 -2 2381.53 100.92
0 4 -2 2614.61 101.33
0 4 2 2336.24 101.59
0 4 -2 2477.98 101.47
0 4 2 2272.78 101.63
0 -4 2 2511.58 101.11
0 -4 -2 2488.49 100.73
0 4 2 2412.73 101.01
0 4 -2 2615.45 101.05
-1 -4 -2 4394.51 184.94
-1 4 -2 4467.3 183.92
1 4 2 4396.31 184.26
1 4 2 4711 184.75
1 -4 2 4628.52 184.66
-2 4 -2 840.99 36.36
2 4 2 843.18 37.58
2 -4 2 799.09 36.02
2 4 2 833.79 36.38
-2 -4 -2 843.66 36.19
-2 4 -2 846.31 35.55
-2 -4 -2 825.15 38.04
-3 4 -2 257.74 13.02
-3 -4 -2 235.18 11.65
3 4 2 253.18 12.91
3 -4 2 203.52 12.42
-3 -4 -2 207.83 14.7
3 4 2 240.22 14.78
-4 -4 -2 1164.39 49.08
4 -4 2 1125.46 49.9
4 4 2 1191.31 51.5
-4 -4 -2 1141.63 52.45
-5 -4 -2 976.65 41.14
5 4 2 977.67 43.58
-5 -4 -2 978.99 45.13
-5 4 -2 899.94 39.31
-6 -4 -2 33.5 6.6
-6 4 -2 34.33 3.36
-6 -4 -2 29.04 10.63
6 4 2 31.38 6.36
6 4 2 29.45 8.33
-7 -4 -2 59.29 7.89
7 4 2 77.39 8.05
-7 -4 -2 99.13 13.9
7 4 2 63.39 10.42
-8 -4 -2 2.24 6.98
8 -4 2 5.57 8.6
8 -4 2 -2.18 6.19
8 4 2 -1.09 9.49
-8 -4 -2 10.25 11.58
8 4 2 -3.01 6.03
9 -4 2 10.62 10.42
-9 -4 -2 -5.17 8.14
9 4 2 9.71 11.17
9 -4 2 0.81 6.65
9 4 2 5.18 6.53
-9 -4 -2 -8.24 12.86
10 -4 2 27.71 11.89
-10 -4 -2 2.94 9.23
10 -4 2 22.52 8.67
-10 -4 -2 -5.51 13.53
-10 4 -2 3.92 8.93
10 4 2 2.76 7.36
10 4 2 9.41 11.96
11 -4 2 47.6 10.18
-11 -4 -2 45.18 11.69
11 -4 2 39 13.68
11 4 2 36.91 9.19
11 4 2 46.02 14.29
-11 -4 -2 67.12 17.07
-11 4 -2 34.63 10.85
-12 -4 -2 74.06 13.77
12 4 2 73.68 10.6
-12 -4 -2 58.17 19.36
-12 4 -2 62.19 13.21
12 -4 2 50.94 11.88
12 4 2 70.17 17.57
12 -4 2 53.68 15.9
-13 4 -2 15.73 11.72
-13 -4 -2 2.45 19.37
-13 -4 -2 34.1 13.24
13 -4 2 -16.44 17.09
13 4 2 1.78 16.43
13 4 2 25.33 9.62
13 -4 2 11.74 11.73
14 4 2 4.75 10.96
-14 -4 -2 13.36 21.14
14 -4 2 14.36 17.88
-14 4 -2 34.6 14.28
14 4 2 10.12 9.45
14 -4 2 21.51 12.53
15 -4 2 31.04 14.97
15 4 2 28.25 12.48
16 -4 2 12.83 15.49
15 5 -2 11.45 8.85
-15 -5 2 -7.87 16.68
-15 5 2 -14.27 19.55
-15 5 2 16.35 16.28
-14 -5 2 20.17 15.97
-14 5 2 11.68 13.88
-14 5 2 10.88 17.14
14 5 -2 1.87 17.38
13 5 -2 27.29 16.2
-13 5 2 -4.57 12.82
-13 -5 2 -6.78 14.82
12 5 -2 15.47 15.18
-12 -5 2 25.01 13.01
-12 5 2 -1.39 11.16
-11 -5 2 -1.43 12.25
-11 5 2 23.97 10.59
-10 -5 2 32.59 11.6
-10 -5 2 20.03 14.63
-10 5 2 22.86 9.45
-9 5 2 1.03 8.01
9 -5 -2 7.77 2.09
-9 -5 2 -3.54 9.41
-9 -5 2 9.8 12.39
8 5 -2 71.56 9.48
-8 -5 2 63.74 10.47
-8 -5 2 100.48 14.65
-8 5 2 94.75 10.71
8 -5 -2 80.67 5.12
-7 -5 2 2.6 10.66
-7 -5 2 1.9 7.72
7 -5 -2 2.44 3
7 5 -2 8.96 6.41
-6 -5 2 495.27 26.47
-6 -5 2 546.88 29.33
6 5 -2 541.25 28.11
6 -5 -2 486.09 22.08
5 -5 -2 1196.42 50.87
-5 -5 2 1237.1 54.6
5 5 -2 1185.16 55.22
-5 -5 2 1291.05 56.74
4 5 -2 7.25 7.59
-4 -5 2 12.46 8.4
-4 -5 2 2.83 6.27
-3 -5 2 35.66 8.42
3 5 -2 55.07 9.23
-3 -5 2 48.96 7.28
-2 -5 2 438.72 22.87
-2 5 2 448.56 20.05
2 5 -2 424.26 22.35
2 -5 -2 443.4 19.66
-2 5 2 400.47 19.62
-2 -5 2 412.38 19.48
-1 -5 2 1314.38 50.97
-1 5 2 1174.55 50.58
-1 5 2 1097.15 50.72
-1 5 2 1269.95 51.18
1 5 -2 1233.42 51.01
1 -5 -2 1147.9 50.87
1 -5 -2 1277.99 50.55
-1 -5 2 1230.23 51.49
1 -5 -2 1136.38 51.32
1 5 -2 1320.58 51.65
-1 5 2 1216.75 51.59
0 5 2 42.79 6.86
0 -5 -2 20.93 3.78
0 -5 -2 30.12 4.28
0 -5 2 32.07 4.26
0 5 2 45.39 5.42
0 5 -2 36.63 4.88
0 5 2 32.21 4.28
0 5 -2 31.11 4.96
0 5 -2 40.74 4.74
-1 -5 -2 225.08 10.29
-1 5 -2 230.21 12.37
1 5 2 216.9 12.45
1 5 2 221.13 13.82
-1 5 -2 230.51 10.39
1 -5 2 237.83 13.08
-1 -5 -2 258 12.23
-1 -5 -2 252.68 14.47
-2 -5 -2 366.87 19.5
2 -5 2 320.65 16.67
2 5 2 342.55 18.95
-2 5 -2 336.12 17.09
2 5 2 362.41 17.13
3 5 2 42.81 5.87
-3 -5 -2 40.58 8.69
3 -5 2 54.34 6.13
-3 5 -2 41.76 5.95
3 5 2 41.37 7.73
4 5 2 39.52 6.05
-4 -5 -2 31.89 9.01
4 -5 2 39.27 6.02
-4 -5 -2 24.43 5.23
4 5 2 27.49 7.64
5 5 2 -0.79 7.15
-5 -5 -2 -6.62 5.55
5 5 2 1.53 4.44
-5 -5 -2 -9.21 9.23
-6 -5 -2 8.52 6.05
6 5 2 7.36 5.58
-6 5 -2 6.64 2.49
6 5 2 13.35 8.17
6 -5 2 12.62 6.93
-6 -5 -2 10.56 9.28
-7 -5 -2 22.78 10.49
7 -5 2 19.59 7.9
7 5 2 27.91 9.57
-7 -5 -2 25.44 7.14
7 5 2 21.03 6.43
-8 -5 -2 14.79 7.8
8 5 2 14.85 6.65
8 -5 2 5.35 6.7
8 5 2 6.67 9.86
-8 -5 -2 16.67 11.72
8 -5 2 13.66 9.22
9 -5 2 91.78 12.51
9 5 2 62.91 13.38
9 5 2 104.66 10.34
-9 -5 -2 99.86 11.49
9 -5 2 88.97 10.4
-9 -5 -2 76.67 15.84
-10 -5 -2 7.58 14.16
-10 -5 -2 21.19 10.07
10 5 2 6.65 8.14
10 5 2 -1.36 12
10 -5 2 4.68 8.36
10 -5 2 -3.55 11.11
11 5 2 -6 13.9
-11 5 -2 34.59 10.96
11 5 2 -1.56 8.79
11 -5 2 6.64 12.85
11 -5 2 12.32 9.52
-11 -5 -2 18.09 11.11
-11 -5 -2 39.77 17.28
-12 -5 -2 25.35 19
-12 5 -2 32.98 11.8
12 5 2 44.7 10.49
-12 -5 -2 23.89 12.67
12 5 2 32.9 16.12
12 -5 2 45.94 11.7
12 -5 2 42.71 16.31
13 5 2 14.38 16.54
13 -5 2 -11.36 16.15
13 5 2 -0.83 9.59
13 -5 2 20.67 11.97
-13 5 -2 -1.34 11.62
-13 -5 -2 2.52 19.57
-13 -5 -2 19.44 14.16
14 5 2 0.82 9.71
14 -5 2 -7.1 18.01
14 -5 2 -7.85 13.37
-14 -5 -2 -16.49 23.04
-14 5 -2 -17.53 15.03
-15 5 -2 16 15.38
15 5 2 -7.74 11.38
15 -5 2 5.58 14.38
16 -5 2 -17.66 16.21
-15 -6 2 -7.98 17.56
-15 6 2 -1.83 15.17
-15 6 2 -11.95 19.64
-14 -6 2 -9.29 15.81
-14 6 2 1.68 13.68
-13 -6 2 -13.75 15.02
13 6 -2 -17.28 16.37
-13 6 2 6.15 12.21
-12 -6 2 34.96 13.96
12 6 -2 21.94 15.83
-12 6 2 43.55 12.96
-11 6 2 -1.28 10.76
-11 -6 2 8.74 12.31
11 6 -2 16.96 13.54
-10 6 2 -3.48 8.93
-10 -6 2 -22.86 15.66
-10 -6 2 -23.93 11.07
-9 -6 2 39.92 10.26
-9 6 2 44.11 9.67
-9 -6 2 29.16 13.89
-8 -6 2 172.23 17.95
8 6 -2 148.5 13.15
-8 -6 2 188.66 15.48
7 6 -2 525.19 27.44
-7 -6 2 537.73 28.52
7 -6 -2 519.64 22.78
7 6 -2 543.89 30.02
-7 -6 2 540.45 31.37
-6 -6 2 417.08 25.04
6 6 -2 423 24.28
-6 -6 2 359.48 22.21
6 -6 -2 395.13 17.8
5 -6 -2 217.62 10.89
5 6 -2 204.4 15.96
-5 -6 2 214.5 14.92
-5 -6 2 186.89 16.86
4 6 -2 1199.45 56.5
-4 -6 2 1294.63 55.66
-4 -6 2 1214.1 57.01
3 6 -2 835.05 40.88
-3 6 2 867.19 37.59
-3 -6 2 895.43 41.59
-2 -6 2 775.58 32.76
2 6 -2 717.57 35.95
2 -6 -2 724.82 32.93
-2 6 2 785.23 33.31
1 6 -2 1294.29 55.9
-1 -6 2 1291.23 55.62
-1 6 2 1335.77 55.94
1 -6 -2 1288.07 55.05
1 -6 -2 1328.61 55.78
-1 -6 2 1370.23 55.01
0 6 -2 2679.52 108.56
0 6 2 2666.92 108.88
0 -6 -2 2731.58 107.38
0 6 -2 2694.99 108.85
0 -6 -2 2602.19 107.75
0 -6 -2 2503.16 107.69
0 -6 -2 2559.97 107.94
0 6 2 2670.62 110.08
1 -6 2 901.31 39.01
1 6 2 905.34 38.35
1 6 2 877.21 40.09
-1 -6 -2 850.43 37.45
-1 -6 -2 900.53 40.11
-1 -6 -2 871.05 36.34
-1 6 -2 840.7 38.14
2 6 2 126.45 11.64
-2 6 -2 133.25 9.61
-2 -6 -2 154.74 12.44
2 6 2 160.06 9.82
2 -6 2 143.66 10.18
3 6 2 218.6 12.08
3 6 2 170.72 13.78
3 6 2 187.37 8.4
-3 -6 -2 191.21 14.34
-3 6 -2 180.15 11.8
3 -6 2 173.13 11.43
4 6 2 205.46 12.64
-4 6 -2 208.93 13
4 6 2 207.31 11.31
4 -6 2 190.46 12.35
4 6 2 218.87 14.68
-4 -6 -2 184.04 15.14
5 6 2 653.24 32.83
-5 -6 -2 654.98 30.73
-5 -6 -2 641.9 34.73
5 6 2 698.32 30.03
5 -6 2 649.81 30.82
-6 -6 -2 105.06 14.06
6 6 2 102.62 8.63
-6 6 -2 99.49 5.7
6 -6 2 105.74 9.91
6 6 2 95.67 11.53
-6 -6 -2 108.96 9.55
7 6 2 70.38 11.23
-7 -6 -2 58.42 8.48
7 -6 2 62.72 9.94
7 6 2 65.49 8.49
-7 -6 -2 59.33 13.08
8 6 2 137.25 11.44
8 6 2 132.42 14.96
-8 -6 -2 149.33 17.5
8 -6 2 148.93 12.2
8 -6 2 143.3 13.49
-8 -6 -2 140.51 12.47
9 6 2 1.25 11.17
9 -6 2 20.48 10.58
9 6 2 -2.96 7.24
-9 -6 -2 -5.31 13.17
9 -6 2 -3.56 7.71
-9 -6 -2 -1.84 8.71
10 -6 2 15.62 8.87
10 6 2 -9.66 12.49
10 -6 2 24.45 12.79
10 6 2 12.62 8.73
-10 -6 -2 2.07 9.85
-10 -6 -2 -1.97 14.33
11 6 2 23.38 9.54
-11 -6 -2 19.68 11.37
11 6 2 18.19 14.88
11 -6 2 2.14 9.54
11 -6 2 13.12 13.46
-11 -6 -2 -13.04 16.88
12 6 2 3.32 15.22
-12 -6 -2 1.28 11.82
-12 6 -2 -3.77 11.82
12 -6 2 -1.17 10.69
12 6 2 17.51 9.96
12 -6 2 -8.73 14.23
-12 -6 -2 -19.07 19.18
13 6 2 16.19 10.34
13 -6 2 22.62 12.27
13 6 2 10.86 17.21
13 -6 2 -19.21 16.38
-13 6 -2 38.38 13.42
-13 -6 -2 7.81 21.05
14 -6 2 8.1 13.29
14 -6 2 -1.75 17.92
14 6 2 4.52 10.24
-14 -6 -2 28.27 24.71
-14 6 -2 22.33 14.28
15 6 2 -12.02 10.95
-15 6 -2 -1.62 15.71
15 -6 2 2.88 14.82
16 -6 2 -7.59 16.52
-15 7 2 103.25 19.37
-15 -7 2 68.85 20.73
-14 -7 2 39.6 17.88
-14 7 2 44.11 14.98
-13 -7 2 64.8 16.59
13 7 -2 62.89 18.06
-13 7 2 88.74 15.9
12 7 -2 162.28 19.86
-12 7 2 153.22 17.55
-12 -7 2 200.93 19.89
-11 7 2 247.42 19.41
-11 -7 2 256.39 21.43
-11 -7 2 202.23 24.34
11 7 -2 232.63 21.17
11 7 -2 257.64 18.95
-10 7 2 327.14 23.77
-10 -7 2 308.19 28.27
-10 -7 2 598.12 28.91
10 7 -2 366.84 25.85
-9 -7 2 213 21.25
-9 -7 2 193.03 17.65
-8 -7 2 116.6 13.22
-8 -7 2 118.02 17.11
7 7 -2 245.49 15.95
-7 -7 2 247.7 20.51
-7 -7 2 193.74 16.52
7 7 -2 251.13 18.73
6 7 -2 947.79 46.63
-6 -7 2 919.33 45.13
-6 -7 2 1011.04 48.49
-5 -7 2 726.02 36.96
5 -7 -2 694.23 30.35
-5 -7 2 697.35 34.74
-4 7 2 558.36 26.05
-4 -7 2 635.65 31.78
4 7 -2 562.06 30.31
-3 -7 2 103.69 12.79
-3 7 2 124.51 8.3
3 7 -2 109.06 12.38
2 7 -2 234.91 13.72
-2 7 2 248.5 13.37
2 7 -2 271.61 17.55
-2 -7 2 262.38 12.82
2 -7 -2 263.65 13.35
1 -7 -2 16.27 4.64
1 -7 -2 20.42 4.58
1 7 -2 21.56 5.19
-1 7 2 27.68 5
-1 -7 2 18.69 3.75
-1 -7 2 21.37 5.01
0 7 -2 93.32 7.35
0 -7 -2 68.61 5.46
0 7 2 71.79 9.35
0 -7 -2 67.92 5.71
0 -7 -2 90.26 5.92
0 7 2 79.21 7.39
-1 7 -2 1117.49 47.47
-1 -7 -2 1072.87 45.47
-1 -7 -2 1096.22 46.31
1 7 2 1079.95 47.43
-1 -7 -2 1125.95 49.33
1 -7 2 1138.01 48.37
1 7 2 1053.06 49.23
-2 7 -2 1158.14 49.47
-2 -7 -2 1140.75 49.91
2 7 2 1213.34 49.53
2 7 2 1061.05 51.36
-2 -7 -2 1229.11 52.06
2 -7 2 1223.54 50.32
-2 -7 -2 1072.37 46.65
3 7 2 360.1 18.72
-3 -7 -2 358.59 19.54
-3 7 -2 343.37 18.73
3 7 2 364.34 21.09
3 7 2 348.68 15.55
-3 -7 -2 364.67 21.77
3 -7 2 388.97 16.9
4 7 2 412.26 20.73
4 -7 2 422.86 19.59
-4 7 -2 413.6 21.26
4 7 2 426.41 19.73
4 7 2 396.12 17.54
-4 -7 -2 356.71 23.96
5 7 2 1350.23 58.01
-5 -7 -2 1378.91 63.35
5 -7 2 1360.97 58.47
6 -7 2 1569.23 68.11
6 7 2 1563.35 70.37
-6 -7 -2 1578.91 68.47
6 7 2 1608.26 67.32
-6 -7 -2 1531.67 72.93
7 -7 2 617.47 31.48
7 7 2 680.77 30.39
-7 -7 -2 610.64 31.36
7 7 2 651.96 33.84
-7 -7 -2 570.58 35.87
7 7 2 673.17 31.29
-8 -7 -2 374.93 27.28
8 7 2 386.21 21.26
8 7 2 372.59 24.06
-8 -7 -2 395.09 22.28
8 -7 2 372.84 22.41
9 -7 2 441.2 25.08
9 7 2 432.82 27.89
9 7 2 461.34 24.48
-9 -7 -2 444.82 31.93
9 -7 2 455.2 26.47
-9 -7 -2 455.79 25.83
10 -7 2 537.81 30.5
10 -7 2 512.83 28.59
10 7 2 544.24 27.88
-10 -7 -2 520.71 29.31
10 7 2 510.61 31.8
-10 -7 -2 498.65 34.93
11 -7 2 318.28 23.35
-11 -7 -2 301.09 28.68
11 -7 2 315.61 21.28
11 7 2 325.12 20.27
-11 -7 -2 309.48 22.08
11 7 2 271.44 23.99
12 7 2 122.81 13.76
12 -7 2 119.03 14.78
-12 -7 -2 114.08 16.33
-12 7 -2 123.74 15.61
12 7 2 103.98 18.5
12 -7 2 139.09 18.67
-12 -7 -2 108.28 23
-13 7 -2 90.03 16.3
13 7 2 75.37 13.05
-13 -7 -2 117.98 24.99
13 -7 2 77.95 14.99
13 -7 2 91.71 18.73
14 7 2 38.34 12.55
14 -7 2 57.1 19.01
-14 -7 -2 8.72 23.01
-14 7 -2 24.49 14.69
14 -7 2 34.81 15.42
15 7 2 15.89 10.2
15 -7 2 37.04 16.7
-15 7 -2 13.22 15.07
-15 -8 2 22.84 20.15
-14 8 2 17.2 14.76
-14 -8 2 1.94 16.75
13 8 -2 1.77 16.41
-13 -8 2 3.6 15.19
-13 8 2 -1.59 12.4
12 8 -2 12.9 15.14
-12 -8 2 21.66 14.58
-12 8 2 5.83 12.1
12 8 -2 31.06 12.38
11 8 -2 1.2 10.08
11 8 -2 4.38 12.94
-11 8 2 10.68 11.06
-11 -8 2 -7.67 12.66
-11 -8 2 -18 18.86
10 8 -2 -5.24 12.29
-10 -8 2 -5.65 12.03
-10 -8 2 -4.11 14.97
10 8 -2 2.26 9.53
-9 -8 2 105.61 13.93
9 8 -2 134.3 15.02
-9 -8 2 155.04 19.42
-8 -8 2 52.94 11.22
8 8 -2 43.3 11.12
8 8 -2 33.48 12.02
-8 -8 2 18.69 13.22
-7 -8 2 52.52 13.01
7 8 -2 37.67 10.99
7 8 -2 48 9.3
-7 -8 2 64.88 11.16
-6 -8 2 100.95 14.75
6 8 -2 103.71 13.62
-6 -8 2 106.3 12.11
-5 -8 2 621.37 34.48
-4 8 2 643.79 29.57
-4 -8 2 705.82 35.52
3 8 -2 284.43 15.95
-3 8 2 302.7 15.52
-3 -8 2 315.57 20.54
-2 8 2 415.63 19.53
-2 -8 2 380.41 18.93
2 8 -2 426.38 19.92
2 -8 -2 370.25 19.53
-2 -8 2 404.26 18.34
2 -8 -2 386.67 19.3
1 8 -2 130.24 9.31
1 -8 -2 136.33 9.03
1 8 -2 132.85 7.1
-1 8 2 119.21 8.88
-1 -8 2 138.47 7.75
-1 -8 2 142.17 8.95
1 -8 -2 143.91 8.72
0 8 2 1417.7 58.73
0 8 -2 1410.24 58.62
0 -8 -2 1362.7 57.51
0 8 2 1344.71 60.85
0 -8 -2 1332.32 56.97
1 -8 2 194.09 12.6
1 8 2 154.64 14.75
-1 8 -2 214.02 12.28
-1 -8 -2 194.99 10.49
-1 -8 -2 187.04 9.71
1 8 2 193.06 11.93
2 8 2 524.22 22.5
-2 -8 -2 510.88 25.57
-2 -8 -2 495.41 22.41
-2 8 -2 538.74 25.13
2 8 2 558.75 25.23
-2 -8 -2 538.24 28.27
2 8 2 472.82 27.03
2 -8 2 524.37 25.98
3 8 2 387.44 19.61
3 8 2 372.24 16.5
-3 8 -2 343.72 19.53
3 -8 2 383.8 17.21
-3 -8 -2 390.85 23.14
3 8 2 368.84 18.76
3 8 2 371.27 22.18
4 8 2 9.45 5.24
4 8 2 14.82 3.01
-4 8 -2 5.28 6.34
4 8 2 11.23 6.14
-4 -8 -2 6.95 9.54
4 -8 2 13.99 4.81
-5 -8 -2 20.49 11.13
5 8 2 18.91 3.34
5 8 2 16.37 5.89
5 -8 2 15.22 5.62
6 8 2 9.81 5.82
6 -8 2 -1.5 6.01
6 -8 2 6.67 6.86
6 8 2 30.07 10.04
-6 -8 -2 -5.67 10.8
-6 -8 -2 3.89 7.19
7 8 2 132.02 11.33
7 -8 2 114.25 10.92
-7 8 -2 85.22 11.21
-7 -8 -2 117.76 16.32
7 8 2 85.34 12.39
-7 -8 -2 82.29 10.6
8 -8 2 88.03 11
-8 -8 -2 57.53 15.67
8 8 2 70.02 12.92
8 8 2 88.4 10.47
-8 -8 -2 77.46 11.16
-9 -8 -2 -23.1 14.53
9 -8 2 12.85 10.68
-9 -8 -2 10.14 10.23
9 8 2 9.11 12.25
9 8 2 5.97 8.66
9 -8 2 4.85 8.51
10 -8 2 9.51 9.69
10 8 2 -1.42 13.25
-10 -8 -2 2.13 16.6
10 8 2 29.23 9.8
-10 -8 -2 16.87 11.37
10 -8 2 37.2 11.82
11 -8 2 16.07 11.13
-11 -8 -2 -2.33 17.82
11 -8 2 31.78 14.25
11 8 2 -10.28 9.58
11 8 2 -17.14 15.11
-11 -8 -2 14.83 12.57
12 -8 2 -11.18 11.48
12 8 2 -10.2 16.2
12 -8 2 1.42 13.93
12 8 2 -15.73 11.12
-12 -8 -2 -8.15 13.49
-12 -8 -2 -15.27 20.49
13 -8 2 -9.37 12.68
-13 8 -2 4.36 13.05
13 -8 2 -1.56 15.87
13 8 2 -5.13 11.26
-13 -8 -2 -5.54 21.8
-14 8 -2 -12.53 14.97
14 -8 2 -11.48 14.16
-14 -8 -2 -2.99 23.45
14 -8 2 -17.07 18.71
14 8 2 5.26 11.76
15 -8 2 1.53 14.7
-15 8 -2 -5.07 15.74
15 -9 -2 15.85 16.62
-15 -9 2 -10.64 19.58
-14 -9 2 1.99 17.93
-14 9 2 14.03 14.11
-13 -9 2 5.57 15.82
-13 9 2 56.73 15.42
13 9 -2 8.97 16.42
12 9 -2 27.78 16.04
-12 -9 2 27.54 15.26
-12 9 2 50.59 13.31
12 9 -2 28.85 11.98
-11 -9 2 147.81 18.59
-11 9 2 159.3 16.84
11 9 -2 164.57 19.24
-11 -9 2 207.3 24.94
11 9 -2 137.03 15.39
10 9 -2 224.42 17.8
10 9 -2 230.05 20.11
-10 -9 2 200.6 19.82
-10 -9 2 219.48 24.29
9 9 -2 26.85 13.5
9 9 -2 29.85 11.57
-9 -9 2 40.9 15.71
-9 -9 2 20.46 11.84
-8 -9 2 11.36 10.21
8 9 -2 14.62 10.89
-8 -9 2 1.78 12.44
8 9 -2 23.23 10.11
7 9 -2 199.43 15.36
-7 -9 2 204.78 16.53
-7 -9 2 214.62 19.64
7 9 -2 150.21 17.14
6 9 -2 308.53 18.37
6 9 -2 281.9 21.29
-6 -9 2 252.95 22.12
6 9 -2 306.77 19.04
-5 9 2 1.73 4.92
5 9 -2 -0.67 6.45
-5 -9 2 -1.38 11.02
-4 9 2 98.51 7.92
-4 -9 2 111.53 13.73
4 9 -2 96.56 9.06
3 9 -2 2.17 4.97
3 -9 -2 -1.16 5.33
3 9 -2 6.88 5.59
-3 9 2 4.12 5.13
2 -9 -2 -4.77 5.13
-2 9 2 0.33 3.74
-2 -9 2 -3.57 3.66
-2 9 2 -1.89 5.04
2 9 -2 2.23 4.16
2 9 -2 7.14 5.24
2 -9 -2 1.52 5.33
-2 -9 2 -0.4 4.22
1 9 -2 8.66 5.34
1 -9 -2 11.93 5.53
-1 9 2 -2.02 5
-1 -9 2 6.82 3.38
1 9 -2 6.77 3.05
-1 -9 2 4.57 4.55
-1 9 2 12.47 2.99
1 -9 -2 12.2 4.61
-1 9 2 7.46 3.85
0 9 -2 14.71 5.41
0 9 2 12.33 5.66
0 -9 -2 10.69 3.61
0 -9 -2 14.93 4.4
0 9 -2 9.87 3.72
1 9 2 0.91 8.76
1 -9 2 3.52 6.13
-1 9 -2 -2.1 3.79
-1 -9 -2 -2.67 4.2
-1 -9 -2 -4.14 3.57
1 9 2 2.26 5.82
-1 -9 -2 1.16 2.85
-1 9 -2 10 5.77
-2 -9 -2 17.5 9.63
-2 -9 -2 7.17 3.38
2 -9 2 6.65 6.53
-2 9 -2 10.79 5.64
2 9 2 -0.6 5.26
2 9 2 5.79 3.37
-2 -9 -2 3.22 5.67
2 9 2 0.97 7.91
3 -9 2 41.96 4.42
3 9 2 55.31 7.09
-3 9 -2 47.2 7.94
3 9 2 49.18 4.34
-3 -9 -2 19.3 10.26
3 9 2 43.05 7.32
4 9 2 274.93 16.6
-4 -9 -2 294.43 21.32
4 -9 2 284.62 14.38
-4 9 -2 286.2 17.22
4 9 2 283.35 13.19
4 9 2 289.45 15.88
5 -9 2 431.62 22.57
-5 -9 -2 422.55 27.07
-5 -9 -2 413.97 23.56
5 9 2 472.14 26.34
5 9 2 434.99 18.93
5 -9 2 407.83 20.68
5 9 2 397.74 21.31
6 9 2 130.57 14.36
6 9 2 130.81 10.5
6 -9 2 153.27 11.73
6 -9 2 160.3 11.01
6 9 2 130.13 8
-6 -9 -2 136.96 16.97
-6 -9 -2 143.79 12.68
7 -9 2 86.6 10.01
-7 9 -2 99.7 11.91
7 9 2 91.13 10.43
-7 -9 -2 125.64 17.17
-7 9 -2 67.7 4.46
-8 -9 -2 189.91 15.5
8 -9 2 194.24 14.77
8 9 2 196.03 14.7
-8 9 -2 171.91 16.07
-8 -9 -2 200.25 21.68
8 9 2 143.64 15.98
9 -9 2 190.22 15.21
-9 9 -2 162.13 16.48
9 9 2 167.5 14.48
9 9 2 175.96 13.45
-9 -9 -2 134.06 20.03
9 -9 2 176.28 15.84
9 9 2 182.47 18.32
-9 -9 -2 184.34 15.89
10 -9 2 217.35 18.26
-10 -9 -2 175.8 17.59
10 9 2 196.93 15.99
10 -9 2 194.13 16.72
10 9 2 193.24 19.86
-10 -9 -2 153.84 23.65
11 -9 2 96.28 13.78
11 9 2 84.63 12.66
-11 -9 -2 105.71 22.24
11 9 2 79.27 17.14
-11 -9 -2 116.37 15.68
11 -9 2 115.23 16.13
12 9 2 19.66 11.49
12 -9 2 27.89 14.9
12 9 2 31.06 16.03
-12 -9 -2 13.08 20.45
12 -9 2 59.04 13.12
13 -9 2 27.61 13.8
13 9 2 50.83 12.74
13 -9 2 38.47 16.68
-13 9 -2 18.05 13.21
-13 -9 -2 25.56 23.28
14 9 2 7.81 12.63
14 -9 2 18.52 18.92
14 -9 2 13.29 14.99
-14 9 -2 8.05 14.27
15 -9 2 12.56 17.34
-15 -10 2 2.17 20.43
-14 -10 2 -4.08 17.37
14 -10 -2 -5.07 16.57
-14 10 2 5.37 15
-13 -10 2 -9.51 16.13
13 10 -2 -20.08 18.37
13 10 -2 -2.85 12.61
-13 10 2 1.65 13.86
-12 10 2 13.76 11.98
-12 -10 2 28.74 22.07
12 10 -2 1.33 11.62
-12 -10 2 3.54 15.32
12 10 -2 11.62 16.44
11 10 -2 61.76 15.83
11 10 -2 27.77 11.2
-11 -10 2 32.85 14.38
-11 -10 2 31.24 18.46
10 10 -2 78.81 12.54
-10 -10 2 97.19 20.09
10 10 -2 81.6 15.72
-10 -10 2 60.96 14.41
-9 -10 2 87.18 17.88
9 10 -2 118.11 13.49
-9 -10 2 105.88 15.14
9 10 -2 106.11 14.98
9 10 -2 131.24 18.47
-8 -10 2 215.75 21.66
-8 -10 2 154.69 16.04
8 10 -2 139.09 17.29
8 10 -2 161.39 15.65
7 10 -2 557.95 30.27
-7 10 2 567.72 29.91
7 10 -2 623.01 34.61
-7 -10 2 557.66 35.11
6 10 -2 1518.57 66.8
6 10 -2 1505.36 68.07
-6 -10 2 1506.05 72.29
6 10 -2 1503.04 70.92
-5 10 2 1305.68 56.82
5 10 -2 1365.06 58.74
5 10 -2 1332.25 60.48
-5 -10 2 1319.77 63.98
-4 10 2 1299.88 57.25
4 -10 -2 1332.96 58.8
4 10 -2 1373.46 58.13
-4 -10 2 1362.03 63.71
3 10 -2 1225.78 52.25
-3 -10 2 1229.11 51.46
3 -10 -2 1205.64 53.41
3 10 -2 1197.44 52.91
-3 10 2 1190.5 52.44
-2 10 2 2607.74 111.29
2 10 -2 2618.33 111.57
-2 -10 2 2670.5 109.76
2 10 -2 2686.01 110.14
2 -10 -2 2669.91 111.58
-2 -10 2 2582.31 110.58
-2 10 2 2768.39 110.14
2 -10 -2 2781.43 111.7
-1 -10 2 3205.85 123.14
-1 10 2 2757.77 123.03
1 -10 -2 3101.85 124.83
1 -10 -2 2971.81 125
-1 10 2 3017.41 125.31
1 10 -2 3119.68 125.36
0 10 -2 2242.7 90.67
0 10 2 2218.01 90.67
0 10 -2 2158.85 88.23
0 -10 -2 2065.76 88.07
0 10 -2 2127.68 89.15
0 -10 -2 2170.69 89.36
-1 10 -2 3463.48 140.84
-1 -10 -2 3288.18 138.43
1 10 2 3365.42 139.06
-1 10 -2 3403.55 139.6
-1 -10 -2 3440.89 138.98
1 10 2 3463.43 140.95
-1 -10 -2 3358.06 137.61
-1 10 -2 3460.15 138.65
1 -10 2 3406.04 141.84
2 10 2 2721.78 111.36
-2 -10 -2 2692.04 111.3
-2 10 -2 2773.99 113.94
2 10 2 2695.09 113.71
2 -10 2 2677.48 114.81
3 -10 2 781.75 36.38
3 -10 2 713.47 31.39
3 10 2 803.71 35.21
-3 -10 -2 746.22 39.13
3 10 2 764.36 32.04
-3 10 -2 728.85 35.11
3 10 2 727.86 34.43
4 10 2 830.39 38.55
-4 10 -2 908.81 39.49
4 10 2 808.71 37.72
-4 -10 -2 844.61 43.48
4 -10 2 804.99 35.79
4 10 2 829.77 35.27
5 10 2 747.55 37.87
5 10 2 709.97 30.28
-5 -10 -2 723 39.18
5 10 2 693.46 33.94
5 10 2 701.32 32.94
5 -10 2 685.7 33.75
5 -10 2 701.6 31.77
-5 -10 -2 666.2 34.88
-6 -10 -2 287.23 18.78
6 10 2 276.84 20.58
-6 10 -2 282.04 18.69
6 10 2 262.26 13.42
-6 -10 -2 256.63 21.73
6 -10 2 289.19 16.07
6 -10 2 302.02 17.55
7 10 2 145.36 8.87
-7 10 -2 122.09 13.52
7 10 2 131.56 15.92
7 -10 2 133.51 11.98
7 10 2 147.4 12.94
-7 -10 -2 191.18 19.5
8 -10 2 181.73 14.83
8 10 2 177.87 14.69
-8 -10 -2 199.34 22.05
-8 10 -2 178.02 16.54
9 10 2 40.66 8.72
-9 10 -2 47.76 11.66
9 10 2 65.26 14.23
-9 -10 -2 64.43 17.77
9 -10 2 82.82 12.06
9 10 2 54.01 10.68
-10 10 -2 24.35 12.86
10 10 2 44.47 14.92
10 10 2 34.21 10.76
-10 -10 -2 38.61 18.47
10 -10 2 13.08 11.21
10 -10 2 34.18 10.98
11 10 2 16.13 15
-11 -10 -2 11.96 12.79
-11 10 -2 18.03 13.15
11 -10 2 19.67 11.22
-11 -10 -2 -7.45 18.29
11 10 2 25.89 11.24
11 -10 2 17.25 13.45
-12 -10 -2 86.18 24.47
12 -10 2 10.99 14.63
12 10 2 31.53 16.25
12 -10 2 15.91 12.51
12 10 2 15.19 11.51
-12 10 -2 45.57 16.88
13 -10 2 34.13 14.88
-13 -10 -2 26.29 23.72
13 -10 2 4.55 16.29
13 10 2 27.23 12.53
14 -10 2 18.26 18.97
14 10 2 2.35 13.05
14 -10 2 41.04 15.51
-14 10 -2 -9.94 15.69
-15 -11 2 55.09 21.23
-14 11 2 73.13 17.81
-14 -11 2 66.22 21.28
14 -11 -2 125.99 21.15
-13 11 2 84.53 16.84
13 11 -2 94.8 20.31
-13 -11 2 91.04 19.34
13 11 -2 111.13 16.73
12 -11 -2 78.73 15.88
12 11 -2 95 19.33
-12 11 2 69.12 15.52
-12 -11 2 77.8 17.33
12 11 -2 72.44 15.37
-12 -11 2 40.31 22.81
11 -11 -2 250.29 21.25
-11 -11 2 284.52 23.77
11 11 -2 237.71 19.67
-11 -11 2 255.41 28.23
11 11 -2 204.35 22
-10 -11 2 333.53 24.72
10 -11 -2 266.59 21.2
10 11 -2 325.01 24.07
10 11 -2 312.63 21.79
-10 -11 2 281.06 28.34
-10 11 2 298.14 21.46
9 11 -2 138.06 15.85
-9 11 2 70.64 12.57
9 11 -2 138.5 18.21
-9 -11 2 124.33 20.19
9 11 -2 111.94 13.54
-8 11 2 24.49 8.88
-8 -11 2 68.4 17.29
8 11 -2 16.35 13.75
8 11 -2 16.61 10.79
7 -11 -2 137.65 12.92
-7 -11 2 145.06 18.91
-7 11 2 151.22 13.41
7 11 -2 176.98 18.17
7 11 -2 143.25 14.36
6 11 -2 71.86 10.98
-6 11 2 98.12 10.98
6 -11 -2 88.5 10.19
6 11 -2 107.66 14.85
-6 -11 2 79.45 15.45
5 11 -2 -0.72 7.05
-5 11 2 8.58 5.51
5 -11 -2 9.06 7.2
-5 -11 2 11.05 13.08
5 11 -2 25.91 10.66
5 11 -2 -2.12 8.03
4 11 -2 19.8 6.76
4 -11 -2 33.19 7.07
-4 11 2 20.29 5.78
4 11 -2 25.26 8.6
3 -11 -2 -0.66 5.78
-3 11 2 -4.29 5.66
3 11 -2 7.19 5.52
-3 -11 2 -2.46 4.01
-3 11 2 -1.16 4.2
-2 -11 2 61.73 5.06
-2 11 2 45.97 6.85
2 11 -2 60.53 7.66
2 11 -2 53.82 5.7
2 -11 -2 59.11 7.74
-2 11 2 60.31 5.55
-2 -11 2 53.72 6.01
2 -11 -2 57.21 7.58
1 11 -2 36.86 6.9
-1 11 2 42.96 6.79
1 -11 -2 40.67 7.4
1 -11 -2 47.54 6.92
-1 11 2 37.27 4.43
0 11 -2 310.43 17.98
0 11 -2 354.72 15.45
0 11 -2 330.62 16.48
0 -11 -2 300.62 16.75
0 11 2 353.29 18.49
1 11 2 164.63 10.15
-1 -11 -2 143 8.86
1 11 2 176.79 11.96
-1 11 -2 171.5 12.32
-1 11 -2 187.59 9.29
-1 -11 -2 160.42 9.99
-1 11 -2 169.19 10.5
1 -11 2 186.35 13.28
-2 11 -2 463.82 24.45
-2 -11 -2 470.58 21.9
2 -11 2 500.58 25.65
2 11 2 495.7 22.1
2 11 2 457.07 24.12
-2 -11 -2 471.73 21.94
-3 11 -2 284.68 16.86
3 -11 2 305.01 18.05
3 11 2 270.4 13.52
-3 -11 -2 296.18 21.43
3 -11 2 254.83 12.16
3 11 2 276.96 16.29
4 11 2 327.27 18.07
4 -11 2 335.7 15.36
4 11 2 314.2 18.23
-4 -11 -2 326.32 23.63
4 11 2 235.42 20.5
4 11 2 320.2 15.05
-4 11 -2 285.25 18.63
5 11 2 327.34 19.79
5 11 2 342.21 18.87
-5 -11 -2 308.79 24.88
5 11 2 326.04 23.35
5 11 2 349.17 16.05
5 -11 2 339.83 17.18
5 -11 2 346.55 19.69
-5 11 -2 322.38 20.8
-6 11 -2 256.08 18
6 -11 2 255.28 16.48
-6 -11 -2 265.55 22.87
6 11 2 245.77 12.54
6 11 2 208.5 19.28
6 -11 2 236.19 14.45
-7 11 -2 456.86 27.35
7 11 2 468.62 21.64
7 11 2 472.96 25.94
7 11 2 500.57 30.45
-7 -11 -2 467.14 31.97
7 -11 2 432.42 25.52
7 -11 2 488.34 24.43
8 11 2 297.03 18.93
8 11 2 240.98 13.9
-8 -11 -2 277.89 25.61
8 -11 2 290.18 17.93
-8 11 -2 248.21 19.85
9 11 2 65.2 7.37
9 -11 2 91.31 12.45
9 11 2 84.13 12.2
9 11 2 60.18 9.55
-9 -11 -2 82 18.8
-9 11 -2 79.7 13.81
10 -11 2 143.24 15.1
10 11 2 84.98 11.27
10 11 2 128.93 14.42
10 -11 2 120.51 14.36
-10 11 -2 130.35 16.9
-10 -11 -2 84.57 21.39
11 11 2 133.54 15.36
11 -11 2 149.44 17.5
11 -11 2 143.8 16.16
-11 11 -2 170.35 19.67
-11 -11 -2 138.01 24.75
-12 11 -2 59.47 17.2
12 -11 2 76.57 15.62
12 -11 2 83.81 16.86
12 11 2 64.77 13.51
-12 -11 -2 77.52 24.54
-13 -11 -2 2.99 22.8
13 -11 2 4.4 13.76
13 11 2 14.25 12.87
13 -11 2 5.97 16.21
14 -11 2 15.64 16.14
14 -11 2 29.42 18.66
14 11 2 16.01 14.1
-14 11 -2 25.64 16.79
13 12 -2 -9.42 18.06
-13 12 2 17.77 15.53
-13 12 2 1.73 14.41
13 12 -2 -23.46 14.84
12 -12 -2 -3.1 13.1
-12 12 2 6.02 13.25
12 12 -2 3.47 17.25
12 12 -2 -1.4 12.09
11 12 -2 6.66 11.85
11 12 -2 17.3 15.48
11 -12 -2 15.89 12.86
-11 -12 2 -5.11 18.33
-11 12 2 7 12.71
10 -12 -2 10.74 10.95
10 12 -2 21.81 11.11
-10 12 2 50.74 12.56
10 12 -2 39.71 15.77
10 12 -2 17.09 13.57
-10 -12 2 49.76 19.74
-9 12 2 190.92 17.39
9 -12 -2 199.54 17.65
9 12 -2 226.43 19.52
9 12 -2 230.04 18.11
9 12 -2 166.01 20.31
-9 -12 2 175.9 23.21
8 -12 -2 3.42 8.4
8 12 -2 27.57 13.98
8 12 -2 1.14 10.78
-8 -12 2 8.18 15.22
-8 12 2 1.11 8.62
7 12 -2 18.05 9.84
-7 12 2 13.36 8.09
7 12 -2 11.5 11.56
-7 -12 2 19.13 14.18
7 -12 -2 30.22 8.73
-6 12 2 46.48 7.32
6 12 -2 56.21 8.66
-6 12 2 68.73 9.67
6 12 -2 49.86 10
6 12 -2 28.59 12.47
6 -12 -2 64.45 9.58
-6 -12 2 64.51 15.24
5 12 -2 171.72 12.28
5 -12 -2 148.85 12.84
5 12 -2 144.2 14.51
-5 12 2 165.07 11.09
5 12 -2 168.15 13.09
5 12 -2 147.53 16.71
-5 -12 2 156.1 18.62
4 -12 -2 209.47 14.43
4 12 -2 182.91 15.77
-4 12 2 195.92 12.69
4 12 -2 222.67 13.6
3 -12 -2 26.69 6.97
3 -12 -2 22.74 7.01
-3 -12 2 27.36 4.68
-3 12 2 36.02 5.49
-3 12 2 45.31 6.81
-3 -12 2 28.62 5.58
3 12 -2 32.39 6.44
-2 12 2 -0.29 3.63
-2 -12 2 2.58 3.51
2 12 -2 -5.12 5.98
-2 12 2 -2.49 6.13
2 -12 -2 0.63 5.74
-2 12 2 0.32 3.74
2 -12 -2 0.66 6.37
-2 -12 2 -0.85 4.32
-1 -12 2 110.65 9.82
-1 12 2 117.57 9.97
1 -12 -2 94.44 9.31
1 -12 -2 112.93 10.42
1 12 -2 117.05 9.79
-1 12 2 118.81 6.81
0 12 -2 10.08 6.24
0 12 -2 10.72 3.29
0 -12 -2 3.46 5.28
0 12 2 12.28 6.41
-1 -12 -2 259.48 13.44
-1 12 -2 234.76 15.17
-1 12 -2 270.78 12.17
1 12 2 225.82 14.96
-1 -12 -2 210.33 11.68
-1 -12 -2 235.53 11.85
1 12 2 254.82 13.73
-1 12 -2 269.48 13.64
1 -12 2 241.29 16.42
2 -12 2 131.49 12.06
-2 -12 -2 112.86 7.96
2 12 2 127.82 8.67
2 12 2 126.14 10.94
-2 12 -2 134.5 8.36
-2 12 -2 119.42 10.94
3 12 2 159.42 9.49
3 -12 2 142.73 13.4
-3 12 -2 142 12.27
-3 -12 -2 168.46 17.24
3 12 2 152.8 12.32
4 12 2 106.02 7.31
-4 12 -2 106.95 11.38
4 -12 2 92.28 6.58
4 12 2 88.09 10.31
-4 -12 -2 101.83 15.76
4 12 2 87.29 9.84
5 -12 2 8.48 5.13
-5 12 -2 -3.29 7.53
-5 -12 -2 8.28 11.95
5 12 2 23.39 7.98
5 12 2 14.34 4.48
5 -12 2 7.81 6.69
6 -12 2 32.12 6.95
6 12 2 30.42 5.08
-6 12 -2 29.24 8.87
6 -12 2 37.92 8.79
-6 -12 -2 14.24 14.37
7 12 2 10.88 4.83
7 -12 2 11.88 8.29
-7 -12 -2 22.93 14.78
7 -12 2 27.35 7.96
-7 12 -2 35.28 10.42
8 -12 2 11.69 8.79
8 12 2 2.68 5.51
-8 12 -2 -6.84 10.28
8 12 2 4.05 9.47
8 12 2 -15.36 8.27
-8 -12 -2 26.85 16.83
9 -12 2 3.65 10.03
9 12 2 -2.53 5.88
-9 12 -2 17.82 12.05
-9 -12 -2 2.24 16.57
9 12 2 7.46 10.46
9 12 2 5.99 7.92
-10 12 -2 8.05 12.21
10 12 2 3.67 6.22
10 -12 2 -13.47 11.45
10 12 2 -1.83 8.53
-10 -12 -2 -7.29 18.43
10 -12 2 -1.05 11.64
10 12 2 -1.13 10.45
11 -12 2 -19.73 13.05
11 12 2 31.28 12.96
11 -12 2 -8.34 13.65
-11 -12 -2 7.89 21.61
11 12 2 3.48 6.86
-11 12 -2 -1.73 13.83
12 12 2 -20.21 13.12
-12 -12 -2 39.83 24.32
12 -12 2 -2.82 13.4
12 -12 2 -5.31 14.58
13 12 2 2.48 13.09
13 -12 2 18.1 14.15
13 -12 2 -5.87 16.73
-13 -12 -2 6.14 24.16
14 -12 2 12.85 15.54
14 12 2 -1.29 14.11
14 -12 2 -19.28 18.4
-13 13 2 54.57 18.02
-13 13 2 95.92 17.67
13 13 -2 74.83 16.43
-13 -13 2 48.82 26.82
-12 13 2 58.85 15.88
12 13 -2 82.73 14.93
-12 -13 2 79.57 24.79
12 -13 -2 45.96 14.86
12 13 -2 66.66 19.04
11 -13 -2 103.54 16.85
-11 13 2 127.36 16.65
-11 -13 2 100.4 23.84
11 13 -2 91.91 15.45
11 13 -2 137.84 19.3
-10 -13 2 100.79 21.94
-10 13 2 64.8 14.36
10 13 -2 84.17 18.04
10 13 -2 51.83 13.26
10 13 -2 80.05 16.36
10 -13 -2 103.08 14.14
9 13 -2 3.94 12.68
9 -13 -2 19.1 10.65
-9 13 2 21.31 11.16
9 13 -2 1.27 10.41
-9 -13 2 22.89 16.69
9 13 -2 28.02 14.59
8 13 -2 137.23 16.14
-8 13 2 126.14 14.32
8 -13 -2 142.17 14.39
-8 -13 2 141.4 20.92
8 13 -2 140.19 15.31
8 13 -2 160.68 19.34
7 -13 -2 108.94 13.23
7 13 -2 154.04 15.2
7 13 -2 202.76 18.82
-7 13 2 139.32 14.03
-7 -13 2 158.98 21.48
7 13 -2 144.66 12.66
6 13 -2 97.55 10.4
-6 13 2 85.34 8.82
-6 -13 2 58.8 15.48
6 13 -2 86.39 11.43
6 13 -2 92.85 14.7
-6 13 2 100.22 12.03
6 -13 -2 89.8 11.27
-5 13 2 187.74 12.61
5 13 -2 188.25 14.26
5 13 -2 186.07 13.57
-5 13 2 228.82 15.67
5 13 -2 191.4 18.38
5 -13 -2 179.2 14.4
4 13 -2 142.78 11.41
-4 -13 2 157.84 9.75
4 -13 -2 144.81 12.33
4 13 -2 109.51 15.09
4 13 -2 152.85 14.66
-4 13 2 139.26 10.85
-3 13 2 25.8 6.36
3 -13 -2 19.42 7.03
-3 -13 2 20.56 5.66
-3 -13 2 28.01 4.56
3 -13 -2 12.74 7.56
3 13 -2 27.18 6.19
-3 13 2 28.11 5.36
-2 13 2 16.84 4.05
-2 13 2 14.18 2.86
-2 -13 2 15.46 3.72
-2 13 2 16.92 6.42
-2 -13 2 18.65 5.35
2 -13 -2 8.71 7.35
2 -13 -2 23.08 6.71
1 13 -2 11.88 6.42
-1 13 2 26.75 7.36
-1 -13 2 22.19 6.85
1 -13 -2 17.62 6.03
1 -13 -2 1.45 7.14
0 -13 2 39.25 7.44
0 13 2 46.12 7.99
0 13 -2 52.23 8.26
0 -13 -2 45.53 6.43
1 -13 2 18.29 8.11
-1 13 -2 22.24 7.56
1 13 2 32.35 6.48
1 13 2 41.96 8
-1 -13 -2 25.7 5.56
-1 13 -2 34.03 4.19
-1 13 -2 14.34 5.28
-1 -13 -2 26.88 3.79
-2 -13 -2 116.32 8.48
2 -13 2 113.9 12.08
-2 13 -2 114.1 11.17
-2 13 -2 126.96 8.01
-2 -13 -2 98.99 7.49
2 13 2 128.38 11.1
2 13 2 113.41 9.06
3 13 2 230.02 12.58
3 -13 2 216.2 16.63
-3 13 -2 225.73 15.5
3 13 2 216.94 15.11
4 13 2 100.66 7.7
-4 -13 -2 99.73 11.33
-4 -13 -2 125.16 16.8
4 13 2 126.82 11.09
4 -13 2 88.61 9.85
4 -13 2 103.03 6.58
-4 13 -2 84.15 11.16
5 13 2 118.71 8.05
-5 13 -2 96.75 12.39
5 13 2 117.52 12.13
-5 -13 -2 138.89 17.98
5 -13 2 105.75 8.23
5 -13 2 117.41 11.43
6 -13 2 290.28 16.37
6 -13 2 313.59 19.57
-6 -13 -2 318.74 26
-6 13 -2 305.9 21.2
6 13 2 305.29 15.27
-7 -13 -2 220.89 22.91
7 13 2 157.99 10.54
7 -13 2 188.44 13.09
7 -13 2 167.46 14.78
-7 13 -2 208.7 17.53
-8 13 -2 155.47 16.65
8 13 2 150.85 10.19
8 13 2 149.9 13.13
-8 -13 -2 118.49 20.86
8 -13 2 176.42 13.81
8 13 2 179.06 15.7
9 -13 2 83.72 12.49
-9 13 -2 113.35 15.77
9 13 2 144.7 14.37
-9 -13 -2 120.5 21.56
9 13 2 84.36 11.24
9 13 2 96.76 8.45
-10 13 -2 95.6 16.38
10 13 2 104.92 14.56
10 13 2 79.58 8.53
10 -13 2 88.41 14.17
-10 -13 -2 65.02 21.31
10 13 2 76.39 11.53
11 -13 2 167.65 17.65
11 -13 2 178.89 18.11
11 13 2 164.58 17.89
11 13 2 143.03 14.72
-11 -13 -2 189.21 28.38
11 13 2 156.99 11.57
-11 13 -2 152.28 19.93
-12 -13 -2 122.59 27.39
12 -13 2 82.71 16.32
12 13 2 96.68 10.18
12 -13 2 109.35 17.4
12 13 2 85.87 15.22
13 13 2 111.26 17.03
13 -13 2 85.19 18.4
13 -13 2 60.55 17.96
14 13 2 10.75 14.84
14 -13 2 23.68 18.09
13 -14 -2 12.08 15.87
13 14 -2 10.68 14.44
-13 -14 2 -25.09 26.4
12 14 -2 -3.56 17.39
12 14 -2 8.76 13.79
-12 14 2 31.78 14.96
-12 -14 2 20.49 23.95
12 -14 -2 19.46 14.33
11 14 -2 78.13 17.76
-11 14 2 44.68 14.94
11 14 -2 24.04 13.24
11 -14 -2 74.45 15.4
-11 -14 2 87.19 23.91
10 -14 -2 45.26 13.15
-10 -14 2 35.64 19.92
10 14 -2 20.69 14.47
-10 14 2 50.22 14.09
10 14 -2 24.4 16.58
10 14 -2 52.31 13.05
9 -14 -2 45.96 11.48
9 14 -2 69.09 13.19
9 14 -2 39.33 9.32
9 14 -2 43.12 15.56
-9 -14 2 38.18 19.39
9 14 -2 55.96 14.16
-9 14 2 62.89 13.01
8 14 -2 183.46 17.8
8 14 -2 206.41 18.44
8 14 -2 183.58 21.17
-8 -14 2 213.06 24.64
-8 14 2 215.9 18.21
8 14 -2 185.47 14.7
8 -14 -2 193.88 16.84
7 -14 -2 586.92 33.29
7 14 -2 658.95 34.07
7 14 -2 599.45 31.45
-7 -14 2 690.26 41.62
7 14 -2 623.19 38.24
-7 14 2 691.13 34.61
-6 14 2 289.63 19.33
6 -14 -2 257.52 18.77
-6 -14 2 283.08 25.22
6 14 -2 295.28 23.69
6 14 -2 274.52 18.68
6 14 -2 250.86 17.06
-6 14 2 294.5 16.32
-5 14 2 188.82 13.24
5 14 -2 238.5 20.69
5 14 -2 206.67 14.86
5 14 -2 194.24 14.03
5 -14 -2 195.31 15.47
4 -14 -2 536.68 27.29
4 14 -2 514.58 29.71
4 14 -2 511.84 25.8
4 14 -2 528 26.42
-4 14 2 534.75 25.9
-4 -14 2 501.27 23.82
4 14 -2 471.95 31.55
-3 -14 2 533.93 26.14
-3 14 2 582.23 25.59
-3 14 2 532.11 27.52
3 -14 -2 553.29 28.73
3 14 -2 527.14 33.38
-3 -14 2 573.8 24.98
3 -14 -2 584.53 28.59
2 -14 -2 1067.8 46.05
2 14 -2 1040.3 52.02
2 -14 -2 1056.15 46.76
-2 14 2 1038.88 46.12
-2 -14 2 1025.66 42.21
-2 14 2 934.21 42.47
-1 -14 2 1273.92 56.59
1 -14 -2 1307.86 57.12
1 14 -2 1155.3 56.18
-1 14 2 1319.03 56.65
1 -14 -2 1296.2 55.84
0 -14 2 343.94 19.55
0 14 -2 369.75 20.02
0 -14 -2 323.72 18.13
0 14 2 332.19 19.39
1 -14 2 579.12 27.54
-1 14 -2 531.96 24.77
-1 -14 -2 505.15 22.75
1 14 2 569.16 27.61
-1 14 -2 513.43 27.21
1 14 2 543.98 25.69
1 -14 2 534.96 28.79
-1 -14 -2 540.57 25.4
-1 14 -2 522.54 23.19
-2 -14 -2 791.98 36.2
2 -14 2 882.51 42.08
2 -14 2 866.77 40.05
-2 14 -2 839.9 40.46
2 14 2 867.91 38.05
2 14 2 823.12 40.13
-2 14 -2 837.21 37.97
-2 -14 -2 876.11 37.92
-2 14 -2 883.12 36.66
3 -14 2 344.3 19.67
3 14 2 354.95 17.22
3 -14 2 294.48 20.67
-3 -14 -2 309.89 16.28
-3 14 -2 318.58 19.79
4 -14 2 151.69 12.66
4 -14 2 151.05 8.22
-4 -14 -2 170.57 19.59
4 14 2 146.59 10.27
-4 14 -2 156.79 13.79
-4 -14 -2 179.09 14.18
5 -14 2 100.9 7.79
5 -14 2 94.83 11
5 14 2 102.52 8.07
-5 -14 -2 89.29 18.09
5 14 2 109.66 12.45
-5 -14 -2 113.48 12.28
6 14 2 126.24 9.2
6 -14 2 115.16 12.51
-6 14 -2 155.37 15.37
-6 -14 -2 128.59 19.39
-6 -14 -2 128.36 14.14
6 -14 2 133.98 10.02
7 14 2 105.14 11.78
-7 -14 -2 172.38 21.93
7 -14 2 107.91 10.66
-7 14 -2 96.08 14.56
7 14 2 113.93 8.7
7 -14 2 132.71 13.38
8 14 2 54.28 6.68
8 -14 2 48.14 10.96
8 14 2 45.99 12.22
8 14 2 59.55 10.13
-8 -14 -2 83.11 19.67
-8 14 -2 64.59 13.32
8 -14 2 38.12 9.54
9 14 2 2.98 5.77
9 14 2 5.58 8.48
-9 -14 -2 -24.07 18.86
-9 14 -2 7.89 12.91
9 14 2 10.58 11.64
9 -14 2 -5.19 9.8
-10 -14 -2 38.72 21.31
-10 14 -2 15.27 13.51
10 -14 2 11.04 11.43
10 14 2 35.88 13.05
10 14 2 33.16 10.4
10 14 2 19.34 6.87
11 14 2 3.33 6.94
11 -14 2 34.11 14.2
11 14 2 3.09 10.66
11 14 2 -5.11 12.4
11 -14 2 -6.99 12.86
-11 14 -2 18.19 15.95
-11 -14 -2 13.87 21.75
12 -14 2 17.92 14.78
-12 -14 -2 38.8 25.12
12 14 2 6.51 13.52
12 -14 2 6.37 14.84
12 14 2 3.51 7.44
13 -14 2 12.72 15.96
13 14 2 13.5 15.03
13 -14 2 -9.88 17.19
14 14 2 -4.2 15.66
14 -14 2 20.11 17.98
12 15 -2 -1.8 18.02
-12 -15 2 -18.05 23.79
12 15 -2 -7.5 13.71
-12 15 2 35.85 16.36
12 -15 -2 33.08 15.71
11 15 -2 5.45 9.85
11 15 -2 18.96 13.44
11 -15 -2 35.68 14.14
-11 15 2 20.03 14.64
11 15 -2 8.24 16.31
11 15 -2 4.43 16.9
-11 -15 2 19.71 21.78
10 15 -2 20.95 15.52
10 15 -2 11.4 9.55
-10 15 2 15.97 13.29
10 15 -2 19.86 13.11
-10 -15 2 84.55 22.16
10 15 -2 -10.55 16.7
10 -15 -2 27.51 12.9
-9 15 2 12.32 12.65
9 15 -2 21.31 9.57
9 15 -2 9.45 13.37
9 15 -2 16.43 14.9
-9 -15 2 42.27 19.67
9 -15 -2 20.22 11.13
9 15 -2 -9.72 11.83
8 15 -2 53.72 13.16
-8 15 2 64.87 13.11
-8 -15 2 53.92 19
8 15 -2 48.27 10.05
8 -15 -2 51.09 11.84
8 15 -2 57.4 15.89
8 15 -2 79.6 14.34
7 15 -2 11.39 9.09
-7 -15 2 31.09 17.5
7 15 -2 58.63 12.36
7 -15 -2 26.5 10.17
7 15 -2 19.14 11.3
-7 15 2 10.98 7
-7 15 2 12.22 10.63
7 15 -2 27.08 15.18
6 -15 -2 -1.07 9.03
6 15 -2 14.29 8.22
-6 15 2 -1.93 6.93
6 15 -2 18.48 10.08
6 15 -2 1.89 12.82
5 15 -2 23.32 8.17
-5 15 2 12.11 7.12
5 -15 -2 18.68 9.34
5 15 -2 35 13.24
5 15 -2 18.73 8.23
-4 15 2 56.08 6.64
4 -15 -2 37.17 9.52
4 15 -2 26.97 12.16
-4 15 2 35.74 7.94
4 15 -2 49.43 8.86
-4 -15 2 39.58 7.16
-4 -15 2 40.57 5.83
-3 -15 2 2.48 3.76
-3 -15 2 8.68 5.62
3 -15 -2 11.38 8.03
-3 15 2 -8.87 7.07
-3 15 2 3.29 4.33
3 15 -2 8.77 12.31
-3 15 2 3.33 4.64
3 -15 -2 3.34 7.62
-2 15 2 8.63 7.58
-2 15 2 0.74 3.72
2 15 -2 -6.93 10.78
2 -15 -2 6.01 8.48
2 -15 -2 -1.53 7.44
-1 -15 2 3.26 6.84
1 -15 -2 -2.59 7.89
-1 15 2 6.46 7.31
1 15 -2 -1.73 11.52
1 -15 -2 14.67 7.09
0 15 2 20.89 7.85
0 -15 2 9.97 7.49
0 15 -2 5.85 7.53
0 -15 -2 13.5 6.15
-1 15 -2 43.4 4.29
-1 15 -2 60 6.84
1 15 2 46.65 7.45
-1 -15 -2 55.93 7.31
1 -15 2 35.64 8.07
1 -15 2 60.46 10.59
1 15 2 47.67 9.03
-1 15 -2 47.28 9.27
2 -15 2 11.13 9.19
-2 -15 -2 8.78 6.13
-2 15 -2 1.84 8.42
2 -15 2 5.3 6.24
2 15 2 11.23 6.29
-2 -15 -2 4.71 3.63
-2 15 -2 4.8 4.13
-2 -15 -2 7.68 3.62
-2 15 -2 5.19 5.75
2 15 2 7.2 7.81
3 15 2 -1.54 5.63
-3 -15 -2 -4.55 4.64
3 -15 2 0.93 6.99
-3 -15 -2 11.09 7.9
3 -15 2 4.6 9.14
-3 15 -2 11.63 8.86
3 15 2 14.07 7.55
4 -15 2 2.92 7.21
4 15 2 -0.96 5.55
4 15 2 4.9 8.21
-4 15 -2 -2.05 8.98
-4 -15 -2 7.97 8.42
5 -15 2 22.41 8.86
5 15 2 18.44 9.45
-5 -15 -2 10.8 8.78
5 -15 2 10.24 4.7
-5 -15 -2 31.43 14.63
5 15 2 19.77 6.19
6 15 2 12.85 5.64
6 15 2 2.82 8.64
-6 15 -2 6.68 10.66
6 -15 2 4.43 5.91
-6 -15 -2 -4.65 9.51
-6 -15 -2 22.89 16.6
6 -15 2 -2.14 8.68
7 -15 2 4.51 9.07
7 15 2 13.43 5.71
-7 -15 -2 -15.44 16.32
7 -15 2 4.59 7.03
7 15 2 5.61 8.38
-7 15 -2 11.41 10.98
-8 15 -2 88.46 15.06
8 -15 2 90.71 13.39
8 15 2 84.09 11.64
8 15 2 57.77 12.79
-8 -15 -2 70.22 19.58
8 -15 2 76.81 10.53
8 15 2 85.08 7.8
-9 15 -2 34.27 14.2
9 15 2 15.59 9.54
9 15 2 23.61 6.37
9 15 2 53.08 13.03
-9 -15 -2 37.42 20.77
9 -15 2 31.03 10.08
-10 15 -2 26.18 15.43
10 15 2 10.05 10.05
-10 -15 -2 5.35 21.06
10 -15 2 19.4 11.74
10 15 2 8.99 6.77
10 15 2 37.53 14.29
11 15 2 12.98 7.21
-11 -15 -2 45.79 23.9
11 15 2 9.39 13.87
11 -15 2 2.21 12.97
11 15 2 8.42 10.74
11 -15 2 7.2 13.26
12 -15 2 -1.24 14.52
12 -15 2 21.5 15.07
-12 -15 -2 -42.96 25.52
12 15 2 5.25 7.24
12 15 2 13.68 14.5
13 15 2 -2.82 15.33
13 -15 2 -2.75 16.15
13 16 -2 11.25 12.3
12 -16 -2 33.87 15.4
12 16 -2 41.81 19.98
12 16 -2 13.89 14.59
-12 -16 2 -18.58 25.56
-12 16 2 18.51 15.45
12 16 -2 18.56 11.81
11 16 -2 -1.66 16.52
11 16 -2 29.73 19.17
11 16 -2 9.39 10.8
-11 16 2 22.35 15.02
11 16 -2 -4.53 13.68
-11 -16 2 8.73 22.71
11 -16 -2 4.77 13.85
10 16 -2 27.23 16.78
-10 -16 2 16.43 20.89
10 16 -2 10.9 10.33
-10 16 2 34.83 14.04
10 16 -2 48.41 18.09
10 16 -2 13.17 13.79
10 -16 -2 -2.97 13.05
-9 16 2 35.96 13.54
9 16 -2 -2.14 16.04
-9 -16 2 10.36 18.87
9 16 -2 15 14.38
9 -16 -2 -6.94 11.65
9 16 -2 11.49 9.33
9 16 -2 20.22 13.64
8 16 -2 16.59 15.98
8 16 -2 22.47 10.06
8 16 -2 15.86 12.21
8 16 -2 29.18 12.69
-8 16 2 25.87 12.6
-8 -16 2 29.43 19.41
8 -16 -2 15.53 11.01
-7 16 2 69.06 13.49
7 16 -2 48.92 10
7 16 -2 58.9 13.8
7 -16 -2 56.26 12.37
7 16 -2 59.87 12.7
7 16 -2 61.05 16.61
-7 16 2 62.63 8.91
6 16 -2 245.18 18.38
-6 16 2 277.59 16.65
6 16 -2 269.4 17.86
6 -16 -2 266.02 19.58
6 16 -2 239.46 23.79
5 -16 -2 146.74 14.09
5 16 -2 109.06 17.7
-5 -16 2 142.02 10.29
5 16 -2 161.3 13.25
-5 16 2 129.06 11.59
5 16 -2 143.28 12.87
-4 16 2 236.89 16.3
4 16 -2 225.07 22.96
-4 16 2 252.05 13.82
-4 -16 2 240.72 13.05
-4 -16 2 242.72 14.41
4 16 -2 282.63 17.28
4 -16 -2 271.06 17.71
3 16 -2 907.52 47.97
3 16 -2 848.99 40.6
-3 16 2 916.68 40.78
-3 -16 2 917.53 36.45
-3 -16 2 888.18 38.28
3 -16 -2 856.6 41.61
3 -16 -2 831.12 40.98
-3 16 2 759.82 36.68
2 -16 -2 899.66 43.61
2 16 -2 932.63 49.75
-2 16 2 913.03 42.84
2 -16 -2 902.11 42.57
1 -16 -2 592.21 30.24
-1 -16 2 552.27 29.35
1 -16 -2 578.82 28.73
-1 16 2 559.95 29.64
1 16 -2 620.44 36.75
0 -16 2 845.09 41.45
0 16 2 810.3 39.35
0 -16 2 760.73 38.8
0 -16 -2 838.04 37.88
1 -16 2 353.91 22.14
-1 16 -2 311.22 20.04
1 16 2 328.83 20.22
1 -16 2 300.15 19.59
-1 -16 -2 335.14 18.26
-2 16 -2 112.68 12.91
-2 -16 -2 129.13 7.47
2 -16 2 132.38 12.44
-2 16 -2 148.4 8.11
-2 16 -2 126.93 10.17
2 16 2 128.7 12.89
-2 -16 -2 140.04 10.61
2 -16 2 145.16 14.55
2 16 2 151.72 11.18
-3 16 -2 154.74 13.97
3 16 2 156.46 13.31
3 -16 2 127.42 12.23
3 -16 2 103.25 13.37
-3 -16 -2 139.38 12.94
3 16 2 125.51 10.11
-3 -16 -2 99.14 8
-3 16 -2 119.76 8.87
4 16 2 207.1 16.49
-4 -16 -2 219.76 16.24
4 16 2 219.97 16.86
-4 16 -2 239.87 17.99
4 16 2 221.97 13.51
4 -16 2 184.87 15.78
5 16 2 168.34 11.34
5 -16 2 161.26 9.3
-5 -16 -2 179.3 15.35
5 16 2 190.98 15.96
5 16 2 173.5 14.89
5 -16 2 177.81 15.04
6 16 2 15.03 9.31
6 -16 2 1.12 9.71
6 16 2 19.63 6.54
6 16 2 18.05 11.68
-6 -16 -2 19.69 16.61
6 -16 2 23.03 6.13
-6 -16 -2 15.46 10.26
7 16 2 0.45 5.98
-7 16 -2 11.79 11.76
7 -16 2 12.96 9.99
-7 -16 -2 4.61 18.41
7 -16 2 4.8 7.09
7 16 2 17.95 9.53
8 16 2 -0.99 9.23
8 16 2 1.24 11.24
8 16 2 3.98 6.02
-8 16 -2 1.58 12.75
-8 -16 -2 -2.44 19.12
8 -16 2 -12.42 10.37
8 -16 2 4.67 8.32
-9 16 -2 -21.93 14.79
9 -16 2 17.6 9.85
-9 -16 -2 12.96 20.58
9 16 2 8.17 9.64
9 16 2 12.94 12.45
9 16 2 5.33 6.22
10 -16 2 -3.73 11.23
10 16 2 6.73 6.47
10 16 2 4.07 13.22
-10 -16 -2 22.08 22.49
-10 16 -2 -3.6 16.18
10 16 2 -9.4 10.25
11 16 2 -2.81 14.55
11 -16 2 7.48 12.63
11 16 2 6.52 11.21
11 -16 2 35.61 14.86
-11 -16 -2 20.6 23.89
11 16 2 15.09 7.15
12 -16 2 39.69 15.14
12 16 2 84.38 18.16
12 -16 2 23.66 15.39
12 16 2 34.01 12.59
13 17 -2 86.83 14.97
12 -17 -2 139.2 20.06
12 17 -2 149.57 16.06
-12 -17 2 118.05 29.59
12 17 -2 125.26 19.09
11 17 -2 177.01 16.81
-11 -17 2 237.32 31.99
-11 17 2 199.16 22.81
11 17 -2 160.19 22.78
11 17 -2 176.03 20.09
11 -17 -2 246.99 22.38
10 -17 -2 170.08 19.22
10 17 -2 171.41 19.45
10 17 -2 168.29 20.8
10 17 -2 159.63 15.58
-10 17 2 156.74 19.85
-10 -17 2 230.09 30.52
10 17 -2 191.82 24.52
9 -17 -2 223.5 20.05
9 17 -2 195.09 20.35
9 17 -2 208.65 16.41
9 17 -2 226.82 20.5
-9 -17 2 209.96 27.89
9 17 -2 158.59 23.54
-9 17 2 199.85 20.2
8 17 -2 295.97 19.93
8 17 -2 322.91 24.01
8 17 -2 291.99 22.5
-8 17 2 316.28 23.54
-8 -17 2 279.99 29.93
8 -17 -2 300.22 22.24
8 17 -2 292.56 27.8
7 -17 -2 159.87 16.81
7 17 -2 187.33 15.15
-7 17 2 184.42 13.51
7 17 -2 191.93 22.33
7 17 -2 180.35 16.91
7 17 -2 185.96 18.66
6 17 -2 173.48 14.71
6 17 -2 162.88 15.31
6 17 -2 219.87 19.59
-6 17 2 178.94 13.87
6 17 -2 201.48 22.5
6 -17 -2 203.76 16.41
-5 17 2 344.3 20.88
5 17 -2 415.87 22.46
-5 -17 2 367.63 20.06
5 17 -2 378.47 29.13
5 -17 -2 345.67 22.81
-5 -17 2 366.43 18.5
-5 17 2 368.37 19.3
4 17 -2 331.06 26.97
4 -17 -2 336.35 21.27
-4 17 2 297.64 16.85
-4 -17 2 383.2 16.42
-4 17 2 332.18 19.91
4 17 -2 293.26 20
-4 -17 2 327.35 17.9
3 -17 -2 5.04 9.89
3 17 -2 -2.61 8.83
-3 17 2 10.78 4.39
-3 17 2 5.95 8.44
3 17 -2 7.94 13.45
3 -17 -2 3.68 8.64
2 -17 -2 52.75 10.77
2 17 -2 59.1 16.22
-2 17 2 43.8 9.29
2 -17 -2 41.07 8.97
2 17 -2 35.37 9.83
-1 -17 2 42.34 9.24
1 -17 -2 45.17 10.49
1 -17 -2 45.34 8.75
1 17 -2 53.51 14.9
-1 17 2 19.23 8.84
0 -17 -2 42.72 8.47
0 -17 2 44.22 9.66
0 -17 2 40.43 11.38
0 17 2 52.81 10.13
-1 -17 -2 67.64 8.88
1 -17 2 51.99 11.87
1 17 2 48.64 9.86
-1 17 -2 75.15 11.52
1 -17 2 61.59 10.54
2 17 2 64.23 9.17
2 17 2 65.39 11.18
2 -17 2 76.53 10.65
-2 17 -2 60.67 11.26
-2 -17 -2 80.91 10.63
-2 17 -2 56.85 5.5
-2 -17 -2 75.68 9.08
2 -17 2 52.43 11.74
-2 17 -2 71.72 8.08
-3 -17 -2 337.09 17.32
-3 17 -2 390 18.06
3 -17 2 362.85 24.54
-3 17 -2 363.14 19.78
3 17 2 391.29 23.03
-3 -17 -2 412.27 22.92
3 17 2 385.89 20.21
-3 17 -2 363.62 23.4
3 -17 2 390.89 22.79
4 -17 2 371.87 22.8
4 17 2 410.43 19.9
-4 -17 -2 394.58 23.1
-4 -17 -2 329.91 18.31
4 17 2 393.11 23.24
4 17 2 384.72 23.37
-4 17 -2 327.68 23.42
5 17 2 373.05 20.25
5 -17 2 407.62 24.53
-5 -17 -2 410.8 24.77
5 17 2 429.62 25.35
5 17 2 390.76 24.1
6 -17 2 412.04 19.74
6 17 2 415.44 20.99
6 -17 2 419.24 25.44
6 17 2 421.87 25.01
6 17 2 410.63 25.73
-6 -17 -2 428.77 33.93
7 17 2 239.12 18.22
7 -17 2 266.8 19.25
-7 -17 -2 285.03 28.78
7 -17 2 240.63 14.34
7 17 2 219.93 13.94
-8 17 -2 313.53 24.05
8 -17 2 218.2 15.57
8 17 2 226.95 20.04
-8 -17 -2 279.57 30.14
8 17 2 236.22 14.05
8 17 2 241.29 18.14
8 -17 2 248.18 19.8
-9 -17 -2 231.42 29.71
9 -17 2 213.8 16.31
9 17 2 245.44 20.89
9 -17 2 195.1 19.02
9 17 2 200.44 12.99
-9 17 -2 253.56 23.99
9 17 2 209.88 17.51
10 17 2 163.68 11.84
10 -17 2 203.7 16.9
10 17 2 159.48 16.1
10 17 2 221.37 20.79
-10 -17 -2 159.71 28.55
11 17 2 92.47 9.32
11 17 2 112.98 18.45
-11 -17 -2 45.5 25.33
11 17 2 100.75 14.76
11 -17 2 116.65 15.97
12 17 2 90.2 15.13
12 -17 2 69.38 16.46
13 18 -2 1.07 12.96
12 18 -2 -9.27 12.64
11 18 -2 -11.26 14.85
-11 18 2 -1.73 16.54
-11 -18 2 21.76 24.69
11 18 -2 36.88 18.66
11 18 -2 6.97 11.76
11 -18 -2 -1.68 14.99
10 18 -2 5.79 11.01
10 18 -2 11.01 14.8
10 18 -2 6.09 15.33
-10 18 2 8.22 15.28
10 -18 -2 -3.15 13.68
-10 -18 2 14.7 23.56
10 18 -2 45.22 19.8
-9 -18 2 38.95 22.05
9 18 -2 27.91 18.7
-9 18 2 18.71 14.52
9 -18 -2 69.31 15.39
9 18 -2 32.95 11.19
9 18 -2 26.61 14.15
9 18 -2 50.74 15.47
8 -18 -2 104.61 15.36
8 18 -2 111.6 16.57
8 18 -2 87.96 15.27
8 18 -2 94.43 12.52
8 18 -2 49.95 18.02
7 -18 -2 193.61 18.42
7 18 -2 214.85 20.35
7 18 -2 195.86 16.05
7 18 -2 172.03 23.05
6 18 -2 187.64 15.51
-6 18 2 186.04 14.31
6 18 -2 178.56 22.38
6 18 -2 194.61 19.4
6 -18 -2 190.05 17.36
5 -18 -2 422.33 24.71
5 18 -2 441.74 23.78
-5 18 2 374.3 22.19
-5 18 2 406.95 20.31
5 18 -2 338.36 30.21
-5 -18 2 367.23 19.01
-5 -18 2 388.76 20.84
-4 18 2 409.37 21.24
4 18 -2 430.8 32.69
-4 18 2 511.19 25.66
4 -18 -2 438.45 26.56
-4 -18 2 425.73 22.48
-4 -18 2 498.6 20.85
-4 18 2 470.89 21.94
4 18 -2 459.78 25.75
3 18 -2 85.55 11.52
-3 18 2 91.48 11.62
3 18 -2 88.38 17.71
3 -18 -2 81.75 12.56
-3 18 2 88.26 6.15
3 -18 -2 86.92 12.04
2 18 -2 199.1 15.84
-2 18 2 169.07 14.43
2 18 -2 154.97 20.82
2 -18 -2 168.15 14.41
2 -18 -2 159.74 15.54
1 -18 -2 416.42 25.71
-1 -18 2 445.77 25
-1 18 2 419.26 31.05
1 -18 -2 465.11 24.38
-1 18 2 429.72 24.86
1 18 -2 366.92 30.83
0 18 2 181.44 15.6
0 -18 2 187.36 18.09
0 -18 -2 197.93 14.55
0 -18 2 222.28 16.42
0 18 2 213.82 21.85
1 -18 2 124.38 15.53
1 -18 2 153.49 14.17
-1 -18 -2 155.36 12.48
1 18 2 133.42 13.96
2 -18 2 177.43 14.65
-2 18 -2 117.4 14.18
2 18 2 156.49 12.36
2 -18 2 131.9 15.25
2 18 2 145.25 14.24
-2 18 -2 123.87 7.05
-2 -18 -2 136.2 13.19
-2 -18 -2 154.5 11.99
-2 18 -2 157.2 10.65
3 18 2 45.47 8.34
3 18 2 37.33 10.83
-3 18 -2 33.47 5.37
3 -18 2 35.96 9.55
-3 18 -2 44.44 11.7
-3 -18 -2 38.36 10.16
-3 18 -2 39.72 7.7
-3 -18 -2 27.11 4.31
3 -18 2 36.44 12.65
-3 -18 -2 31.54 4.7
4 18 2 20.11 10.49
4 -18 2 3.41 8.75
-4 18 -2 9.55 11.27
-4 18 -2 2.82 6.27
4 18 2 7.99 10.11
4 18 2 -4.29 7.17
-4 -18 -2 -0.39 5.71
-4 -18 -2 -3.23 9.33
-5 -18 -2 15.02 10.93
5 18 2 19.59 10.49
5 18 2 44.34 7.88
5 18 2 33.29 11.21
5 -18 2 20.19 10.44
6 18 2 13.6 10.02
6 -18 2 9.82 10.35
6 18 2 13.66 11.55
6 18 2 9.76 6.97
6 -18 2 14.16 5.11
7 -18 2 5.13 11.13
7 18 2 5.16 6.94
-7 -18 -2 5.02 19.59
7 18 2 -3.37 10.11
7 -18 2 11.4 6.4
8 -18 2 5.38 11.41
8 18 2 3.96 6.75
8 18 2 8.86 10.65
8 18 2 21.75 12.95
-8 -18 -2 -21.19 21.31
8 -18 2 -2.26 7.81
9 18 2 1.12 10.5
9 18 2 1.9 6.86
9 18 2 -18.44 13.68
-9 -18 -2 25.08 22.8
9 -18 2 -11.33 12.64
9 -18 2 7.01 9.29
10 18 2 2.29 7.01
10 18 2 -4.51 11.36
10 18 2 17.81 14.31
-10 -18 -2 -2.95 24.12
10 -18 2 -4.18 10.53
11 -18 2 -7.75 12.65
11 18 2 -10.34 12.28
-11 -18 -2 -28.13 25.47
12 18 2 10.64 12.54
12 19 -2 -2.1 12.38
11 -19 -2 -1.72 14.83
11 19 -2 -23.16 17.14
11 19 -2 -3.05 11.92
-11 -19 2 -3.2 25.17
-11 19 2 24.93 17.47
10 19 -2 -1.99 11.13
-10 -19 2 12.11 22.64
10 19 -2 16.28 14.73
-10 19 2 -10.19 16.75
10 -19 -2 -3.23 13.92
9 19 -2 3.26 14.42
9 19 -2 12.1 18.62
9 19 -2 9.77 11.22
9 -19 -2 -9.1 13.35
8 19 -2 -11.57 10.62
8 -19 -2 -1.42 12.58
8 19 -2 4.92 13.54
8 19 -2 -18.96 18.82
7 -19 -2 5.3 11.63
7 19 -2 -2.34 17.05
7 19 -2 8.17 13.38
7 19 -2 8.62 9.9
6 -19 -2 3.72 11.71
-6 19 2 0.84 8.87
6 19 -2 -2.31 16.32
6 19 -2 -6.5 13.58
6 19 -2 12.49 9.59
-6 19 2 17.6 7.58
5 19 -2 60.85 15.11
5 19 -2 70.68 11.29
-5 -19 2 42.53 8.15
-5 19 2 47.83 7.93
-5 19 2 37.66 9.49
5 19 -2 61.6 18.38
5 -19 -2 43.86 11.68
4 19 -2 44.21 11.13
4 -19 -2 28.04 10.68
-4 -19 2 26.64 6.79
4 19 -2 18 16.35
-4 19 2 26.42 9.65
-4 19 2 27.74 5.45
3 19 -2 28.19 10.6
3 -19 -2 21.74 11.36
-3 19 2 55.76 10.98
3 -19 -2 19.25 10.27
3 19 -2 24.46 16.25
2 19 -2 47.91 11.11
-2 19 2 32.2 10.55
2 -19 -2 18.15 11.13
2 -19 -2 47.68 10.79
2 19 -2 33.28 15.64
1 19 -2 49.47 11.33
1 -19 -2 55.61 10.03
-1 -19 2 55.45 11.21
-1 19 2 90.46 12.22
-1 19 2 72.13 18.69
1 19 -2 53.6 17.6
1 -19 -2 62.93 12.78
0 -19 -2 11.7 8.47
0 -19 2 8.27 11.1
0 19 -2 22.55 16.78
0 -19 2 19 10.09
0 -19 -2 -1.15 10.99
0 19 2 16.86 10.41
0 19 2 -4.07 15.8
-1 -19 -2 3.59 8.03
-1 -19 -2 -1.58 8.05
1 -19 2 -1.08 9.26
1 -19 2 8.28 11.11
1 19 2 9.73 10.14
1 19 2 -4.06 14.71
-2 -19 -2 22.18 9.25
2 -19 2 25.42 10.2
-2 -19 -2 12.67 8.02
2 -19 2 22.22 11.76
2 19 2 25.65 10.78
2 19 2 34.72 16.24
-2 19 -2 16.07 11.2
2 19 2 19.74 8.59
-3 -19 -2 69.92 11.54
-3 19 -2 75.53 13.28
3 19 2 49.49 9.26
3 19 2 59.97 12.26
3 -19 2 59.59 11.73
3 -19 2 39.74 13.04
-3 19 -2 73.77 8.77
3 19 2 60.06 18.13
-4 19 -2 8.76 11.34
4 19 2 21.75 7.97
4 19 2 11.31 10.22
-4 -19 -2 28.6 10.57
4 19 2 11.97 11.39
-4 19 -2 15.67 6.24
4 -19 2 24.95 10.33
5 -19 2 8.66 9.78
5 19 2 14.94 10.92
-5 -19 -2 11.77 11.04
5 19 2 -2.46 7.28
5 19 2 -2.45 11.16
6 19 2 2.9 7.25
6 -19 2 23.17 11.34
6 19 2 10.76 10.94
6 19 2 27.29 12.12
7 19 2 39.25 12.46
7 19 2 16.99 7.65
7 -19 2 26.19 6.39
7 -19 2 24.06 12.38
8 19 2 10.94 7.48
8 19 2 7.11 13.29
8 -19 2 1.97 7.1
8 19 2 2.33 10.81
8 -19 2 -11.19 12.18
-8 -19 -2 -19.21 21.8
9 19 2 44.61 15.56
-9 -19 -2 8.68 23.11
9 19 2 25.55 11.01
9 -19 2 32.3 13.81
9 19 2 25.76 7.75
9 -19 2 22.84 9.25
10 19 2 27.67 7.67
-10 -19 -2 51.83 24.97
10 19 2 2.34 12.28
10 -19 2 33.12 11.21
11 19 2 -7.1 12.7
12 20 -2 12.9 12.83
11 20 -2 -10.5 12.91
10 20 -2 37.21 16.29
10 -20 -2 44.84 15.91
10 20 -2 12.36 11.67
9 20 -2 108.53 18.72
9 -20 -2 103.03 17.1
9 20 -2 84.24 13.73
8 20 -2 67.52 12.87
8 20 -2 27.22 19.64
8 -20 -2 64.35 15.04
8 20 -2 71.64 16.63
7 20 -2 163.89 25.13
7 20 -2 176.97 20.65
7 20 -2 116.9 14.18
7 -20 -2 146.54 16.84
6 20 -2 289.49 25.17
6 20 -2 312.41 21.11
6 -20 -2 340.03 23.6
6 20 -2 329.46 30.39
-6 20 2 319.96 18.09
-5 20 2 232.17 14.23
5 -20 -2 293.13 20.98
-5 20 2 279.22 18.84
5 20 -2 298.07 19.56
-5 20 2 278.46 15.14
5 20 -2 265.88 27.45
5 20 -2 289.6 24.4
-4 20 2 418.77 23.82
4 20 -2 458.03 24.59
-4 20 2 359.4 17.87
4 20 -2 445.74 33.68
4 20 -2 362.03 28.34
4 -20 -2 455.34 25.38
3 -20 -2 487.06 29.82
-3 20 2 500.49 28.16
3 20 -2 520.06 28.47
3 20 -2 492.74 36.17
3 -20 -2 489.7 28.42
-2 20 2 207.8 16.98
2 -20 -2 216.01 17.06
2 20 -2 164.31 23.38
2 -20 -2 173.42 17.59
2 20 -2 218.7 17.52
-1 20 2 194.88 24.88
-1 -20 2 196.81 17.05
1 -20 -2 198.87 18.44
-1 20 2 234.6 17.87
1 -20 -2 207.18 16.75
1 20 -2 216.48 17.94
1 20 -2 246.07 26.48
0 -20 -2 451.01 27.94
0 20 -2 495.27 35.23
0 -20 2 409.16 28.7
0 20 2 440.34 33.43
0 20 2 479.86 27.43
0 20 -2 369.83 26.46
0 -20 -2 499.19 25.68
0 -20 2 470.2 27.19
-1 -20 -2 441.87 24.9
1 -20 2 412.95 28.54
1 20 2 399.32 26.03
1 20 2 445.37 33.66
1 -20 2 482.55 26.85
-1 -20 -2 454.47 24.5
-2 -20 -2 233.53 15.9
2 20 2 254.09 18.94
2 20 2 237.97 25.76
2 -20 2 166.46 19.11
-2 -20 -2 218.25 17.25
2 -20 2 233.33 18.54
-3 -20 -2 224.72 17.34
3 -20 2 253.43 21.44
-3 20 -2 266.05 20.35
3 20 2 245.53 19.51
3 20 2 269 26.66
-3 20 -2 273.61 14.81
3 -20 2 284.24 19.79
3 20 2 230.27 15.89
-3 20 -2 198.15 10.85
4 20 2 163.07 17.29
4 -20 2 165.5 16.02
-4 20 -2 181.64 10.8
4 20 2 157.27 16.59
4 20 2 166.68 13.49
-4 -20 -2 179.46 16.25
4 20 2 185.72 24.11
-5 20 -2 57.18 8.48
5 20 2 95.74 13.99
5 20 2 60 12.92
-5 -20 -2 63.42 13.27
5 -20 2 60.76 12.48
5 20 2 87.49 22.02
5 20 2 44.02 9.19
6 20 2 98.97 10.41
6 20 2 79.65 14.2
6 20 2 106.07 14.96
6 -20 2 88.8 14.61
6 20 2 120.01 21.72
7 -20 2 43.29 13.33
7 20 2 30.81 8.53
7 20 2 50.63 20.3
7 20 2 26.29 12.4
8 -20 2 13.93 6.91
8 20 2 24.44 12.39
8 20 2 18.07 7.77
8 -20 2 21.8 13.21
8 20 2 16.61 19.19
9 20 2 16.96 7.79
-9 -20 -2 17.89 23.79
9 -20 2 15.23 14.02
9 20 2 4.84 12.09
9 -20 2 14.23 8.35
-10 -20 -2 -22.03 26.39
10 20 2 1.22 12.41
11 20 2 -3.67 13.66
11 21 -2 32.53 13.68
10 21 -2 99.33 15.45
9 -21 -2 62.49 16.53
9 21 -2 52.93 12.93
9 21 -2 43.98 17.88
8 21 -2 47.82 16.79
8 21 -2 23.27 12.08
8 -21 -2 55.56 15.67
7 -21 -2 56.35 14.46
7 21 -2 57.57 12.7
-7 21 2 45.55 9.75
7 21 -2 43.55 20.64
7 21 -2 86.7 17.89
6 -21 -2 34.28 12.77
-6 21 2 44.59 8.42
6 21 -2 33.57 15.87
6 21 -2 58.68 12.6
6 21 -2 60.91 21.18
-5 21 2 28.61 10.11
-5 21 2 12.63 5.83
5 21 -2 13.68 11.39
5 21 -2 12.57 18.9
5 21 -2 35.94 17.13
5 -21 -2 18.61 12.19
4 21 -2 8.97 14.86
4 21 -2 -10.64 11.96
-4 21 2 12.28 10.88
4 21 -2 22.46 19.99
4 -21 -2 4.69 10.21
3 -21 -2 15.39 12.65
-3 21 2 -2.15 10.4
3 21 -2 -9.8 11.11
3 21 -2 -7.42 18.12
3 -21 -2 -1.11 10.5
2 21 -2 5.59 10.9
-2 21 2 35.23 18.57
-2 21 2 2.24 10.83
2 21 -2 -9.9 18.32
2 -21 -2 1.06 10.12
2 -21 -2 -15.3 12.51
1 21 -2 27.56 11.65
1 21 -2 34.99 19.07
-1 21 2 2.31 18.15
1 -21 -2 24.37 12.51
-1 21 2 20.65 11.13
1 -21 -2 18.88 9.76
0 -21 -2 84.22 11.66
0 21 -2 83.98 13.46
0 21 2 84.5 20.94
0 -21 2 76.11 13.07
0 -21 2 45.99 14.36
0 -21 -2 88.23 14.7
0 21 -2 20.3 18.14
0 21 2 81.76 13.55
0 -21 -2 67.66 10.68
-1 -21 -2 26.39 10.11
-1 -21 -2 36.68 9.58
1 -21 2 19.84 13.73
1 21 2 32.31 12.04
1 21 2 15.94 17.64
1 -21 2 39.72 12.07
2 -21 2 13.54 11.43
-2 -21 -2 21.86 9.48
2 -21 2 81.29 16
2 21 2 11.42 17.43
2 21 2 36.86 12.79
-2 -21 -2 1 10.22
3 21 2 60.83 10.64
-3 21 -2 77.23 9.05
3 21 2 68.41 13.75
3 21 2 43.76 19.13
-3 -21 -2 80.76 12.34
3 -21 2 74.99 14.92
3 -21 2 68.18 13.38
-4 -21 -2 154.61 16.07
4 21 2 183.3 18.25
4 21 2 179.87 18.05
4 -21 2 167.94 17.07
4 21 2 146.3 24.16
4 21 2 141.27 13.4
-4 21 -2 169.1 9.37
5 21 2 142.71 17.25
5 21 2 136.36 16.23
5 21 2 234.88 25.98
5 -21 2 154.77 17.05
5 21 2 164.46 13.28
-5 21 -2 139.67 10.88
6 21 2 152.13 17.53
6 21 2 129.35 16.89
6 21 2 158.31 12.76
6 -21 2 124.38 16.85
6 21 2 158.95 24.77
7 21 2 115.87 16.36
7 21 2 84.03 23.15
7 -21 2 124.14 16.75
7 21 2 87.44 10.77
8 -21 2 46.95 14.24
8 21 2 35.55 8.76
8 21 2 34.7 13.8
9 21 2 10.09 12.81
9 -21 2 50.49 15.65
10 21 2 27.92 14.36
11 22 -2 5.62 13.68
10 22 -2 -16.69 13.67
9 22 -2 -4.41 12.75
9 -22 -2 -4.92 15.09
8 22 -2 -9.83 12.63
8 22 -2 -9.19 16.29
-8 22 2 13.9 9.56
8 -22 -2 -13.88 14.82
-7 22 2 -1.94 8.8
7 22 -2 5.52 15.53
7 22 -2 4.37 12.15
7 -22 -2 -7.24 13.33
6 22 -2 11.02 15.93
6 22 -2 12.04 11.58
6 -22 -2 2.73 12.3
-6 22 2 6.36 6.51
6 22 -2 10.62 19.94
-6 22 2 8.6 7.61
5 -22 -2 9.02 12.36
5 22 -2 1.87 16.3
5 22 -2 13.18 19.9
-5 22 2 4.7 4.97
5 22 -2 -5.52 11.2
4 22 -2 -16.86 16.55
-4 22 2 25.97 11.52
4 22 -2 2.62 19.97
4 -22 -2 -1.22 10.8
4 22 -2 1.12 11.49
3 -22 -2 22.12 11.6
3 22 -2 50.57 13.31
3 -22 -2 31.08 13.41
-3 22 2 25.87 12.23
3 22 -2 62.54 21.37
2 -22 -2 16.58 10.47
-2 22 2 1.18 11.17
2 -22 -2 9.43 11.69
-2 22 2 -4.97 20.26
2 22 -2 21.17 12.29
2 22 -2 5.22 18.84
1 22 -2 8.45 11.88
-1 -22 2 16.07 13.68
1 22 -2 2.64 18.91
-1 22 2 -2.44 18.27
-1 22 2 -7.25 11.85
1 -22 -2 14.35 9.17
1 -22 -2 -3.13 10.37
1 -22 -2 10.84 13.18
0 -22 -2 12.88 10.43
0 22 2 12.07 19.59
0 -22 -2 21.94 12.99
0 22 2 11.05 11.64
0 -22 -2 4.49 9.15
0 22 -2 3.74 12.37
0 -22 2 27.41 13.99
0 -22 2 11.08 11.49
0 22 -2 26.75 21.34
-1 -22 -2 9.45 10.17
-1 22 -2 26.91 12.93
1 22 2 21.36 12.81
1 22 2 -4.8 19.16
1 -22 2 -17.71 12.59
1 -22 2 -4.8 12.55
-1 -22 -2 10.51 9.16
2 -22 2 24.65 12.85
2 22 2 25.78 13.09
2 -22 2 17.69 13.64
-2 -22 -2 34.35 11.18
2 22 2 28.89 19.24
-2 -22 -2 32.79 10.34
3 -22 2 9.82 14.56
3 22 2 9.29 12.21
-3 -22 -2 1.08 10.58
3 -22 2 15.85 12.59
3 22 2 9.7 20.16
4 22 2 8.93 12.86
4 -22 2 -5.45 12.16
4 22 2 10.98 13.12
4 22 2 3.96 9.38
-4 -22 -2 1.15 11.05
4 22 2 2.44 19.27
-4 22 -2 2.6 3.54
5 -22 2 22.45 12.44
5 22 2 -5.78 13.47
-5 22 -2 5.97 6.41
5 22 2 7.13 12.64
5 22 2 9.83 19.18
5 22 2 6.67 9.15
6 -22 2 -7.27 12.24
6 22 2 14.86 12.94
6 22 2 -2.8 12.87
6 22 2 11.78 8.67
6 22 2 -9.9 20.09
7 22 2 30.38 14.14
7 -22 2 21.14 13.6
7 22 2 14.87 8.82
8 22 2 9.42 13.15
8 -22 2 23.69 14.45
8 22 2 20.35 8.7
9 22 2 7.89 14.04
10 22 2 -3.95 14.02
10 23 -2 26.33 14.29
9 23 -2 6.83 13.69
8 -23 -2 4.75 15.03
8 23 -2 34.1 13.22
-8 23 2 34.68 10.44
7 23 -2 68.27 14.4
-7 23 2 47.45 9.66
7 -23 -2 73.16 16.45
7 23 -2 62.91 19.17
6 -23 -2 19.77 13.58
-6 23 2 25.8 6.4
6 23 -2 36.64 12.71
6 23 -2 49.63 18.11
5 -23 -2 2.68 12.55
5 23 -2 5.85 16.08
5 23 -2 -8.13 12.46
5 23 -2 8.27 20.6
4 23 -2 17.57 15.77
4 23 -2 -2.75 20.64
4 23 -2 2.37 12.13
4 -23 -2 -12.72 12.7
-4 23 2 6.85 11.43
3 23 -2 58.02 14.76
-3 23 2 23.54 12.64
3 23 -2 13.67 21.34
3 -23 -2 1.22 11.41
3 -23 -2 -4.27 13.35
2 -23 -2 19.61 11.45
2 -23 -2 4.26 12.95
2 23 -2 1.24 12.51
2 23 -2 27.47 22.1
-2 23 2 -11.09 12.3
-2 23 2 -7.88 21.31
1 -23 -2 9.38 9.03
-1 -23 2 10.14 14.34
1 23 -2 6.34 12.48
-1 23 2 16.51 12.43
-1 23 2 -18.03 20.82
1 23 -2 -2.77 20.53
1 -23 -2 18.52 13.49
1 -23 -2 4.38 10.96
0 -23 -2 50.82 10.92
0 -23 -2 44.06 11.6
0 -23 2 54.22 13.14
0 -23 2 75.99 16.89
0 23 -2 19.71 20.91
0 23 2 66.07 22.35
0 23 2 16.76 12.14
0 -23 -2 33.21 14.19
0 23 -2 40.27 13.77
-1 23 -2 52.6 13.98
1 23 2 68.31 22.5
-1 -23 -2 41.84 11.52
-1 -23 -2 38.59 10.62
-1 23 -2 17.05 20.57
1 23 2 57.85 13.52
1 -23 2 36.86 15.37
-1 -23 -2 53.57 15.07
1 -23 2 34.47 12.98
-2 -23 -2 43.72 11.47
2 -23 2 24.49 13.22
2 23 2 43.19 13.57
-2 23 -2 16.74 13.9
2 23 2 25.35 21.12
2 -23 2 28.66 14.89
3 -23 2 45.71 13.76
-3 -23 -2 56.52 12.53
3 23 2 48.59 13.36
3 23 2 89 23.19
3 -23 2 49.57 16.52
4 23 2 62.68 15.97
4 -23 2 55.41 15.02
4 23 2 84.74 14.91
4 23 2 94.54 23.98
-4 -23 -2 76.47 13.99
-4 23 -2 63.65 9.31
5 23 2 115.64 25.43
5 -23 2 128.73 16.69
5 23 2 91.44 12.14
5 23 2 60.77 16.39
6 23 2 106.5 12.45
6 23 2 161.88 18.65
-6 23 -2 120.94 10.72
-6 23 -2 126.28 12.71
6 -23 2 146.43 17.69
7 23 2 86.64 16.29
7 -23 2 96.99 17.51
7 23 2 85.47 11.23
8 23 2 30.96 15.04
9 23 2 52.13 15.18
9 24 -2 82.62 16.57
8 24 -2 99.17 16.37
7 -24 -2 80.1 16.63
7 24 -2 77.14 15.66
6 24 -2 97.08 20.61
6 -24 -2 202.99 19.83
6 24 -2 155.87 17.3
5 24 -2 117.75 21.16
5 -24 -2 156.84 17.92
5 24 -2 107.3 15.85
4 24 -2 162.89 18.2
4 -24 -2 146.34 17.67
4 24 -2 128.33 21.84
4 24 -2 158.54 27.86
3 24 -2 228.03 20.92
3 -24 -2 228.92 20.18
-3 24 2 252.37 32.32
3 -24 -2 238.83 22.25
3 24 -2 243.78 30.93
-3 24 2 251.19 20.66
2 24 -2 128.26 16.81
2 -24 -2 77.69 16.17
2 -24 -2 104.99 12.37
2 -24 -2 117.78 14.95
-2 24 2 135.18 28.65
2 24 -2 147.49 27.59
-2 24 2 123.69 15.96
1 -24 -2 218.34 16.6
1 24 -2 224.37 30.21
-1 -24 2 189.98 22.38
-1 24 2 205.91 28.83
1 -24 -2 191.48 21.03
-1 24 2 222.75 20.24
1 24 -2 246.18 21.01
1 -24 -2 190.14 18.31
0 24 -2 404.5 36.79
0 -24 -2 289.43 20.22
0 -24 -2 329.53 22.11
0 -24 2 303.44 23.43
0 -24 -2 257.69 24.08
0 24 2 348.61 24.73
0 -24 2 280.75 26.51
0 24 2 337.03 34.33
0 24 -2 339.41 24.68
-1 -24 -2 168.13 16.51
1 -24 2 159.66 21.65
1 -24 2 200.03 19.37
-1 24 -2 172.17 19.63
1 24 2 215.43 20.07
-1 -24 -2 163.26 15.99
-1 24 -2 149.64 28.72
-1 -24 -2 184.55 20.64
1 24 2 207.08 28.84
2 24 2 142.43 17.74
2 -24 2 217.84 19.76
-2 -24 -2 158.18 15.8
2 24 2 138.61 27.16
-2 24 -2 176.67 19.44
2 -24 2 123.54 20
3 -24 2 183.64 21.69
3 -24 2 157.08 18.84
3 24 2 98.75 25.77
-3 -24 -2 168.88 16.21
3 24 2 162.62 19
4 24 2 46.2 16.59
4 -24 2 94.8 16.88
4 24 2 50.81 23.1
5 24 2 35.1 16.28
5 -24 2 51.78 15.26
6 24 2 44.7 16.36
6 -24 2 28.21 14.02
6 24 2 36.03 10.48
-6 24 -2 38.5 10.29
7 24 2 34.76 16.35
8 24 2 10.29 15.58
9 24 2 -1.43 14.94
9 25 -2 15.89 15.2
8 25 -2 7.37 14.22
7 25 -2 -4.96 13.99
6 -25 -2 -15.1 14.82
6 25 -2 -6.29 13.53
5 25 -2 -6.39 14.11
5 -25 -2 14.4 14.61
4 25 -2 14.84 18.47
4 -25 -2 20.67 14
4 25 -2 14.3 13.2
3 -25 -2 -5.45 9.2
-3 25 2 -5.9 25.39
3 25 -2 10.61 13.99
-3 25 2 18.18 13.21
3 -25 -2 -1.56 14.48
3 -25 -2 3.93 13.23
2 -25 -2 25.08 13.72
-2 25 2 5.38 13.18
2 -25 -2 12.94 9.2
2 -25 -2 1.57 14.13
-2 -25 2 26.09 17.21
2 25 -2 9.49 13.57
-2 25 2 2.89 23.96
1 -25 -2 10.8 12.69
-1 -25 2 -7.43 15.69
-1 25 2 2.78 13.93
-1 25 2 -14.22 23.65
1 -25 -2 14.1 15.19
1 -25 -2 0.85 9.07
1 25 -2 11.08 14.16
0 -25 -2 13.85 12.29
0 -25 -2 12.65 14.78
0 25 -2 -8.58 14.03
0 -25 -2 9.93 9.78
0 -25 2 3.68 15.61
0 25 2 -2.84 13.26
0 25 2 -16.87 22.62
0 -25 2 12.65 13.35
-1 -25 -2 1.91 9.95
1 -25 2 1.83 15.36
1 -25 2 11.59 14.1
1 25 2 -11.58 13.71
-1 -25 -2 14.43 15.77
1 25 2 2.79 22.14
-1 25 -2 7.36 14.36
-2 25 -2 22.84 16.85
2 -25 2 7.43 13.41
2 -25 2 9.22 16.12
2 25 2 5.58 23.11
-2 -25 -2 6.11 10.81
3 -25 2 42.58 15.14
-3 -25 -2 31.54 12.65
3 25 2 22.34 22.78
3 -25 2 18.58 16.86
4 -25 2 15.45 14.47
4 25 2 27.68 17.24
5 25 2 43.26 17.02
5 -25 2 45.92 16.38
6 25 2 54.8 17.51
7 25 2 37.82 16.97
8 25 2 21.43 16.41
8 26 -2 16.66 15
7 26 -2 25.92 15.4
6 -26 -2 -9.37 16.05
6 26 -2 11.83 14.67
5 26 -2 41.38 15.4
5 -26 -2 19.44 15.06
4 26 -2 8.15 14.85
4 -26 -2 9.96 13.85
3 -26 -2 -13.07 16.46
3 26 -2 6.93 14.79
3 -26 -2 28.72 9.47
2 26 -2 93.38 17.82
2 -26 -2 83.46 18.43
-2 -26 2 105.33 20.11
2 -26 -2 108.73 12.59
2 -26 -2 96.36 16.18
-2 26 2 83.6 16.49
1 -26 -2 71.3 11.5
-1 26 2 82.5 16.59
1 -26 -2 91.57 18.42
1 -26 -2 79.29 15.25
1 26 -2 86.88 17.34
-1 -26 2 102.8 21.17
0 -26 2 13.42 16.95
0 26 -2 52.32 16.6
0 -26 -2 43.27 11.33
0 -26 -2 37.95 16.81
1 -26 2 46.85 15.26
-1 -26 -2 56.6 11.9
-1 -26 -2 58.66 17.97
1 -26 2 40.11 17.58
2 -26 2 41.84 15.5
-2 -26 -2 25.31 16.49
-2 -26 -2 19.15 10.97
2 -26 2 32.69 17.56
3 -26 2 1.93 17.44
3 -26 2 14.27 15.29
4 -26 2 6.45 15.08
4 26 2 7.25 17.38
5 26 2 13.95 17.55
6 26 2 -10.07 17.25
7 26 2 -1.64 16.33
5 -27 -2 16.93 15.67
4 -27 -2 1.47 14.11
3 -27 -2 -12.69 14.95
2 -27 -2 -1.71 16.36
2 -27 -2 -4.6 9.41
2 -27 -2 -18.95 14.73
-2 -27 2 16.31 18.07
1 -27 -2 -6.81 16.9
-1 -27 2 2.02 17.05
1 -27 -2 4.03 9.72
0 -27 2 3.99 17.75
0 -27 -2 1.72 9.9
0 -27 -2 22.33 17.47
-1 -27 -2 1.75 16.8
1 -27 2 13.91 17.56
1 -27 2 26.72 16.22
-1 -27 -2 24 11.2
2 -27 2 20.02 18.93
-2 -27 -2 72.33 19.77
2 -27 2 48.31 16.44
3 27 2 17.42 19.27
4 27 2 53.07 19.65
5 27 2 119.85 22.59
6 27 2 77.04 20.5
15 0 -3 0.66 5.56
-15 0 3 -7.52 21.51
-15 0 3 1.91 16.49
-14 0 3 -5.29 15.03
-14 0 3 -20.64 19.23
-13 0 3 20.87 17.85
-13 0 3 11.36 13.07
-12 0 3 22.28 13.27
-12 0 3 -1.89 15.6
-11 0 3 -5.06 13.97
-11 0 3 -6.78 10.57
-10 0 3 1.23 9.26
-9 0 3 -4.43 8.95
-8 0 3 19.83 8.38
-7 0 3 6.15 7.01
-6 0 3 4.61 6.07
-5 0 3 1.98 5.49
-4 0 3 -6.13 5.41
-3 0 3 2.79 4.9
3 0 -3 -2.89 4.74
-2 0 3 0.38 4.31
2 0 -3 2.04 3.94
-2 0 3 -3.79 4.64
1 0 -3 0.82 3.71
-1 0 3 0.31 4.39
-1 0 3 -2.04 4.13
-1 0 3 -0.38 3.84
0 0 3 0.4 3.85
0 0 -3 -1.34 3.04
-1 0 -3 1.03 2.39
-2 0 -3 -0.42 2.43
-2 0 -3 -2.02 4.02
-3 0 -3 1.26 3.17
-3 0 -3 2.83 4.51
-3 0 -3 7.78 4.98
-4 0 -3 -5.85 5.48
-4 0 -3 8.02 4.47
5 0 3 -5.21 7.15
5 0 3 3.12 4.26
-5 0 -3 0.4 4.4
-5 0 -3 3.7 6.42
6 0 3 8.63 4.68
6 0 3 0.84 7.6
-6 0 -3 -4.19 4.73
7 0 3 -2.4 5.1
-7 0 -3 0.56 5.21
-8 0 -3 -1.32 6
-9 0 -3 -7.62 7.68
-10 0 -3 -8.54 13.4
-10 0 -3 20.1 9.04
10 0 3 8.43 7
11 0 3 0.78 7.64
-11 0 -3 2.99 9.22
-11 0 -3 13.23 13.99
12 0 3 3.45 8.53
-12 0 -3 -1.12 10.92
12 0 3 7.86 15.3
-12 0 -3 10.44 16.36
13 0 3 13.16 10.13
-13 0 -3 6.9 18.59
-13 0 -3 -1.23 11.52
14 0 3 7.07 10.66
-14 0 -3 -12.66 20.2
15 0 3 -3.22 11.89
-15 -1 3 -2.57 20.06
15 -1 -3 13.45 3.42
-15 1 3 39.59 17.41
15 -1 -3 18.15 3.74
-15 -1 3 25.2 16.77
-15 1 3 56.76 21.65
-14 -1 3 70.4 21.18
-14 1 3 105.91 21.69
-14 -1 3 61 16.98
-14 1 3 47.05 15.67
-13 1 3 83.06 15.73
-13 1 3 71.18 18.37
-13 -1 3 115.49 21.35
-13 -1 3 62.83 15.54
-12 1 3 187.89 21.87
-12 1 3 200.18 19.11
-12 -1 3 184.45 19.31
-12 -1 3 172.28 22.56
-11 1 3 295.35 21.74
-11 -1 3 294.27 25.28
-11 1 3 275.08 23.86
-11 -1 3 280.39 21.47
-10 1 3 175.78 18.88
-10 -1 3 198.74 17.46
-10 1 3 226.43 17.68
-9 1 3 453.73 26.81
-9 -1 3 463.71 26.78
-8 -1 3 635.84 32.42
-8 1 3 597.77 31.84
-7 -1 3 228.41 16.04
-7 1 3 239.04 15.77
-6 -1 3 7.89 6.8
-6 1 3 7.55 6.13
-5 1 3 319.41 17.29
-5 -1 3 295.14 17.45
4 -1 -3 54.39 6.45
-4 -1 3 67.22 7.4
-4 1 3 66.1 7.4
-3 1 3 -0.45 4.34
3 1 -3 0.45 4.47
-3 -1 3 3.53 4.87
3 1 -3 4.63 4.58
3 -1 -3 3.16 4.09
-2 -1 3 3.79 4.67
-2 -1 3 5.13 4.63
2 -1 -3 5.91 3.69
2 1 -3 12.39 4.82
-2 1 3 1.69 4.72
2 1 -3 9.13 4.44
-2 1 3 7.62 3.56
-1 -1 3 612.1 27.03
1 -1 -3 617.13 25.73
-1 1 3 607.94 26.07
-1 1 3 629.65 27.18
-1 -1 3 541.75 27.09
-1 -1 3 580.13 26.89
1 1 -3 608.29 25.78
-1 1 3 592.16 26.87
1 1 -3 548.06 26.68
0 -1 3 1937.27 80.71
0 -1 -3 1898 78.67
0 -1 3 2074.74 79.7
0 -1 -3 1966.75 78.87
0 1 3 1848.77 80.67
0 1 -3 1987.74 80
0 1 3 1842.51 79.09
-1 1 -3 327.75 15.55
-1 -1 -3 338.37 14.92
-1 -1 -3 329.77 16.52
-1 1 -3 359.86 16.28
-2 -1 -3 73.3 6.55
-2 -1 -3 79.88 4.57
-2 1 -3 75.09 5.61
-3 1 -3 214.35 12.64
-3 -1 -3 244.54 12.95
-3 -1 -3 234.29 13.87
-3 1 -3 243.84 13.64
-3 1 -3 251.84 12.18
-4 1 -3 188.63 10.82
-4 -1 -3 191.89 11.05
-4 1 -3 182.48 12.23
4 1 3 185.5 9.57
-4 -1 -3 191.55 12.97
5 1 3 1894.06 77.73
-5 1 -3 1898.27 78.3
5 -1 3 1777.34 80.53
-5 -1 -3 1765.39 78.46
-5 -1 -3 1912.89 78.12
-5 1 -3 1917.84 80.74
-5 -1 -3 1944.37 81.25
5 -1 3 1895.78 78.49
-6 1 -3 1252.42 53.29
-6 -1 -3 1243.59 56.68
6 -1 3 1284.76 54.03
6 1 3 1258.03 53.31
-6 -1 -3 1226.86 53.81
6 1 3 1277.96 57.05
7 1 3 619.1 28.61
7 1 3 598.23 32.65
7 -1 3 643.36 29.5
-7 -1 -3 646.89 29.6
8 1 3 171.81 16.13
-8 -1 -3 160.53 12.08
-8 1 -3 158.08 12.17
8 1 3 194.18 11.63
-8 -1 -3 180.35 17.38
-9 -1 -3 145.37 12.53
-9 1 -3 180.39 13.38
-9 -1 -3 148.55 18.16
10 -1 3 235.81 20.32
10 -1 3 233.08 15.44
-10 -1 -3 227.88 22.15
-10 1 -3 236.98 16.61
-10 -1 -3 222.77 16.45
-11 -1 -3 95.32 12.66
-11 -1 -3 109.42 18.15
-11 1 -3 123.92 13.13
11 1 3 106.06 11.34
11 -1 3 107.54 16.43
11 -1 3 117.39 11.76
-12 -1 -3 51.01 12.26
12 -1 3 95.07 11.86
-12 1 -3 61.3 12.15
12 1 3 68.67 10.47
-12 -1 -3 97.71 19.89
-12 1 -3 82.79 18.52
12 -1 3 82.46 16.95
-13 1 -3 72.74 20.66
13 1 3 66.08 18.34
-13 1 -3 70.9 14.57
13 -1 3 66.3 18.81
13 1 3 69.01 11.66
-13 -1 -3 42.14 20.47
13 -1 3 58.96 12.03
14 1 3 48.14 12.01
14 -1 3 45.41 12.69
-14 1 -3 59.76 21.12
-14 -1 -3 41.37 22.26
15 1 3 19.47 12.2
15 -1 3 23.58 13.13
-15 2 3 -20.59 16.41
-15 2 3 38.97 21.21
-15 -2 3 7.91 16.7
-15 -2 3 -7.92 22.47
14 -2 -3 4.52 3.42
-14 -2 3 10.96 15.67
-14 2 3 -8.62 14.33
14 -2 -3 5.54 3.65
-14 2 3 -4.4 18.52
-14 -2 3 -4.83 19.44
-13 2 3 -9.5 13.23
-13 -2 3 1.69 13.8
-13 2 3 13.86 16.67
-13 -2 3 17.62 17.87
-12 -2 3 49.7 14.97
-12 2 3 39.16 16.17
-12 2 3 45.15 13.19
-12 -2 3 67.85 18.35
-11 2 3 1.33 10.28
-11 -2 3 7.08 11.54
-11 2 3 -20.69 14.4
-11 -2 3 -1.8 15.52
-10 -2 3 371.89 25.3
-10 2 3 406.73 25.04
-10 2 3 405.94 26.71
-9 -2 3 642.13 33.44
-9 2 3 592.11 32.27
-8 2 3 651.63 32.39
8 2 -3 620.79 31.38
-8 -2 3 599.03 32.41
-7 -2 3 1228.02 55.95
-7 2 3 1221.79 55.47
-6 2 3 1454.3 61.57
-6 -2 3 1328.68 61.71
-5 -2 3 2801.68 115.63
-5 2 3 2695.3 114.91
4 2 -3 3456.85 143.12
-4 2 3 3369.73 143.06
-4 -2 3 3581.93 143.9
3 2 -3 1397.44 64.33
-3 -2 3 1559.72 64.78
-3 2 3 1541.31 63.95
-3 -2 3 1575.36 64.08
3 2 -3 1466.1 63.98
2 2 -3 1898.83 76.18
-2 -2 3 1666.63 76.05
-2 -2 3 1842.85 76.87
-2 -2 3 1753.79 76.32
-2 2 3 1953.71 75.81
-2 2 3 1804.85 76.36
2 2 -3 1806.59 76.74
-1 -2 3 1632.22 66.31
-1 2 3 1584.38 65.24
-1 2 3 1513.33 66.18
-1 -2 3 1503.55 66.63
-1 2 3 1583.23 66.23
1 2 -3 1638.3 66.5
0 2 -3 1752.3 72.58
0 -2 3 1816.95 73.5
0 2 3 1837.82 73.53
0 -2 3 1644.26 72.81
0 -2 -3 1715.14 71.76
0 -2 -3 1819.68 73.47
-1 2 -3 843.62 36.12
-1 2 -3 843.56 35.67
-1 -2 -3 792.53 35.65
1 -2 3 841.7 35.65
-2 -2 -3 5.72 4.88
-2 -2 -3 6.2 1.9
-2 2 -3 8.51 3.91
-2 2 -3 6.72 4.99
-2 -2 -3 12.03 4.08
2 -2 3 11.94 3.54
-3 -2 -3 104.74 7.68
-3 -2 -3 105.46 9.1
-3 2 -3 115.87 8.36
3 2 3 100.1 8.47
-3 -2 -3 95.77 5.51
-3 2 -3 114.41 7.51
-4 2 -3 350.54 18.39
-4 -2 -3 365.01 17.45
-4 -2 -3 338.18 15.72
4 2 3 341.93 15.35
-4 -2 -3 346.39 19.69
-4 2 -3 326.98 16.75
5 2 3 395.14 17.16
-5 2 -3 356.55 17.88
-5 -2 -3 357.62 21.72
-5 2 -3 389.1 20.08
-5 -2 -3 385.46 17.84
5 -2 3 335.14 18.39
6 -2 3 33.93 5.96
-6 2 -3 40.87 4.93
6 2 3 33.93 7.09
-6 -2 -3 29.71 9.7
6 2 3 35.76 8.58
-6 -2 -3 28.57 5.65
6 2 3 34.18 4.94
-7 -2 -3 1.23 9.83
-7 -2 -3 8.31 5.91
7 2 3 1.99 9.2
7 2 3 1.58 4.43
7 2 3 -7.16 5.99
-8 -2 -3 0.66 6.57
8 2 3 -0.63 6.11
-8 -2 -3 11.19 11.21
8 2 3 2.83 5.19
8 2 3 12.07 9.76
9 -2 3 40.33 7.74
9 2 3 19.36 11.75
9 2 3 22.07 7.63
-9 2 -3 23.78 8.07
-9 -2 -3 26.84 13.53
-9 -2 -3 22.27 8.07
9 -2 3 29.55 11.55
-10 2 -3 -6.28 8.55
-10 -2 -3 -7.91 8.89
-10 -2 -3 8.83 13.46
10 -2 3 10.21 7.52
10 -2 3 10.11 12.12
-11 -2 -3 8.99 9.6
-11 2 -3 19.06 9.75
11 -2 3 12.99 8.47
11 2 3 10.53 7.26
-11 -2 -3 51.15 17.26
11 -2 3 20.97 13.41
-12 2 -3 19.05 10.66
12 -2 3 39.77 10.31
-12 -2 -3 47.22 12.05
12 2 3 23.29 8.96
-12 -2 -3 -2.18 16.73
12 -2 3 13.84 15.25
13 2 3 35.56 10.06
-13 2 -3 4.53 19.03
13 -2 3 25.22 17.15
-13 2 -3 22.47 12.49
13 -2 3 44.15 12.03
-13 -2 -3 55.26 21.34
-14 -2 -3 41.93 21.97
14 2 3 10.09 10.75
-14 2 -3 -9.9 20.09
14 -2 3 3.3 11.53
15 2 3 25.34 11.66
15 -2 3 19.91 13.7
16 -2 3 16.02 14.48
-15 -3 3 18.97 22.91
-15 -3 3 38.02 18.13
-15 3 3 22.33 16.17
-15 3 3 11.96 19.51
-14 -3 3 22.36 15.09
-14 3 3 27.49 15.21
-14 -3 3 42.33 21.94
-14 3 3 12.97 17.79
13 -3 -3 81.55 5.78
-13 -3 3 56.99 19.33
-13 -3 3 94.86 17.4
-13 3 3 96.9 15.86
-13 3 3 114.98 19.31
-12 3 3 170.36 21.09
-12 -3 3 139.45 18.07
-12 3 3 164.17 17.79
-12 -3 3 179.67 23.03
-11 3 3 258.12 19.71
-11 -3 3 233.76 20.42
-11 3 3 252.08 22.34
-10 -3 3 281.23 21.2
-10 3 3 293.87 20.66
-9 -3 3 90.85 12.2
-9 3 3 76.79 11.19
9 3 -3 84.56 10.37
-8 -3 3 -7.55 8.96
-8 3 3 2.85 6.82
8 3 -3 -2.68 6.34
-7 3 3 31.09 7.93
-7 -3 3 30.89 8.85
-6 3 3 195.52 13.55
-6 -3 3 206.11 14.65
-5 3 3 545.15 25.72
-5 -3 3 501.16 26.51
5 3 -3 504.02 26.36
-4 3 3 257 14.26
-4 -3 3 255.82 15.39
4 3 -3 230.55 15.11
-3 3 3 43.7 6.12
-3 -3 3 43.02 6.45
-3 -3 3 30.81 6.31
-3 3 3 47.58 5.72
-3 -3 3 31.24 7.52
3 3 -3 43.92 7.37
-2 -3 3 176.17 11.55
2 3 -3 183.01 11.47
2 -3 -3 170.71 10.44
-2 3 3 163.68 9.73
-2 -3 3 180.42 10.71
-2 3 3 171.11 10.55
2 3 -3 154.04 11.06
-1 3 3 25.16 5.08
-1 -3 3 30.67 5.32
1 3 -3 35.05 6.25
-1 -3 3 18.98 4.76
-1 3 3 34.98 5.35
1 -3 -3 25.25 4.85
-1 3 3 26.31 3.74
1 3 -3 20.95 5.03
0 -3 3 15.22 4.66
0 -3 3 15.8 4.86
0 3 -3 19.49 4.12
0 -3 -3 10.99 4.75
0 -3 -3 12.17 4.95
0 -3 -3 22 3.63
0 3 -3 2.72 4.57
0 3 3 22.94 4.96
1 3 3 52.99 6.56
1 -3 3 51.68 6.46
-1 3 -3 44.95 5.16
1 -3 3 51.16 5.21
-1 3 -3 46.61 6.08
-1 -3 -3 52.46 6.39
-1 -3 -3 47.12 6.05
-1 3 -3 52.41 6.21
-2 3 -3 357.1 17
-2 3 -3 367.91 18.18
2 -3 3 360.83 16.91
-2 3 -3 333.64 17.05
-2 -3 -3 320.51 18.19
2 3 3 367.61 18.03
-2 -3 -3 357.94 17.49
3 3 3 109.49 8.71
-3 3 -3 92.87 7.79
-3 -3 -3 121.26 8.33
-3 -3 -3 106.31 5.89
-3 -3 -3 111.03 9.79
-3 3 -3 118.63 8.7
-4 3 -3 199.18 12.67
4 3 3 218.12 9.76
-4 -3 -3 211.94 10.7
-4 -3 -3 209.53 14.58
-4 -3 -3 217.96 12.39
-4 3 -3 205.32 12.39
-5 3 -3 72.04 6.19
-5 -3 -3 67.59 6.12
-5 -3 -3 51.36 9.44
5 3 3 81.37 5.15
6 3 3 9.88 3.65
-6 -3 -3 13.46 4.83
6 3 3 8.34 5.88
-6 3 -3 16.09 3.95
-6 -3 -3 -3.29 8.96
7 3 3 25.79 4.67
-7 -3 -3 17.73 10.18
7 3 3 19.59 6.84
-7 -3 -3 21.09 6.21
7 3 3 14.26 8.68
8 3 3 213.68 12.55
-8 -3 -3 191.15 13.79
8 3 3 258.67 14.81
-8 -3 -3 221.5 19.49
8 -3 3 202.36 16.96
8 3 3 235.73 17.92
9 -3 3 115.36 11.08
9 3 3 110.03 10.78
-9 -3 -3 117.31 16.61
9 -3 3 87.2 13.39
-9 -3 -3 97.22 10.71
9 3 3 108.21 9.17
9 3 3 134.5 15.12
10 3 3 -1.36 12.15
10 3 3 16.07 7.91
10 -3 3 10.75 7.96
-10 -3 -3 8.05 8.87
-10 3 -3 26.65 9.51
10 -3 3 14.95 11.92
-10 -3 -3 16.44 14.19
-11 3 -3 3.08 9.75
-11 -3 -3 32.57 16.93
11 3 3 4.45 8.28
11 -3 3 3.63 8.38
-11 -3 -3 11.19 10.15
11 -3 3 -12.43 14.08
11 3 3 10.41 13.87
12 -3 3 41.55 10.97
-12 -3 -3 67.06 19.67
-12 3 -3 43.11 11.72
12 3 3 51.52 9.77
-12 -3 -3 13.79 11.17
12 -3 3 51.69 16.24
13 -3 3 66.39 13.11
13 3 3 57.86 10.26
-13 3 -3 37.8 13.09
-13 -3 -3 61.19 21.95
13 -3 3 33.25 17.44
-14 3 -3 4.95 20.1
14 -3 3 5.74 12.02
-14 -3 -3 21.35 21.56
14 3 3 2.61 9.36
15 -3 3 18.3 14.08
15 3 3 18.49 11.26
16 -3 3 -6.42 14.61
-15 -4 3 24.38 17.82
-15 4 3 -16.79 16.24
-15 -4 3 8.37 22.45
-15 4 3 2.36 20.9
14 4 -3 -1.82 16.67
-14 4 3 31.14 15.02
-14 -4 3 10.25 20.53
-14 -4 3 7.57 15.31
-14 4 3 21.35 19.13
-13 4 3 19.04 13.42
-13 -4 3 8.77 15.39
-13 -4 3 -2.35 19.26
-13 4 3 29 16.35
12 -4 -3 2.49 3.76
-12 -4 3 19.43 13.68
-12 4 3 11.55 11.66
-12 -4 3 -8.58 18.6
11 -4 -3 82.86 6.65
-11 4 3 65.53 12.4
-11 -4 3 83.21 14.56
10 -4 -3 1.74 4.52
-10 4 3 14.2 9.4
10 4 -3 10.96 8.78
-10 -4 3 -8.14 11.02
-9 -4 3 35.67 10.67
-9 4 3 25.49 8.82
9 4 -3 34.09 8.6
-8 -4 3 770.64 38.68
8 4 -3 756.85 37.22
-8 4 3 753.92 37.34
-7 -4 3 385.23 22.36
-7 4 3 355.58 20.93
-6 -4 3 494.18 28.91
-6 4 3 615.91 28.69
6 4 -3 599.87 29.83
-5 4 3 205.64 13.5
-5 -4 3 219.75 14.81
5 4 -3 219.76 14.78
-4 4 3 1576.71 67.55
4 4 -3 1686.16 69.28
-4 -4 3 1500.17 68.7
-3 4 3 759.75 33.51
-3 -4 3 657.05 34.82
-3 -4 3 765.7 35.04
3 4 -3 781.32 35.02
-3 -4 3 748.04 33.35
3 -4 -3 734.67 33.1
2 4 -3 142.79 11.04
-2 -4 3 184.94 11.08
2 4 -3 160.73 11.77
-2 -4 3 173.37 10.68
-2 4 3 172.93 10.6
2 -4 -3 162.11 10.23
1 4 -3 682.89 30.03
1 4 -3 723.22 30.48
1 4 -3 647.21 30.88
-1 -4 3 643.32 29.66
-1 -4 3 655.4 30.27
-1 4 3 668.28 29.71
1 -4 -3 690.73 29.82
-1 4 3 632.05 29.66
0 4 -3 12.75 4.68
0 -4 -3 21.85 4.79
0 4 -3 21.08 4.82
0 4 3 28.9 5.93
0 -4 3 18.47 5.28
0 -4 -3 29.6 5.4
0 -4 3 12.22 4.56
0 4 -3 17.09 5.46
0 -4 -3 23.02 4.9
0 4 3 23.43 5.1
1 -4 3 1929.57 81.19
1 4 3 1965.17 82.03
-1 4 -3 1996.07 81.71
-1 -4 -3 1892.7 81.6
-1 4 -3 1936.79 81.8
-1 -4 -3 1955.88 81.89
1 -4 3 2009.2 82.01
-1 4 -3 1922.96 81.15
-2 4 -3 639.62 28.71
-2 -4 -3 676.3 29.25
-2 4 -3 652.89 29.82
2 4 3 613.24 29.5
-2 -4 -3 583.29 30.02
2 -4 3 647.12 28.71
-2 4 -3 634.42 28.24
-3 4 -3 212.99 12.38
-3 -4 -3 201.44 14.06
-3 -4 -3 225.33 12.13
3 4 3 215.61 12.71
-3 4 -3 204.47 13.18
3 -4 3 170.98 11.29
-3 4 -3 189.66 11.58
-4 -4 -3 307.41 15.39
-4 4 -3 350.32 17.48
-4 -4 -3 352.69 20.27
-4 4 -3 334.56 17.32
5 4 3 42.76 3.61
-5 -4 -3 51.53 9.57
-5 -4 -3 38.21 5.44
-5 4 -3 46.07 5.21
6 4 3 9.45 3.29
6 4 3 13.23 6.83
-6 -4 -3 7.08 5.13
-6 4 -3 11 3.78
-6 -4 -3 -3.47 9.5
6 -4 3 5.23 7.13
7 4 3 26.32 4.75
7 4 3 8.35 9.36
-7 -4 -3 28.27 6.52
-7 -4 -3 27.91 11.22
7 4 3 23.48 6.91
-7 4 -3 16.74 4.14
7 -4 3 18.93 8.63
8 -4 3 26.54 7.29
8 4 3 15.67 7.65
-8 -4 -3 15.14 7.5
8 4 3 13.16 5.43
8 -4 3 14.65 9.63
8 4 3 21.8 10.65
-8 -4 -3 13.56 11.77
9 4 3 7.61 5.9
-9 -4 -3 16.03 8.31
9 4 3 11.28 7.99
-9 -4 -3 10.16 13.79
9 4 3 -17.61 11.69
9 -4 3 2.2 10.38
9 -4 3 10.27 7.58
10 -4 3 7.82 8.05
-10 -4 -3 9.21 9.37
10 4 3 3.14 8.38
-10 -4 -3 -5.65 14.28
10 4 3 30.34 13.22
10 -4 3 20.88 12.7
-11 -4 -3 13.58 10.37
11 -4 3 18.03 9.37
11 4 3 4.53 13.66
-11 4 -3 -10.51 10.04
11 -4 3 4.08 13.63
11 4 3 -3.25 9.03
-11 -4 -3 -6.24 16.09
12 4 3 -10.44 7.72
-12 4 -3 17.43 11.11
12 4 3 23.11 15.04
12 -4 3 -1.5 14.68
12 4 3 1.65 9.39
-12 -4 -3 12.92 11.69
12 -4 3 6.19 10.15
-12 -4 -3 6.86 17.91
13 -4 3 -6.69 11.12
-13 4 -3 -3.82 12.28
13 4 3 0.76 8.59
-13 -4 -3 7.51 20.91
13 -4 3 11.51 16.45
14 -4 3 8.35 12.72
-14 -4 -3 21.8 22.21
14 4 3 5.73 9.14
15 -4 3 24.11 14.81
16 -4 3 -6.67 15.69
-15 -5 3 43.21 18.2
-15 5 3 49.11 21.59
-15 5 3 32.03 16.97
-15 -5 3 63.13 26.11
-14 5 3 97.2 17.27
-14 5 3 80.86 20.84
-14 -5 3 146.12 20.77
-14 -5 3 106.06 24.85
-13 5 3 175.9 19.29
-13 -5 3 171.66 21.38
-13 -5 3 214.27 27.01
-12 5 3 432.45 28.83
-12 -5 3 512.12 31.94
-12 -5 3 433.2 34.83
-11 5 3 369.37 24.17
11 -5 -3 350.12 16.28
-11 -5 3 459.56 27.58
-10 -5 3 235.54 19.71
-10 5 3 226.92 17.87
10 5 -3 249.36 17.91
10 -5 -3 207.58 11.29
-9 -5 3 310.13 21.95
-9 5 3 321.93 20.96
9 -5 -3 319.27 15.82
9 5 -3 357.46 21.07
-8 -5 3 341.7 22.67
8 5 -3 367.56 21.49
8 -5 -3 346.05 17.33
-8 5 3 395.56 21.81
-7 -5 3 283.61 18.62
7 -5 -3 271.12 14.18
-7 5 3 271.31 17.22
6 -5 -3 387.73 19.25
-6 -5 3 425.6 23.08
-6 5 3 390.66 21.37
6 5 -3 418.37 23.49
-5 -5 3 378.17 21.55
5 -5 -3 369.63 18.61
5 5 -3 406.21 22.45
4 5 -3 286.79 18.56
-4 -5 3 291.35 19.51
-4 -5 3 354.2 19.02
-3 -5 3 25.15 5.72
-3 5 3 15.42 5.62
3 -5 -3 15.36 4.73
-3 -5 3 28.25 8.79
-3 -5 3 13.84 7.23
3 5 -3 17.96 8.25
-2 -5 3 122.67 8.7
2 5 -3 129.47 11.02
2 -5 -3 126.33 8.7
-2 5 3 109.29 8.63
-2 -5 3 115.64 8.99
-1 5 3 211 12.22
1 5 -3 180.28 11.41
1 -5 -3 206.58 11.82
-1 -5 3 204.35 11.24
1 5 -3 192 11.31
-1 5 3 199.4 11.37
-1 -5 3 212.22 11.9
1 -5 -3 190.05 9.11
1 -5 -3 203.66 11.06
0 -5 3 2225.71 88.72
0 5 3 2108.78 88.47
0 5 3 2097.21 89.22
0 5 -3 2076.05 88.49
0 5 -3 2181.03 88.44
0 5 -3 2127.78 89.07
0 -5 -3 2128.61 88.13
0 -5 3 2163.74 89.18
0 -5 -3 2039.2 88.28
1 -5 3 1145.96 48.11
-1 5 -3 1041.02 46.99
-1 5 -3 1090.22 47.27
-1 -5 -3 1068.56 47.17
-1 -5 -3 1119.82 48.24
1 5 3 1146.46 47.85
1 -5 3 1070.65 47.06
2 5 3 597.05 26.47
-2 5 -3 672.7 30.29
2 -5 3 685.09 29.06
-2 5 -3 658.71 29.09
-2 -5 -3 647.14 30.95
2 5 3 696.95 29.79
-2 5 -3 634.93 28.01
-3 5 -3 591.86 27.97
-3 5 -3 585.08 28.97
-3 -5 -3 559.19 30.19
3 5 3 606.18 25.39
-3 5 -3 621.05 27.39
3 -5 3 593.51 27.97
-3 -5 -3 621.46 28.12
3 5 3 598.98 28.44
-4 -5 -3 2023.08 84.57
-4 5 -3 2107.96 86.49
-4 -5 -3 2016.1 88.85
5 5 3 1550.95 63.7
-5 -5 -3 1570.32 65.81
-5 -5 -3 1569.53 70.61
5 -5 3 1603.41 67.56
-6 -5 -3 926.7 43.25
6 5 3 851.13 38.49
6 5 3 791.6 34.94
-6 5 -3 825.27 35.86
6 -5 3 903.79 39.33
-6 -5 -3 851.43 37.22
7 5 3 904.91 39.58
-7 -5 -3 866.75 44.28
-7 5 -3 825.13 35.86
-7 -5 -3 940.02 38.89
7 5 3 795.29 36.01
-7 -5 -3 835.7 41.43
7 -5 3 855.96 40.47
8 5 3 753.55 35
8 5 3 906.83 38.58
8 5 3 862.36 41.51
8 -5 3 789.68 39.48
-8 -5 -3 878.41 44.66
8 -5 3 807.81 37.97
-8 -5 -3 759.19 37.6
9 -5 3 317.14 21.4
9 -5 3 301.32 18.49
9 5 3 329.93 19.16
-9 -5 -3 331.5 25.66
9 5 3 275.94 21.65
-9 -5 -3 331.02 19.32
9 5 3 267.9 15.85
10 5 3 256.62 15.01
10 -5 3 268.42 17.7
10 5 3 279.52 17.93
10 5 3 248.19 21.59
-10 -5 -3 199.95 23.64
-10 -5 -3 253.95 18.34
10 -5 3 276.75 20.99
11 -5 3 269.57 19.34
11 5 3 267.85 19.05
-11 5 -3 321.58 21.35
-11 -5 -3 321.3 27.99
11 5 3 332.64 25.15
-11 -5 -3 315.43 21.19
11 -5 3 280.5 23.14
12 5 3 150.38 14.4
12 5 3 153.84 20.46
12 -5 3 167.44 20.18
12 -5 3 161.25 15.78
-12 5 -3 122.79 15.59
-12 -5 -3 202.58 25.35
13 -5 3 49.81 12.88
13 5 3 27.91 11.25
-13 5 -3 86.31 14.98
13 -5 3 76.25 18.55
-13 -5 -3 48.9 22.35
13 5 3 61.55 9.91
14 5 3 10.02 9.32
-14 -5 -3 22.44 22.47
14 -5 3 -2.48 13.41
15 -5 3 3.95 14.5
16 -5 3 11.07 15.65
-15 6 3 -4.67 19.82
-15 -6 3 20.61 23.28
-15 -6 3 -14.63 19.35
-15 6 3 11.39 16.64
-14 -6 3 -5.85 15.89
-14 6 3 -1.74 14.21
-14 -6 3 -5.45 21.93
-14 6 3 2.14 17.93
-13 -6 3 -25.38 15.9
-13 6 3 33.45 14.61
-13 -6 3 -10.04 19.67
13 6 -3 30.62 16.11
-12 6 3 34.81 12.43
-12 -6 3 36.97 14.65
-11 -6 3 94.08 16.33
-11 6 3 84.7 13.61
-10 -6 3 48.13 12.76
-10 6 3 33.66 10.28
10 -6 -3 19.58 3.97
9 6 -3 263.94 17.64
9 -6 -3 233.89 12.12
-9 6 3 212.32 17.08
-9 -6 3 261.09 19.38
8 6 -3 206.31 16.01
8 -6 -3 236.12 12.22
-8 -6 3 220.55 17.92
-8 6 3 253.57 17.02
-7 -6 3 263.19 19.05
7 -6 -3 289.95 14.35
7 6 -3 258.12 19.29
6 6 -3 250.22 17.53
6 -6 -3 222.94 12.22
-6 -6 3 199.59 15.51
5 6 -3 95.22 12.01
5 -6 -3 114.22 8.2
-5 -6 3 122.67 11.41
-5 -6 3 81.88 13.37
-4 -6 3 237.17 16.42
4 6 -3 253.78 16.93
-4 -6 3 235.14 17.32
-3 -6 3 621.92 31.68
3 6 -3 629.48 31.27
-3 -6 3 595.21 27.99
2 6 -3 1168.24 54.36
2 -6 -3 1223.62 52.13
-2 6 3 1212.53 52.58
-2 -6 3 1228.36 51.89
-2 -6 3 1200.34 52.36
-1 6 3 1116.41 47.56
-1 -6 3 1093.62 47.29
-1 -6 3 1127.43 46.68
1 -6 -3 1085.51 46.54
1 6 -3 1073.99 47.1
1 -6 -3 1125.35 47.35
1 -6 -3 1040.25 45.13
0 6 3 796.96 34.74
0 6 -3 761.93 34.14
0 6 -3 723.62 34.23
0 -6 -3 775.04 33.3
0 -6 -3 757.89 33.66
-1 -6 -3 1584.22 64.85
-1 -6 -3 1485.64 62.61
1 -6 3 1551.36 65.85
1 6 3 1518.48 65.4
-1 6 -3 1543.5 64.97
-1 -6 -3 1586.49 66.25
-2 6 -3 613.76 28.62
-2 6 -3 621.15 29.48
2 6 3 606.26 26.38
-2 -6 -3 677.36 30.86
2 -6 3 624.52 28.47
-2 6 -3 586.41 26.84
2 6 3 599.49 28.95
2 -6 3 659.83 29.81
-3 6 -3 383.15 19.66
3 -6 3 366.12 19.32
3 6 3 400.8 17.12
-3 -6 -3 364.2 22.31
3 6 3 366.53 19.83
4 6 3 741.5 35.41
-4 -6 -3 730.68 37.9
4 6 3 781.15 32.95
-4 6 -3 800.79 35.73
5 -6 3 12.91 6.46
-5 -6 -3 34.92 10.93
-5 -6 -3 3.96 4.98
6 6 3 -1.53 2.8
6 6 3 0.7 6.9
6 -6 3 2.1 6.89
-6 6 -3 -6.31 4.27
-6 -6 -3 3.24 5.91
-6 -6 -3 -8.96 9.76
-7 6 -3 72.06 5.68
-7 -6 -3 63.77 10.12
7 6 3 107.12 10.26
-7 -6 -3 71.71 9
-7 -6 -3 76.72 13.86
7 -6 3 78.15 9.18
7 -6 3 53.9 10.07
-8 -6 -3 11.38 13.04
8 6 3 8.79 7.99
-8 -6 -3 7.43 8.25
8 -6 3 19.28 7.41
8 -6 3 25.24 10.33
-9 -6 -3 21.32 8.97
9 -6 3 26.25 8.38
9 6 3 6.79 8.92
9 6 3 39.23 13.24
9 -6 3 65.61 12.09
-9 -6 -3 23.52 14.72
10 -6 3 28.55 9.57
10 6 3 -6.27 9.65
10 -6 3 20.18 12.78
-10 -6 -3 13.61 9.96
10 6 3 18.22 6.41
-10 -6 -3 32.18 16.6
10 6 3 11.42 13.77
11 -6 3 22.5 13.79
11 -6 3 2.07 10.27
-11 -6 -3 -3.27 11.29
11 6 3 -3.11 14.46
11 6 3 29.92 10.96
-11 -6 -3 19.98 17.09
12 -6 3 21.25 11.11
12 6 3 23.07 11.01
12 -6 3 43.82 16.18
-12 6 -3 17.25 11.67
12 6 3 30.49 16.31
-12 -6 -3 24.33 19.68
13 -6 3 -1.6 15.88
13 -6 3 15.65 11.92
13 6 3 2.02 7.84
-13 6 -3 8.04 12.93
-13 -6 -3 10.63 20.82
13 6 3 -4.9 11.82
14 -6 3 1.29 12.95
-14 -6 -3 14.4 22.78
14 6 3 10.1 8.7
14 6 3 -2.91 11.63
14 -6 3 -3.48 18.32
15 -6 3 8.19 14.4
16 -6 3 -5.73 15.95
-15 -7 3 -6.38 18.92
-15 7 3 -2.35 19.48
-15 -7 3 12.09 24.64
-14 -7 3 5.96 16.32
-14 7 3 12.27 14.41
-14 -7 3 5.6 22.06
13 7 -3 5.17 15.76
-13 -7 3 18.48 14.76
-13 7 3 12.85 12.88
-13 -7 3 38.81 21.61
-12 7 3 79.27 14.02
12 7 -3 68.45 13.48
-12 -7 3 71.72 16.86
12 7 -3 64.25 16.4
-11 7 3 141.31 16.5
-11 -7 3 162.66 18.41
-10 -7 3 124.49 16.29
-10 7 3 101.15 13.13
9 -7 -3 -5.02 3.7
9 7 -3 9.87 8.67
-9 7 3 7.73 9.11
-9 -7 3 -1.33 10.16
8 7 -3 50.02 12.35
8 7 -3 32.23 8.5
8 -7 -3 23.05 4.59
-8 -7 3 13.54 10.17
7 -7 -3 17.85 4.62
7 7 -3 28.25 8.25
-7 -7 3 28.52 10.01
7 7 -3 30.4 11.04
6 7 -3 -10.25 9.43
-6 -7 3 -14.91 9.21
6 -7 -3 2.37 4.03
-5 -7 3 289.87 21.73
5 7 -3 347.96 21.22
5 -7 -3 322.69 16.24
-5 -7 3 317.14 20.37
-4 7 3 379.11 18.94
-4 -7 3 373.63 23.75
4 7 -3 379.05 23.22
-3 7 3 469.66 23.64
3 7 -3 496.09 26.86
-3 -7 3 497.08 23.31
-2 -7 3 43.92 5.97
2 -7 -3 56.07 6.33
2 7 -3 39.03 6.76
-2 7 3 55.47 6.83
2 7 -3 30.34 10.22
-2 -7 3 50.64 6.13
-2 -7 3 58.88 6.79
1 -7 -3 124.92 7.61
-1 7 3 128.95 9.37
1 7 -3 134.5 9.64
1 -7 -3 144.33 9.67
-1 -7 3 149.55 8.97
-1 -7 3 126.27 9.42
1 -7 -3 126.44 8.63
0 7 3 27.52 6.58
0 -7 -3 18.35 4.52
0 -7 -3 15.84 4.84
0 7 -3 24.69 5.89
0 -7 -3 16.75 5.02
-1 -7 -3 -1.34 2.79
1 -7 3 4.52 6.2
1 7 3 4.54 5.91
-1 -7 -3 -0.88 5.12
-1 7 -3 2.29 2.55
-1 -7 -3 2.9 6.86
-1 7 -3 7.97 5.77
-1 -7 -3 5.12 4.4
-1 7 -3 3.59 4.9
2 -7 3 50.19 8.28
-2 7 -3 53.56 6.91
-2 7 -3 48.98 4.43
-2 -7 -3 48.59 9.91
-2 -7 -3 44.18 3.1
2 7 3 46.12 7.01
3 7 3 54.7 7.77
-3 7 -3 63.93 7.78
3 7 3 55.62 5.23
-3 -7 -3 67.11 11.07
-4 7 -3 192.76 12.65
4 7 3 173.7 9.76
4 7 3 169.43 12.05
-4 -7 -3 181.33 15.52
5 7 3 90.02 6.72
-5 -7 -3 122.46 13.15
5 -7 3 79.96 8.82
-6 -7 -3 49.85 9.06
6 -7 3 43.9 8.42
6 7 3 36.33 8.19
-6 -7 -3 44.9 11.64
-6 -7 -3 42.68 7.04
-6 7 -3 55.41 9.5
-7 -7 -3 -10.16 7.88
7 -7 3 0.78 6.53
7 7 3 3.16 7.57
7 -7 3 -7.93 8.39
-7 -7 -3 2.75 7.13
-7 -7 -3 1.52 12.19
-7 7 -3 -3.97 3.67
8 -7 3 -3.65 9.01
8 7 3 1.68 7.62
-8 -7 -3 9.46 8.44
-8 -7 -3 6.79 12.87
8 -7 3 13.55 7.67
9 -7 3 78.98 10.84
-9 -7 -3 75.89 11.12
9 7 3 65.28 10.93
9 -7 3 82.89 13.03
-9 -7 -3 82.97 17.56
10 -7 3 9.33 11.32
-10 -7 -3 15.07 10.71
10 7 3 13.23 9.85
10 -7 3 2.99 8.74
-10 -7 -3 31.27 17.41
-11 -7 -3 3.38 11.02
11 -7 3 6.51 13.25
11 7 3 -0.99 10.59
11 -7 3 5.39 9.34
-11 -7 -3 4.58 17.12
12 -7 3 1.16 11.24
12 7 3 2.05 11.1
12 -7 3 2.88 14.4
-12 -7 -3 -20.03 19.71
-13 7 -3 -1.38 12.77
13 7 3 6.28 11.81
-13 -7 -3 -24.48 22.89
13 -7 3 1.25 12.59
13 -7 3 -4.74 16.35
14 -7 3 -10.66 14.23
14 7 3 2.01 8.32
14 7 3 11.64 11.94
-14 7 -3 -11.98 14.31
15 -7 3 1.41 14.68
-15 -8 3 21.83 19.76
-15 -8 3 -24.82 26.11
-14 -8 3 14.27 17.22
-14 8 3 10.64 14.33
-14 -8 3 -20.17 22.48
13 8 -3 12.24 16.3
-13 8 3 1.63 12.99
-13 -8 3 37.29 23.19
-13 -8 3 -1.89 15.25
-12 8 3 58.43 13.38
-12 -8 3 38.67 15.29
12 8 -3 76.22 13.96
12 8 -3 77.87 17.19
-11 -8 3 22.84 13.96
11 8 -3 35.97 14.26
-11 8 3 2.73 10.78
-10 -8 3 31.66 13.37
-10 8 3 28.63 10.34
-9 -8 3 185.52 17.84
8 8 -3 249.59 17.93
8 -8 -3 251.14 13.07
-8 -8 3 296.2 20.84
8 8 -3 254.98 21.06
-7 -8 3 658.27 37.13
7 8 -3 686.96 35.94
7 -8 -3 750.99 31.87
7 8 -3 723.37 38.81
-6 -8 3 832.2 47.46
6 8 -3 1021.41 47.65
6 -8 -3 961.75 41.28
-6 -8 3 951.81 46.35
-5 -8 3 1017.11 50.57
5 -8 -3 1035.57 44.61
-5 8 3 1007.85 45.72
5 8 -3 1043.48 49.98
4 8 -3 581.23 32.44
-4 8 3 616.85 28.41
-4 -8 3 587.52 33.04
-3 8 3 1597.29 65.31
-3 8 3 1473.65 65.77
-3 -8 3 1517.28 65.35
3 8 -3 1579.92 69.74
-2 -8 3 2520.72 99.56
-2 8 3 2412.6 100.63
-2 -8 3 2368.51 100.29
2 -8 -3 2371.34 100.17
2 8 -3 2342.55 100.47
2 8 -3 2355.2 103.66
-2 -8 3 2375.32 99.61
1 8 -3 966.75 42.27
1 -8 -3 914.82 40.72
-1 8 3 1029.73 42.8
1 -8 -3 942.64 42.25
-1 -8 3 965.35 42.14
-1 -8 3 1008.25 41.47
-1 8 3 880.21 40.57
1 -8 -3 977.18 41.24
0 8 -3 932.34 39.6
0 8 3 922.2 39.72
0 -8 -3 863.88 37.69
0 -8 -3 838.29 38.04
0 -8 -3 873.52 38.38
1 8 3 1625.7 68.92
1 -8 3 1582.64 69.67
-1 -8 -3 1526.27 67.12
-1 -8 -3 1617.28 67.8
-1 8 -3 1726 68.91
-1 -8 -3 1603.02 66.29
-2 8 -3 1188.27 50.09
2 -8 3 1200.02 51.23
-2 -8 -3 1103.43 46.51
-2 -8 -3 1120.02 52.43
2 8 3 1132.57 50.06
-2 -8 -3 1130.3 49.06
3 8 3 518.97 24.73
-3 8 -3 574.38 27.28
3 8 3 582.06 27.37
-3 -8 -3 579.99 30.32
4 8 3 403.83 19.7
-4 -8 -3 434.03 25.7
-4 8 -3 448.67 22.51
4 8 3 427.1 22.38
5 -8 3 45.09 7.22
-5 8 -3 50.54 8.83
5 8 3 44.33 5.65
-5 -8 -3 48.07 10.75
6 8 3 100.75 5.46
-6 -8 -3 112.16 12.19
6 -8 3 126.6 10.91
-6 -8 -3 113.84 15.24
-6 8 -3 123 12.2
6 8 3 116.73 8.46
7 -8 3 145.28 12.65
-7 8 -3 165.69 14.63
7 8 3 158.96 12.99
-7 -8 -3 140.11 13.92
-7 -8 -3 180.92 18.9
-7 8 -3 138.88 8.41
8 -8 3 11.57 9.22
-8 -8 -3 -6.64 8.47
8 -8 3 5.33 7.56
-8 8 -3 3.82 9.47
8 8 3 0.88 8.32
-8 8 -3 -2.8 2.45
-8 -8 -3 -1.78 13.16
9 8 3 10.33 9.37
9 -8 3 24.35 11.36
-9 -8 -3 25.52 9.86
-9 -8 -3 17.66 15.73
9 -8 3 2.88 8.17
10 -8 3 -10.3 11.3
10 8 3 -10.92 10.68
10 -8 3 24.91 9.49
-10 -8 -3 10.82 17.56
-10 -8 -3 7.42 10.34
11 8 3 14.16 6.49
11 8 3 -1.05 10.32
11 -8 3 24.64 11.19
11 -8 3 -7.68 13.06
-11 -8 -3 9.49 18.34
12 -8 3 15.67 11.89
12 8 3 35.85 12.57
12 -8 3 2.83 14.95
-12 -8 -3 12.92 20.36
13 8 3 55.84 13.89
13 -8 3 65.22 18.1
-13 8 -3 87.1 16.12
-13 -8 -3 19.66 22.54
13 -8 3 60.78 14.54
-14 8 -3 52.18 16.26
14 -8 3 21.99 18.52
14 -8 3 15.13 14.28
14 8 3 15.76 12.82
15 -8 3 4.37 15.56
-15 -9 3 96.14 23.48
-14 -9 3 85.77 20.35
-14 9 3 94.97 18.41
-14 -9 3 71.04 26.92
-13 -9 3 112.38 26.3
-13 9 3 92.82 16.47
-13 -9 3 64.49 18.02
13 9 -3 64.86 14.89
13 9 -3 79.92 18.95
-12 -9 3 105.38 18.12
-12 9 3 103.49 15.6
12 9 -3 48.52 16.85
12 9 -3 51.16 13.3
11 9 -3 197.75 18.72
-11 -9 3 184.06 20.97
11 9 -3 223.73 21.07
-11 9 3 237.95 19.27
10 9 -3 215.96 20.04
-10 -9 3 222.12 20.41
-10 9 3 246.33 19.02
-9 -9 3 111.94 15.57
9 9 -3 140.78 18.08
8 9 -3 88.72 11.66
-8 -9 3 82.23 13.38
8 9 -3 62.85 14.04
-7 -9 3 -1.26 10.27
7 9 -3 4.32 7.79
7 9 -3 13.92 11.34
6 9 -3 73.25 10.21
-6 -9 3 54.26 13.9
6 9 -3 67.25 12.62
5 -9 -3 99.95 8.02
-5 9 3 97.56 9.81
-5 -9 3 72.21 12.97
5 9 -3 130.45 14.68
-4 9 3 5.77 5.74
-4 9 3 0.58 5.75
4 -9 -3 2.44 4.57
-4 -9 3 -1.04 5.09
4 9 -3 -2.41 9.78
-4 -9 3 -1.27 10.85
-3 -9 3 30.82 5.77
-3 -9 3 17.71 6.01
-3 9 3 17.95 6.01
3 9 -3 15.85 6.25
-3 9 3 17.99 6.34
3 9 -3 22.9 10.5
-2 9 3 274.89 13.9
-2 9 3 245.48 14.25
-2 9 3 272.97 15.51
2 9 -3 274.72 19.98
2 9 -3 265.2 15.41
-2 9 3 271.24 14.59
-2 -9 3 286.21 14.33
-2 -9 3 273.38 15.26
2 -9 -3 292.02 14.58
1 -9 -3 671.76 30.42
-1 9 3 680.12 31.58
1 9 -3 680.45 30.08
-1 -9 3 684.23 31.01
-1 -9 3 656.02 29.98
-1 9 3 625.91 29.99
-1 9 3 708.34 29.45
1 9 -3 675.48 31.28
1 -9 -3 673.02 30.13
0 -9 -3 -4.61 4.25
0 9 -3 -0.59 5.63
0 9 3 5.57 6.29
0 -9 -3 -0.79 4.22
0 9 -3 0.81 4.3
0 9 -3 1.84 4.67
-1 -9 -3 196.72 11.57
1 9 3 193.38 12.89
1 -9 3 187.98 13.8
-1 -9 -3 191.64 10.94
-1 9 -3 208.32 12.02
-1 -9 -3 208.32 10.4
-1 9 -3 182.54 12.93
-2 -9 -3 841.76 35.2
-2 9 -3 846.28 38.65
2 -9 3 843.83 39.67
2 9 3 844.97 38.56
-2 -9 -3 806.66 37.37
-2 -9 -3 852.32 41.45
3 9 3 695.85 30.96
3 9 3 675.53 32.76
-3 -9 -3 730.22 36.85
-3 9 -3 673.34 32.92
4 9 3 601.69 28.25
-4 9 -3 632.22 30.7
-4 -9 -3 629.82 31.91
4 9 3 642.5 30.68
-4 -9 -3 628.45 34.57
-5 9 -3 584.14 30.65
5 9 3 603.78 27.06
5 -9 3 569.05 27.47
-5 -9 -3 564.65 33.58
-5 9 -3 607.98 29.88
5 -9 3 569.49 29.08
-5 -9 -3 597.3 30.91
-6 9 -3 493.78 26.78
6 9 3 446.71 19.41
6 -9 3 437.8 23.39
-6 -9 -3 518.08 26.99
-6 -9 -3 528.42 30.46
6 9 3 487.43 22.61
-7 9 -3 470.41 26.27
7 9 3 460.58 24.23
7 9 3 439.34 21.45
-7 -9 -3 427.28 25.6
-7 -9 -3 414.04 29.36
7 9 3 406.33 18.39
7 -9 3 412.5 22.85
8 9 3 463.22 22.28
-8 -9 -3 420.54 28.58
8 -9 3 432.56 21.68
-8 9 -3 408.54 23.8
8 -9 3 336.8 20.31
9 -9 3 103.12 12.39
9 -9 3 128.91 13.77
9 9 3 108.33 13.1
-9 9 -3 100.03 15.01
-9 -9 -3 116.15 19.74
-10 -9 -3 70.2 13.41
10 -9 3 72.3 12.27
10 9 3 68.72 12.23
-10 -9 -3 33.55 18.11
-10 9 -3 49.37 14.07
10 -9 3 78.48 13.85
-11 9 -3 203.07 20.2
11 9 3 158.79 16.52
11 -9 3 143.16 18.41
-11 -9 -3 166.07 25.39
11 -9 3 188.1 16.81
12 -9 3 105.72 17.3
-12 9 -3 63.29 17.12
12 9 3 108.66 15.31
12 -9 3 100.97 14.94
-12 -9 -3 79.89 23.91
13 -9 3 54.99 18.13
13 -9 3 41.4 14.63
13 9 3 69.55 14.83
-13 -9 -3 46.09 24.81
14 -9 3 21.64 19.37
14 9 3 35.98 14.8
-14 9 -3 15.8 15.04
15 -9 3 -3.01 16.05
-15 -10 3 -6.82 20.23
-14 -10 3 -27.77 19.73
-14 10 3 -10.94 15.42
-14 -10 3 -9.11 24.95
13 10 -3 8.99 16.93
-13 10 3 8.44 13.87
13 10 -3 13.45 13.53
-13 -10 3 4 17.02
-12 -10 3 5.59 15.24
12 10 -3 8.5 11.83
-12 10 3 -3.1 12.26
-11 -10 3 12.13 14.07
-11 10 3 4.28 10.18
11 10 -3 6.7 11.27
11 10 -3 2.98 14.59
10 10 -3 17.46 13.38
-10 -10 3 17.7 13.45
9 10 -3 26.14 13.72
9 10 -3 14.39 11.69
-9 -10 3 22.47 12.38
-8 -10 3 20.94 11.98
8 10 -3 25.78 10.26
8 10 -3 40.39 14.15
-7 10 3 -5.26 7.44
-7 -10 3 5.19 13.06
7 10 -3 13.29 12.13
7 10 -3 1.14 8.02
6 10 -3 157.34 14.35
-6 -10 3 165.31 19.01
6 10 -3 137.52 16.23
-5 -10 3 77.5 14.27
5 10 -3 75 13.23
-4 10 3 101.06 10.01
4 10 -3 101.63 9.59
-4 10 3 128.53 9.93
-4 10 3 101.57 8.71
-4 -10 3 106.03 9.12
4 10 -3 116.18 14.27
3 10 -3 210.34 13.47
-3 10 3 208.99 12.38
3 10 -3 228.54 18.39
-3 -10 3 208.13 12.12
-3 -10 3 218.7 13.15
-3 10 3 180.03 12.79
2 -10 -3 661.49 30.44
-2 10 3 674.75 31.69
2 -10 -3 658.22 31.26
-2 -10 3 608.56 30.8
2 10 -3 705.09 36.29
-2 10 3 716.25 30.8
2 10 -3 731.71 32
-2 10 3 664.42 29.53
-2 -10 3 691.54 30.09
-2 10 3 645.83 30.12
1 -10 -3 141.05 9.87
1 10 -3 143.03 7.7
-1 10 3 149.1 11.32
-1 -10 3 155.85 9.47
-1 10 3 162.04 9.67
1 -10 -3 156.41 10.22
1 10 -3 155.25 11.02
1 10 -3 157.22 9.42
0 10 -3 115.9 8.27
0 10 3 127.79 9.99
0 10 -3 88.51 8.84
0 -10 -3 104 7.71
0 10 -3 118.38 10.03
0 -10 -3 115.97 7.91
-1 10 -3 832.99 35.38
-1 -10 -3 745.55 32.32
1 -10 3 708.58 35.82
-1 10 -3 668.2 33.92
-1 -10 -3 716.33 33.06
1 10 3 807.83 35.31
-1 -10 -3 745.2 32.42
-1 10 -3 765.78 33.34
-2 -10 -3 25.7 9.99
2 10 3 42.77 7.36
-2 -10 -3 53.98 4.7
2 -10 3 34.65 8.65
-2 10 -3 48.36 8.05
-2 10 -3 51.77 6.82
-2 -10 -3 56.89 6.68
-3 10 -3 -5.22 6.4
3 10 3 7.56 5.53
3 10 3 -6.01 6.56
-3 -10 -3 -1.23 10.61
-4 -10 -3 2.7 11.01
-4 10 -3 5.57 6.91
4 -10 3 0.76 5.98
4 10 3 -0.49 5.17
4 10 3 2.38 6.71
-4 -10 -3 -2.89 7.42
5 10 3 1.49 5.66
5 10 3 -0.22 2.08
-5 -10 -3 38.31 12.4
-5 10 -3 1.05 7.68
5 -10 3 4.02 5.74
5 -10 3 5.58 5.68
-5 -10 -3 -1.05 7.73
-5 10 -3 15.41 8.26
6 -10 3 99.58 9.61
-6 -10 -3 89.15 11.94
-6 10 -3 125.15 12.81
6 10 3 113.84 9.21
-6 -10 -3 142.02 17.52
6 10 3 99.37 5.41
-7 -10 -3 34.07 11.06
-7 -10 -3 19.41 14.75
7 10 3 9.39 3.29
7 10 3 22.43 6.41
7 -10 3 19.3 8.57
7 10 3 16.58 8.84
-7 10 -3 -2.48 9.39
8 -10 3 -2.92 8.26
8 10 3 5.4 3.79
-8 10 -3 -0.34 3.11
8 -10 3 4.2 9.43
8 10 3 3.9 9.17
-8 10 -3 27.21 11.13
-8 -10 -3 5.79 16
9 -10 3 45.96 10.24
-9 10 -3 35.5 12.12
9 10 3 45.41 5.43
9 10 3 41.22 10.73
9 -10 3 35.72 11.28
-9 -10 -3 35.94 17.24
10 -10 3 4.48 9.83
-10 10 -3 1.59 12.55
-10 -10 -3 -2.31 17.6
10 10 3 -20.66 11.75
10 -10 3 8.77 11.54
11 -10 3 8.6 13.22
11 10 3 10.3 12.23
-11 10 -3 -3.41 13.3
-11 -10 -3 50.4 21.13
11 -10 3 2.41 11.08
12 -10 3 3.87 12.17
-12 10 -3 14.49 15.54
12 10 3 2.39 12.27
12 -10 3 1.37 14.85
12 10 3 2.21 6.61
-12 -10 -3 2.74 21.27
13 10 3 9.91 14.01
13 -10 3 -4.5 16.59
13 -10 3 -20.67 13.44
-13 -10 -3 -2.96 23.41
14 -10 3 -1.64 17.58
14 10 3 8.87 14.24
14 -10 3 4.4 14.25
-14 10 -3 4.9 15.31
-14 -11 3 28.17 19.74
-14 11 3 52.08 16.56
-14 -11 3 27.95 24.5
-13 11 3 24.04 14.56
-13 -11 3 46.7 18.72
13 11 -3 36.49 17.99
13 11 -3 21.23 13.35
-12 -11 3 47.49 17.49
-12 11 3 76.14 15.77
12 11 -3 59.37 14.43
12 11 -3 66.76 18.08
-11 -11 3 154.07 20.12
11 11 -3 142.07 16.84
11 11 -3 126.18 19.16
10 11 -3 187.08 21.86
-10 -11 3 171.68 19.93
10 11 -3 208.51 19.62
-9 11 3 117.03 13.83
9 11 -3 158.15 16.91
9 11 -3 172.32 20.38
-8 11 3 252.33 18.2
8 11 -3 239.98 22.39
8 11 -3 246.73 19.06
-7 11 3 234.68 16.22
7 11 -3 214.2 20.9
7 11 -3 200.96 17.12
7 11 -3 211.25 16.58
-7 -11 3 202.76 22.17
6 11 -3 4.93 8.05
6 11 -3 10.62 8.56
-6 -11 3 39.2 14.84
6 11 -3 10.6 11.21
5 11 -3 38.85 8.53
-5 11 3 61.1 8.01
-5 -11 3 34.85 13.53
5 11 -3 49.7 12.93
5 11 -3 55.01 10.53
-4 11 3 182.27 12.4
4 11 -3 163.38 17.2
4 11 -3 181.83 12.28
-4 -11 3 178.87 11.62
-4 11 3 182.06 11.7
3 -11 -3 98.28 9.25
-3 -11 3 83.32 8.56
-3 11 3 88.5 9.35
3 11 -3 72.95 8.83
-3 -11 3 86.28 7.68
-3 11 3 93.16 8.29
3 11 -3 91.93 14.17
3 11 -3 94.57 7.97
2 -11 -3 91.91 8.4
2 -11 -3 79.79 8.56
-2 11 3 101.6 9.36
-2 -11 3 99.88 7.28
2 11 -3 82.91 6.48
2 11 -3 105.48 14.39
-2 11 3 87.2 6.69
-2 11 3 94.86 7.41
2 11 -3 82.84 9.3
-2 -11 3 80.71 8.44
-1 11 3 127.45 10.86
-1 11 3 163.28 9.59
1 11 -3 149.33 11.07
1 11 -3 143.5 7.35
1 -11 -3 138.31 10.15
1 -11 -3 130.07 10.12
0 -11 -3 579.46 26.09
0 11 -3 565.38 27.84
0 11 -3 540.84 26.9
0 11 -3 575.51 25.76
0 -11 -3 558.76 25.58
0 11 3 556.21 27.86
-1 -11 -3 375.92 17.33
1 -11 3 395.47 21.3
1 11 3 358.44 19.92
-1 11 -3 369.83 17.86
-1 11 -3 345.14 18.88
-1 -11 -3 355.6 16.64
-1 11 -3 366.07 20.04
-1 -11 -3 323.47 17.43
2 -11 3 84.94 10.5
-2 -11 -3 87.79 6.42
-2 11 -3 92.03 8.18
-2 -11 -3 91.12 7.9
2 11 3 93.73 9.59
-2 11 -3 88.88 10.01
3 11 3 126.62 11.4
-3 -11 -3 126.33 15.22
-3 11 -3 99.72 10.76
3 -11 3 132.66 12.83
3 11 3 106.02 9.62
4 -11 3 300.1 17.1
4 11 3 266.74 15.23
4 11 3 253.52 16.88
-4 -11 -3 244.19 21.36
-4 11 -3 255.25 17.64
-4 11 -3 248.33 17.07
-5 11 -3 339.71 20.26
-5 11 -3 341.84 20.91
5 11 3 302.76 19.44
5 11 3 304.78 13.99
5 -11 3 330.53 19
5 11 3 332.84 17.59
-5 -11 -3 288.52 23.81
-5 -11 -3 313.29 20.47
6 -11 3 364.01 19.48
6 11 3 357.41 16.02
-6 -11 -3 395.38 23.85
6 11 3 391.89 19.71
-6 11 -3 371.24 23.24
-6 -11 -3 395.61 27.7
7 -11 3 277.87 16.18
-7 11 -3 248.86 19.2
7 11 3 233.05 17.54
-7 -11 -3 255.1 23.38
-7 -11 -3 255.52 19.23
7 11 3 233.11 11.17
8 -11 3 79.33 11.29
8 11 3 115.45 13.3
-8 11 -3 76.99 5.8
8 11 3 85.3 5.8
-8 11 -3 100.7 14.12
-8 -11 -3 52.37 17.79
9 11 3 36.62 10.91
9 -11 3 47.82 11.1
9 11 3 50.05 5.28
-9 11 -3 47.16 12.64
-9 -11 -3 15.34 16.73
9 -11 3 58.15 11.51
10 11 3 61.48 6.48
-10 -11 -3 64.39 21.15
-10 11 -3 75.58 15.43
10 -11 3 67.52 12.75
10 11 3 67.01 13.47
10 -11 3 61.92 13.16
11 11 3 78.78 14.31
-11 11 -3 86.16 17.55
11 -11 3 83.45 13.8
-11 -11 -3 70.01 23.49
11 -11 3 96.08 15.8
11 11 3 62.16 7.23
12 11 3 38.92 7.27
12 -11 3 51.98 14.85
12 11 3 49.26 7.51
12 11 3 68.62 14.99
12 -11 3 92.08 17
-12 -11 -3 106.85 25.53
13 -11 3 33.8 17.51
13 -11 3 25.58 14.7
13 11 3 -1.3 14.16
-13 -11 -3 15.18 25.56
14 -11 3 11.23 17.95
14 11 3 25.24 14.76
-14 11 -3 21.9 16.87
14 -11 3 -1.51 15.53
-14 -12 3 -28.6 26.45
13 -12 -3 36.99 15.94
13 12 -3 3.09 13.59
-13 12 3 33.22 15.13
-13 12 3 6.15 14.39
13 12 -3 20.47 19.04
12 12 -3 44.28 14.09
12 12 -3 74.65 19.26
-12 12 3 55.21 15.28
-12 12 3 47.33 15.09
-11 12 3 93.45 15.5
11 12 -3 99.36 15.39
11 12 -3 111.26 18.33
10 12 -3 167.84 17.27
-10 12 3 175.44 17.06
10 12 -3 173.27 19.29
10 12 -3 162.04 21.62
-9 12 3 191.01 16.71
9 12 -3 145.3 19.35
9 12 -3 195.74 18.43
-8 12 3 450.06 26.05
8 12 -3 452.98 31.16
8 12 -3 423.52 26.51
-7 -12 3 622.47 40
7 12 -3 676.2 35.87
7 12 -3 706.07 39.37
7 12 -3 647.99 34.08
-7 12 3 638.17 33.59
-6 -12 3 878.44 49.17
6 12 -3 890.9 42.57
6 12 -3 872.48 41.79
6 12 -3 898.27 47.95
6 12 -3 960.58 45.56
-5 12 3 1585.78 67.07
5 12 -3 1507.35 73.22
5 -12 -3 1458.16 68.15
-5 -12 3 1588.4 66.55
5 12 -3 1523.63 67.34
5 12 -3 1562.93 70.97
4 12 -3 1323.66 58.33
4 -12 -3 1194.4 54.85
-4 12 3 1203.18 54.13
4 12 -3 1188.32 59.96
-4 -12 3 1219.92 53.07
-4 12 3 1232.42 53.31
4 12 -3 1223.18 53.63
3 12 -3 953.04 44.9
3 12 -3 998.53 43.33
3 -12 -3 928.92 44.76
-3 12 3 1040.01 45.11
3 12 -3 1006.73 50.51
-3 -12 3 1009.75 43.25
-3 12 3 965.12 43.52
-3 -12 3 942.14 44.1
-3 -12 3 1049.31 43.16
2 -12 -3 898.96 41.94
-2 12 3 932.24 42.8
2 12 -3 938.16 40.14
2 12 -3 940.58 42.83
2 -12 -3 862.21 42.08
2 12 -3 964.43 48.5
-2 -12 3 986.36 40.68
-2 12 3 917.31 40.79
-2 -12 3 951.09 41.86
-2 12 3 949.73 39.92
1 -12 -3 1692.35 72.46
1 12 -3 1776.58 73.82
-1 12 3 1676.76 71.22
1 -12 -3 1680.88 72.7
-1 12 3 1700.39 73.65
0 -12 -3 1495.76 65.34
0 12 3 1608.91 67.51
0 12 -3 1557.37 64.8
0 -12 -3 1557.42 64.61
0 12 -3 1499.63 66.07
0 12 -3 1520.28 67.24
-1 12 -3 314.44 18.17
1 12 3 338.3 18.59
-1 -12 -3 300.7 15.49
-1 -12 -3 262.33 15.02
-1 12 -3 307.06 17.08
-1 12 -3 312.23 15.44
-1 -12 -3 314.06 15.47
1 -12 3 311.69 19.27
-2 12 -3 595.85 27.44
-2 -12 -3 597.11 26.33
2 -12 3 624.86 31.18
2 12 3 545.6 29.38
-2 -12 -3 567.64 27.28
-2 12 -3 606.82 29.95
-3 -12 -3 156.96 11.31
3 12 3 152.4 13.19
-3 -12 -3 169.74 18.06
3 -12 3 191.31 12.81
-3 12 -3 183.19 13.82
3 -12 3 171.27 14.69
3 12 3 151.67 12.4
4 12 3 147.1 10.85
4 12 3 126.04 12.34
4 -12 3 113.92 11.2
-4 -12 -3 89.51 15.79
-4 12 -3 98.42 11.55
5 -12 3 88.47 10.26
5 12 3 89.28 5.73
-5 12 -3 79.83 11.34
-5 12 -3 107.98 12.22
5 12 3 100.98 11.66
-5 -12 -3 84.71 16.41
5 12 3 79.67 9.03
6 12 3 -2.7 3.22
6 -12 3 -12.96 6.68
6 -12 3 4.75 8.16
-6 12 -3 8.71 9.8
-6 -12 -3 7.17 14.91
7 12 3 122.57 6.92
-7 12 -3 130.95 14.56
7 -12 3 124.93 11.47
7 12 3 127.86 13.87
-7 -12 -3 142.91 19.55
8 12 3 62.24 5.12
8 12 3 64.26 11.41
-8 12 -3 82.52 13.95
8 -12 3 30.26 9.71
-8 -12 -3 66.96 17.77
-9 12 -3 4.69 11.87
9 12 3 1.8 3.96
9 -12 3 24.45 10.33
9 12 3 4.51 10.23
-9 -12 -3 9.09 18.29
9 12 3 8.27 7.47
9 -12 3 10.18 9.82
10 12 3 -10.67 11.7
-10 12 -3 -6.74 13.43
10 -12 3 -12.44 12.29
10 -12 3 -1.21 10.8
10 12 3 3.63 4.54
-10 -12 -3 -2.47 19.58
11 -12 3 -9.02 12.12
11 12 3 4.71 5.21
-11 12 -3 -3.61 15.2
-11 -12 -3 21.34 22.01
11 12 3 22.39 13.28
11 -12 3 3.5 12.74
12 12 3 0.33 5.94
12 12 3 -1.37 5.96
-12 -12 -3 8.66 22.53
12 -12 3 -1.37 12.93
12 -12 3 -6.51 14.57
12 12 3 18.2 14.31
13 -12 3 5.86 14.43
13 12 3 20.26 15.37
13 -12 3 12.92 16.73
14 12 3 12.5 14.89
14 -12 3 70.73 19.92
-13 13 3 39.33 16.03
-13 13 3 23.66 15.32
13 13 -3 14.23 14.09
13 -13 -3 10.32 15.22
12 13 -3 48.57 18.25
12 -13 -3 59.71 15.49
-12 13 3 29.59 14.8
12 13 -3 51.36 15.52
11 13 -3 34.67 15.84
-11 13 3 22.19 12.92
11 13 -3 14.63 13.05
11 -13 -3 25.69 13.62
10 -13 -3 9.84 11.44
10 13 -3 25.47 17.14
10 13 -3 38.43 13.42
10 13 -3 24.18 13.98
-10 13 3 16.86 11.61
9 -13 -3 20.88 11.11
9 13 -3 28.08 13.13
-9 13 3 45.88 12.06
9 13 -3 56.57 16.54
8 13 -3 11.35 11.8
-8 13 3 14.64 9.75
8 -13 -3 12.04 9.79
-8 -13 3 43.15 17.07
8 13 -3 1.82 15.48
7 -13 -3 44.21 10.67
-7 -13 3 32.5 16.91
-7 13 3 52.39 10.91
7 13 -3 66.78 16.42
7 13 -3 29.89 8.97
7 13 -3 44.86 11.06
-6 -13 3 161.53 20.93
6 13 -3 154.44 18.91
-6 13 3 158 13.87
6 13 -3 136.14 13.36
6 13 -3 153.88 12.98
6 -13 -3 140.28 13.4
6 13 -3 160.01 15.89
5 -13 -3 160.92 14.01
5 13 -3 169.64 13.36
5 13 -3 172.31 16.25
-5 13 3 164.97 12.69
-5 -13 3 190.72 12.21
5 13 -3 170.02 19.34
-4 -13 3 21.13 7.34
4 -13 -3 26.46 8.27
4 13 -3 20.59 9.71
-4 13 3 22.65 6.28
-4 13 3 25.05 7.35
4 13 -3 4.84 12.68
4 13 -3 18.54 6.63
-4 -13 3 22.74 6.25
3 13 -3 10.68 5.86
3 -13 -3 2.96 6.85
3 13 -3 18.82 13.15
-3 -13 3 11.55 4.74
3 13 -3 1.25 8.47
-3 13 3 5.13 6.9
-3 13 3 11.77 5.21
-3 13 3 1.48 5.41
-3 -13 3 17.51 6.36
2 -13 -3 35.43 7.22
2 13 -3 27.11 7.59
2 -13 -3 24.68 7.38
-2 13 3 32.88 5.46
-2 13 3 25.57 7.85
2 13 -3 30.83 13.22
-2 -13 3 20.71 4.92
-2 -13 3 27.38 6.26
-2 13 3 23.94 4.31
2 13 -3 29.43 4.6
1 -13 -3 18.47 6.47
1 13 -3 9.88 6.58
1 -13 -3 21.04 7.38
-1 13 3 15.44 7.45
0 13 -3 39.73 7.83
0 13 3 23.92 7.44
0 -13 -3 32.94 6.17
0 13 -3 31.1 5.05
0 -13 3 24.09 8.4
-1 13 -3 339.24 15.28
-1 -13 -3 291.43 15.4
-1 -13 -3 256.1 14.68
-1 -13 -3 288.3 15.02
-1 13 -3 331.23 17.17
1 -13 3 324.88 19.81
1 13 3 291.84 17.91
-1 13 -3 271.61 17.98
2 13 3 275.94 17.24
2 -13 3 271.99 18.7
-2 -13 -3 264.14 14.38
-2 13 -3 275.67 17.39
-2 13 -3 262.01 14.41
-2 -13 -3 244.76 13.07
-2 -13 -3 269.83 13.78
-2 13 -3 271.47 15.84
-3 13 -3 143.24 13.14
3 -13 3 130.9 13.73
3 -13 3 149.79 11.99
-3 -13 -3 139.61 10.42
3 13 3 161.82 13.26
4 -13 3 41.93 8.46
4 13 3 49.8 7.89
-4 -13 -3 29.59 13.62
4 13 3 39.12 9.26
-4 13 -3 51.74 9.8
-5 13 -3 150.31 14.46
5 13 3 159.05 8.79
-5 13 -3 158.69 15.03
5 13 3 187.62 15.14
5 -13 3 141.32 13.4
-5 -13 -3 163.84 20.16
6 -13 3 115.7 9.74
-6 13 -3 118.18 14.11
-6 -13 -3 147.05 19.69
6 -13 3 124.01 12.75
6 13 3 120.84 7.18
7 -13 3 16.99 7.43
-7 -13 -3 4.05 15.81
7 13 3 34.76 11.81
-7 13 -3 15.3 10.37
7 13 3 13.36 3.84
-8 -13 -3 32.64 17.93
-8 13 -3 43.36 13.18
8 13 3 51.94 11.95
8 -13 3 16.24 8.95
8 13 3 32.7 4.4
9 13 3 87.49 6.15
9 13 3 72.97 13.35
9 13 3 87.55 10.88
-9 -13 -3 112.59 22.47
-9 13 -3 90.2 15.68
9 -13 3 90.38 12.48
9 -13 3 69.49 12.83
10 -13 3 131.48 15.86
-10 13 -3 135.25 18.8
10 13 3 95.53 7.24
10 13 3 166.69 16.52
10 -13 3 106 14.53
-10 -13 -3 109.01 23.81
11 -13 3 42.68 13.32
11 13 3 48.04 5.85
-11 13 -3 57.46 17.39
11 -13 3 48.68 13.7
11 13 3 79 15.37
-11 -13 -3 43.9 22.63
12 13 3 16.75 5.72
12 -13 3 5.68 13.16
12 -13 3 -12.65 15.86
12 13 3 12.84 5.35
12 13 3 6.76 14.33
-12 -13 -3 29.59 24.02
13 13 3 -1.4 15.6
13 -13 3 40.77 15.9
13 -13 3 2.8 16.29
14 13 3 14.47 15.58
14 -13 3 23.04 18.68
-13 14 3 -12.95 16.2
-13 14 3 1.83 15.63
13 -14 -3 -1.75 15.26
-12 14 3 -7.62 14.53
12 -14 -3 -21.43 14.98
12 14 -3 -18.64 15.12
12 14 -3 1.77 17.86
11 14 -3 21.42 19.45
11 -14 -3 9.28 12.86
-11 14 3 2.87 13.27
11 14 -3 -1.61 16.83
11 14 -3 9.08 13.51
-10 14 3 36.33 13.12
10 14 -3 56.82 15.69
10 14 -3 20.51 12.87
10 -14 -3 57.83 14.17
10 14 -3 54.94 17.86
9 -14 -3 24.18 11.81
9 14 -3 37.93 14.35
-9 14 3 30.4 12.17
9 14 -3 38.57 13.46
9 14 -3 29.67 15.97
8 -14 -3 -1.24 10.11
-8 14 3 -1.19 10.3
8 14 -3 -11.43 15.45
-8 -14 3 31.66 18.04
8 14 -3 -4.41 8.99
8 14 -3 17.39 12.14
-7 14 3 72.46 11.95
7 14 -3 64.82 10.92
7 14 -3 58.08 12.4
-7 -14 3 38.31 17.32
7 -14 -3 68.43 11.98
7 14 -3 76.36 17.22
6 -14 -3 108.63 12.63
6 14 -3 104.24 12.42
6 14 -3 88.9 11.09
-6 14 3 111.76 10.65
-6 14 3 109.05 12.5
6 14 -3 52.39 12.62
6 14 -3 96.42 17.76
5 -14 -3 57.98 9.85
5 14 -3 52.2 9.57
-5 14 3 53.88 8.88
5 14 -3 60.13 15.83
-5 -14 3 47.38 7.76
5 14 -3 42.19 11.05
5 14 -3 19.5 8.57
-5 14 3 35.64 7.82
4 14 -3 299.79 20.64
4 -14 -3 255.85 17.09
4 14 -3 228.7 22.53
-4 14 3 301.94 17.25
-4 -14 3 250.94 14.66
4 14 -3 292.37 16.25
-4 14 3 247.13 15.22
-4 -14 3 255.17 15.88
-3 14 3 404.54 23.33
3 -14 -3 448.59 23.84
-3 14 3 435.28 21.17
3 14 -3 412.66 21.3
-3 -14 3 483.55 21.1
-3 -14 3 450.86 22.57
3 14 -3 407.78 29.2
-3 14 3 421.41 20.21
-3 14 3 466.46 21.68
-2 14 3 335.69 16.72
2 14 -3 307.99 25.33
-2 14 3 319.28 19.43
2 -14 -3 329.29 18.87
2 14 -3 326.37 19.52
-2 -14 3 346.75 16.38
2 -14 -3 307.1 18.55
1 14 -3 92.23 10.26
1 -14 -3 97.8 9.27
1 -14 -3 83.4 10.32
-1 14 3 91.2 10.02
1 14 -3 95.71 15.96
0 -14 -3 110.15 9.42
0 -14 3 126 10.76
0 14 3 114.25 11.26
0 -14 3 83.71 11.94
0 14 -3 118.59 7.84
0 14 -3 102.19 11.1
1 14 3 185.68 14.31
-1 14 -3 175.74 14.35
1 -14 3 229.44 14.49
1 14 3 239.87 18.79
-1 14 -3 184.33 11.25
-1 -14 -3 183.38 10.78
-1 14 -3 196.15 12.91
-1 -14 -3 208.09 12.07
1 -14 3 193.33 16
2 -14 3 18.46 6.36
-2 14 -3 3.66 8.43
-2 -14 -3 23.68 5.42
2 -14 3 17.76 9.46
2 14 3 0.93 7.54
-2 14 -3 9.93 5.52
2 14 3 18.72 12.08
-2 -14 -3 17.02 5.1
-2 -14 -3 10.62 3.86
-2 -14 -3 11.37 7.99
-3 14 -3 2.87 7.87
-3 -14 -3 -2.07 6.13
-3 14 -3 7.69 6.32
3 -14 3 5.5 7.31
3 14 3 -3.88 7.8
-3 -14 -3 3.07 8.04
3 14 3 -2.97 11.43
3 -14 3 1.15 9.23
-4 -14 -3 2.2 8.76
4 14 3 3.03 9.17
-4 14 -3 -5.06 8.75
-4 -14 -3 6.96 14.86
4 14 3 6.13 12.18
4 -14 3 -4.81 7.54
-5 -14 -3 35.25 10.69
5 14 3 43.19 10.04
-5 -14 -3 18.62 14.59
5 -14 3 27.27 8.94
5 14 3 34.44 5.17
5 14 3 44.35 13.04
-5 14 -3 42.8 10.77
-6 14 -3 4.04 10.42
-6 -14 -3 3.97 15.49
6 -14 3 -2.1 8.5
6 14 3 13.32 12.88
6 14 3 9.02 4.17
7 14 3 26.11 4.56
7 14 3 32.8 14.85
-7 14 -3 41.94 12.77
-7 -14 -3 40.23 18.4
7 -14 3 12.96 7.28
8 14 3 -9.17 14.43
-8 -14 -3 20.41 18.56
8 14 3 14.27 11.36
8 14 3 -5.44 7.82
-8 14 -3 -10.85 12.47
8 14 3 -0.21 3.8
8 -14 3 -6.25 8.68
-9 14 -3 18.3 13.21
9 -14 3 0.83 9.54
9 14 3 8.62 11.65
9 14 3 13.84 8.46
-9 -14 -3 17.03 19.41
9 14 3 -3.46 4.1
10 -14 3 10.39 11.75
-10 14 -3 17.83 15.36
10 14 3 3.86 13.07
10 14 3 3.45 8.65
-10 -14 -3 20.93 21.32
10 14 3 5.27 4.35
10 -14 3 12.46 11.3
11 -14 3 6.9 12.98
11 14 3 -2.23 4.44
11 14 3 -5.39 13.45
-11 -14 -3 -5.62 22.04
11 -14 3 -1.09 12.67
12 -14 3 17.6 14.92
12 -14 3 -4.89 15.06
-12 -14 -3 -9.07 23.8
12 14 3 1.41 14.18
13 -14 3 9.35 15.42
13 -14 3 20.38 16.26
13 14 3 -11.68 15.35
12 -15 -3 157.15 19.51
-12 15 3 103.7 18.68
12 15 -3 114.81 18.52
12 15 -3 146.88 23.08
11 15 -3 181.38 24.78
11 -15 -3 185.41 20.34
11 15 -3 179.92 22.31
-11 15 3 172.66 19.89
11 15 -3 192.13 20.75
10 -15 -3 214.88 20.37
10 15 -3 258.47 21.71
10 15 -3 201.66 22.18
-10 15 3 195.33 20.36
10 15 -3 220.11 17.13
10 15 -3 221.01 25.28
9 15 -3 105.27 16.85
9 15 -3 98.17 12.8
9 15 -3 105.74 16.07
-9 15 3 115.76 15.84
9 15 -3 99.45 20.12
9 -15 -3 104.79 14.53
-8 -15 3 61.4 19.87
8 15 -3 96.9 12.38
8 15 -3 89.88 18.97
-8 15 3 92.91 14.46
8 -15 -3 101.02 14.04
8 15 -3 125.54 15.53
-7 15 3 125.49 14.44
7 -15 -3 89.56 13.91
7 15 -3 120.1 12.77
7 15 -3 123.5 20.08
7 15 -3 109.08 14.19
-6 -15 3 98.55 10.2
6 15 -3 101.22 11.85
6 15 -3 74.93 17.56
6 15 -3 104.73 12.67
6 -15 -3 74.37 12.32
-6 15 3 97.22 10.82
5 -15 -3 601.47 31.17
-5 15 3 565.31 29.68
5 15 -3 603.65 30.5
5 15 -3 618.28 37.59
5 15 -3 606.53 34.22
-5 -15 3 600.29 28.1
5 15 -3 576.18 29.79
-5 15 3 566.23 28.35
-5 -15 3 582.19 29.35
4 -15 -3 154.76 14.01
-4 -15 3 172.98 12.71
4 15 -3 146.24 16.58
-4 -15 3 174.65 11.3
-4 15 3 158.68 11.47
4 15 -3 186.27 20.82
-4 15 3 194.99 13.95
4 15 -3 166.96 12.59
3 15 -3 5.41 5.55
-3 15 3 -7.45 8.01
3 -15 -3 -7.93 8.36
-3 15 3 8.92 5.57
-3 15 3 -2.35 4.02
3 15 -3 7.16 13.45
3 -15 -3 1.65 7.97
-3 -15 3 3.88 4.78
-3 -15 3 20.93 7.17
-2 15 3 51.21 6.21
2 -15 -3 60.29 9.17
2 -15 -3 42.9 8.92
-2 15 3 57.78 9.64
2 15 -3 31.89 14.52
1 -15 -3 104 10.4
1 15 -3 127.24 12.16
-1 15 3 139.67 12.23
1 -15 -3 106.32 11.23
1 15 -3 113.51 17.84
-1 15 3 124.45 16.54
0 15 3 199.44 19.15
0 -15 3 223.79 16.18
0 -15 -3 242.34 14.62
0 15 3 232.95 16.43
0 -15 3 241.35 17.91
0 15 -3 250.43 16.68
1 -15 3 234.26 17.73
1 -15 3 211.9 15.08
1 15 3 227.03 16.4
1 15 3 216.7 19.53
-1 -15 -3 206.99 11.41
-1 15 -3 237.34 13.94
-1 15 -3 199.85 11.81
-1 -15 -3 206.27 13.11
-1 15 -3 210.37 15.84
-2 -15 -3 196.55 12.77
-2 -15 -3 220 15.95
2 15 3 220.2 16.62
2 -15 3 207.88 17.56
-2 15 -3 225.06 12.63
2 15 3 248.7 20.63
-2 15 -3 230.63 16.66
2 -15 3 236.01 15.73
-2 -15 -3 204.05 12.06
3 -15 3 238.28 18.24
-3 -15 -3 249.9 17.28
3 15 3 241.32 17.11
-3 15 -3 224.55 13.79
-3 -15 -3 204.7 13.47
3 15 3 214.12 20.1
-3 15 -3 207.38 16.78
3 -15 3 229.06 16.1
4 -15 3 427.29 24.95
-4 -15 -3 470.41 26.56
-4 -15 -3 441.9 22.49
4 15 3 430.49 25.37
-4 15 -3 438.86 25.85
4 15 3 414.97 29.26
-5 15 -3 347.85 23.29
-5 -15 -3 386.19 24.04
5 15 3 361.2 23.1
-5 -15 -3 320.32 28.5
5 -15 3 356.75 22.19
5 15 3 355.13 17.19
5 15 3 358.19 26.4
6 15 3 304.72 14.64
6 -15 3 292.47 20.24
-6 -15 -3 271.6 21.54
-6 -15 -3 325.19 28.72
6 15 3 288.15 24.83
7 15 3 274.77 14.08
7 -15 3 314.87 21.12
-7 15 -3 331.92 23.68
-7 -15 -3 288.39 22.29
-7 -15 -3 352.53 29.71
7 15 3 320.29 26.05
7 15 3 309.82 18.55
8 15 3 223.24 15.98
8 15 3 253.43 19.73
-8 15 -3 251.81 21.87
-8 -15 -3 240.64 27.3
8 15 3 207.35 11.04
8 15 3 248.79 24
8 -15 3 206.59 15
9 15 3 250.25 13.02
-9 15 -3 274.99 24.41
9 -15 3 306.28 18.72
9 15 3 301.89 22.5
-9 -15 -3 299.81 31.06
9 15 3 337.35 19.15
10 15 3 138.04 8.3
10 15 3 199.48 15.23
10 15 3 186.56 19.09
10 -15 3 164.58 17.61
-10 -15 -3 175.65 27.98
10 -15 3 177.71 15.89
-10 15 -3 214.77 22.85
11 15 3 147.33 18.63
11 -15 3 160.1 18.38
-11 -15 -3 205.7 30.25
11 -15 3 159.72 16.71
12 -15 3 100.08 18.47
12 15 3 198.67 21.22
12 -15 3 177.9 19.6
14 16 -3 -18.44 13.6
13 16 -3 -1.1 12.95
12 -16 -3 -3.45 15.07
-12 16 3 -6.5 15.81
12 16 -3 19.92 19.01
12 16 -3 3.16 12.06
11 16 -3 24.14 14.64
11 16 -3 22.42 11.68
11 16 -3 14.87 17.05
11 16 -3 36.6 20.37
-11 16 3 34.07 16.03
11 -16 -3 11.34 14.13
10 16 -3 37.49 14.53
10 16 -3 30.65 11.46
10 16 -3 59.89 16.72
-10 16 3 64.75 15.85
10 16 -3 50.95 19.44
10 -16 -3 37.9 14.46
9 16 -3 10.62 10.07
9 -16 -3 15.55 12.1
9 16 -3 18.59 13.4
9 16 -3 12.96 17.23
-9 16 3 26.59 13.63
-9 -16 3 31.25 21.66
9 16 -3 -1.34 14.33
8 -16 -3 128.55 16.14
-8 16 3 115.95 16.02
8 16 -3 117.25 12.9
8 16 -3 92.85 16.57
-8 -16 3 105.57 23.27
8 16 -3 124.04 15.97
8 16 -3 111.07 20.84
7 -16 -3 211.84 18.22
7 16 -3 202.61 16.27
7 16 -3 196.39 17.35
7 16 -3 222.24 24.55
-6 16 3 154.63 13.27
6 16 -3 137.98 13.67
6 16 -3 136.19 14.04
6 16 -3 171.91 21.95
-6 -16 3 151.29 11.91
-6 16 3 160.76 12.48
6 -16 -3 137.1 14.46
-5 16 3 228.63 15.57
5 -16 -3 171.96 16.1
5 16 -3 198.04 23.07
5 16 -3 221.18 16.04
-5 16 3 224.04 14.05
-5 -16 3 194.93 13.32
5 16 -3 226.32 20.04
-5 -16 3 205.01 14.66
5 16 -3 206.84 15.15
4 16 -3 307.46 22.77
4 16 -3 258.9 18.38
-4 16 3 268.74 15.61
4 16 -3 282.4 16.63
-4 16 3 317.52 18.79
4 -16 -3 295.03 19.12
-4 16 3 309.28 16.46
4 16 -3 321.29 26.22
-4 -16 3 254.32 17
-4 -16 3 301.57 15.41
3 -16 -3 192.72 15.24
-3 -16 3 224.1 13.94
-3 16 3 201.84 12.15
-3 -16 3 202.09 11.68
3 16 -3 259.07 23.51
-3 16 3 201.08 10.66
3 -16 -3 237.99 15.81
-3 16 3 226.46 15.53
2 -16 -3 311.55 18.49
-2 16 3 296.42 18.97
-2 16 3 280.53 14.89
2 16 -3 308.18 25.69
2 -16 -3 314.81 19.15
1 -16 -3 661.84 33.71
-1 16 3 674.06 34.21
1 -16 -3 658.05 32.56
1 16 -3 674.01 40.62
-1 16 3 687.04 38.89
1 16 -3 714.88 34.43
0 -16 -3 527.8 25.54
0 -16 3 489.62 27.29
0 16 3 578.75 33.11
0 16 3 499.97 27.69
0 -16 3 482.18 28.9
0 16 -3 483.73 27.33
1 -16 3 381.49 25.58
-1 -16 -3 411.44 21.21
1 -16 3 379.52 23.05
1 16 3 415.42 24.06
-1 16 -3 404.01 24.06
1 16 3 444.47 28.42
-1 16 -3 422.47 19.5
-1 16 -3 414.58 21.53
-2 -16 -3 411.12 22.63
2 -16 3 373.81 21.61
-2 -16 -3 301.77 17
2 -16 3 314.22 23.12
2 16 3 399.46 22.61
-2 16 -3 385.37 22.61
2 16 3 395.01 26.67
-2 -16 -3 325.94 17.3
-2 -16 -3 377.11 18.76
-2 16 -3 387.39 17.77
-3 16 -3 176.11 15.5
3 -16 3 176.3 14.16
-3 -16 -3 170.56 14.94
3 16 3 144.84 14.11
3 -16 3 165.33 16.32
-3 16 -3 131.39 10.64
-3 -16 -3 141.71 10.34
-3 -16 -3 151.49 8.8
3 16 3 157.2 18.5
4 -16 3 79.88 11.03
4 16 3 99.16 13.58
4 16 3 84.55 16.12
-4 16 -3 65.25 12.14
-4 -16 -3 68.41 8.93
-4 -16 -3 73.78 12.14
-5 -16 -3 103.76 13.86
-5 16 -3 115.76 14.21
5 -16 3 101.06 12.45
5 16 3 87.15 13
-5 -16 -3 94.54 20.17
5 16 3 104.57 17.66
6 16 3 1.64 5.09
-6 -16 -3 17.53 18.08
6 16 3 -2.65 8.26
6 16 3 31.17 15.13
-6 -16 -3 38.2 12.24
6 -16 3 2.32 9.18
7 -16 3 20.47 11.12
-7 -16 -3 6.95 18.15
7 16 3 17.1 16.12
-7 -16 -3 11.17 12.16
7 16 3 4.27 4.77
7 16 3 15.58 8.69
8 16 3 9.04 4.68
8 16 3 0.87 8.91
8 16 3 20.88 12.77
-8 16 -3 11.56 13.79
-8 -16 -3 -14.73 19.68
8 16 3 23.7 15.41
9 16 3 2.9 4.33
-9 16 -3 1.77 14.9
9 16 3 33.56 13.29
9 16 3 -0.89 9.46
-9 -16 -3 -13.06 21.55
9 -16 3 11.64 9.61
10 16 3 18.18 3.85
10 16 3 23.81 14.49
-10 -16 -3 105.86 25.56
10 16 3 30.31 10.57
10 -16 3 10.33 10.71
10 -16 3 23.79 13.36
11 16 3 62.71 16.18
11 -16 3 28.1 14.45
-11 -16 -3 59.56 26.17
11 -16 3 37.79 13.49
12 -16 3 7.9 14.07
13 17 -3 1.12 13.33
12 17 -3 1.08 12.12
-12 17 3 10.13 16.38
12 17 -3 29.14 18.87
11 17 -3 4.98 15.13
11 17 -3 13.61 11.84
-11 17 3 9.69 15.98
11 -17 -3 -8.28 14.93
11 17 -3 11.62 17.64
10 -17 -3 13.97 13.67
10 17 -3 17.29 11.65
-10 17 3 3.08 14.13
10 17 -3 1.5 15.24
10 17 -3 -11.55 20.19
10 17 -3 12.98 14.69
9 17 -3 -6.97 10.62
9 -17 -3 -1.45 12.79
9 17 -3 8.06 13.57
9 17 -3 -2.25 18.28
-9 -17 3 26.93 21.2
-9 17 3 -5.84 14.41
9 17 -3 -12.11 13.98
8 -17 -3 -8.08 12.03
8 17 -3 7.82 10.28
8 17 -3 1.62 13.28
8 17 -3 -2.2 18.19
8 17 -3 8.35 12.52
-7 -17 3 36.6 9.24
7 -17 -3 17.59 11.48
-7 17 3 31.41 9.45
7 17 -3 62.69 19.8
7 17 -3 45.77 12.08
7 17 -3 22.93 9.99
6 -17 -3 5.79 10.63
-6 17 3 2.8 7.99
-6 -17 3 4.99 7.11
6 17 -3 -8.86 10
6 17 -3 0.94 9.76
-6 17 3 -9.23 8.71
6 17 -3 -6.38 16.51
5 -17 -3 131.5 14.94
-5 -17 3 163.68 11.44
-5 17 3 165.01 12.16
-5 -17 3 170.35 13.54
5 17 -3 171.38 21.93
5 17 -3 163.08 14.51
5 17 -3 150.55 13.27
-5 17 3 156.27 13.81
-4 -17 3 177.41 10.94
4 -17 -3 172.71 14.87
4 17 -3 205.05 18.87
4 17 -3 184.84 15.11
-4 17 3 187.06 14.67
-4 17 3 153.32 11.78
-4 -17 3 167.78 12.95
4 17 -3 155.69 20.98
-4 17 3 163.97 11.44
-3 17 3 9.57 5.79
3 -17 -3 -4.56 8.9
3 -17 -3 8.28 8.9
-3 17 3 8.38 8.68
3 17 -3 -12.14 14.98
-3 -17 3 3.93 4.45
2 -17 -3 81.65 10.56
2 -17 -3 81.37 11.54
-2 17 3 51.59 10.34
2 17 -3 64.41 16.44
-1 17 3 -1.73 13.4
1 -17 -3 0.76 7.86
-1 17 3 13.72 9.92
1 -17 -3 3.72 8.84
1 17 -3 18.25 14.23
0 17 -3 -4 9.29
0 17 3 5.16 13.12
0 17 3 -1.02 9.27
0 -17 -3 4.2 7.16
0 -17 3 1.29 10.61
0 -17 3 10 8.96
-1 17 -3 32.09 5.25
-1 -17 -3 39.06 7.75
1 -17 3 24.66 11.45
1 17 3 24.28 10.17
1 17 3 13.84 13.43
-1 17 -3 39.5 10.9
1 -17 3 30.72 9.41
-2 17 -3 38.97 11.23
2 -17 3 54.99 12.22
2 -17 3 31.38 9.17
2 17 3 39.4 10.22
-2 17 -3 32.34 6.14
-2 -17 -3 39.2 5.53
2 17 3 54.67 14.81
-2 -17 -3 42.31 7.54
-2 -17 -3 36.73 10.47
3 -17 3 106.89 12.05
-3 -17 -3 106.63 8.7
-3 17 -3 106.96 13.36
3 -17 3 72.77 13.77
-3 17 -3 83.32 8.69
3 17 3 108.22 12.89
-3 -17 -3 85.41 5.75
3 17 3 109.6 17.2
-3 -17 -3 84.59 12.43
4 17 3 15.06 9.66
-4 17 -3 18.94 11.52
4 -17 3 6.71 8.77
-4 -17 -3 6.55 6.68
4 17 3 25.7 12.02
4 17 3 7.33 13.78
-4 -17 -3 6.04 10.17
5 17 3 5.76 8.68
5 -17 3 -3.49 9.51
5 17 3 4.86 10.41
-5 -17 -3 7.6 10.94
-5 -17 -3 -5.2 7.56
5 17 3 14.92 14.75
-6 -17 -3 -5.39 11.6
6 17 3 -1.46 5.33
6 17 3 1.89 8.12
6 17 3 15.22 11.55
-6 -17 -3 22.85 18.62
6 -17 3 1.21 10.14
6 17 3 -1.92 15.06
7 17 3 2.77 8.71
-7 -17 -3 -1.43 12.24
7 17 3 29.87 17.15
-7 -17 -3 21.78 19.31
7 -17 3 1.26 10.95
7 17 3 10.44 5.09
8 17 3 5.36 4.83
8 17 3 6.15 16.7
8 17 3 -6.45 9.59
8 17 3 9.54 12.87
-8 -17 -3 7.67 19.49
9 17 3 30.23 18.73
9 17 3 -6.4 4.61
9 17 3 -12.68 13.47
9 17 3 -11.15 9.92
-9 17 -3 -19.97 15.69
-9 -17 -3 -10.84 21.14
10 17 3 -4.27 3.41
10 -17 3 -15.96 13.99
10 17 3 -7.61 10.45
10 17 3 -10.21 14.43
-10 -17 -3 23.03 23.75
10 -17 3 -5.61 10.14
11 -17 3 -3.06 14.04
11 17 3 6.88 10.42
-11 -17 -3 -18.39 24.97
11 -17 3 2.8 12.06
13 18 -3 13.78 13.38
12 18 -3 18.83 12.99
11 -18 -3 42.62 16.89
-11 18 3 23.52 16.64
11 18 -3 38.63 12.83
10 18 -3 35.25 15.2
10 18 -3 34.55 12.32
10 -18 -3 33.61 14.6
-10 18 3 52.79 16.11
10 18 -3 7.21 19.3
9 -18 -3 70.26 15.83
9 18 -3 74.76 12.31
9 18 -3 122.71 18.73
9 18 -3 67.97 21.33
9 18 -3 36.15 15.05
8 -18 -3 212.99 19.56
8 18 -3 162.98 18.28
8 18 -3 203.56 20.88
8 18 -3 217.49 17.08
8 18 -3 183.76 25.95
7 -18 -3 148.9 17.18
7 18 -3 173.83 20.21
7 18 -3 216.22 16.53
-7 18 3 165.96 14.23
7 18 -3 204.1 25.3
7 18 -3 176.59 17.02
-6 -18 3 114.37 12.06
-6 18 3 119.58 12.78
6 18 -3 112.22 13.22
6 18 -3 85.25 12.42
6 -18 -3 73.14 13.54
6 18 -3 120.7 20.37
-6 18 3 100.95 11.02
-5 18 3 183.51 12.92
5 18 -3 150.4 15.03
-5 18 3 151.42 14.79
-5 -18 3 195.86 13.99
5 -18 -3 193.19 16.63
-5 -18 3 198.13 12.39
5 18 -3 173.79 23.07
4 -18 -3 329.48 21.99
-4 18 3 386.29 22.37
-4 -18 3 360.15 17.31
4 18 -3 322.42 29.18
4 18 -3 357.91 21.76
-4 18 3 313.29 17.65
-4 -18 3 355.83 19.82
-4 18 3 338.08 16.4
4 18 -3 395.1 27.13
3 -18 -3 276.72 18.06
3 18 -3 246.86 17.86
-3 18 3 222.66 13.02
3 -18 -3 217.86 17.58
3 18 -3 297.51 25.76
-3 18 3 247.22 17.92
2 -18 -3 240.61 18.2
2 -18 -3 256.62 17.49
2 18 -3 256.36 25.24
-2 18 3 263.27 18.54
-1 18 3 748.86 41.22
1 -18 -3 681.01 32.92
1 -18 -3 672.72 34.54
-1 18 3 605.07 34.1
1 18 -3 631.19 41.9
0 18 -3 344.36 24.21
0 -18 -3 431.25 22.66
0 -18 3 415.59 26.85
0 -18 -3 419.56 24.72
0 -18 3 412.71 24.57
0 18 3 397.98 24.9
0 18 3 448.92 30.19
-1 -18 -3 54.14 10.7
-1 18 -3 49.36 11.77
1 -18 3 63.81 11.24
1 -18 3 72.52 13.17
1 18 3 53.32 11.96
1 18 3 57.21 16.27
-1 -18 -3 84.65 9.34
-2 -18 -3 31.37 7.52
2 -18 3 18.84 9.65
2 -18 3 19.32 11.89
-2 -18 -3 23.56 4.67
2 18 3 33.32 10.84
2 18 3 31.87 14.27
-2 18 -3 22.8 10.48
-2 18 -3 31.81 5.81
-2 -18 -3 55.35 10.83
3 -18 3 67.91 13.99
3 -18 3 99.86 12.24
3 18 3 105.58 14.14
-3 18 -3 95.21 8.39
-3 -18 -3 82.67 7.72
3 18 3 80 17.67
-3 18 -3 67.64 13.02
-3 -18 -3 94.45 7.97
-3 -18 -3 103.41 13.2
-4 -18 -3 159.06 16.17
-4 18 -3 145.34 16.25
4 18 3 147.68 14.76
-4 18 -3 149.28 11.5
4 18 3 161.55 15.97
4 -18 3 154.93 14.78
4 18 3 158.87 20.69
5 18 3 68.75 11.61
5 -18 3 83.85 12.46
-5 -18 -3 72.59 14.03
5 18 3 80.28 14.09
5 18 3 63.06 17.23
6 -18 3 1.26 10.47
6 18 3 4.02 16.18
6 18 3 30.5 12.67
6 18 3 -7.07 9.53
-6 -18 -3 11 12.44
7 18 3 11.53 5.66
-7 -18 -3 27.69 21.52
7 18 3 20.8 17.04
7 18 3 36.44 10.89
7 -18 3 10.57 11.31
8 18 3 1.46 5.22
8 -18 3 2.74 11.57
8 18 3 -4.27 16.65
-8 -18 -3 13.3 22.3
8 18 3 -0.97 9.66
8 18 3 12.81 13.23
-9 -18 -3 -8.42 23.33
9 18 3 11.15 18.39
9 18 3 -0.97 10.04
9 18 3 5.88 14.21
10 18 3 -0.98 10.45
-10 -18 -3 2.97 24.12
11 18 3 1.01 10.22
12 19 -3 101.98 16.38
11 19 -3 97.86 15.06
-11 19 3 85.07 19.52
10 19 -3 63.16 13.48
10 19 -3 66.22 17.68
10 -19 -3 63.93 16.34
9 19 -3 59.87 13
9 19 -3 83.71 17.11
9 -19 -3 59.88 15.33
9 19 -3 56.08 21.54
8 -19 -3 136.12 17.04
8 19 -3 113.34 14.21
8 19 -3 101.6 18.19
8 19 -3 79.23 21.75
-7 19 3 28.77 9.33
7 19 -3 10.44 14.56
7 19 -3 37.12 11.57
7 19 -3 11.89 18.24
7 -19 -3 25.34 12.55
-6 19 3 12.93 8.24
6 -19 -3 -2.48 11.06
6 19 -3 6.17 10.38
-6 19 3 -2.8 9.65
6 19 -3 -7.04 17.89
5 19 -3 26.87 11.07
-5 19 3 16.57 10.42
-5 19 3 39.87 7.7
5 19 -3 13.9 18.11
-5 19 3 31.01 8
-5 -19 3 20.06 8.58
5 -19 -3 43.81 12.03
4 19 -3 35.06 10.72
-4 19 3 35.38 10.69
4 19 -3 31.95 17.41
-4 19 3 19.27 6.71
4 -19 -3 40.57 11.23
-4 19 3 14.97 3.76
3 -19 -3 5.94 9.7
3 19 -3 6.23 10.05
3 -19 -3 25.26 11.06
3 19 -3 20.39 17.52
-3 19 3 14.57 10.28
2 19 -3 3.16 10.23
2 -19 -3 6.3 10.05
-2 19 3 24.49 10.55
2 -19 -3 13.82 9.65
-2 19 3 34.07 16.34
2 19 -3 -9.05 16.41
-1 19 3 111.21 13.4
1 -19 -3 71.41 12.66
1 -19 -3 84.91 11.26
1 19 -3 100.58 20.21
-1 19 3 77.06 17.31
0 -19 -3 60 9.84
0 -19 3 56.76 11.73
0 -19 3 54.82 13.73
0 19 3 63.17 12.35
0 -19 -3 65.96 12.9
0 19 3 37.2 15.86
-1 19 -3 19.66 11.2
-1 -19 -3 15.26 7.89
1 19 3 16.33 10.03
1 19 3 35.29 16.32
-1 -19 -3 5.25 9.28
1 -19 3 23.92 10.61
1 -19 3 28.8 12.14
-2 19 -3 117.03 14.72
-2 -19 -3 119.17 10.87
2 -19 3 110.25 15.44
2 19 3 114.08 14.36
-2 -19 -3 115.43 13.8
-2 19 -3 98.28 7.64
2 19 3 127.17 19.83
2 -19 3 120.41 13.83
-3 19 -3 278.68 21.4
3 -19 3 274.11 19.71
-3 19 -3 264.43 14.52
3 19 3 241.52 24.83
3 19 3 300.47 21.12
-3 -19 -3 295.78 20.84
3 -19 3 271.56 22.2
4 19 3 292.48 20.61
-4 -19 -3 292.4 21.56
-4 19 -3 255.32 21.72
4 19 3 322.19 22.24
-4 19 -3 271.12 16.17
4 -19 3 320.09 21.21
4 19 3 257.46 25.53
5 19 3 300.44 28.02
-5 -19 -3 349.82 24.32
5 -19 3 343.22 23.37
5 19 3 366.31 24.71
5 19 3 312.95 21.74
6 19 3 284.58 27.86
6 19 3 284.03 20.67
6 -19 3 299.12 22.46
-6 -19 -3 285.94 23.38
6 19 3 343.65 24.05
7 -19 3 246.41 21.33
7 19 3 293.2 19.8
7 19 3 237.11 27
8 19 3 146.74 24.25
8 19 3 191.56 20.57
-8 -19 -3 173.49 28.66
8 19 3 155.96 15.5
8 -19 3 143.27 17.91
9 19 3 77.79 13.02
-9 -19 -3 165.74 29.01
10 19 3 19.4 10.9
-10 -19 -3 58.26 27.58
12 20 -3 10.37 13.67
11 20 -3 12.35 13.22
10 20 -3 3.31 12.63
10 -20 -3 26.86 15.51
9 -20 -3 7.88 13.98
9 20 -3 8.7 11.98
9 20 -3 10.85 15.64
8 20 -3 6.47 11.79
8 20 -3 18.16 15.93
-8 20 3 13.87 10.26
8 -20 -3 -4.42 13.42
8 20 -3 15.05 20.01
7 20 -3 25.31 15.22
-7 20 3 -5.34 9.29
7 20 -3 -7.45 19.11
7 -20 -3 34.37 14.06
7 20 -3 8.61 11.66
6 20 -3 39.48 15.92
6 20 -3 25.92 11.56
6 20 -3 61.43 20.65
6 -20 -3 41.01 12.76
-6 20 3 32.59 9.02
-5 20 3 53.23 8.24
5 -20 -3 55.98 12.86
5 20 -3 70.97 12.75
-5 20 3 51.45 11.48
-5 20 3 64.22 6.83
5 20 -3 89.98 22.36
-4 20 3 69.84 7.91
-4 20 3 115.14 13.89
4 -20 -3 91.92 13.45
4 20 -3 68.05 12.68
4 20 -3 93.7 21.61
3 20 -3 42.54 11.48
3 -20 -3 18.59 10.6
3 -20 -3 26.87 11.54
-3 20 3 29.63 11.08
3 20 -3 40.61 19.09
2 20 -3 -1.11 10.49
2 -20 -3 3.87 9.05
2 -20 -3 1.12 10.9
-2 20 3 2.24 10.22
-2 20 3 -10.68 16.29
2 20 -3 4.78 17.61
1 -20 -3 81.77 11.97
-1 20 3 64.19 12.49
1 -20 -3 49.9 12.37
1 20 -3 79.6 20.77
-1 20 3 31.49 17.29
0 -20 3 73.71 12.9
0 -20 -3 69.42 10.74
0 20 3 66.32 13.46
0 -20 -3 85.47 13.91
0 20 -3 82.78 20.49
0 20 3 76.9 18.23
0 -20 3 103.24 15.99
-1 -20 -3 71.02 10.51
1 -20 3 75.59 13.11
1 20 3 76.88 13.51
1 -20 3 81.69 15.34
1 20 3 49.93 17.82
-1 -20 -3 75.41 12.08
2 -20 3 125.52 14.69
-2 -20 -3 108 11.7
2 -20 3 117.22 16.54
2 20 3 140.91 22.13
2 20 3 129.57 15.58
-2 -20 -3 127.61 14.64
-2 20 -3 141.76 16.2
3 -20 3 38.86 11.79
-3 20 -3 65.43 14.09
3 -20 3 49.69 13.93
-3 -20 -3 35.39 12.14
3 20 3 72.72 12.94
3 20 3 34.02 18.4
-3 20 -3 38.39 6.59
4 -20 3 5.15 10.31
4 20 3 13.42 12.34
4 20 3 -6.13 11.36
-4 20 -3 1.36 12.87
4 20 3 8.62 17.63
-4 20 -3 3.78 6.77
-4 -20 -3 6.4 11.69
5 20 3 29.25 11.55
5 -20 3 17.26 11.93
5 20 3 40.33 12.45
-5 20 -3 23.95 9.3
-5 -20 -3 18.94 12.92
5 20 3 -13.05 18.19
6 -20 3 67.14 13.8
6 20 3 92.19 16.08
6 20 3 97.14 14.09
-6 -20 -3 98.35 15.85
6 20 3 35.27 19.6
7 -20 3 24.22 12.43
7 20 3 31.11 11.41
7 20 3 67.95 20.82
8 -20 3 -8.9 12.72
8 20 3 2.16 10.58
8 20 3 -27.73 20.84
-9 -20 -3 -23.98 25.32
9 20 3 -1.07 11.46
10 20 3 16.97 11.4
11 21 -3 10.42 13.63
10 21 -3 19.37 12.82
9 -21 -3 43.66 16.86
9 21 -3 14.66 12.45
-9 21 3 22.11 11.63
-8 21 3 57.96 11.84
8 -21 -3 56.04 16.08
8 21 -3 43.33 17.55
8 21 -3 27 12.77
7 -21 -3 19.81 13.54
7 21 -3 5.63 15.61
7 21 -3 -5.63 11.74
7 21 -3 46.77 21.79
-7 21 3 28.31 9.62
6 -21 -3 -6.59 12.17
6 21 -3 -1.86 15.92
6 21 -3 7.84 12.42
-6 21 3 5.61 7.76
6 21 -3 28.27 20.14
-6 21 3 -1.27 8.14
5 -21 -3 1.23 11.75
-5 21 3 8.67 11.74
5 21 -3 -10.12 11.03
5 21 -3 2.55 19.14
-5 21 3 4.99 3.94
-5 21 3 6.36 6.96
4 -21 -3 21.81 11.37
4 21 -3 -10.11 19.27
-4 21 3 3.37 11.25
4 21 -3 19.24 11.27
3 -21 -3 11.88 10.45
3 -21 -3 3.56 11.67
3 21 -3 21.78 12.37
-3 21 3 19.64 11.92
3 21 -3 -10.07 18.25
2 -21 -3 1.19 12.01
-2 21 3 -2.26 18.28
2 -21 -3 10.15 10.16
2 21 -3 9.38 11.3
-2 21 3 1.18 11.21
2 21 -3 -7.56 18.08
1 21 -3 28.92 12.23
1 -21 -3 41.92 11.25
1 -21 -3 27.64 12.59
-1 21 3 18.06 11.37
-1 -21 3 11.14 13
1 21 -3 5.09 18.38
-1 21 3 26.66 18.06
0 -21 -3 209.84 16.89
0 -21 -3 177.7 17.99
0 -21 -3 169.59 14.8
0 -21 3 191.37 17.32
0 -21 3 149.88 18.9
0 21 3 169.2 17.08
0 21 -3 221.49 27.44
0 21 3 160.82 23.2
1 -21 3 55.45 13.38
-1 -21 -3 71.36 11.24
1 21 3 86.87 14.11
1 21 3 92.34 20.93
-1 -21 -3 91.93 13.23
1 -21 3 96.68 16.43
-2 21 -3 -1.32 13.39
2 -21 3 1.6 13.23
-2 -21 -3 0.77 8.53
2 -21 3 21.95 12.45
2 21 3 22.29 12.8
2 21 3 22.22 18.92
-2 -21 -3 12.96 10.67
-3 21 -3 6.84 12.27
3 -21 3 3.25 13.41
3 21 3 17.57 13
3 -21 3 10.54 11.48
3 21 3 31.35 19.21
-3 21 -3 9.81 5.46
-3 -21 -3 7.47 11.54
-4 21 -3 9.97 12.82
4 -21 3 32.3 12.53
4 21 3 27.92 13.36
-4 -21 -3 15.6 12.37
4 21 3 11.3 18.05
-4 21 -3 23.25 6.67
4 21 3 6.51 12.09
5 -21 3 77.63 15.07
5 21 3 52.28 13.31
5 21 3 93.97 15.72
-5 -21 -3 85.27 15.47
-5 21 -3 86.22 11.55
5 21 3 86.66 22.09
6 -21 3 75.65 15.09
-6 -21 -3 75.29 16.54
6 21 3 95.81 17.65
6 21 3 105.11 14.71
6 21 3 48.38 21.39
7 21 3 49.5 21.13
7 -21 3 38.38 14.19
7 21 3 56.28 13.45
8 -21 3 52.21 15.01
8 21 3 43.15 12.75
9 21 3 14.58 11.66
11 22 -3 -3.59 14.14
10 22 -3 57.8 15.25
9 22 -3 75.04 15.11
9 -22 -3 44.75 17.22
-9 22 3 45.27 12.76
-8 22 3 66.34 12
8 22 -3 65.77 13.96
8 -22 -3 65.3 16.61
7 22 -3 164.28 17.4
-7 22 3 157.79 13.74
7 -22 -3 146.59 18.65
7 22 -3 159.47 22.32
6 22 -3 209.49 24.36
6 22 -3 257.94 20.57
-6 22 3 228.84 14.42
-6 22 3 213.05 12.84
6 22 -3 306.22 30.92
6 -22 -3 261.9 21.31
5 22 -3 292.54 26.47
5 -22 -3 267.67 21.05
-5 22 3 243.27 14.01
5 22 -3 274.53 21.25
5 22 -3 266.95 30.65
-5 22 3 262.43 20.52
4 -22 -3 282.76 21.01
-4 22 3 270.82 20.98
4 22 -3 252.48 20.57
4 22 -3 228.26 29.14
3 22 -3 328.3 22.62
3 -22 -3 300.74 21.85
-3 22 3 308.55 22.4
-3 22 3 291.37 30.8
3 22 -3 293.82 31.62
3 -22 -3 258.75 22.01
2 22 -3 453.73 27.93
2 -22 -3 427.46 28.65
-2 22 3 475.4 36.75
-2 22 3 503.6 28.46
2 22 -3 366.41 35.68
2 -22 -3 418.4 26.13
1 -22 -3 363.77 22.38
-1 -22 3 341.35 26.62
1 -22 -3 320.86 24.35
-1 22 3 304.09 23.24
-1 22 3 361.79 31.82
1 22 -3 335.05 32.61
1 22 -3 349.01 24.15
0 22 -3 319.55 24.27
0 -22 3 343.99 26.27
0 -22 -3 283.91 23.73
0 22 3 310.38 23.4
0 -22 -3 341.75 21.29
0 22 -3 358.98 33.62
0 22 3 333.47 31.8
0 -22 3 357.15 24.18
0 -22 -3 369.95 22.6
1 -22 3 478 32.1
1 22 3 524.68 31.09
-1 -22 -3 500.41 29.11
1 22 3 520.31 38.31
-1 -22 -3 498.86 27.43
1 -22 3 488.25 30.39
2 -22 3 471.5 32.86
2 -22 3 533.7 31.31
2 22 3 519.4 31.29
-2 -22 -3 527.79 30.46
2 22 3 502.72 37.99
-3 22 -3 213.34 20.15
3 -22 3 161.14 20.13
3 22 3 190.71 26.82
3 22 3 174.54 19.27
-3 -22 -3 185.23 18.24
3 -22 3 199.38 18.84
4 22 3 95.23 15.75
-4 -22 -3 91.11 15.26
4 -22 3 85.9 14.88
4 22 3 69.84 14.97
-4 22 -3 111.4 16.78
-4 22 -3 84.13 8.11
4 22 3 63.98 20.99
-5 22 -3 85.14 11.95
-5 22 -3 92.78 9.43
5 22 3 74.95 14.38
5 22 3 82.63 16.73
-5 -22 -3 90.55 16.24
5 22 3 69.17 21.8
5 -22 3 109.79 16.19
6 22 3 59.95 14.44
6 -22 3 44.6 14.15
-6 22 -3 41.1 11.7
6 22 3 31.28 21.18
7 22 3 7.44 12.18
7 -22 3 50.61 15.02
-7 22 -3 7.3 9.31
8 22 3 5.95 12.2
9 22 3 8.16 12.45
10 23 -3 8.6 13.98
9 23 -3 1.22 13.97
8 -23 -3 28.6 15.37
8 23 -3 26.61 14.03
-8 23 3 -4.79 10.74
7 -23 -3 13.39 14.61
7 23 -3 23.01 13.47
-7 23 3 15.19 8.66
-7 23 3 12.64 9.27
6 -23 -3 2.79 13.16
6 23 -3 30.16 17.95
6 23 -3 -3.65 13.33
-6 23 3 1.34 7.17
5 23 -3 -17.15 13.27
5 -23 -3 -5.25 12.47
5 23 -3 2.8 21.41
5 23 -3 16.33 17.9
4 23 -3 2.04 17.32
4 -23 -3 -3.72 12.09
-4 23 3 -7.45 12.7
4 23 -3 5.57 21.53
4 23 -3 -7.46 12.82
3 23 -3 -5.07 12.48
3 -23 -3 -3.97 12.61
3 -23 -3 9.39 12.34
-3 23 3 7.65 13.01
3 23 -3 19.46 21.88
-3 23 3 5.13 21.48
2 -23 -3 13.3 13.92
2 -23 -3 -3.33 11.15
-2 23 3 -2.51 19.87
2 23 -3 -13.95 21.96
-2 23 3 20.8 12.79
2 23 -3 1.3 12.47
1 23 -3 67.64 15.02
1 -23 -3 49.55 14.64
-1 23 3 60.82 14.29
-1 -23 3 36.9 16.31
1 -23 -3 83.42 13
1 23 -3 73.33 24.38
-1 23 3 51.95 21.81
1 -23 -3 29.07 11.43
0 -23 3 32.27 12.8
0 -23 -3 23.55 11.33
0 -23 -3 19.59 10.96
0 -23 -3 16.36 13.6
0 -23 3 22.69 16.14
0 23 3 26.89 13.19
0 23 -3 2.86 21.07
0 23 3 27.01 21.71
0 23 -3 35.36 14.12
-1 -23 -3 4.61 11.33
1 -23 3 31.78 13.34
1 -23 3 -1.74 15.04
-1 -23 -3 31.68 15.28
1 23 3 30.5 13.97
1 23 3 2.45 20.78
2 -23 3 8.75 15.48
2 23 3 31.38 13.36
-2 -23 -3 21.91 12.54
2 23 3 7.37 20.84
2 -23 3 18.39 13.08
-3 -23 -3 19.05 12.45
3 23 3 51.25 15.03
3 -23 3 5.3 15.41
3 -23 3 10.14 12.99
3 23 3 -4.93 20.69
4 -23 3 11.78 12.82
4 23 3 -4.37 14.44
4 23 3 22.33 20.64
-4 -23 -3 1.34 13
-4 23 -3 15.18 4.96
-5 23 -3 40.4 7.08
5 -23 3 48.11 14.67
-5 -23 -3 57.73 15.44
5 23 3 36.04 14.41
5 23 3 72.38 23.68
-5 23 -3 23.63 9.48
6 23 3 33.57 13.88
6 -23 3 49.48 15.11
-6 23 -3 28.71 11.28
-7 23 -3 34.94 10.08
7 23 3 36.48 14.2
-7 23 -3 47.14 12.47
8 23 3 33.68 14.1
8 24 -3 1.26 13.7
7 -24 -3 15.28 14.96
7 24 -3 17.63 13.59
6 -24 -3 14.39 14.45
6 24 -3 12.67 13.4
-6 24 3 11.08 6.46
5 -24 -3 4.08 12.87
5 24 -3 21.79 14.5
4 24 -3 19.09 17.55
4 -24 -3 39.88 15
4 24 -3 31.3 13.71
3 -24 -3 17.16 12.54
-3 24 3 10.71 13.26
3 24 -3 3.99 13.55
-3 24 3 2.7 21.64
3 24 -3 -5.82 23.62
-2 24 3 1.36 13.03
2 24 -3 9.5 12.86
2 -24 -3 15.01 12
-2 -24 3 22.11 16.1
-2 24 3 -13.21 22.5
2 24 -3 29.3 22.76
2 -24 -3 -4.19 12.82
1 24 -3 5.55 13.89
1 -24 -3 4.22 13.31
-1 24 3 1.38 13.38
-1 -24 3 3.68 15.35
1 24 -3 -2.96 22.23
-1 24 3 2.6 20.75
1 -24 -3 -11.53 11.24
1 -24 -3 8.72 11.15
0 -24 3 1.82 15.63
0 -24 -3 11.43 14.31
0 -24 -3 8.85 11.44
0 24 3 9.84 13.4
0 24 -3 -2.99 22.16
0 24 3 54.19 22.55
0 24 -3 7.13 14.19
-1 24 -3 7.3 13.83
1 -24 3 -15.89 13.56
1 -24 3 1.82 14.99
1 24 3 17.27 14.68
-1 -24 -3 13.07 13.75
-1 24 -3 24.19 24.65
1 24 3 15.45 21.24
-1 -24 -3 18.65 12.02
-2 -24 -3 4.89 12.24
2 -24 3 -7.32 15.57
2 -24 3 -11.84 13.35
2 24 3 17.79 13.82
2 24 3 43.88 22.88
3 -24 3 11.07 15.6
-3 -24 -3 24.28 12.98
3 24 3 15.51 21.76
3 -24 3 10.59 13.52
-4 -24 -3 1.35 13.83
4 24 3 3.08 14.66
4 -24 3 12.33 13.57
4 24 3 -2.6 21.41
5 24 3 -2.92 13.98
-5 24 -3 1.99 6.05
-5 24 -3 -3.86 9.35
-5 -24 -3 5.67 14.5
5 -24 3 -25.07 14.32
6 24 3 11.27 13.71
-6 24 -3 10.61 10.43
7 24 3 -2.73 13.68
7 25 -3 79.8 17.59
7 -25 -3 47.14 17.64
6 25 -3 18.5 14.95
6 -25 -3 37.09 15.29
5 25 -3 38.91 15.67
5 -25 -3 40.74 15.65
4 25 -3 -1.37 14.64
4 -25 -3 12.03 14.07
-4 25 3 -2.88 23.69
-3 25 3 -16.81 14.81
-3 25 3 5.66 24.29
3 -25 -3 22.84 13.78
3 25 -3 5.57 13.74
2 25 -3 -8.51 15.29
2 -25 -3 19.26 11.63
-2 25 3 7.14 13.76
2 -25 -3 -10.27 14.96
-2 -25 3 7.71 16.1
-2 25 3 -33.28 24.76
2 -25 -3 2.4 11.63
1 25 -3 4.35 14.51
1 -25 -3 13.23 14.38
-1 25 3 21.71 15.56
1 -25 -3 -4.23 11.11
-1 25 3 -2.73 22.25
-1 -25 3 15.36 16.96
0 25 -3 34.06 15.83
0 -25 3 72.15 18.41
0 -25 -3 22.37 14.86
0 25 3 35.22 14.58
0 25 3 27.08 23.1
0 -25 -3 23.39 11.67
1 -25 3 49.75 15.44
-1 -25 -3 23.44 12.83
1 -25 3 26.52 17.71
-1 -25 -3 54.79 17.6
1 25 3 27.02 22.69
-2 -25 -3 73.25 14.49
2 -25 3 46.24 15.59
2 25 3 94.55 25.3
2 -25 3 51.48 17.89
3 -25 3 75.64 16.61
-3 -25 -3 57.86 15.22
3 -25 3 65.24 18.51
3 25 3 51.32 23.83
4 25 3 64.69 17.85
4 -25 3 78.84 17.23
-4 -25 -3 62.25 15.9
5 25 3 104.25 18.76
6 25 3 106.28 18.15
7 25 3 38.56 16.25
6 -26 -3 61.17 17.57
5 -26 -3 97.27 17.45
4 -26 -3 213.04 20.72
3 -26 -3 103.56 16.95
-2 26 3 32.82 15.37
-2 -26 3 72.61 19.22
-2 26 3 95.82 28.33
2 -26 -3 53.45 12.32
-1 -26 3 80.03 20.31
-1 26 3 51.51 26.51
1 -26 -3 112.52 15.01
0 -26 3 110.63 21.3
0 -26 -3 142.61 16.26
0 26 3 136.03 28.78
1 -26 3 68.94 19.34
-1 -26 -3 82.83 14.78
1 -26 3 97.02 17.82
-2 -26 -3 38.98 14.27
2 -26 3 33.76 18.51
2 -26 3 41.74 16.7
3 26 3 50.58 18.42
-3 -26 -3 44.98 15.18
3 -26 3 31.17 15.81
4 26 3 13.55 17.29
-4 -26 -3 9.46 14.3
5 26 3 3.2 16.01
6 26 3 -4.63 15.91
5 -27 -3 -1.5 15.09
4 -27 -3 4.28 15.29
3 -27 -3 -0.96 10.59
2 -27 -3 -16.09 11.7
1 -27 -3 11.6 12.26
0 -27 -3 1.11 12.01
-1 -27 -3 2.3 12.42
-2 -27 -3 -4.85 13.29
-3 -27 -3 3.83 13.63
3 27 3 23.8 19.02
4 27 3 21.26 17.99
5 27 3 -1.67 17.46
0 -28 -3 28.02 13.48
-1 -28 -3 36.26 13.54
-2 -28 -3 2.39 13.09
3 28 3 -3.83 18.86
4 28 3 1.84 18.98
-16 0 4 -16.36 24.18
-15 0 4 -24.16 17.72
-15 0 4 9.97 20.99
-14 0 4 33.5 16.2
-14 0 4 34.07 19.82
-13 0 4 41.31 18.19
-13 0 4 41.07 14.38
-12 0 4 70.87 14.67
-12 0 4 68.99 18.56
-11 0 4 24.52 11.46
-11 0 4 30.14 15.34
-10 0 4 4.46 13.01
-10 0 4 10.53 10.27
-9 0 4 562.94 30.22
-9 0 4 493.67 30.67
-8 0 4 1152.11 54.7
-8 0 4 1188.93 55.52
-7 0 4 1017.88 44.97
-7 0 4 855.32 44.48
-6 0 4 2212.88 90.66
-6 0 4 1991.8 89.92
-5 0 4 2141.23 87.9
-5 0 4 1971.5 86.88
-4 0 4 1447.83 61.4
4 0 -4 1381.93 60.59
-4 0 4 1398.63 61.12
-3 0 4 1582.07 67.21
3 0 -4 1510.58 66.52
-3 0 4 1632.94 67.4
-2 0 4 1657.99 73.24
-2 0 4 1779.93 73.33
2 0 -4 1736.03 70.39
-2 0 4 1642.83 72.66
-2 0 4 1714.72 73.03
2 0 -4 1761.43 72.22
1 0 -4 2554.29 106.38
-1 0 4 2670.26 107.71
-1 0 4 2534.1 107.81
0 0 -4 1558.55 65.3
0 0 4 1589.88 67.09
-1 0 -4 2897.29 119.23
-1 0 -4 2975.9 119.66
-1 0 -4 2886.34 119.44
-2 0 -4 265.87 12.98
-2 0 -4 272.26 14.96
3 0 4 784.57 34.55
-3 0 -4 804.97 36.52
-3 0 -4 827.12 34.66
-3 0 -4 804.43 37.26
4 0 4 1544.01 64.24
-4 0 -4 1593.16 66.03
-4 0 -4 1465.25 67.19
-5 0 -4 1157.35 51.62
5 0 4 1204.61 50.45
-5 0 -4 1198.85 53.95
-6 0 -4 288.66 15.61
-6 0 -4 292.64 18.07
6 0 4 268.32 14.45
-7 0 -4 58.84 7.2
7 0 4 64.97 7.07
-8 0 -4 3.74 6.41
-9 0 -4 55.66 8.95
-10 0 -4 26.69 8.53
-10 0 -4 30.21 14.58
-11 0 -4 153.24 21.09
11 0 4 127.73 11.58
-11 0 -4 103.94 12.84
12 0 4 115 11.88
-12 0 -4 97.49 21.12
-13 0 -4 40.62 20.41
13 0 4 41.71 10.65
14 0 4 34.51 11.29
-16 -1 4 11.16 24.12
-16 1 4 2.67 23.57
-15 -1 4 20.43 17.56
-15 1 4 37.72 17.07
-15 -1 4 30.7 23.18
-15 1 4 26.8 22.3
-14 1 4 71.43 17.3
-14 -1 4 74.76 21.82
-14 -1 4 68.04 17.67
-14 1 4 66.68 21.74
-13 1 4 32.27 18.05
-13 -1 4 56.01 15.58
-13 1 4 60.84 14.79
-13 -1 4 38.25 18.13
-12 1 4 157.77 18.02
-12 -1 4 157.76 18.51
-12 -1 4 176.7 22.19
-12 1 4 151.17 20.53
-11 1 4 148.49 16.8
-11 -1 4 166.78 17.15
-11 -1 4 141.63 19.2
-11 1 4 160.41 19.61
-10 -1 4 233.4 19.24
-10 1 4 235.95 21.02
-10 -1 4 259.72 22.24
-10 1 4 281.73 20.65
-9 -1 4 216.93 17.35
-9 1 4 162.28 16.71
-9 1 4 198.12 16.44
-9 -1 4 177.58 18.14
-8 -1 4 291.03 19.11
-8 1 4 259.09 18.57
-8 -1 4 232.41 19.39
-8 1 4 241.9 18.86
-7 1 4 139.27 11.92
-7 -1 4 120.96 12.56
-7 -1 4 143.6 14.3
-7 1 4 107.19 12.5
-6 1 4 14.92 7.64
-6 1 4 3.3 7.05
-6 -1 4 13.12 7.48
-6 -1 4 8.56 8.43
-5 -1 4 147.41 11.61
-5 1 4 136.53 11.03
-5 1 4 128.5 10.67
-4 -1 4 324.73 18.5
-4 1 4 339.66 18
-4 -1 4 334.94 18
-4 1 4 320.81 17.96
4 -1 -4 317.35 17.19
4 1 -4 343.87 17.91
-3 -1 4 141.33 10.35
3 -1 -4 144.41 9.52
3 1 -4 131.04 9.82
-3 -1 4 136.95 10.1
-3 1 4 116.26 9.88
3 1 -4 142.09 8.66
-3 1 4 130.53 9.96
2 1 -4 91.43 7.75
-2 -1 4 80.33 7.97
2 -1 -4 76.21 6.7
-2 1 4 91.35 7.73
-2 -1 4 96.52 8.37
2 1 -4 80.48 6.15
-2 1 4 88.15 7.9
-2 1 4 90.27 8.34
-2 -1 4 70.81 7.3
-2 -1 4 84.88 8.13
1 -1 -4 75.02 5.67
-1 1 4 71.3 6.91
1 1 -4 59.9 6.45
-1 1 4 60.22 7.38
-1 -1 4 70.44 7.03
1 -1 -4 80.18 7.16
-1 -1 4 89.69 8.02
0 1 -4 1696.39 69.82
0 -1 -4 1711.15 68.64
0 -1 4 1556.59 70.84
0 1 4 1599.84 71
0 -1 -4 1690.51 71.09
-1 1 -4 879.17 37.25
-1 -1 -4 852.2 36.1
-1 -1 -4 873.38 36.86
-1 -1 -4 892.55 38.8
-1 -1 -4 845.46 36.63
-1 1 -4 883.1 37.61
-2 -1 -4 187.31 9.9
-2 1 -4 216.54 11.99
-2 1 -4 210.93 10.88
-2 -1 -4 201.67 12.3
-3 -1 -4 1096.57 45.69
-3 -1 -4 1116.03 49.21
-3 1 -4 1088.53 47.77
-3 -1 -4 1095.01 48.01
-3 1 -4 1081.5 48.43
-3 1 -4 1076.68 46.46
-4 1 -4 753.73 33.44
4 -1 4 742.01 33.14
4 1 4 762.09 32.45
-4 -1 -4 797.96 34.8
-4 1 -4 719.34 34.28
-4 1 -4 807.93 35.97
-4 -1 -4 740.79 36.13
5 -1 4 168.84 10.14
5 1 4 167.77 9.19
-5 1 -4 171.01 10.9
-5 -1 -4 149.14 10.72
-5 -1 -4 155.23 9.06
-5 1 -4 138.53 12.26
-5 -1 -4 164.23 13.01
6 -1 4 352.05 17.34
-6 1 -4 306.68 19.73
-6 -1 -4 329.45 16.72
-6 1 -4 342.57 17.39
-6 -1 -4 361.65 18.16
-6 -1 -4 361.52 21.01
6 1 4 315.07 16.28
-7 -1 -4 367.62 18.63
-7 1 -4 378.95 18.7
-7 -1 -4 393.41 22.75
7 -1 4 348.39 18.53
7 1 4 351.63 17.96
8 1 4 134.61 9.58
-8 -1 -4 122.61 10.44
-8 1 -4 112.51 10.21
-8 -1 -4 129.06 16.14
-9 -1 -4 117.49 16.44
-9 -1 -4 84.83 9.94
-9 1 -4 90.49 10.19
-10 -1 -4 86.06 17.51
10 -1 4 96.32 9.95
-10 -1 -4 93.42 11.07
10 -1 4 84.96 14.5
-10 1 -4 58.93 10.28
11 1 4 28.27 8.01
11 -1 4 18.89 14.14
11 -1 4 23.89 8.4
-11 -1 -4 34.93 10.33
-11 1 -4 58.85 17.61
-11 1 -4 23.89 9.89
-11 -1 -4 17.9 16.84
12 1 4 22.12 8.29
12 -1 4 22.6 9.28
-12 1 -4 30.15 18
-12 -1 -4 -8.81 17.81
12 -1 4 1.59 14.99
13 -1 4 32.43 10.76
-13 -1 -4 48.56 21.01
13 1 4 15.19 9.44
-13 1 -4 42.55 20.08
14 1 4 21.34 10.22
14 -1 4 9.61 10.69
15 -1 4 27.39 12.72
-16 2 4 15.74 22.6
-15 -2 4 18.66 18.12
-15 2 4 -5.89 16.53
15 -2 -4 4.15 5.38
-15 2 4 2.4 20.35
-15 -2 4 5.26 22.89
-14 2 4 -12.66 14.56
-14 -2 4 14.47 21.38
-14 2 4 -6.56 18.12
-14 -2 4 3.86 15.87
-13 -2 4 17.86 14.37
-13 2 4 11.63 12.85
-13 -2 4 -8.8 18.52
-13 2 4 19.69 17.4
-12 -2 4 -6.57 12.71
-12 2 4 -10.67 12.37
-12 -2 4 1.99 16.65
-12 2 4 5.29 15.06
-11 2 4 -8.39 10.81
-11 -2 4 -4.53 10.89
-11 2 4 -4.7 13.19
-11 -2 4 -5.38 14.98
-10 -2 4 134.03 15.73
-10 2 4 143.02 15.07
-10 2 4 114.69 15.79
-10 -2 4 128.39 18.43
9 2 -4 22.55 7.93
-9 2 4 16.19 9.61
-9 -2 4 30.09 9.99
-9 -2 4 5.68 11.83
-9 2 4 27.82 11.13
-8 -2 4 28.29 9.68
-8 2 4 22.89 10.04
-8 2 4 14.53 8.72
8 2 -4 25.09 7.34
-8 -2 4 22.43 10.49
-7 2 4 88.73 10.78
-7 2 4 57.91 10.11
-7 -2 4 83.53 10.73
-7 -2 4 58.28 11.86
-6 2 4 25.1 7.88
-6 2 4 39.78 8.47
-6 -2 4 24.61 8.41
-6 -2 4 45.4 9.71
-5 -2 4 546.13 28.28
-5 2 4 569.08 27.67
-5 2 4 557.52 26.77
4 2 -4 137.05 10.47
-4 2 4 144.65 10.32
-4 -2 4 113.27 10.64
-4 2 4 109.55 9.71
-4 -2 4 131.92 10.31
4 2 -4 119.9 9.51
-4 2 4 124.76 8.59
-3 -2 4 150.92 11.45
3 2 -4 168.81 11.17
-3 2 4 148.26 10.41
-3 2 4 162.86 8.56
-3 2 4 145.59 10.83
3 2 -4 149.3 10.37
-3 -2 4 173.79 11.12
-2 2 4 65.54 7.21
-2 -2 4 68.64 7.98
-2 -2 4 80.12 7.31
-2 -2 4 98.25 8.32
-2 2 4 59.36 6.92
2 2 -4 74.08 7.03
-2 -2 4 88.1 8.3
-2 2 4 67.67 7.88
2 -2 -4 74.31 6.31
2 2 -4 68.95 7.52
1 2 -4 266.66 15.18
-1 -2 4 309.76 15.5
-1 2 4 277.32 15.14
-1 -2 4 256.68 15.5
-1 2 4 282.4 15.42
1 -2 -4 281.61 15.06
1 -2 -4 280.69 13.26
0 2 -4 26.13 5.18
0 2 -4 15.61 4.56
0 -2 -4 23.14 2.82
0 -2 -4 18.84 3.02
0 -2 4 24.34 5.9
0 -2 -4 28.82 5.84
0 2 4 28.09 6.05
-1 2 -4 576.33 26.14
-1 2 -4 594.93 25.8
-1 -2 -4 546.56 25.43
-2 -2 -4 745.75 34.16
-2 2 -4 767.42 34
-2 2 -4 738.32 32.94
-2 -2 -4 766.13 33.94
-2 -2 -4 745.41 31.57
-3 -2 -4 296.95 13.26
-3 2 -4 302.7 15.08
-3 -2 -4 279.4 12.6
-3 -2 -4 314.14 16.19
-3 2 -4 303.75 16.66
-3 -2 -4 295.67 16.97
-4 2 -4 73.54 6.98
-4 -2 -4 78.2 9.62
4 -2 4 66.97 6.51
-4 -2 -4 65.83 4.75
-4 2 -4 80.35 8.53
-4 2 -4 69.94 7.19
-4 -2 -4 69.43 7.47
4 2 4 60.56 4.71
5 2 4 463.14 20.66
-5 -2 -4 456.73 21.04
-5 2 -4 470.04 22.68
-5 -2 -4 467.7 23.05
5 -2 4 467.7 22.41
-5 -2 -4 515.42 26.55
-5 -2 -4 457 25.48
-5 2 -4 459.04 24.28
-6 -2 -4 94.78 11.14
6 2 4 86.93 6.36
-6 2 -4 92.64 7.96
-6 -2 -4 93.39 8.67
-6 -2 -4 94.58 12.39
-6 -2 -4 82.69 7.32
6 -2 4 85.16 7.97
-6 2 -4 106.82 10.57
-7 -2 -4 5.12 10.51
-7 -2 -4 1.51 5.57
-7 2 -4 -6.09 5.47
7 2 4 -0.36 4.45
-7 -2 -4 3.23 8.91
8 2 4 8.09 5.33
-8 -2 -4 4.28 6.48
-8 -2 -4 -2.91 11.31
-9 -2 -4 -3.58 7.62
9 2 4 3.94 5.87
-9 -2 -4 16.36 13.11
-9 2 -4 -8.42 7.73
9 -2 4 16.63 11.95
9 -2 4 -11.6 6.91
10 -2 4 -3 7.54
-10 -2 -4 2.48 8.12
10 -2 4 9.14 12.71
-10 2 -4 22.49 8.99
-10 -2 -4 21.98 14.93
-11 -2 -4 -8.55 9.72
11 -2 4 12.24 8.84
11 -2 4 2.86 13.81
-11 2 -4 -6.77 9.11
12 2 4 -7.55 7.6
12 -2 4 40.7 16.22
12 -2 4 0.88 8.88
-12 2 -4 -7.6 10.74
-12 -2 -4 -15.82 18.57
13 -2 4 3.41 17.26
13 2 4 -8.2 8.32
-13 2 -4 -23.58 20.15
-13 -2 -4 2.48 20.23
13 -2 4 -9.51 10.04
14 2 4 3.99 9.79
14 -2 4 -7.09 11.78
15 -2 4 2.14 11.81
-16 3 4 20.76 22.85
-15 -3 4 113.61 21.88
-15 3 4 78.26 22.63
-15 3 4 68.27 18.54
-15 -3 4 72.89 25.38
-14 -3 4 82.4 18.68
-14 3 4 100.35 17.66
-14 -3 4 103.93 24.41
14 -3 -4 51.53 6.64
-14 3 4 68.48 20.23
-13 -3 4 71.02 16.94
-13 3 4 79.33 16.04
-13 3 4 40.46 18.36
-13 -3 4 49.86 19.53
-12 -3 4 82.59 16.29
-12 3 4 91.35 15.99
-12 3 4 75.82 16.39
-12 -3 4 72.22 19.08
-11 -3 4 254.27 21.37
-11 3 4 198.02 18.7
-11 3 4 287.05 22.94
-11 -3 4 212.78 23.43
-10 -3 4 282.59 20.83
-10 3 4 247.6 20.18
-10 -3 4 204.04 22.11
-10 3 4 193.75 17.89
-9 -3 4 43.88 11.65
-9 3 4 59.19 11.07
9 3 -4 56.25 9.21
-9 -3 4 62.6 13.98
-8 3 4 118.32 12.7
-8 -3 4 128.41 13.7
8 3 -4 145.73 12.14
-8 -3 4 129.15 15.74
-7 -3 4 -1.05 7.24
-7 3 4 5.43 7.41
-7 -3 4 -12.73 10.19
-6 -3 4 47.19 9.22
-6 3 4 23.05 7.57
-5 -3 4 8.46 6.14
-5 3 4 5.51 5.95
5 3 -4 1.38 6.4
-4 3 4 735.54 33.98
-4 -3 4 690.32 34.05
4 3 -4 779.68 34.66
-4 3 4 730.73 34.28
-4 -3 4 765.44 35.49
-3 -3 4 109.67 10.47
-3 3 4 116.27 9.87
3 3 -4 113.62 9.87
3 3 -4 108.46 9.57
-3 -3 4 113.77 9.43
-2 3 4 10.55 5.66
-2 -3 4 2.58 5.03
-2 3 4 12.56 5.55
2 3 -4 15.63 6.12
2 3 -4 6.38 4.77
2 3 -4 3.52 6.05
2 -3 -4 5.83 4.71
-2 -3 4 6.1 5.79
-2 3 4 1.69 5.27
-2 -3 4 1.19 5.63
1 3 -4 513.58 24.36
-1 -3 4 517.16 24.09
-1 3 4 472.73 23.92
1 3 -4 517.93 24.12
1 -3 -4 513.93 24.03
-1 -3 4 487.16 24.27
-1 3 4 467.38 23.76
0 -3 -4 744.18 34.9
0 3 -4 806.24 34.17
0 3 4 757.68 35.02
0 -3 -4 757.95 32.87
0 -3 4 758.68 35.02
0 3 -4 772.24 35.11
0 -3 -4 811.53 35.11
-1 3 -4 186.53 12.01
-1 -3 -4 178.49 11.82
-1 3 -4 186.51 11.44
-1 -3 -4 158.63 10.22
-1 3 -4 189.82 10.83
-2 3 -4 92.11 7.66
-2 -3 -4 77.43 4.8
-2 -3 -4 100.49 8.16
-2 3 -4 80.6 8.29
-2 -3 -4 97.49 8.8
-3 3 -4 17.31 5.42
-3 3 -4 21.45 6.25
-3 -3 -4 9.12 4.91
-3 3 -4 15.26 5.93
-3 -3 -4 14.77 6.69
-4 3 -4 246.59 14.31
-4 -3 -4 257.2 11.75
4 -3 4 228.96 13.51
-4 -3 -4 257.01 14.53
-4 -3 -4 293.65 17.16
-4 3 -4 238.1 15.23
5 3 4 491.04 25.67
5 3 4 490.6 21.65
5 -3 4 537.42 24.38
-5 -3 -4 504.55 24.88
-5 3 -4 521.11 24.18
-5 -3 -4 492.82 27.33
-5 -3 -4 508.9 22.54
-5 3 -4 496.87 25.83
6 3 4 793.39 34.16
-6 -3 -4 785.25 35.26
-6 3 -4 827.6 36.08
-6 -3 -4 859.16 40.21
-6 -3 -4 771.31 40.52
6 3 4 825.42 37.91
7 3 4 906.45 39.12
7 3 4 919.05 42.58
-7 3 -4 903.75 40.19
-7 -3 -4 911.15 40.53
-7 -3 -4 925.7 46.53
-7 -3 -4 978.77 45.4
8 3 4 399.46 19.07
-8 -3 -4 386.78 20.82
-8 -3 -4 421.77 27.11
-9 -3 -4 287.99 17.68
9 3 4 279.79 15.35
9 -3 4 284.63 17.39
-9 -3 -4 267.3 23.72
9 -3 4 334.56 22.09
10 -3 4 196.48 19.56
10 -3 4 223.14 15.54
-10 3 -4 232.95 16.45
-10 -3 -4 255.91 16.81
-10 -3 -4 215.74 22.89
-11 -3 -4 111.14 14.38
-11 3 -4 148.54 14.18
11 -3 4 173.51 18.57
11 -3 4 136.43 12.73
-11 -3 -4 117.41 20.71
12 -3 4 84.89 18.07
12 -3 4 62.42 11.9
-12 -3 -4 87.6 21.8
-12 3 -4 61.75 12.64
13 -3 4 50.04 11.62
13 3 4 20.02 8.86
-13 -3 -4 37.8 20.48
13 -3 4 25.24 17.3
14 -3 4 44.75 12.54
14 3 4 10.35 9.18
15 -3 4 1.12 12.51
-16 4 4 12.87 22.58
-15 -4 4 4.26 17.96
-15 4 4 65.3 22.03
-15 -4 4 5.55 24.54
-15 4 4 29.08 17.39
-14 -4 4 -15.96 16.52
-14 4 4 12.54 14.84
-14 -4 4 -12.8 20.69
14 -4 -4 -1.09 2.85
-14 4 4 2.11 17.72
-13 4 4 14.91 13.33
-13 -4 4 59.24 16.68
13 -4 -4 30.76 5.99
-13 -4 4 39.9 20.02
-13 4 4 20.84 16.24
-12 -4 4 85.73 16.75
12 -4 -4 36.03 6.85
-12 4 4 53.16 13.89
-12 -4 4 64.31 19.76
-12 4 4 78.36 16.15
-11 4 4 1.38 11.13
-11 -4 4 9.48 12.28
-11 4 4 13.71 13.51
-11 -4 4 27.2 15.97
-10 4 4 153.42 15.17
10 4 -4 129.45 14.1
-10 -4 4 143.31 16.5
-10 -4 4 126.05 19.16
-9 -4 4 455.75 27.81
9 4 -4 447.54 25.85
-9 4 4 412.78 26.07
-9 -4 4 549.31 31.54
-8 -4 4 342.43 22.53
8 4 -4 384.74 21.29
-8 -4 4 303.37 23.27
-8 4 4 336.94 21.03
-7 -4 4 257.98 18.25
-7 4 4 275.46 17.68
-7 -4 4 259.81 19.7
-6 4 4 1146 51.38
6 4 -4 1093.79 52.07
-6 -4 4 1161.44 52.76
-5 -4 4 811.42 40.02
-5 4 4 875.95 38.9
5 4 -4 822.14 39.62
-4 -4 4 380.15 22.23
-4 4 4 427.3 21.08
4 4 -4 413.68 22.11
-4 -4 4 398.33 21.14
-4 4 4 418.96 21.4
-3 -4 4 661.26 31.97
3 4 -4 697.52 31.57
3 -4 -4 612.72 30.03
3 4 -4 662.13 31.27
-3 -4 4 620.08 30.31
-3 4 4 654.6 30.57
-2 4 4 1360.78 59.86
-2 -4 4 1414.21 59.88
2 4 -4 1397.97 60.67
-2 -4 4 1390.48 60.14
-2 4 4 1468.3 60.44
2 4 -4 1401.45 60.92
2 -4 -4 1365.04 60.21
2 4 -4 1368.45 59.94
-2 -4 4 1418.06 60.49
-2 4 4 1352.95 59.79
2 -4 -4 1400 59.85
1 4 -4 515.62 23.41
-1 -4 4 446.25 22.1
-1 4 4 473.64 22.54
-1 4 4 413.74 19.77
1 4 -4 445.38 22.4
1 -4 -4 477.94 22.44
-1 -4 4 485.7 22.94
-1 4 4 457.48 22.32
0 -4 4 2005.36 80.7
0 4 4 1921.89 80.54
0 -4 -4 2035.82 80.46
0 4 -4 1829.15 80.24
0 -4 -4 1849.95 78.85
0 -4 -4 1852.12 80.28
0 4 -4 1874.1 79.81
-1 -4 -4 1293.77 55.32
1 -4 4 1195.5 55.56
-1 4 -4 1251.15 54.99
-1 4 -4 1282.89 55.99
-1 -4 -4 1361.53 56.27
-1 -4 -4 1365.48 56.08
-2 -4 -4 378.41 15.86
-2 4 -4 370.1 18.72
-2 4 -4 369.23 19.68
-2 -4 -4 380.24 20.08
2 4 4 343.93 19.93
-2 4 -4 380.93 19.89
-2 -4 -4 386.28 20.02
3 4 4 19.46 6.85
-3 4 -4 21.83 6
-3 -4 -4 37.28 5.73
-3 4 -4 16.38 7
-3 4 -4 29.14 5.81
-3 -4 -4 23.25 7.5
-4 4 -4 20.36 6.35
-4 4 -4 21.62 7.56
-4 4 -4 9.81 6.29
-4 -4 -4 10.47 5.81
-4 -4 -4 21.9 3.29
-4 -4 -4 20.98 8.61
-5 4 -4 5.58 6.46
-5 -4 -4 8.26 8.96
-5 -4 -4 7.49 4.09
5 4 4 5.95 2.03
-5 4 -4 8.52 5.04
-6 -4 -4 62.15 6.51
6 4 4 72.95 9.3
-6 4 -4 51.77 6.71
-6 -4 -4 66.13 11.77
-6 -4 -4 80.93 10.25
6 4 4 64.61 4.52
7 4 4 21.43 3.87
-7 -4 -4 26.37 6.35
7 4 4 18.34 7.9
-7 4 -4 16.58 5.41
-7 -4 -4 51.35 11.39
-7 -4 -4 15.16 11.03
8 4 4 12.51 4.67
8 -4 4 9.24 7.29
-8 -4 -4 13.19 7.09
8 4 4 18.38 9
-8 4 -4 16.04 5.01
-8 -4 -4 12.47 12
-9 -4 -4 -2.98 7.66
9 4 4 6.63 5.38
9 -4 4 7.75 7.17
9 4 4 6.94 8.99
-9 -4 -4 -17.47 14.88
9 -4 4 -24 11.75
-10 -4 -4 29.12 16.28
10 4 4 5.93 5.76
10 -4 4 -0.84 7.76
10 -4 4 16.4 12.7
-10 -4 -4 14.68 9.83
11 -4 4 14.54 9.07
-11 -4 -4 30.02 18.21
-11 4 -4 31.76 10.66
11 -4 4 29.13 14.4
12 -4 4 1.96 9.97
12 -4 4 -3.04 15.14
-12 4 -4 26.1 11.61
-12 -4 -4 2.35 18.94
13 -4 4 5.24 10.92
13 -4 4 -16.6 16.97
-13 -4 -4 -25.71 21.12
13 4 4 5.06 7.71
14 -4 4 -1.12 12.29
14 4 4 3.39 7.92
15 -4 4 10.59 13.28
-15 5 4 15.56 16.11
-15 -5 4 32.38 19
-15 5 4 -20.72 20.55
-15 -5 4 -5.7 23.6
-14 -5 4 16.13 17.69
-14 5 4 -5.41 14.77
-14 -5 4 44.77 22.43
-14 5 4 27.06 18
-13 -5 4 9.4 15.65
13 -5 -4 16.89 4.4
-13 5 4 24.85 13.63
-13 5 4 26.38 16.54
-13 -5 4 19.36 21
-12 -5 4 27.92 14.91
12 -5 -4 7.06 5.31
-12 5 4 7.56 11.86
-12 -5 4 -8.86 18.12
-11 -5 4 17.68 12.76
-11 5 4 8.23 11.04
11 5 -4 8.9 9.92
-11 -5 4 2.01 16.69
11 -5 -4 0.43 5.54
10 -5 -4 13.33 6.06
-10 5 4 -9.94 9.25
10 5 -4 10.62 9.54
-10 -5 4 32.47 13.18
-10 -5 4 23.66 15.85
-9 -5 4 4.04 10.05
9 -5 -4 23.45 6.21
-9 5 4 14.56 9.5
9 5 -4 24.2 8.66
-9 -5 4 32.73 13.74
-8 -5 4 25.8 10.1
8 -5 -4 11.16 5.83
8 5 -4 14.34 7.71
-8 5 4 1.01 7.46
-8 -5 4 14.67 13.06
-7 -5 4 4.49 8.71
7 -5 -4 -2.19 5.19
-7 5 4 0.9 7.11
7 5 -4 3.15 9.18
6 -5 -4 52.95 7.11
6 5 -4 46.7 10.2
-6 -5 4 41.01 8.82
-6 5 4 69.31 8.89
-5 -5 4 36.33 8.98
5 5 -4 28.04 9.15
5 -5 -4 28.84 6.47
-5 5 4 23.2 6.58
-4 -5 4 296.9 17.76
4 5 -4 233.63 17.11
-4 -5 4 270.11 15.68
-4 5 4 260.68 15.64
-3 -5 4 170.38 12.27
3 -5 -4 176.47 11.69
3 5 -4 196.47 14.15
-3 -5 4 190.26 12.06
-3 5 4 186.06 12.1
2 5 -4 24.93 5.83
-2 -5 4 18.1 5.54
2 -5 -4 22.54 5.76
2 -5 -4 13.2 5.38
2 5 -4 10.68 7.02
-2 -5 4 25.98 6.24
2 5 -4 19.34 7.83
-2 5 4 28.57 6.41
-2 5 4 37.54 6.75
1 5 -4 25.17 7.42
1 5 -4 27.18 5.96
1 5 -4 24.39 6.1
1 5 -4 32.87 6.54
-1 -5 4 31.44 6.33
-1 5 4 34.3 5.29
-1 5 4 35.15 6.61
-1 -5 4 36.59 7.28
1 -5 -4 29.64 6.21
0 -5 -4 50.5 6.95
0 5 4 45.91 4.02
0 5 -4 43.76 6.91
0 -5 4 49.96 7.11
0 5 -4 47.83 6.59
0 5 4 51.11 7.13
0 -5 4 58.13 7.6
0 -5 -4 37.78 6.93
0 5 4 48.29 5.97
0 5 -4 44.11 7.52
-1 5 -4 14.57 6.14
-1 5 -4 27.59 5.7
1 -5 4 25.8 6.87
1 -5 4 15.17 5.19
1 5 4 26.84 7.01
-1 -5 -4 14.32 6.56
-1 -5 -4 23.48 6.62
-1 -5 -4 28.09 6.47
-1 5 -4 18.63 6.16
-2 5 -4 4.6 4.86
2 -5 4 5.03 4.87
2 5 4 4.01 6.68
-2 5 -4 10.25 6.31
-2 -5 -4 3.39 6.98
-2 5 -4 3.06 5.7
-2 -5 -4 19.65 6.95
-2 5 -4 3.54 5.24
-3 5 -4 109.9 9.39
-3 5 -4 127.38 10.98
-3 -5 -4 124.47 11.74
3 5 4 136.48 10.75
-3 -5 -4 109.56 9.07
-3 5 -4 118.06 9.24
-4 5 -4 81.4 8.77
-4 -5 -4 77.18 7.93
-4 5 -4 85.34 8.21
-4 5 -4 66.37 9.37
-4 -5 -4 99.54 11.72
-5 5 -4 89.4 10.75
-5 -5 -4 71.44 6
-5 5 -4 57.97 8.25
-5 -5 -4 57.76 10.9
-6 -5 -4 9.31 5.11
-6 -5 -4 2.17 7.79
-6 5 -4 -2.81 4.96
6 5 4 1.58 1.9
-6 -5 -4 1.25 9.89
6 5 4 -5.53 6.85
-7 -5 -4 11.21 6.05
7 5 4 15.77 8.22
7 5 4 16.99 3.33
7 -5 4 19.65 6.73
-7 -5 -4 23.48 9.27
-7 -5 -4 8.55 11.14
-7 5 -4 27.81 5.38
-8 -5 -4 33.72 14.11
8 5 4 26.07 4.36
-8 -5 -4 18.15 7.09
8 5 4 19.18 8.66
-8 5 -4 23.13 5.09
8 -5 4 26.5 7.53
8 -5 4 25.11 10.37
9 -5 4 7.37 7.56
9 5 4 2.68 4.68
9 5 4 -4.59 9.36
-9 -5 -4 12.99 8.28
-9 -5 -4 -12.58 14.46
9 -5 4 -1.12 10.78
10 -5 4 12.38 12.63
-10 -5 -4 13.25 9.37
10 5 4 -2.86 10
10 -5 4 11.51 7.99
10 5 4 2.81 5.43
-10 -5 -4 7.98 15.56
11 -5 4 -1.36 13.65
11 5 4 -5.57 6.18
-11 5 -4 -8.56 9.71
11 5 4 -4.87 10.66
-11 -5 -4 -4.4 17.39
11 -5 4 9.54 9.79
12 -5 4 -11.98 14.56
-12 5 -4 5.84 10.89
-12 -5 -4 -4.83 19.02
12 -5 4 -7.18 9.95
13 -5 4 14.27 11.49
13 -5 4 -1.64 16.28
-13 -5 -4 -15.83 22.47
14 -5 4 -9.32 12.74
15 -5 4 13.52 13.94
-15 -6 4 15.35 19.16
-15 -6 4 -23.4 25.84
-15 6 4 -6.86 19.77
-14 6 4 10.39 18.36
-14 -6 4 22.55 17.72
-14 6 4 -16.3 14.76
-14 -6 4 24.36 23.57
-13 -6 4 45.83 16.87
-13 6 4 63.04 15.41
-13 -6 4 89.88 24.05
-12 -6 4 65.65 16.39
-12 6 4 45.36 13.4
-12 -6 4 89.19 22.07
12 -6 -4 44.92 5.59
-11 -6 4 108.08 16.66
-11 6 4 97.71 14.29
11 6 -4 99.59 13.83
-11 -6 4 114.79 20.98
11 -6 -4 82.34 7.78
-10 -6 4 73.9 17.76
-10 -6 4 100.91 15.53
10 -6 -4 77.37 7.87
-10 6 4 88.42 12.98
10 6 -4 97 12.89
-9 -6 4 100.95 14.41
9 -6 -4 105.41 8.69
-9 -6 4 90.85 16.27
-9 6 4 92.54 12.66
9 6 -4 161.85 13.76
-8 -6 4 629.57 34.9
8 -6 -4 630.92 29.94
-8 6 4 719.63 34.18
-8 -6 4 628.98 37.91
8 6 -4 651.99 33.8
7 -6 -4 476.77 23.1
-7 -6 4 510.61 28.01
-7 6 4 438.39 25.18
7 6 -4 462.16 27.75
-6 -6 4 417.28 24.03
6 -6 -4 379.83 20.06
-6 6 4 416.49 21.99
6 6 -4 383.15 23.51
-5 6 4 1248.4 56.86
5 -6 -4 1305.8 56.14
5 6 -4 1329.42 59.26
-5 -6 4 1295.54 59.42
4 6 -4 1249.85 56.09
-4 -6 4 1200.67 53.54
-3 6 4 148.87 8.45
3 6 -4 137.74 13.52
-3 -6 4 143.46 10.56
-3 -6 4 137.35 11.06
2 6 -4 1568.15 67.43
2 -6 -4 1479.18 65.75
-2 -6 4 1507.02 65.26
2 6 -4 1571.72 67.79
-2 -6 4 1550.55 66.27
1 6 -4 2253.2 95.82
-1 -6 4 2300.07 95.95
-1 6 4 2322.64 95.24
1 -6 -4 2300.51 95.84
-1 -6 4 2277.14 96.49
1 6 -4 2256.84 96.39
0 -6 4 632.68 31.38
0 6 4 736.64 32.01
0 6 -4 653.48 30.54
0 -6 -4 632.11 30.65
0 6 4 657.86 30.52
0 6 -4 659.08 31.4
0 -6 -4 694.78 30.53
1 -6 4 252.05 15.54
-1 6 -4 248.45 14.43
1 -6 4 254.96 14.25
1 6 4 247.06 15.18
-1 -6 -4 266.72 15.57
-1 -6 -4 259.56 15.08
-1 6 -4 231.14 15.18
-1 -6 -4 243.3 14.41
1 6 4 256.66 14.73
-2 6 -4 1623.72 69.63
-2 6 -4 1614.22 67.28
-2 6 -4 1613.93 68.58
-2 -6 -4 1636.93 69.12
-2 -6 -4 1515.36 69.86
2 6 4 1658.72 69.59
2 6 4 1539.12 68.85
-3 6 -4 491.31 24.33
-3 6 -4 473.57 25.39
3 6 4 488.79 25.05
-3 -6 -4 510.54 24.53
-3 -6 -4 474.11 26.38
-3 6 -4 481.7 23.26
-4 6 -4 168.86 13.35
-4 6 -4 171.22 11.15
-4 -6 -4 132.87 14.59
-4 6 -4 176.9 12.14
-5 6 -4 63.23 10.76
-5 -6 -4 82.59 13.04
-5 6 -4 79.18 9.31
-6 -6 -4 56.44 6.51
6 6 4 52.92 9.17
-6 6 -4 47.36 6.39
-6 6 -4 39.14 9.65
-6 -6 -4 48.12 9.54
-6 -6 -4 33.09 11.48
7 6 4 135.99 7.12
-7 -6 -4 169.04 11.35
7 -6 4 202.95 13.21
-7 -6 -4 150.89 14.59
7 6 4 184.85 14.17
-7 6 -4 187.1 10.42
-7 -6 -4 198.64 18.91
-8 -6 -4 -1.29 10.05
-8 -6 -4 7.42 7.44
8 -6 4 14.47 7.49
8 6 4 -0.92 9.03
-8 6 -4 1.03 4.52
-8 -6 -4 15.07 14.68
8 6 4 4.39 3.48
9 6 4 47.03 5.38
-9 -6 -4 40.79 9.41
9 -6 4 48.4 9.23
9 6 4 59.6 11.18
-9 -6 -4 44.67 16.32
9 -6 4 53.56 12.37
10 -6 4 53.02 10.34
10 6 4 19.08 10.35
-10 -6 -4 31.64 10.51
-10 -6 -4 47.49 17.68
10 6 4 21.34 5.57
10 -6 4 9.71 12.32
11 6 4 12.5 11.52
11 -6 4 17.43 13.68
11 6 4 9.73 5.92
11 -6 4 5 9.71
-11 -6 -4 13.65 18.55
12 6 4 7.4 11.2
12 -6 4 19.15 15.31
-12 6 -4 14.53 11.62
12 -6 4 15.02 11.33
-12 -6 -4 34.88 20.48
13 -6 4 38.92 12.51
-13 -6 -4 84.24 25.01
13 -6 4 62.79 18.2
14 -6 4 21.88 13.59
15 -6 4 46.16 15.69
-15 7 4 61.82 21.55
-15 -7 4 42.41 20.69
-15 -7 4 27.04 24.95
-14 -7 4 68.87 19.09
-14 7 4 88.92 18.14
-14 7 4 83.68 20.72
-14 -7 4 72.4 25.48
-13 -7 4 117.05 20.3
-13 7 4 94.75 17.11
-13 -7 4 146.58 25.71
-12 -7 4 108.75 17.9
-12 7 4 156.55 17.56
-12 -7 4 144.29 24.67
-11 7 4 193.33 18.2
11 -7 -4 184.98 11.09
11 7 -4 228.9 19.09
-11 -7 4 231.08 21.42
-11 -7 4 214.17 24.53
-10 -7 4 99.05 15.83
10 -7 -4 92.12 7.9
10 7 -4 93.17 12.74
-10 7 4 112.15 13.35
-10 -7 4 82.79 18.88
-9 -7 4 138.87 16.29
9 7 -4 161.99 14.61
9 -7 -4 141.77 10
-9 7 4 169.56 15.24
-9 -7 4 123.63 19.12
-8 -7 4 150.21 15.93
8 7 -4 155.25 13.67
8 7 -4 133.75 15.73
-8 7 4 159.4 14.01
8 -7 -4 145.11 10.41
-7 -7 4 64.37 11.83
7 -7 -4 70.16 7.58
-7 7 4 88.57 10.35
7 7 -4 91.16 10.7
7 7 -4 65.27 12.67
-6 -7 4 9.23 9
6 -7 -4 -5.47 5.65
6 7 -4 -11.36 10.25
-5 -7 4 99.82 11.74
5 -7 -4 91.97 8.16
-5 -7 4 59.89 8.63
5 7 -4 74.39 11.65
-4 7 4 201.84 11.68
4 7 -4 203.91 16.3
-4 -7 4 181.44 13
-3 -7 4 6.05 6.32
3 7 -4 8.71 9.44
-3 -7 4 10.46 5.98
-3 7 4 -1.94 4.15
2 7 -4 62.2 7.44
2 7 -4 80.77 11.85
-2 -7 4 79.67 7.84
-2 -7 4 61.37 8.18
1 -7 -4 576.16 24.58
1 7 -4 593.45 27.64
-1 7 4 563.21 27.5
-1 7 4 586.05 28.37
-1 -7 4 589.64 27.39
-1 -7 4 573.53 27.86
1 -7 -4 624.34 27.45
1 7 -4 506.84 27.44
0 7 4 538.74 25.39
0 -7 -4 435.28 24.06
0 7 -4 529.73 24.97
0 7 4 525.44 25.75
0 -7 -4 536.27 24.93
0 7 -4 484.68 25.27
0 -7 -4 522.66 24.36
0 -7 4 548.58 26.07
1 -7 4 525.11 28.17
-1 7 -4 584.2 27.54
-1 -7 -4 621.09 29.06
1 7 4 564.85 28.21
-1 -7 -4 578.09 27.68
-1 -7 -4 593.33 27.18
1 7 4 557.7 28.13
2 -7 4 594.02 27.98
2 7 4 529.72 22.97
2 7 4 549.91 26.92
-2 -7 -4 525.04 26.33
-2 7 -4 524.07 24.3
-2 -7 -4 561.83 28.53
2 7 4 527.51 27.07
-2 7 -4 546.33 26.17
-3 7 -4 509 26.44
-3 7 -4 537.29 25.35
3 7 4 518.36 25.9
3 7 4 503 21.15
-3 -7 -4 457.87 27.26
3 7 4 496.64 26.11
-3 7 -4 470.56 23.19
4 7 4 700.59 36.24
-4 7 -4 805.96 37.75
-4 -7 -4 755.85 39.22
-4 7 -4 807.77 36.25
-5 7 -4 849.03 40.48
-5 7 -4 894.65 42.41
-5 -7 -4 872.22 44.19
-6 7 -4 580.12 32.46
6 -7 4 634.68 30.58
6 7 4 622.61 31.38
-6 -7 -4 666.82 33.41
-6 -7 -4 565.88 35.19
7 7 4 621.76 31.64
-7 -7 -4 605.54 33.37
7 -7 4 624.74 30.5
-7 7 -4 603.7 27.91
-7 -7 -4 605.22 36.46
-7 7 -4 613.63 33.43
-8 7 -4 441.2 25.62
8 -7 4 410.92 21.32
-8 -7 -4 439.58 25.12
8 7 4 461.35 23.06
-8 7 -4 362.42 17.07
-8 -7 -4 410.08 28.76
-8 -7 -4 404.35 20.57
9 -7 4 164.8 13.94
9 7 4 190.35 15.91
9 7 4 161.03 8.84
-9 -7 -4 162.78 14.31
-9 -7 -4 153 20.95
9 -7 4 183.44 16.63
10 7 4 178.14 10.62
10 -7 4 196.1 15.89
10 7 4 263.21 18.12
-10 -7 -4 217.99 24.8
10 -7 4 205.43 18.66
11 -7 4 209.25 16.86
11 7 4 163.18 10.43
11 7 4 153.05 16.82
-11 -7 -4 178.17 25.31
11 -7 4 181.39 19.15
12 7 4 103.04 8.96
12 -7 4 108.5 14.35
12 7 4 89.29 15.16
12 -7 4 108.51 17.89
-12 -7 -4 151.03 26.65
13 -7 4 34.61 13.15
13 7 4 43.19 14.17
-13 -7 -4 47.44 25.49
13 -7 4 79.18 18.68
14 -7 4 50.64 14.85
15 -7 4 36.05 15.71
-15 8 4 -9.22 20.07
-15 -8 4 18.47 25.5
-14 -8 4 12.86 18.38
-14 8 4 -16.45 15.97
-14 -8 4 5.73 22.64
-13 -8 4 -6.01 17.45
-13 8 4 18.41 14.2
13 8 -4 9.15 12.89
-13 -8 4 26.47 21.31
-12 8 4 26.04 13.16
-12 -8 4 24.41 20.31
-12 -8 4 5.59 15.65
-11 -8 4 39.87 15.23
-11 8 4 61.83 13.38
-11 -8 4 44.75 20.55
10 -8 -4 138.29 9.48
10 8 -4 150.87 15.75
-10 8 4 145.42 15.55
-10 -8 4 129.19 21.03
-10 -8 4 157.29 17.91
-9 -8 4 67.04 13.5
9 -8 -4 56.92 6.73
-9 8 4 45.03 10.5
9 8 -4 79.08 12.13
-9 -8 4 41.09 16.6
-8 -8 4 89.16 14.01
-8 8 4 104.24 11.93
8 -8 -4 103.9 8.51
8 8 -4 74.12 14.52
8 8 -4 109.03 12.31
-7 -8 4 160.32 15.98
7 -8 -4 149.86 10.53
7 8 -4 164.01 14.05
7 8 -4 139.95 16.28
6 -8 -4 310.72 16.74
6 8 -4 331.65 22.41
-6 -8 4 297.86 21.16
5 -8 -4 449.32 22.08
5 8 -4 428.6 26.43
-5 8 4 438.05 22.32
-5 -8 4 450.87 23.15
-4 -8 4 36.77 7.43
-4 8 4 37.89 6.14
4 8 -4 54.13 11.52
3 8 -4 753.7 37.51
-3 -8 4 738.36 33.89
-3 -8 4 696.91 34.09
2 8 -4 133.79 10.51
-2 8 4 157.38 11.78
2 8 -4 141.72 14.53
-2 -8 4 157.53 10.59
-2 -8 4 146.78 11.39
-2 8 4 141.12 10.06
1 -8 -4 946.61 40.91
-1 8 4 999.05 44.21
-1 -8 4 999.86 43.11
1 8 -4 985.67 43.62
-1 8 4 954.32 43.95
1 -8 -4 979.93 43.03
0 8 -4 804.84 35.86
0 -8 4 803.26 37.03
0 8 4 785.15 36.47
0 -8 -4 800.68 35.5
0 8 4 798.96 36.58
0 -8 -4 752.13 34.36
0 -8 -4 719.6 34.93
-1 -8 -4 169.08 11.35
-1 -8 -4 147.45 8.19
1 -8 4 149.17 12.2
1 8 4 119.41 11.86
1 8 4 182.51 12.37
-1 -8 -4 148.53 10.39
-1 8 -4 143.95 10.97
2 -8 4 527.25 25.92
-2 8 -4 482.5 24.28
-2 -8 -4 469.05 20.06
-2 -8 -4 451.88 23.92
-2 -8 -4 467.7 26.19
2 8 4 479.43 24.9
2 8 4 503.7 25.66
-2 8 -4 500.15 21.73
3 8 4 430.99 19.62
-3 8 -4 471.79 23.54
-3 8 -4 444.01 24.58
3 8 4 476.82 24.08
-3 -8 -4 469.32 26.45
3 8 4 438.42 24.48
4 8 4 417.83 18.86
-4 8 -4 444.06 24.5
-4 -8 -4 388.92 25.89
-4 8 -4 441.91 22.98
4 8 4 443.72 23.6
-5 -8 -4 8.87 7.44
-5 8 -4 15.15 7.71
-5 -8 -4 18.57 11.82
-5 8 -4 23.42 9.24
6 -8 4 1.59 6.42
-6 8 -4 12.28 10.03
6 8 4 -0.9 8.3
-6 -8 -4 4.75 7.74
-6 -8 -4 -4.42 12.4
-7 -8 -4 68.59 11.7
7 -8 4 84.42 10.25
-7 8 -4 85.95 13.02
-7 8 -4 61.52 7.36
7 8 4 75.51 11.41
-7 -8 -4 78.85 16.06
-8 8 -4 2 4.71
8 -8 4 -0.9 7.29
-8 8 -4 9.35 10.61
8 8 4 -12.09 10.11
-8 -8 -4 6.77 10.9
-8 -8 -4 21.89 15.59
-9 -8 -4 5.97 9.15
9 8 4 -7.42 10.46
9 -8 4 -1.04 10.69
9 8 4 3.79 2.57
9 -8 4 7.66 8.78
-9 8 -4 15.82 11.62
-9 -8 -4 26.16 17.33
10 8 4 6.84 4.14
-10 8 -4 -3.09 13.34
10 -8 4 17.37 9.71
10 -8 4 -4.64 12.02
10 8 4 11.11 10.97
-10 -8 -4 -8.86 17.75
-11 8 -4 22.98 14.02
11 -8 4 31.69 10.98
11 -8 4 21.89 14.47
11 8 4 20.76 12.97
11 8 4 25.61 5.44
-11 -8 -4 38.8 20.59
12 8 4 13.41 5.63
12 -8 4 28.39 15.27
12 -8 4 24.48 11.87
12 8 4 -8.32 12.27
-12 -8 -4 5.3 20.85
13 8 4 12.83 6.28
13 -8 4 -6.21 12.67
13 -8 4 10.89 17.16
13 8 4 8.51 13.75
-13 -8 -4 43.12 25.57
14 -8 4 15.8 14.8
15 -8 4 8.33 14.82
-14 -9 4 24.16 19.97
-14 9 4 27.67 15.68
-14 -9 4 23.5 24.45
13 9 -4 28.19 17.25
-13 -9 4 49.32 18.67
-13 9 4 -1.69 13.85
13 9 -4 17.01 13.14
-13 -9 4 13.63 21.18
-12 -9 4 -3.83 14.87
-12 9 4 -15.56 12.79
-12 -9 4 -15.09 19.45
-11 9 4 15.66 12.22
-11 -9 4 11.56 18.85
-11 -9 4 -1.78 14.1
-10 -9 4 48.19 14.3
10 9 -4 17.16 10.96
-10 9 4 36.26 11.5
-10 -9 4 19.09 16.51
-9 -9 4 49.4 13.41
9 9 -4 37.2 14.19
9 9 -4 48.19 10.96
9 -9 -4 28.57 5.82
-9 9 4 38.92 10.39
-9 -9 4 3.9 15.47
8 9 -4 1.2 8.58
8 -9 -4 -2.45 5.55
-8 -9 4 -5.75 11.37
8 9 -4 26.27 13.64
7 9 -4 22.05 9.01
-7 -9 4 14.77 11.12
7 -9 -4 -2.64 5.35
7 9 -4 -1.39 11.87
6 -9 -4 46.95 6.71
6 9 -4 69.89 10.45
6 9 -4 47.91 12.34
-5 -9 4 6.19 6.9
-5 9 4 14.88 7.18
-5 9 4 1.82 5.96
5 9 -4 15.42 11.23
-4 9 4 3.89 6.06
-4 -9 4 2.5 5.7
-4 9 4 15.06 5.91
4 9 -4 2.46 10.16
3 9 -4 20.78 6.76
-3 9 4 14.3 7.07
-3 -9 4 29.9 7.65
3 9 -4 23.56 11.13
-3 -9 4 24.97 6.85
-3 -9 4 35.81 6.64
-3 9 4 30.47 7.09
2 9 -4 -2.28 9.54
-2 -9 4 3.64 5.53
-2 9 4 6.04 5.99
2 9 -4 5.32 6.26
-2 9 4 -2.16 6.32
-2 -9 4 -2 5.94
-2 9 4 2.35 5.25
-1 9 4 115.66 10.31
-1 -9 4 120.42 9.24
1 9 -4 109.37 9.54
-1 9 4 97.71 9.05
1 -9 -4 113.71 7.51
-1 9 4 94.85 11.07
1 9 -4 119.46 9.26
1 -9 -4 105.82 8.77
0 9 -4 31.79 6.59
0 9 -4 35.3 6.73
0 9 4 48.23 7.56
0 -9 -4 32.86 6.52
0 -9 4 26.67 7.66
0 -9 -4 32.27 4.95
0 9 4 35.18 8.93
0 9 -4 30.56 6.74
0 -9 -4 45.5 6.66
1 -9 4 108.32 11.22
-1 9 -4 80.19 8.93
1 9 4 102.9 10.32
-1 9 -4 101.55 9.43
-1 -9 -4 113.8 9.68
-1 -9 -4 111.85 8.69
-1 -9 -4 108.82 6.73
1 9 4 113.47 11.38
-1 9 -4 101.07 6.2
-2 9 -4 22.42 7.11
2 -9 4 12.34 7.48
-2 -9 -4 14.54 2.59
-2 9 -4 18.36 6.66
2 9 4 14.98 6.83
-2 -9 -4 24.44 8.96
-2 9 -4 22.03 3.83
-2 -9 -4 18.4 6.38
2 9 4 27.56 9.19
-3 9 -4 23.91 7.58
3 9 4 29.98 4.68
3 -9 4 25.79 6.66
3 9 4 26.18 7.26
-3 -9 -4 28.05 7.6
-3 -9 -4 18.28 10.78
-3 -9 -4 34.1 8.59
-4 9 -4 132.09 12.06
-4 9 -4 169.86 14.22
-4 -9 -4 158.18 13.63
-4 -9 -4 144.9 16.36
4 9 4 139.66 8.32
4 9 4 125.69 12.01
5 9 4 74.9 6.13
-5 9 -4 80.06 11.73
-5 -9 -4 77.69 11.1
-5 -9 -4 53.61 14.2
-5 9 -4 77.22 10.15
-6 9 -4 56.96 11.73
6 9 4 15.12 9.17
-6 -9 -4 32.7 14.93
-6 -9 -4 28.07 10.14
-7 -9 -4 156.41 16.04
-7 9 -4 171.17 16.55
7 -9 4 153.52 13.34
7 9 4 158.59 14.73
-7 -9 -4 159.82 20.01
-8 9 -4 110.74 15.08
8 -9 4 111.61 11.89
-8 -9 -4 99.84 14.01
-8 9 -4 96.37 7.72
8 9 4 93.75 12.83
-8 -9 -4 113.59 19.63
-9 9 -4 20.94 11.78
9 9 4 -6.65 10.82
9 -9 4 13.09 10.73
-9 -9 -4 -2.09 17
9 -9 4 14.07 9.49
10 9 4 22.94 2.73
10 -9 4 22.45 10.16
10 9 4 21.89 2.84
10 9 4 32.52 12.16
-10 -9 -4 45.73 18.57
10 -9 4 28.26 12.19
-10 9 -4 1.6 12.91
11 9 4 47.64 4.81
11 -9 4 59.25 12.3
11 -9 4 55.32 14.98
11 9 4 43.6 13.86
-11 9 -4 42.51 15.46
-11 -9 -4 72.34 22.35
12 9 4 15.96 4.91
12 -9 4 19.44 12.24
12 -9 4 30.56 15.24
12 9 4 11.23 13.44
-12 -9 -4 40.75 22.06
13 -9 4 32.27 14.11
-13 -9 -4 -5.89 23.28
13 9 4 -11.51 14.59
14 -9 4 16.41 14.19
15 -9 4 2.89 15.88
-14 10 4 18.66 16.42
-14 -10 4 -11.19 18.98
-14 -10 4 18.05 25.12
-13 10 4 12.02 14.37
-13 -10 4 39.81 18.66
13 10 -4 18.83 13.94
-13 -10 4 36.29 24.32
13 10 -4 17.9 17.28
12 10 -4 109.3 19.03
-12 -10 4 76.43 18.61
-12 10 4 86.97 15.5
-12 -10 4 126.59 24.61
-11 -10 4 166.23 20.32
-11 10 4 193.74 18.18
-11 -10 4 109.81 23.48
-10 -10 4 40.85 15.15
-10 10 4 67.5 12.7
-10 -10 4 55.19 19.42
-9 -10 4 96.93 15.42
9 10 -4 63.39 15.57
9 10 -4 53.87 12.34
-9 -10 4 57.15 17.71
-8 10 4 372.39 22.18
8 10 -4 355.29 23.63
8 10 -4 411.9 28.3
7 10 -4 1385.99 66.17
7 -10 -4 1443.6 61.75
7 10 -4 1477.28 69.04
6 10 -4 1015.72 48.8
6 10 -4 980.88 50.87
-5 -10 4 934.38 42.71
-5 10 4 938.4 42.73
5 10 -4 925.56 47.56
-5 10 4 933.48 42.69
4 10 -4 1045.78 48.93
4 10 -4 1046.68 53.23
-4 -10 4 1103.64 48.27
-4 10 4 1096.42 48.43
-4 -10 4 1107.03 49.38
-3 -10 4 1606.27 66.79
-3 10 4 1550.73 66.8
-3 10 4 1542.96 68.2
3 10 -4 1530.81 71.99
-3 -10 4 1579.51 67.08
-3 10 4 1613.18 67.37
-3 -10 4 1420.19 67.48
-3 10 4 1592.34 66.48
3 10 -4 1544.49 67.86
2 10 -4 2747.65 116.08
-2 -10 4 2650.88 116
-2 10 4 2694.58 116.33
2 10 -4 2848.91 120.47
-2 -10 4 2877.44 115.05
-2 10 4 2771.19 115.06
-2 10 4 2743.61 114.41
1 -10 -4 1320.61 58.24
-1 10 4 1380.69 60.49
-1 -10 4 1418.09 58.86
-1 10 4 1298.27 58.69
-1 10 4 1289.95 61.17
1 10 -4 1401.45 58.84
1 -10 -4 1317.48 58.47
1 -10 -4 1392.54 57.67
1 10 -4 1451.17 60.19
0 10 -4 443.87 23.8
0 -10 4 484.71 25.5
0 10 4 511.38 24.91
0 10 4 468.29 25.73
0 10 -4 419.55 22.71
0 -10 -4 485.98 23.15
-1 -10 -4 1025.09 42.25
-1 10 -4 975.19 45.27
1 -10 4 994.24 46.45
1 10 4 1039.95 46.12
-1 10 -4 979.21 40.86
1 10 4 1071.07 47.46
-1 10 -4 969.01 44
-1 -10 -4 997.65 43.33
-1 -10 -4 975.11 44.01
-2 10 -4 722.96 35.5
2 -10 4 810.52 37.5
2 10 4 773.01 36.33
-2 10 -4 787.39 34.96
-2 -10 -4 736.52 34.71
-2 -10 -4 712.56 38.02
2 -10 4 739.21 35.31
-2 -10 -4 733.83 31.46
3 10 4 413.67 20.38
-3 10 -4 431 23.63
3 -10 4 449.92 23.21
3 10 4 445.87 24.03
-3 -10 -4 436.91 22.88
-3 -10 -4 466.74 25.28
-3 -10 -4 462.44 27.6
4 10 4 262.4 13.64
-4 10 -4 256.48 17.2
4 -10 4 262.29 16.59
-4 10 -4 256.27 18.39
4 10 4 274.4 17.53
-4 -10 -4 258.42 18.22
-4 -10 -4 292.72 21.27
-5 10 -4 251.92 18.6
5 10 4 249.81 13.03
-5 -10 -4 261.26 21.62
-5 -10 -4 230.71 17.97
5 10 4 254.64 19.43
-5 10 -4 226.28 16.85
-6 10 -4 61.71 11.72
6 10 4 57.68 6.48
-6 -10 -4 53.93 11.32
-6 -10 -4 57.48 15.19
-7 -10 -4 26.72 10.82
-7 10 -4 13.16 10.88
7 10 4 18.74 10
-7 -10 -4 17.99 15.15
7 -10 4 11.3 8.07
-8 10 -4 9.98 11.38
-8 10 -4 7.54 5.2
8 10 4 27.43 10.99
-8 -10 -4 14.19 11.27
-8 -10 -4 11.83 16.41
8 -10 4 0.99 8.31
9 -10 4 -17.89 10.33
-9 10 -4 7.71 11.93
9 10 4 1.16 11.08
-9 -10 -4 2.16 16.39
10 -10 4 15.64 10.64
-10 -10 -4 4.72 19.06
10 -10 4 -3.29 11.99
-10 10 -4 21.52 14.67
10 10 4 -15.76 13.06
-11 10 -4 22.9 15.49
11 -10 4 22.57 11.87
-11 -10 -4 41.17 21.85
11 10 4 25.27 13.66
11 -10 4 33.08 14.36
12 10 4 26.17 14.3
12 -10 4 45.46 13.74
12 -10 4 13.57 14.72
-12 -10 -4 58.63 23.99
13 -10 4 25.49 14.4
13 10 4 41.47 15.03
-13 -10 -4 -9.05 25.2
14 -10 4 12.78 14.37
-14 -11 4 36.33 20.21
-14 -11 4 64.7 28.41
13 11 -4 49.21 19.13
-13 -11 4 53.27 19.68
13 11 -4 49.6 15.33
-13 11 4 64.75 16.74
-13 -11 4 97.58 26.6
-12 -11 4 81.81 18.55
12 11 -4 93.17 16.61
-12 11 4 98.1 16.31
12 11 -4 61.48 17.76
-12 -11 4 74.59 23.01
-11 -11 4 128.64 19.28
-11 -11 4 145.97 24.63
11 11 -4 117.6 18.32
-11 11 4 135.93 16.77
10 11 -4 160.58 20.63
-10 11 4 141.13 15.06
-10 11 4 124.98 15.63
-10 -11 4 169.63 24.2
9 11 -4 13.66 14.62
9 11 -4 14.91 11.07
-9 11 4 25.4 9.64
-8 11 4 16.6 9.62
8 11 -4 15.78 10.13
8 11 -4 3.3 13.61
7 11 -4 27.05 10.47
7 11 -4 -3.16 13.63
6 11 -4 41.67 10.5
-6 -11 4 32.09 8.63
6 11 -4 21.49 13.19
-5 -11 4 37.07 8
5 11 -4 17.11 7.7
-5 11 4 29.4 7.82
5 11 -4 14.7 8.84
5 11 -4 5.95 12.69
-4 -11 4 19.89 7.26
-4 11 4 19.72 6.94
4 11 -4 36.38 8.17
-4 11 4 14.65 7.54
-4 -11 4 11.26 6.69
4 11 -4 21.56 12.08
-3 11 4 34.07 5.95
-3 -11 4 30.25 6.7
3 11 -4 25.21 7.56
-3 11 4 20.94 7.5
3 11 -4 31.93 12.78
-3 11 4 26.53 7.03
-3 11 4 34.88 6.65
-3 -11 4 23.72 7.15
2 -11 -4 84.7 7.34
-2 11 4 81 9.71
2 11 -4 72.08 8.97
2 -11 -4 77.08 8.45
-2 -11 4 78.6 7.9
2 11 -4 119.64 15.23
-2 -11 4 75.61 9.57
-2 11 4 76.24 7.06
-2 11 4 76.22 8.35
1 -11 -4 256.85 14.61
1 -11 -4 251.65 14.28
-1 11 4 266.01 16.89
-1 11 4 254.82 14.97
-1 11 4 272.95 18.69
1 11 -4 296.09 15.12
1 -11 -4 260.56 14.65
1 11 -4 264.81 16.28
0 -11 -4 60.79 6.62
0 11 -4 44.63 7.9
0 -11 -4 59.05 7.12
0 11 4 60.74 9.24
0 -11 4 56.35 9.91
0 11 4 53.28 10.07
0 11 -4 50.39 7.19
-1 -11 -4 147.28 8.66
-1 11 -4 145.44 12.05
1 -11 4 139.89 12.97
1 11 4 140.69 12.5
-1 11 -4 141.83 10.44
-1 -11 -4 136.38 9.31
-1 -11 -4 139.67 10.36
-2 11 -4 279.04 17.52
2 -11 4 266.09 18.64
-2 -11 -4 287.8 13.39
2 -11 4 283.01 17.1
2 11 4 298.2 18.12
-2 11 -4 287.3 16.46
-2 -11 -4 288.94 16.56
-2 -11 -4 276.94 15.32
3 11 4 201.51 12.59
-3 11 -4 224.24 15.83
3 11 4 257.27 16.28
3 -11 4 226.8 15.06
-3 -11 -4 217.33 19.69
-3 -11 -4 216.87 14.71
-3 -11 -4 252.21 17.34
4 11 4 496.97 23.21
4 -11 4 491.34 25.93
4 11 4 465.73 26.83
-4 -11 -4 443.44 27.28
-4 -11 -4 488.82 30.62
4 11 4 499.07 28.79
-4 11 -4 547.51 27.22
5 11 4 340.97 17.43
-5 11 -4 353.45 22.77
-5 11 -4 345.05 21.52
-5 -11 -4 373.3 26.28
-5 -11 -4 359.37 23.04
5 11 4 342.96 23.7
6 11 4 154.97 16.31
-6 -11 -4 129.15 18.66
-6 11 -4 121.42 14.36
-6 -11 -4 121.12 14.28
6 11 4 125.8 9.14
7 -11 4 98.98 12.14
7 11 4 116.99 9.48
7 11 4 129.3 14.26
-7 -11 -4 119.13 14.72
-7 11 -4 99.54 14.49
-7 -11 -4 111.05 18.81
-8 11 -4 81.11 14.57
-8 -11 -4 87.06 14.26
-8 -11 -4 79.99 18.67
8 -11 4 93.78 12.05
8 11 4 70.93 13.2
9 -11 4 60.54 11.47
-9 11 -4 63.49 14.37
9 11 4 30.06 12.01
-9 -11 -4 58.17 20.21
-10 11 -4 6.81 13.42
10 11 4 25.27 13.13
-10 -11 -4 14.61 19.76
10 -11 4 9.33 10.63
11 -11 4 54.4 13.39
11 11 4 42.12 14.67
-11 11 -4 25.4 15.93
-11 -11 -4 15.85 21.94
12 11 4 6.83 13.93
12 -11 4 31.5 14.08
-12 -11 -4 60.13 24.86
13 -11 4 8.35 13.97
13 11 4 -2.8 14.22
14 -11 4 -4.42 15.64
-14 -12 4 34.82 27.09
13 12 -4 -14.79 18.81
-13 12 4 -5.89 14.06
-13 12 4 -10.66 14.9
-13 -12 4 5.91 24.49
-12 12 4 -4.12 12.9
12 12 -4 32.16 17.81
12 12 -4 -4.68 13.4
-12 12 4 19.64 14.31
-12 -12 4 19.25 23.68
11 12 -4 -10.76 14.99
-11 12 4 -1.28 11.73
-11 12 4 6.05 12.38
-11 -12 4 15.34 20.57
10 12 -4 1.88 15.17
10 12 -4 8.31 13.52
-10 -12 4 7.14 19.07
-10 12 4 3.6 10.79
9 12 -4 40.93 13.79
9 12 -4 43.26 16.56
-9 12 4 66.88 11.77
-8 12 4 9.23 9.72
8 12 -4 13.76 10.93
8 12 -4 -8.69 15.19
7 12 -4 -2.72 9.8
-7 12 4 17.89 9.56
7 12 -4 13.45 13.98
6 12 -4 -5.32 9.7
-6 -12 4 13.76 8.34
-6 12 4 3.18 8.63
6 12 -4 1.64 12.74
5 12 -4 22.03 9.43
-5 -12 4 17.1 7.17
-5 12 4 23.75 7.71
5 12 -4 14.33 13.26
-4 -12 4 21.6 7.95
-4 -12 4 32.26 7.24
4 12 -4 44.95 10.55
4 12 -4 14.85 7.4
-4 12 4 19.37 7.96
-4 12 4 23.19 7.41
4 12 -4 20.04 12.96
-3 12 4 31.74 6.58
3 12 -4 38.33 7.98
-3 12 4 25.95 7.81
3 -12 -4 32.19 7.62
-3 -12 4 32.64 6.46
3 12 -4 23.92 12.89
-3 12 4 13.04 7.19
-3 -12 4 35.84 7.74
-3 12 4 44.7 6.28
-2 -12 4 60.1 7.25
2 12 -4 67.72 8.98
2 -12 -4 41.81 6.85
-2 12 4 58.65 9.48
2 12 -4 83.85 14.3
-2 12 4 61.56 7.62
-2 -12 4 24.56 8.03
-2 12 4 52.52 6.18
2 -12 -4 54.54 7.93
1 12 -4 0.78 6.28
1 12 -4 14.16 5.72
1 -12 -4 4.6 5.63
1 -12 -4 3.8 5.66
-1 12 4 0.84 7.46
-1 12 4 6.42 5.77
1 12 -4 8.57 3.02
0 -12 -4 21.26 5.36
0 12 -4 34.02 8.06
0 -12 -4 34.13 6.01
0 12 -4 17.51 5.93
0 -12 4 33.21 9.39
0 12 4 41.41 8.85
-1 12 -4 65.23 9.26
-1 -12 -4 62.74 5.98
1 -12 4 65.44 10.37
1 12 4 50.56 9.12
-1 12 -4 48.03 7.16
-1 -12 -4 67.62 7.6
-1 -12 -4 51.78 6.06
-1 -12 -4 48.17 7.39
-2 12 -4 12.05 7.97
-2 -12 -4 14.21 3.79
2 -12 4 20.24 6.67
-2 12 -4 12.61 6.27
2 12 4 33.84 8.71
2 -12 4 8.45 8.74
-2 -12 -4 30.17 5.96
-2 -12 -4 4.75 6.34
3 12 4 6.63 7.56
3 12 4 2.17 5.92
-3 -12 -4 3.3 7.18
3 -12 4 6.62 9.11
3 -12 4 26.85 7.52
-3 -12 -4 1.42 11.35
-3 12 -4 9.06 8.26
4 -12 4 10.86 7.23
-4 -12 -4 3.09 12.9
-4 12 -4 10.47 8.47
4 12 4 16.67 5.87
4 12 4 -1.97 8.44
4 12 4 7.82 10.76
5 12 4 -8.26 11.03
5 12 4 8.26 5.88
-5 12 -4 -8.59 9.45
-5 12 -4 10.1 9.8
-6 -12 -4 34.35 11.72
6 12 4 20.89 6.54
-6 12 -4 19.8 10.76
-6 -12 -4 41.71 16.11
6 12 4 41.18 12.18
-7 -12 -4 14.02 11.94
-7 12 -4 9.93 10.96
7 12 4 13.6 10.96
7 12 4 -1.06 6.36
-7 -12 -4 15.66 16.54
8 -12 4 -3.27 9.15
8 12 4 8.34 11.24
-8 12 -4 13.71 12.1
-8 -12 -4 36.18 18.66
-8 -12 -4 5.93 12.23
9 -12 4 16.1 10.48
-9 12 -4 -1.64 12.57
9 12 4 6.25 12.27
-9 -12 -4 25.46 18.87
10 -12 4 7.28 11.03
-10 12 -4 8.79 14.74
10 12 4 14.42 13.34
-10 -12 -4 22.6 19.51
11 -12 4 -6.43 12.33
11 12 4 -12.32 15.21
-11 -12 -4 -10.88 22.44
12 -12 4 -12.27 13.83
12 12 4 -9.93 15.26
-12 -12 -4 -2.94 24.53
13 12 4 -1.46 16.21
13 -12 4 -18.76 15.38
-13 13 4 72.74 17.03
-13 13 4 104.87 18.95
-13 -13 4 75.86 26.54
12 13 -4 101.37 20.42
-12 13 4 99.79 16.55
12 13 -4 75.47 16.31
-12 13 4 76.99 16.92
-12 -13 4 76.51 24.28
11 13 -4 97.06 19.24
-11 13 4 147.19 16.9
11 13 -4 138.66 18.26
-11 -13 4 134.88 25.88
11 13 -4 123.98 22.51
10 13 -4 164.08 19.42
-10 13 4 185.33 17.5
10 13 -4 144.79 21.77
-10 -13 4 148.48 25.24
9 13 -4 184.81 18.22
-9 13 4 144.61 15.5
9 13 -4 186.52 22.31
8 13 -4 74.02 13.65
-8 13 4 73.67 12.43
8 13 -4 109.57 14.46
8 13 -4 149.97 20.51
7 13 -4 -1.96 9.78
7 13 -4 4.29 10.47
-7 -13 4 13.61 8.95
-7 13 4 13.02 9.43
7 13 -4 7.13 14.53
-6 -13 4 18.28 8.47
6 13 -4 1.69 8.85
-6 13 4 7.96 8.06
6 13 -4 8.72 14.39
6 13 -4 9.8 10.67
-5 -13 4 7.49 7.11
5 13 -4 11.37 8.33
-5 -13 4 9.29 7.7
5 -13 -4 3.73 8.01
-5 13 4 8.65 7.14
5 13 -4 10.94 10.58
5 13 -4 10.18 14.5
-5 13 4 -0.82 8.41
4 13 -4 32.64 10.3
4 13 -4 21.51 8.74
4 13 -4 6.94 6.81
-4 -13 4 24.24 6.83
-4 13 4 18.48 8.04
-4 -13 4 23.43 7.77
4 13 -4 11.52 12.51
-4 -13 4 14.12 6.71
-4 13 4 30.62 7.58
4 -13 -4 15.96 8.04
3 -13 -4 23.97 7.76
-3 -13 4 18.69 6.37
3 13 -4 20.94 5.98
-3 13 4 25.57 8.4
3 13 -4 17.47 7.72
-3 13 4 20.22 6.89
3 13 -4 36.88 13.83
3 13 -4 21.3 9.69
-3 -13 4 19.95 7.36
-3 13 4 17.26 5.53
2 -13 -4 314.26 17.04
2 -13 -4 263.44 15.98
2 13 -4 267 17.27
-2 13 4 326.75 19.04
-2 -13 4 295.62 15.77
2 13 -4 272.78 13.96
-2 13 4 303.05 16.22
2 13 -4 251.99 23.04
1 -13 -4 156.36 11.39
1 -13 -4 148.85 11.29
1 13 -4 159.86 12.98
-1 13 4 149.24 13.07
0 -13 -4 203.37 12.12
0 -13 4 175.48 13.62
0 13 -4 210.81 14.63
0 -13 4 191.47 15.81
0 13 4 185.56 14.59
0 13 -4 179.33 12.08
0 -13 -4 209.17 12.14
-1 13 -4 353.83 20.45
-1 13 -4 376.76 18.22
-1 -13 -4 293.84 17.35
1 -13 4 335.1 19.76
1 13 4 351.75 20.68
1 -13 4 364.54 22.17
-1 -13 -4 338.72 17.99
-1 -13 -4 340.13 16.95
-2 13 -4 421.64 23.25
2 -13 4 377.92 24.04
2 -13 4 390.45 22.37
2 13 4 420.97 23.57
-2 -13 -4 383.02 18.51
-2 13 -4 407.38 20.58
-2 -13 -4 397.46 20.72
-2 -13 -4 390.59 19.46
3 -13 4 324.25 21.56
3 13 4 280.43 17.65
3 -13 4 331.32 19.75
3 13 4 329.34 20.66
-3 13 -4 330.34 20.35
-3 -13 -4 309.69 18.11
3 13 4 341.07 22.68
-4 13 -4 310.95 19.55
4 -13 4 260.26 18.03
4 13 4 268.44 16.1
4 13 4 269.59 19.27
-4 -13 -4 294.02 24.01
4 13 4 315.07 22.19
-4 -13 -4 269.27 17.18
5 13 4 376.88 20.21
5 -13 4 378.95 23.05
5 13 4 358.33 23.83
-5 -13 -4 456.21 30.22
5 13 4 415.1 26.96
-5 13 -4 398.26 24.26
6 13 4 328.63 18.38
-6 -13 -4 365.07 28.9
-6 13 -4 342.64 23.78
6 13 4 365.26 25.56
-7 13 -4 393.03 26.35
7 13 4 409.46 24.98
-7 -13 -4 301.5 29.25
8 -13 4 343.41 21.79
-8 13 -4 279.68 23.68
8 13 4 293.42 22.43
-8 -13 -4 335.49 30.29
9 -13 4 82.75 13.62
-9 13 -4 67.72 16.71
9 13 4 102.67 14.96
-9 -13 -4 112.08 22.92
10 -13 4 96.06 15.11
-10 13 -4 68.77 17.55
10 13 4 111.57 16.8
-10 -13 -4 149.67 25.56
11 -13 4 53.42 14.59
11 13 4 73.91 17.02
-11 -13 -4 78.14 25.05
12 -13 4 25.43 14.59
12 13 4 28 16.64
-12 -13 -4 84.24 28.34
13 -13 4 31.38 16.37
13 13 4 24.31 16.69
13 -14 -4 1.78 16.11
-13 14 4 28.08 15.83
-13 -14 4 6.24 26.36
12 14 -4 41.93 19.74
-12 14 4 32.38 14.97
12 14 -4 18.12 14.54
12 -14 -4 10.05 15.75
-12 14 4 37.6 15.56
-12 -14 4 55.51 26.46
11 14 -4 71.43 18.74
-11 -14 4 65.74 24.67
-11 14 4 52.67 14.7
11 -14 -4 91.03 16.91
11 14 -4 53.02 14.77
11 14 -4 59.84 19.64
10 14 -4 160.74 19.8
-10 -14 4 164.37 27.12
-10 14 4 162.16 17.77
10 -14 -4 158.44 18.72
10 14 -4 163.59 23.03
-9 14 4 260.83 20.54
9 -14 -4 271.54 21.22
9 14 -4 297.08 27.54
9 14 -4 275.5 22.45
8 -14 -4 284.66 21.06
8 14 -4 254.86 22.05
-8 14 4 272.99 19.78
8 14 -4 228.9 25.16
8 14 -4 241.41 18.3
8 14 -4 242.15 19.64
7 -14 -4 215.73 18.02
7 14 -4 263.78 18.21
7 14 -4 242.19 20.41
7 14 -4 203.07 16.65
-7 14 4 198.11 17.25
-7 -14 4 241.81 16.68
7 14 -4 190.43 22.52
6 14 -4 156.36 14.71
6 -14 -4 180.33 15.85
6 14 -4 207.19 18.32
6 14 -4 182.07 15.6
-6 -14 4 212.61 14.54
-6 14 4 211.19 14.89
6 14 -4 173.55 21.45
5 14 -4 737.73 39.39
5 -14 -4 723.52 36.42
-5 14 4 701.36 35.62
5 14 -4 687.81 41.81
-5 -14 4 756.22 34.37
-5 14 4 735.88 34.63
-5 -14 4 709.04 35.33
5 14 -4 691.5 34.5
4 14 -4 829.29 42.94
-4 14 4 826.73 37.6
-4 -14 4 835.17 36.84
4 -14 -4 811.48 38.87
4 14 -4 740.85 44.41
-4 14 4 777.36 36.97
-4 -14 4 799.5 38.33
-4 14 4 803.34 39.02
4 14 -4 790.11 36.96
3 14 -4 151.42 16.17
3 14 -4 168.66 14.14
-3 14 4 186.41 14.71
-3 -14 4 196.17 12.2
-3 14 4 177.37 12.42
3 14 -4 198.92 21.35
-3 -14 4 160.87 13.12
-3 14 4 186.72 11.1
3 14 -4 192.25 11.57
3 -14 -4 190.87 13.9
-2 14 4 354.26 21.02
-2 -14 4 355.33 18.16
2 14 -4 321.58 16.17
-2 14 4 355.75 18.47
2 14 -4 348.28 26.61
2 -14 -4 337.69 19.01
2 14 -4 373.29 21.14
2 -14 -4 354.04 19.47
1 -14 -4 895.08 41.29
1 14 -4 915.22 43.28
-1 14 4 945.07 43.74
1 -14 -4 904.46 41.58
0 14 -4 1061.78 47.94
0 -14 4 1007.55 49.29
0 -14 4 1027.49 47.33
0 -14 -4 996.87 44.51
0 14 4 1026.22 48.17
0 14 -4 1011.8 44.82
0 -14 -4 1020.58 44.98
-1 14 -4 803.05 39.96
1 -14 4 757.81 41.42
-1 -14 -4 839.43 36.61
1 -14 4 776.54 39.5
-1 14 -4 920.18 37.29
1 14 4 801.61 40.21
-1 14 -4 809.32 37.35
1 14 4 791.71 42.47
-1 -14 -4 815.63 37.09
-2 14 -4 388.62 22.62
-2 14 -4 370.45 19.52
2 -14 4 391.57 23.9
-2 -14 -4 358.22 17.76
2 -14 4 379.45 21.75
2 14 4 398.33 22.84
2 14 4 369.51 24.83
-2 -14 -4 367.36 17.91
-2 -14 -4 331.5 19.09
3 -14 4 185.62 17.14
3 -14 4 202.17 15.14
3 14 4 176.17 15.65
3 14 4 201.43 14.02
-3 -14 -4 190.8 13.65
-3 -14 -4 198.71 12.36
-3 14 -4 237.07 15.56
3 14 4 196.96 18.02
-3 14 -4 208.2 16.46
4 14 4 -8.4 7.03
4 -14 4 9.08 8.01
4 14 4 -3.24 9.62
-4 14 -4 6.37 9.64
-4 -14 -4 -10.41 14.19
4 14 4 13.28 12.22
-4 -14 -4 -1.43 7.75
-5 14 -4 -12.34 10.69
5 -14 4 9.44 9.1
5 14 4 15.6 7.04
5 14 4 7.88 10.42
-5 -14 -4 -11.18 16.1
5 14 4 -17.1 12.88
-6 14 -4 19.83 11.72
-6 -14 -4 13.98 16.83
6 14 4 25.87 13.2
7 14 4 3.44 14.41
-7 -14 -4 14.98 17.43
-7 14 -4 -7.61 11.88
7 14 4 11.07 11.65
8 -14 4 -1.19 10.52
8 14 4 12.89 12.69
-8 14 -4 8.17 13.49
-8 -14 -4 34.46 20.3
-9 14 -4 7 13.6
9 14 4 12.15 13.09
9 -14 4 7.49 11.68
-9 -14 -4 4.94 20.06
10 -14 4 31.54 13.24
-10 14 -4 20.53 16.47
10 14 4 26.82 15.33
-10 -14 -4 39.81 22.28
11 -14 4 23.56 13.53
11 14 4 -7.37 15.85
-11 -14 -4 17.15 23.2
12 14 4 6.11 16.13
-12 -14 -4 61.43 27.61
12 -14 4 14.64 14.75
-13 15 4 17.63 15.88
-13 -15 4 19.27 26.18
12 15 -4 8.9 17.37
12 -15 -4 23.97 15.03
-12 -15 4 -9.04 24.05
-12 15 4 26.24 15.41
11 15 -4 -8.86 19.36
11 15 -4 21.58 14.62
-11 15 4 20.25 13.91
11 15 -4 12.92 16.13
-11 -15 4 19.81 22.19
11 -15 -4 1.61 14.09
10 15 -4 64.05 15.99
10 -15 -4 73.97 15.1
-10 15 4 41.02 14.3
10 15 -4 45 15.83
-10 -15 4 32.05 22.5
10 15 -4 57.65 20.21
9 -15 -4 70.41 14.3
9 15 -4 47.17 11.53
9 15 -4 22.94 18.29
-9 15 4 59.39 14.64
9 15 -4 67.69 14.75
8 15 -4 26.52 12.58
8 -15 -4 20.87 12.23
-8 -15 4 29.97 10.63
8 15 -4 22.13 10.78
-8 15 4 20.52 10.89
8 15 -4 10.11 17.56
7 15 -4 67.3 14.21
7 15 -4 60.4 12.08
-7 -15 4 53.68 10.32
7 15 -4 69.26 11.86
-7 15 4 62.48 10.41
7 -15 -4 86.63 13.53
7 15 -4 65.56 17.24
6 -15 -4 208.69 17.66
6 15 -4 197.96 16.47
-6 -15 4 231.2 15.43
-6 15 4 213.13 15.56
6 15 -4 230.58 20.2
6 15 -4 214.5 23.47
6 15 -4 199.45 15.97
5 15 -4 36.42 12.76
5 15 -4 35.43 9.09
-5 15 4 35.35 9.93
-5 15 4 44.16 9.23
5 15 -4 40.03 16.84
-5 -15 4 40.99 8.31
5 -15 -4 34.06 9.77
-5 -15 4 30.63 9.21
4 -15 -4 19.9 9
4 15 -4 -4.55 10.34
-4 15 4 0.92 8.38
4 15 -4 4.67 6.9
-4 15 4 4.3 6.37
4 15 -4 7.44 14.71
-4 -15 4 13.95 6.68
-4 15 4 -4.66 7.39
-4 -15 4 2.39 8.45
-4 15 4 -0.49 5.88
3 -15 -4 0.82 7.64
3 15 -4 4.69 5.35
-3 -15 4 -3.11 5.61
3 15 -4 14.74 10.57
-3 15 4 3.77 8.32
3 15 -4 -1.83 14.19
3 15 -4 -7.34 8.92
-3 -15 4 0.75 7.83
-3 15 4 -3.59 4.87
-3 15 4 2.32 6.79
2 -15 -4 31.84 8.63
2 15 -4 51.6 10.08
2 -15 -4 67.31 9.24
-2 15 4 93.4 14.76
2 15 -4 41.75 15.15
-2 15 4 60.78 10.31
-2 15 4 66.08 7.98
1 -15 -4 29.1 7.41
1 -15 -4 32.63 8.39
-1 15 4 8.87 8.73
1 15 -4 19.4 9.04
1 15 -4 30.88 14.52
-1 15 4 35.47 11.93
0 15 -4 15.06 8.83
0 -15 -4 5.74 6.27
0 15 -4 2.94 5.32
0 15 4 10.08 8.87
0 -15 4 4.86 9.66
0 -15 4 7.62 7.26
0 15 4 7.11 11.55
-1 -15 -4 108.64 8.99
-1 15 -4 114.58 12.63
1 -15 4 119.98 11.6
1 -15 4 118.49 14.45
1 15 4 98.13 12.18
-1 -15 -4 94.95 8.72
1 15 4 105.82 14.97
-1 15 -4 87.78 9.17
-2 -15 -4 116.82 8.93
-2 15 -4 130.06 13.71
2 -15 4 141.92 15.02
2 15 4 129.3 13.16
-2 -15 -4 118.11 10.58
-2 -15 -4 137.02 10.32
-2 15 -4 141.99 10.69
-2 -15 -4 130.86 8.55
2 15 4 144.18 16.94
2 -15 4 110.36 11.86
-3 -15 -4 -3.58 10.12
3 -15 4 1.28 10.83
3 -15 4 3.08 8.04
-3 15 -4 12.84 10.26
3 15 4 13.1 9.54
-3 -15 -4 -3.74 6.97
-3 15 -4 -3.47 8.26
-3 -15 -4 5.84 5.61
3 15 4 13.76 12.4
-4 15 -4 15.67 11.01
-4 -15 -4 2.56 10.67
4 15 4 9.04 10.3
4 -15 4 5.3 8.68
-4 -15 -4 -4.93 8.18
4 15 4 -1.57 11.96
-5 -15 -4 111.99 19.85
5 -15 4 114.45 12.98
5 15 4 119.78 14.7
-5 15 -4 146.42 15.49
-5 -15 -4 108.07 11.78
-5 -15 -4 112.78 15.56
5 15 4 116.28 17.49
6 -15 4 53.76 11.7
-6 -15 -4 76.78 14.6
-6 -15 -4 90.02 19.76
6 15 4 66.31 15.47
7 15 4 32.2 15.26
7 15 4 40.99 13.1
-7 15 -4 37.59 13.98
-7 -15 -4 64.78 20.07
8 15 4 25.46 13.17
-8 15 -4 10.11 14.08
-8 -15 -4 16.7 18.45
9 -15 4 16.93 12.45
9 15 4 8.41 13.56
-9 15 -4 -1.81 15.31
9 15 4 8.51 7.79
-9 -15 -4 2.55 20.54
10 -15 4 25.94 13.43
10 15 4 30.76 15.7
-10 -15 -4 -5.48 21.89
11 -15 4 51.71 15.66
11 15 4 16.78 15.87
-11 -15 -4 -20.59 25.62
12 -15 4 4.55 15.62
12 -16 -4 20.98 16.2
12 16 -4 -2.28 12.46
-12 -16 4 52.82 26.56
12 16 -4 1.8 19.73
11 -16 -4 18.11 14.82
11 16 -4 8.85 11.85
-11 16 4 24.15 14.96
11 16 -4 41.09 15.88
-11 -16 4 64.54 25.55
11 16 -4 9.88 17.52
11 16 -4 20.68 19.21
10 16 -4 43.11 12.97
10 16 -4 43.33 15.78
10 -16 -4 43.22 14.63
-10 16 4 38.72 14.18
10 16 -4 51.78 16.82
10 16 -4 49.22 20.66
9 16 -4 66.37 12.65
9 -16 -4 80.67 14.76
9 16 -4 108.93 22.01
-9 16 4 66.33 15.23
9 16 -4 71.48 16.31
8 16 -4 108.6 15.73
8 -16 -4 99 15.01
8 16 -4 103.54 13.51
-8 -16 4 90.76 12.65
-8 16 4 92.92 14.15
8 16 -4 82.78 20.04
-7 -16 4 34.61 9.71
-7 16 4 39.5 10.14
7 16 -4 39.15 14.77
7 16 -4 26.5 10.56
7 -16 -4 33.35 12.16
7 16 -4 29.21 17.05
7 16 -4 33.61 11.74
6 -16 -4 136.07 15.14
6 16 -4 136.45 17.14
-6 16 4 105.4 12.94
-6 16 4 123.56 12.2
6 16 -4 137.07 13.81
6 16 -4 145.88 21.83
-6 -16 4 129.97 13.58
-6 -16 4 114.57 11.57
6 16 -4 133.68 13.55
5 16 -4 213.3 16.93
-5 16 4 251.95 17.37
-5 -16 4 223.53 14.48
5 16 -4 233.77 15.46
5 -16 -4 234.26 17.4
-5 -16 4 211.13 14.45
-5 16 4 222.22 15.24
-5 -16 4 223.19 16.23
5 16 -4 223.7 24.46
5 16 -4 159.61 18.96
4 16 -4 7.96 11.84
-4 -16 4 2.19 6.26
4 16 -4 11.35 7.22
-4 16 4 5.95 5.81
-4 16 4 -0.97 9.15
4 16 -4 13.8 16.13
-4 16 4 7.97 7.55
4 -16 -4 3.78 8.59
-4 -16 4 6.39 8.26
-3 16 4 -1.73 6.93
-3 -16 4 -2 5.86
3 16 -4 7.74 11.1
-3 16 4 -1.98 9.21
3 16 -4 0.8 5.29
3 16 -4 27.21 17.1
3 -16 -4 -0.86 8.24
2 -16 -4 208.8 14.59
-2 16 4 192.11 15.95
-2 16 4 178.99 11.99
2 16 -4 211.55 15.83
-2 16 4 177.52 19.1
2 16 -4 181.88 22.67
2 -16 -4 160.77 13.78
1 -16 -4 599.8 29.6
1 16 -4 578.07 31.37
1 -16 -4 587.74 30.19
1 16 -4 586.39 38.36
-1 16 4 636.49 35.85
-1 16 4 633.14 32.38
0 -16 -4 246.87 14.41
0 -16 4 217.51 18.72
0 16 -4 213.2 16.59
0 16 4 176.99 16.3
0 16 4 214.61 20.01
0 -16 4 233.95 16.57
1 -16 4 188.47 16.94
-1 16 -4 150.48 14.63
-1 -16 -4 169.77 11.66
1 -16 4 167.91 13.94
1 16 4 163.84 15.34
-1 16 -4 154.21 11
-1 -16 -4 151.57 10.62
1 16 4 157.36 17.65
2 -16 4 62.4 9.87
-2 16 -4 64.39 7.76
-2 16 -4 72.36 11.86
-2 -16 -4 42.65 6.74
2 -16 4 47.17 12.34
2 16 4 63.39 11.68
-2 -16 -4 61.65 11.24
2 16 4 68.35 14.99
-2 -16 -4 47.53 7.43
-2 -16 -4 62.78 7.95
-3 -16 -4 7.2 7.08
3 -16 4 12.12 11.04
-3 -16 -4 28.36 10.91
3 -16 4 12.98 8.31
3 16 4 28.56 10.04
-3 16 -4 9.58 8.55
-3 16 -4 40.58 11.36
3 16 4 19.56 13.14
-3 -16 -4 17.97 5.73
-4 16 -4 136.42 15.88
4 -16 4 191.77 15.44
4 16 4 160.64 16.25
-4 -16 -4 140.81 12.89
4 16 4 201.93 20.21
-4 -16 -4 160.7 16.96
-5 16 -4 77.89 13.48
5 -16 4 65.71 12
5 16 4 72.32 13.71
-5 -16 -4 51.3 18.54
-5 -16 -4 46.02 9.78
5 16 4 53.4 15.41
-5 -16 -4 59.93 13.73
-6 -16 -4 7.28 12.35
6 -16 4 20.33 10.47
6 16 4 8.95 14.48
-6 -16 -4 17.56 18.91
7 16 4 37.21 16.55
-7 -16 -4 13.98 19.03
-7 -16 -4 43.02 14.65
-8 -16 -4 4.84 13.74
8 16 4 4.18 13.67
8 16 4 13.81 16.34
8 16 4 7.18 7.73
-8 16 -4 -1.73 14.14
-8 -16 -4 22.32 20.95
9 -16 4 -21.75 13.3
9 16 4 -4.37 14.07
-9 16 -4 11.12 15.36
9 16 4 8.88 8.07
-9 -16 -4 7.93 22.25
10 -16 4 21.32 13.83
10 16 4 -18.23 16.06
-10 -16 -4 -2.82 22.61
11 -16 4 23.86 14.41
-11 -16 -4 15.09 25.71
12 17 -4 67.71 14.81
-12 17 4 95.58 19.38
-12 -17 4 99.44 28.62
11 17 -4 144.84 16.78
-11 17 4 124.54 19.81
-11 -17 4 139.09 28.84
11 -17 -4 153.48 19.9
10 -17 -4 93.4 16.98
10 17 -4 90.6 14.02
-10 17 4 56.9 16.51
10 17 -4 69.9 20.88
10 17 -4 76.04 16.9
10 17 -4 66.93 16.81
9 -17 -4 78.24 16.47
9 17 -4 72.47 13.61
-9 17 4 101.03 17.06
9 17 -4 97.6 22.31
9 17 -4 116.81 17.37
8 17 -4 39.4 11.85
8 17 -4 29.25 12.74
-8 17 4 36.64 11.11
8 17 -4 31.22 18.91
8 -17 -4 60.33 14.69
-7 -17 4 -8.1 10.57
7 -17 -4 -6.33 12.1
-7 17 4 5.24 9.3
7 17 -4 8.38 10.58
7 17 -4 25.39 12.09
6 -17 -4 30.31 11.81
6 17 -4 12.93 10.35
6 17 -4 38.01 10.99
-6 17 4 11.55 9.37
-6 -17 4 29.54 10.33
-6 17 4 27.63 9.15
6 17 -4 41.97 14.49
6 17 -4 17.3 17.42
-6 -17 4 27.01 8.65
5 17 -4 -3.34 12.98
5 -17 -4 10.75 10.09
-5 17 4 10.53 7.75
-5 17 4 10.83 9.99
5 17 -4 4.95 8.43
-5 -17 4 14.3 7.32
5 17 -4 48.91 18.04
-5 17 4 14.35 8.21
5 17 -4 2.04 9.69
-5 -17 4 6 9.11
4 17 -4 11.65 12.07
4 -17 -4 13.77 9.38
-4 17 4 4.27 7.24
-4 17 4 18.29 9.95
-4 -17 4 18.01 6.79
4 17 -4 18.75 16.56
-4 -17 4 8.02 8.39
-4 17 4 10.94 5.76
4 17 -4 19.57 7.18
3 17 -4 19.45 12.42
3 -17 -4 13.47 9.13
-3 17 4 9.38 7.08
-3 17 4 12.53 9.81
3 17 -4 6.18 16.37
-3 -17 4 14.17 6.29
2 -17 -4 13.2 8.81
2 -17 -4 -5.73 8.28
-2 17 4 9.63 9.81
-2 17 4 16.76 13.77
2 17 -4 22.62 17.17
1 -17 -4 61.75 9.47
1 17 -4 79.04 11.66
1 -17 -4 57.14 10.45
1 17 -4 91.09 19.22
-1 17 4 72.57 14.79
-1 17 4 43.68 11.6
0 17 -4 348.82 21.98
0 -17 -4 337.61 18.83
0 -17 4 327.79 23.3
0 -17 -4 336.2 20.56
0 -17 4 326.78 20.91
0 17 4 318.81 21.89
0 17 4 319.33 25.51
-1 17 -4 165.28 15.54
-1 -17 -4 160.87 11.57
1 -17 4 156.11 14.43
1 17 4 174.05 16.16
1 -17 4 175.47 17.1
-1 17 -4 142.22 10.85
-1 -17 -4 154.9 10.32
1 17 4 181.82 19.59
-2 17 -4 218.27 17.82
2 -17 4 184.73 18.25
-2 -17 -4 203.63 12.95
2 -17 4 209.35 16.51
2 17 4 237.3 18.13
-2 17 -4 255.67 13.52
-2 -17 -4 169.03 16.69
-2 17 -4 194.7 13.21
-2 -17 -4 194.64 12.98
2 17 4 215.61 21.21
-3 17 -4 415.22 25.33
3 17 4 374.36 24.67
3 -17 4 379.01 23.78
-3 17 -4 396.29 22.51
3 17 4 432.75 28.6
-3 -17 -4 363.27 18.06
-3 -17 -4 362.36 19.91
-3 -17 -4 407.55 25.59
3 -17 4 411.01 26.3
-4 17 -4 309.66 22.61
4 -17 4 303.74 21.47
4 17 4 297.42 21.56
-4 -17 -4 361.58 24.02
-4 -17 -4 294.32 18.32
-4 17 -4 309.51 20.49
4 17 4 357.96 26.88
-5 17 -4 388.63 25.52
5 -17 4 346.71 23.49
5 17 4 394.11 25.09
-5 17 -4 345.72 21.08
-5 -17 -4 331.83 21
5 17 4 352.72 28.05
-5 -17 -4 396.57 26.14
-6 -17 -4 254.73 21.92
6 -17 4 278.52 20.45
-6 -17 -4 240.03 27.89
6 17 4 240.8 24.27
-7 -17 -4 213.22 20.86
-7 -17 -4 233.39 27.99
7 17 4 197.17 14.9
7 17 4 166.54 22.17
8 17 4 191.56 23.82
-8 -17 -4 203.32 29.51
8 17 4 177.39 14.14
8 17 4 205.57 20.04
9 -17 4 145.14 17.39
9 17 4 152.59 18.9
9 17 4 115.73 12.34
-9 -17 -4 167 28.36
10 -17 4 74.04 16.75
10 17 4 100.77 11.56
-10 -17 -4 87.4 27.32
12 18 -4 10.72 13.64
-12 18 4 1.71 16.96
11 -18 -4 6.86 15.06
-11 18 4 27.81 16.75
11 18 -4 23.13 13.35
10 -18 -4 4.84 14.64
10 18 -4 1.13 12.13
10 18 -4 -12.52 15.28
-10 18 4 4.64 14.87
9 -18 -4 6.04 13.94
9 18 -4 7.11 19.78
-9 18 4 4.22 11.36
9 18 -4 12.23 11.67
9 18 -4 3.57 15.26
-8 18 4 54.71 11.83
8 18 -4 53.43 12.53
8 -18 -4 50.55 14.44
8 18 -4 46.64 20.56
-7 -18 4 98.38 13.63
7 -18 -4 135.62 16.12
-7 18 4 111.68 13.16
7 18 -4 131.03 14.78
7 18 -4 108.44 22.6
6 18 -4 120.61 18.58
6 -18 -4 146.91 16
6 18 -4 100.31 13.83
-6 18 4 121.03 13.93
-6 18 4 141.62 12.99
6 18 -4 140.83 23.41
-6 -18 4 121.7 13.43
-5 18 4 130.11 12.17
5 18 -4 124.07 18.05
5 -18 -4 137.68 15.16
-5 18 4 164.94 15.56
-5 18 4 147.16 12.75
5 18 -4 184.54 15.66
-5 -18 4 153.18 13.53
-5 18 4 147.83 11.04
-5 -18 4 164.64 11.84
5 18 -4 169.93 24.46
4 18 -4 158 19.08
4 18 -4 199.71 16.71
-4 18 4 173.77 16.38
-4 -18 4 187.76 12.53
4 -18 -4 192.93 16.32
-4 18 4 197.44 13.53
-4 -18 4 218.43 15.17
-4 18 4 184.27 11.21
4 18 -4 213.36 25.29
3 18 -4 159.36 19.07
3 -18 -4 171.59 14.47
-3 18 4 136.17 15.07
-3 18 4 146.62 11.22
3 18 -4 161.35 22.72
2 -18 -4 108.46 11.94
-2 18 4 91.05 12.94
-2 18 4 86.1 17.6
2 18 -4 128.67 21.93
2 -18 -4 115.73 12.61
1 18 -4 37.83 11.2
1 -18 -4 52.06 9.44
-1 18 4 56.52 16.64
1 -18 -4 38.99 10.13
-1 18 4 25.23 10.6
1 18 -4 26.41 18
0 18 -4 21.14 10.89
0 -18 -4 47.36 8.96
0 -18 4 20.03 9.62
0 18 4 26.88 11.13
0 -18 4 34.41 12.68
0 -18 -4 20.58 9.72
0 18 4 54.64 15.73
-1 18 -4 34.6 11.63
-1 18 -4 41.79 6.75
1 -18 4 43.36 10.7
1 18 4 51.21 11.6
-1 -18 -4 24.9 7.36
1 -18 4 15.75 11.9
1 18 4 35.6 14.69
-2 -18 -4 36.64 6.86
2 -18 4 31.85 12.29
2 -18 4 30.45 10
-2 -18 -4 22.71 6.92
2 18 4 41.42 11.94
-2 18 -4 21.51 11.41
-2 -18 -4 16.04 11.22
2 18 4 19.83 14.92
-2 18 -4 34.16 7.28
-3 18 -4 6.19 11.77
3 -18 4 14.81 12.17
3 -18 4 4.8 9.59
3 18 4 7.5 10.97
-3 -18 -4 6.57 11.23
3 18 4 25.68 14.38
-3 -18 -4 10.16 7.01
-3 18 -4 26.07 9.15
-4 18 -4 -2.59 11.37
4 18 4 13.33 9.72
4 -18 4 4.9 9.74
-4 -18 -4 23.62 12.45
4 18 4 5.15 11.46
-4 18 -4 7.6 9.3
4 18 4 18.66 15.52
-5 18 -4 33.85 13.85
5 18 4 9.88 9.03
5 18 4 3.8 15.31
5 18 4 9.33 12.11
-5 -18 -4 2.91 12.55
-5 18 -4 9.61 8.4
5 -18 4 18.93 10.59
6 -18 4 13.03 11.63
6 18 4 6.03 8.28
-6 -18 -4 -1.52 13.12
6 18 4 5.92 15.32
7 -18 4 6.74 12.23
7 18 4 6.57 8.8
-7 -18 -4 -6.39 14.32
-7 -18 -4 -7.57 20.99
7 18 4 2.02 17.39
8 18 4 12.65 18.15
8 18 4 3.01 14.08
8 18 4 0.81 8.63
-8 -18 -4 -10.7 23.71
9 18 4 16.17 9.32
-9 -18 -4 -25.46 22.96
9 -18 4 -1.46 13.65
10 -18 4 3.06 13.84
10 18 4 20.58 9.31
-10 -18 -4 12.02 24.99
11 19 -4 3.55 12.63
-10 19 4 26.49 13.52
10 19 -4 -3.47 12.84
10 -19 -4 13.24 15.23
9 19 -4 1.86 15.81
9 -19 -4 -1.55 14.3
9 19 -4 2.27 11.74
-9 19 4 9.45 11.35
9 19 -4 -9.86 20.51
8 -19 -4 -1.45 12.89
-8 19 4 17.12 10.88
8 19 -4 4.88 19.62
8 19 -4 13.42 12.23
-7 19 4 2.58 9.35
7 -19 -4 4.03 12.04
7 19 -4 4.45 11.56
7 19 -4 4.83 20.09
-6 19 4 -15.81 10.31
6 19 -4 13.29 11.68
-6 19 4 18.35 8.57
6 19 -4 16.66 20.87
-6 19 4 6.98 9.23
6 -19 -4 12.42 11.94
5 -19 -4 27.54 11.83
5 19 -4 9.08 14.71
5 19 -4 39.89 12.09
-5 19 4 7.57 10.38
-5 19 4 30.81 8.72
5 19 -4 21.15 19.95
-5 -19 4 34.01 10
-5 19 4 15.98 6.61
4 19 -4 48.91 15.45
4 -19 -4 37.09 11.21
4 19 -4 57.85 12.46
4 19 -4 55.65 21.33
-4 19 4 41.43 11.83
-4 19 4 30.37 7.99
3 19 -4 -8.86 14.08
3 -19 -4 10.71 9.86
-3 19 4 10.39 11
3 19 -4 11.52 19.17
2 -19 -4 38.37 10.24
2 -19 -4 65.98 11.19
-2 19 4 46.02 12.57
-2 19 4 66.9 18.06
2 19 -4 89.88 21.18
1 -19 -4 19.67 8.83
1 -19 -4 12.65 9.65
-1 19 4 21.67 11.82
-1 -19 4 51.02 13.89
1 19 -4 13.97 18.84
-1 19 4 64.01 17.29
0 -19 -4 71.38 12.28
0 19 -4 52.89 12.7
0 -19 -4 83.55 10.61
0 -19 4 93.46 15.01
0 19 4 71.05 13.76
0 19 4 86.3 17.3
-1 19 -4 49.68 13.02
-1 -19 -4 41.32 8.47
1 19 4 31.16 11.45
1 -19 4 28.77 10.54
1 -19 4 30.05 12.68
1 19 4 45.42 16.3
-2 19 -4 27.6 12.94
2 -19 4 33.42 13.28
2 -19 4 8.6 10.15
-2 -19 -4 20.32 7.83
-2 19 -4 3.96 6.45
2 19 4 7.63 10.38
2 19 4 19.13 15.59
-2 -19 -4 6.33 11.63
-3 19 -4 33.68 7.3
-3 19 -4 10.38 12.26
3 -19 4 1.55 12.67
3 -19 4 46.64 12.03
3 19 4 43.02 12.55
3 19 4 25.21 16.24
-3 19 -4 28.36 9.57
-3 -19 -4 35.05 13.54
4 19 4 41.1 10.86
4 -19 4 7.7 10.67
-4 -19 -4 25.62 13.41
4 19 4 28.2 12.94
-4 19 -4 61.02 14.4
-4 19 -4 37.65 10.35
4 19 4 45.2 17.1
-5 19 -4 -1.54 8.63
5 19 4 -4.84 9.28
5 -19 4 6.59 11.52
-5 -19 -4 14.84 13.61
5 19 4 -1.39 12.52
-5 19 -4 -2.83 13.57
-5 19 -4 -13.44 10.71
5 19 4 5.99 17.07
-6 -19 -4 -3.11 14.65
6 -19 4 13.58 12.26
6 19 4 19.52 9.52
6 19 4 17.29 14.43
-6 19 -4 6.25 9.36
6 19 4 12.35 17.13
-7 -19 -4 9.77 14.3
7 -19 4 30.83 13.12
7 19 4 18.55 9.79
7 19 4 2.11 17.89
8 19 4 4.37 18.39
8 19 4 17.27 9.59
-8 -19 -4 16.59 22.91
9 19 4 4.23 9.09
-9 -19 -4 11.72 23.47
-11 20 4 38.71 15.14
11 20 -4 6.01 13.59
10 -20 -4 47.49 17.62
10 20 -4 35.33 12.77
-10 20 4 57.19 14.48
9 -20 -4 100.19 17.93
-9 20 4 84.39 14.61
9 20 -4 80.38 14.89
8 20 -4 225.07 23.52
-8 20 4 194.64 16.62
8 20 -4 190.92 27.51
8 -20 -4 182.49 19.97
8 20 -4 166.62 17.78
7 -20 -4 258.06 22.33
7 20 -4 317.8 21.51
-7 20 4 256.83 18.83
7 20 -4 310.23 32.21
-6 20 4 272.7 18.3
6 -20 -4 326.49 23.25
6 20 -4 342.69 22.44
-6 20 4 301.04 19.11
6 20 -4 354.59 32.7
-6 20 4 326.21 22.05
-6 20 4 282.81 16.93
5 20 -4 519.45 35.18
5 -20 -4 608.98 31.3
-5 20 4 498.06 26.04
-5 20 4 538.89 30.14
5 20 -4 495.67 39.14
5 20 -4 532.73 30.07
-5 20 4 488.93 23.83
4 20 -4 445.62 28.49
-4 20 4 529.93 29.47
-4 20 4 477.91 24.12
4 20 -4 419.42 37.05
4 -20 -4 536.69 28.83
4 20 -4 507.48 34.14
3 20 -4 349.85 28.46
3 20 -4 344.62 23.77
3 -20 -4 335.51 22.42
-3 20 4 373.41 24.33
-3 20 4 415.91 31.45
3 20 -4 366.96 33.35
2 -20 -4 670.91 35.5
-2 20 4 707.57 37.22
2 -20 -4 667.39 34.66
-2 20 4 714.62 43.19
2 20 -4 640.41 45.17
-1 -20 4 455.24 30.84
1 -20 -4 436.97 26.79
-1 20 4 460.63 28.22
1 20 -4 447.64 36.57
-1 20 4 440.26 33.1
1 -20 -4 451.85 25.02
0 20 -4 281.62 22.63
0 -20 4 330.31 25
0 -20 -4 312.21 22.17
0 -20 -4 329.91 19.54
0 20 4 329.59 23.32
0 20 4 348.8 28.27
1 -20 4 422.07 28.49
-1 -20 -4 408.35 22.56
1 -20 4 407.69 26.18
1 20 4 409.36 26.82
1 20 4 441.13 32.34
-1 -20 -4 389.48 25.86
-1 20 -4 436.03 27.18
2 -20 4 135.4 17.5
2 -20 4 152.13 15.72
2 20 4 152.91 17.01
-2 20 -4 132.87 10.07
2 20 4 113.22 20.66
-2 -20 -4 151.29 16.66
-2 20 -4 132.79 16.72
-3 20 -4 44.85 13.83
3 -20 4 22.65 13.5
3 -20 4 36.99 12.36
3 20 4 23.14 12.53
-3 20 -4 20.37 8.82
-3 20 -4 19.1 7.27
3 20 4 65.52 18.25
-3 -20 -4 37.33 13.3
-4 20 -4 59.4 14.65
4 20 4 62.98 12
4 -20 4 65.97 13.64
4 20 4 55.97 14.12
-4 20 -4 66.91 11.35
4 20 4 66.12 18.4
-4 -20 -4 32.09 13.49
-5 20 -4 61.91 15.4
5 20 4 32.1 10.47
5 -20 4 21.99 12.33
-5 -20 -4 42.3 15.09
5 20 4 15.91 13.15
-5 20 -4 19.51 10.66
5 20 4 62.82 19.93
-6 -20 -4 22.21 14.36
6 20 4 -4.5 13.84
6 -20 4 12.73 11.77
6 20 4 1 9.94
6 20 4 40.79 19.62
-6 20 -4 1.71 9.61
-7 -20 -4 1.66 15.55
7 -20 4 8.74 13.1
7 20 4 -0.94 9.67
-7 20 -4 12.71 10.98
7 20 4 6.6 19.36
8 20 4 -4.57 10.01
9 20 4 -8 10.05
-9 -20 -4 -6.03 25.48
-11 21 4 45.87 15.29
10 21 -4 36.42 14.34
-10 21 4 41.97 14.13
9 21 -4 37.24 14.32
9 -21 -4 47.19 16.42
-9 21 4 17.46 11.92
8 -21 -4 38.04 15.12
8 21 -4 71.75 13.99
-8 21 4 45.47 11.92
7 21 -4 33.6 18.06
7 21 -4 39.53 13.82
-7 21 4 31.56 10.2
7 -21 -4 38.27 14.21
7 21 -4 107.81 27.14
-7 21 4 22.42 10.3
6 -21 -4 31.64 13.56
6 21 -4 34.85 13.03
-6 21 4 33.46 7.48
-6 21 4 18.13 8.91
6 21 -4 -15.66 21.99
5 -21 -4 15.88 12.57
5 21 -4 9.59 11.87
-5 21 4 8.32 12
-5 21 4 12.88 8.07
5 21 -4 12.93 20.72
4 -21 -4 1.13 11.18
4 21 -4 3.61 12.15
-4 21 4 12.32 12.4
4 21 -4 -1.96 16.46
4 21 -4 23.07 21.57
3 21 -4 15.46 15.34
3 -21 -4 -6.3 10.87
-3 21 4 15.24 12.75
-3 21 4 -10.99 19.27
3 21 -4 -12.78 21.93
3 21 -4 1.21 12.04
2 21 -4 32.07 13.14
2 -21 -4 38.13 11.34
-2 21 4 45.43 13.55
-2 21 4 40.89 19.45
2 21 -4 15.39 21.03
2 -21 -4 20.69 11.03
1 -21 -4 125.72 13.46
1 -21 -4 107.25 14.5
-1 21 4 77.91 15.1
-1 -21 4 89.73 16.51
1 21 -4 131.95 25.44
-1 21 4 101.86 20.65
0 -21 4 57.97 14.73
0 -21 -4 50.66 10.39
0 21 4 54.97 14.23
0 -21 -4 27.34 11.6
0 21 -4 91.44 24.21
0 21 4 97.01 19.46
-1 21 -4 75.96 14.77
1 -21 4 64.55 13.62
1 -21 4 51.19 15.26
1 21 4 73.47 13.91
1 21 4 31.83 18.07
-1 -21 -4 31.65 12.79
-2 21 -4 105.69 15.92
2 -21 4 114.99 17.5
2 -21 4 122.87 15.16
2 21 4 77.64 15.19
2 21 4 76.82 20.22
-2 -21 -4 91.13 14.75
-3 21 -4 105.35 16.55
3 -21 4 104.71 17.33
3 -21 4 135.39 16.3
3 21 4 124.82 16.39
-3 21 -4 124.1 10.28
-3 21 -4 99.43 12.13
3 21 4 129.24 22.02
-3 -21 -4 136.93 17.11
-4 21 -4 134.56 18.17
4 21 4 139.05 15.67
4 -21 4 111.53 16.32
4 21 4 131.17 16.6
-4 -21 -4 124.37 17.75
4 21 4 91.1 21.57
-4 21 -4 100.71 12.79
-5 -21 -4 175.38 19.81
5 21 4 119.31 14.95
5 -21 4 147.81 17.38
5 21 4 115.88 17.58
-5 21 -4 106.81 14.37
5 21 4 195.16 25.36
6 -21 4 116.26 16.88
6 21 4 131.53 14.7
6 21 4 123.11 23.04
-6 21 -4 135.89 13.65
-6 -21 -4 122.54 18.79
-6 21 -4 94.7 14.56
-7 -21 -4 90.92 19.03
7 21 4 96.84 12.83
7 -21 4 95.46 16.56
-7 21 -4 71.12 12.95
7 21 4 91.62 22.75
8 21 4 88.29 13.06
9 22 -4 -8.69 13.91
-9 22 4 -9.1 11.94
9 -22 -4 21.65 16.89
-8 22 4 -0.91 11.03
8 -22 -4 -9.36 15.03
8 22 -4 -4.97 12.56
-7 22 4 8.75 9.65
7 -22 -4 29.1 14.7
7 22 -4 24.98 13.19
-7 22 4 19.31 10.42
-7 22 4 13.67 7.86
6 -22 -4 8.11 13.15
-6 22 4 10.18 8.66
6 22 -4 -2.73 22.04
6 22 -4 3.73 12.49
-6 22 4 -3.48 6.68
-5 22 4 -3.04 7.59
5 -22 -4 6.28 12.04
5 22 -4 17.46 12.38
-5 22 4 13.68 13.05
5 22 -4 21.67 21.61
4 -22 -4 -1.17 12.07
4 22 -4 -1.26 12.25
-4 22 4 -2.58 12.74
4 22 -4 -21.53 22.29
3 22 -4 2.01 16.28
3 22 -4 -3.81 12.1
-3 22 4 -3.99 12.64
-3 22 4 6.97 19.92
3 22 -4 29.57 22.71
3 -22 -4 26.21 11.38
2 22 -4 -14.24 12.7
2 -22 -4 22.47 11.19
2 -22 -4 -4.62 11.85
-2 22 4 28.52 13.56
-2 22 4 -9.1 19.95
2 22 -4 -10.79 21.69
-1 22 4 6.73 18.13
1 -22 -4 1.9 10.12
-1 22 4 5.52 13.03
-1 -22 4 10.45 14.83
1 -22 -4 1.17 11.32
1 22 -4 10.89 22.74
0 -22 4 12.1 14.27
0 -22 -4 9.87 12.39
0 -22 -4 15.64 12.41
0 22 4 2.8 12.84
0 22 -4 2.76 21.4
0 22 4 15.61 17.94
0 -22 -4 -2.62 9.7
1 -22 4 -4.13 12.99
1 -22 4 -1.73 13.95
-1 -22 -4 19.37 12.78
1 22 4 -4.26 12.73
-1 -22 -4 22.06 12.5
1 22 4 20.14 18.76
-2 22 -4 -4.29 13.3
2 -22 4 -10.46 14.78
2 -22 4 9.87 12.23
2 22 4 1.44 12.8
2 22 4 24.72 19.71
-2 -22 -4 -1.37 13.07
-3 22 -4 3.29 9.4
-3 22 -4 22.3 14.21
-3 22 -4 12.92 6.37
3 -22 4 -1.44 12.38
3 22 4 19.2 13.77
3 22 4 2.26 18.89
3 -22 4 -1.76 13.85
-3 -22 -4 -7.2 13.42
-4 22 -4 -26.24 14.7
4 22 4 -7.52 12.3
4 -22 4 -1.47 12.84
4 22 4 -9.1 14.37
-4 -22 -4 1.5 13.83
-4 22 -4 0.54 7.21
4 22 4 -6.82 20
-4 22 -4 -5.35 9.78
5 22 4 4.7 11.35
5 -22 4 8.98 13.18
-5 -22 -4 -1.56 14.48
-5 22 -4 -0.99 10.29
5 22 4 -13.73 21.13
-6 -22 -4 3.27 15.61
6 -22 4 -19.86 13.21
6 22 4 5.62 11.5
-6 22 -4 4.54 9.18
-6 22 -4 10.95 12.22
6 22 4 -9.33 19.47
7 22 4 9.53 11.23
-7 22 -4 1.8 10.37
7 -22 4 14.15 14.28
-7 22 -4 9.68 12.98
8 -23 -4 9.57 15.84
8 23 -4 10.32 13.71
-8 23 4 22.77 10.87
-7 23 4 6.2 7.28
7 -23 -4 -10.4 15.16
7 23 -4 -8.98 13.43
-7 23 4 -0.69 9.43
6 23 -4 -1.29 13.15
6 -23 -4 18.01 13.51
-6 23 4 -3.42 8.31
5 -23 -4 6.45 12.78
5 23 -4 11.67 13.27
4 23 -4 -11.77 13.45
-4 23 4 2.7 13.55
-4 23 4 -14.95 21.05
4 23 -4 14.11 22.51
4 -23 -4 19.34 12.23
-3 23 4 2.44 20.81
3 23 -4 19.95 12.98
3 -23 -4 18.16 11.98
-3 23 4 18.09 14.19
3 23 -4 45.12 24.39
3 23 -4 67.23 19.1
2 23 -4 23.12 13.68
2 -23 -4 30.04 12.15
-2 23 4 44.01 14.81
-2 -23 4 63.96 16.87
-2 23 4 21.56 21.28
2 23 -4 11.33 22.13
-1 23 4 62 15.65
1 -23 -4 39.64 11.76
1 -23 -4 34.54 12.59
-1 -23 4 38.28 15.45
1 23 -4 51.48 24.14
-1 23 4 61.61 22.02
1 23 -4 61.07 15.39
0 -23 -4 42.74 13.34
0 -23 4 41.55 15.8
0 -23 -4 32.86 12.77
0 23 4 29.21 14.2
0 23 -4 55.06 24.62
0 23 4 39.95 21.67
1 -23 4 54.56 14.78
1 -23 4 52.29 16.27
1 23 4 71.09 15.86
-1 -23 -4 41.46 14.01
-1 -23 -4 33.05 13.63
1 23 4 54.24 21.65
-2 23 -4 131.61 18.86
2 -23 4 70.93 17.8
2 -23 4 119.24 16.68
2 23 4 117.55 17.91
-2 -23 -4 131.09 17.23
2 23 4 96.74 23.59
3 23 4 65.02 15.45
3 -23 4 38.51 16.94
3 -23 4 69.22 14.84
-3 -23 -4 52.78 15.19
3 23 4 83.02 21.75
-4 -23 -4 28.76 14.87
4 23 4 33.23 13.72
4 23 4 7.13 21.15
-4 23 -4 16.87 7.12
4 -23 4 10.76 13.98
-4 23 -4 19.06 9.76
-5 -23 -4 103.06 18.44
5 23 4 23.59 13.37
5 -23 4 59.49 15.73
5 23 4 43.08 22.06
-5 23 -4 59.34 12.44
6 23 4 122.49 15.7
-6 -23 -4 119.11 20.45
6 -23 4 70.07 17.12
-6 23 -4 95.51 14.09
-6 23 -4 79.76 11.19
7 23 4 61.47 13.22
-7 23 -4 47.38 14.1
7 -24 -4 116.98 18.89
6 -24 -4 103.71 17.36
6 24 -4 149.81 19.12
-6 24 4 116.94 10.33
5 24 -4 156.5 18.56
5 -24 -4 151.7 17.82
4 -24 -4 210.16 19.58
4 24 -4 154.37 19.46
-4 24 4 193.38 20.33
-4 24 4 225.77 30.65
3 24 -4 215.98 20.16
3 -24 -4 142.74 16.65
-3 24 4 155.6 19.17
-3 24 4 141.09 27.25
2 24 -4 157.8 18.31
2 -24 -4 110.93 14.94
-2 24 4 106.69 17.27
-2 -24 4 59.31 17.74
-2 24 4 108.34 25.17
1 24 -4 146.43 18.58
-1 24 4 115.84 18.39
-1 -24 4 144.62 21.13
-1 24 4 109.71 25.9
0 24 -4 155.72 19.97
0 -24 4 150.6 21.55
0 24 4 190.39 20.39
0 24 4 138.56 25.04
0 -24 -4 154.14 17.64
1 -24 4 197.31 23.56
1 -24 4 215.41 21.08
-1 -24 -4 251.66 21.26
1 24 4 192.99 21.15
1 24 4 205.6 29.13
2 -24 4 83.4 19.29
-2 -24 -4 118.68 17.43
2 -24 4 135.09 17.87
2 24 4 138.78 26.68
3 24 4 13.19 14.07
3 -24 4 30.56 17.48
3 -24 4 14.12 12.87
-3 -24 -4 28 15.3
3 24 4 57.16 22.66
4 24 4 15.4 13.51
4 -24 4 57.62 15.72
-4 24 -4 13.6 6.2
-4 24 -4 10.08 9.54
4 24 4 -2.48 22.32
-4 -24 -4 -3.06 14.93
-5 -24 -4 14.41 16.03
-5 24 -4 2.76 10.03
5 24 4 7.86 13.22
-6 -24 -4 26.7 16.81
6 24 4 3.75 13.31
-6 24 -4 23.65 11.89
6 -25 -4 10.22 14.97
5 -25 -4 -5.49 13.77
4 -25 -4 -3.88 13.41
-4 25 4 -2.75 24.15
-3 25 4 -7.59 15.1
-3 25 4 -2.69 24.17
-2 25 4 13.91 15.93
-2 -25 4 -2 17.03
-2 25 4 7.93 22.67
-1 -25 4 57.47 19.06
-1 25 4 -2.62 23.21
1 -25 -4 4.95 13.03
0 -25 -4 29.78 13.92
0 25 4 23.38 23.07
0 -25 4 47.01 18.42
1 -25 4 23.46 16.6
1 25 4 44.15 24.68
-1 -25 -4 6.81 14.59
2 -25 4 3.94 15.95
2 -25 4 33.56 15.97
-2 -25 -4 11.41 15.17
2 25 4 33.71 23.32
3 -25 4 19.57 14.42
3 25 4 20.11 15.91
3 -25 4 -1.99 16.98
-3 -25 -4 14.79 15.45
3 25 4 13 22.65
-4 -25 -4 -6.17 15.4
4 25 4 -10.34 15.35
-5 -25 -4 17.71 16.55
5 25 4 41.37 15.3
6 -26 -4 64.5 17.26
5 -26 -4 16.97 14.63
-3 26 4 53.51 26.91
-2 26 4 74.74 26.77
2 -26 -4 43.18 14.25
-1 26 4 16.43 25.13
1 -26 -4 26.12 14.28
0 -26 -4 17.01 14.56
0 26 4 24.51 25.4
-1 -26 -4 -19.18 15.71
-2 -26 -4 32.82 16.15
3 26 4 50.46 17.98
-3 -26 -4 1.48 16.02
4 26 4 -6.19 15.5
-4 -26 -4 -1.55 16.26
-5 -26 -4 30.65 17.6
2 -27 -4 9.59 13.44
1 -27 -4 33.87 15.25
0 -27 -4 30.22 15.09
-1 -27 -4 28.82 15.22
-2 -27 -4 32.63 16.23
3 27 4 68.37 19.12
-3 -27 -4 44.43 17.35
-4 -27 -4 103.59 20.58
1 -28 -4 23.77 14.69
0 -28 -4 5.22 14.51
-1 -28 -4 17.64 15.33
-2 -28 -4 5.63 15.58
-3 -28 -4 11.8 16.16
-4 -28 -4 19.98 17.76
-16 0 5 -16.2 24.2
-15 0 5 -16.92 17.66
-15 0 5 12.37 22.62
-14 0 5 9.82 16.21
-14 0 5 2.26 19.57
-13 0 5 -12.75 15.03
-13 0 5 -2.05 16.67
-12 0 5 5.03 12.96
-12 0 5 -7.37 16.62
-11 0 5 -8.26 14.27
-11 0 5 4.61 11.31
-10 0 5 1.41 10.25
-10 0 5 1.47 13.1
-9 0 5 -1.28 10.36
-9 0 5 -6.44 10.76
-8 0 5 -1.16 8.76
-8 0 5 -3.34 9.14
-7 0 5 -2.09 7.96
7 0 -5 -12.04 7.52
-7 0 5 -2.85 8.94
6 0 -5 9.23 6.45
-6 0 5 2.8 7.86
-6 0 5 -3.16 8.11
-5 0 5 -2.49 7.54
-5 0 5 13.24 7.29
5 0 -5 6.18 6.36
-5 0 5 12.74 6.49
-4 0 5 1.47 6.33
4 0 -5 -3.02 5.48
-4 0 5 8.56 5.95
-3 0 5 5.75 6.46
3 0 -5 -1.06 4.91
-3 0 5 -3.54 6.78
2 0 -5 -2.77 5.4
-2 0 5 9.78 6.21
-2 0 5 -1.4 6.04
-1 0 5 3.25 3.89
1 0 -5 0.4 4.38
-1 0 5 -5.32 6.24
1 0 -5 0.18 2.97
-1 0 5 6.23 6.29
0 0 -5 -0.35 3.9
0 0 5 -0.68 6.7
-1 0 -5 -5.85 3.69
-1 0 -5 -4.77 4.24
-1 0 -5 -0.7 3.7
-2 0 -5 -6.85 5.39
-2 0 -5 0.34 3.52
-2 0 -5 5.39 5.65
-3 0 -5 -4.86 3.75
-3 0 -5 4.66 6.32
-4 0 -5 2.62 4.13
4 0 5 0.35 4.29
-4 0 -5 0.87 6.69
-4 0 -5 -5.27 5.74
5 0 5 7.91 4.41
-5 0 -5 1.96 5.98
-5 0 -5 1.91 7.54
-6 0 -5 -2.05 7.67
6 0 5 -4.9 4.49
-6 0 -5 -5.11 5.88
7 0 5 5.89 5.38
-7 0 -5 -1.93 6.56
-7 0 -5 5.91 5.21
-7 0 -5 12.22 9.46
-8 0 -5 2.35 6.49
-9 0 -5 11.64 7.69
-10 0 -5 1.86 14.63
-10 0 -5 -9.52 8.45
11 0 5 1.31 7.1
-11 0 -5 16.42 17.67
12 0 5 1.42 7.95
-12 0 -5 11.31 18.81
13 0 5 -0.76 8.44
-13 0 -5 4.99 20.25
14 0 5 4.03 9.22
-16 -1 5 22.07 25.26
-16 1 5 42.31 24.6
-15 -1 5 38.68 18.92
-15 1 5 50.1 18.77
-15 -1 5 58.23 23.2
-15 1 5 16.89 20.68
-14 -1 5 34 17.27
-14 1 5 30.84 15.89
-14 -1 5 51.16 22.06
-14 1 5 21.94 19.63
-13 -1 5 44.45 15.32
-13 1 5 30.28 15.1
-13 -1 5 55.03 20.36
-13 1 5 57.66 17.78
-12 1 5 111.57 16.69
-12 -1 5 106.17 17.09
-12 -1 5 82.35 18.9
-12 1 5 96.72 18.99
-11 1 5 99.28 16.68
-11 -1 5 56.76 13.54
-11 1 5 42.19 13.25
-11 -1 5 96.21 17.73
-10 1 5 22.06 11.75
-10 -1 5 4.33 11.02
-10 -1 5 21.44 13.53
-10 1 5 5.67 12.22
-9 1 5 52.6 12.06
-9 1 5 29.72 11.61
-9 -1 5 23.71 10.71
-9 -1 5 54.22 13.43
-8 -1 5 167.29 15.07
8 1 -5 133.57 12.49
-8 1 5 153.64 14.18
-8 -1 5 160.55 15.72
-8 1 5 138.5 14.61
-7 -1 5 215.22 17.07
-7 1 5 253.18 17.09
7 1 -5 204.26 15.23
-7 -1 5 205.73 17.4
-7 1 5 236.1 16.23
-6 1 5 138.4 11.85
-6 -1 5 136.54 12.72
6 1 -5 114.82 11.15
-6 -1 5 102.99 12.36
-6 1 5 109.6 11.32
-5 -1 5 55.34 8.91
-5 -1 5 66.08 8.87
-5 1 5 58.56 8.88
-5 1 5 62.17 8.7
5 1 -5 54.32 8.03
5 -1 -5 62.6 7.91
-5 -1 5 61.29 9.09
-5 1 5 55.73 7.92
-4 -1 5 32.93 7.69
-4 1 5 19.07 7.02
-4 -1 5 19.23 7.04
4 1 -5 29.04 6.65
4 -1 -5 34.76 6.21
-4 -1 5 15.76 6.32
-4 1 5 30.02 5.9
-3 -1 5 21.12 6.9
-3 1 5 31.13 7.36
3 1 -5 18.5 6.05
3 -1 -5 8.46 5.39
-3 1 5 7.6 3.71
-3 -1 5 20.52 7.2
-3 1 5 11.35 6.7
3 1 -5 21.68 4.45
2 1 -5 546.79 25.02
2 1 -5 525.1 23.26
2 -1 -5 513.12 24.11
-2 -1 5 506.4 26.22
-2 1 5 541.62 26.27
-2 -1 5 498.66 25.72
-2 1 5 516.63 25.93
-1 1 5 280.66 16.8
1 1 -5 327.08 15.83
-1 -1 5 268.95 14.66
1 -1 -5 307.48 14.54
-1 -1 5 285.53 16.86
-1 -1 5 289.35 17.12
-1 1 5 269.77 16.73
0 -1 5 359.08 20.14
0 -1 -5 390.71 17.12
0 1 5 355.49 20
0 1 -5 352.82 18.2
-1 -1 -5 722.43 30.06
-1 1 -5 671.91 31.38
-1 1 -5 723.11 31.42
-1 1 -5 706.75 31.3
-1 -1 -5 713.8 30.77
-1 -1 -5 683.88 30.66
-2 -1 -5 1981.87 81.38
-2 1 -5 1940.08 83.51
-2 1 -5 2042.96 82.83
-2 -1 -5 1997.2 82.14
-2 -1 -5 1944.86 84.64
-3 -1 -5 781.81 33.27
-3 1 -5 758.94 33.98
-3 -1 -5 780.34 36.06
-3 1 -5 746.63 35.39
-3 1 -5 742.14 36.29
-3 1 -5 812.72 36.26
-4 1 -5 381.82 18.93
4 -1 5 381.29 18.65
-4 1 -5 378.6 20.49
-4 -1 -5 386.71 20.59
-4 -1 -5 398.2 18.12
-4 -1 -5 373.11 22.06
-4 1 -5 390.53 21.82
5 -1 5 327.05 16.56
5 1 5 321.04 15.59
-5 1 -5 324.2 19.97
-5 1 -5 295.8 17.76
-5 -1 -5 348.69 18.26
-5 -1 -5 322.3 15.24
-5 -1 -5 328.33 20.35
6 1 5 316.54 15.68
-6 1 -5 289.67 17.52
-6 -1 -5 305.22 15.7
-6 -1 -5 358.68 18.36
-6 -1 -5 321.13 20.63
6 -1 5 321.15 16.64
-6 1 -5 313.65 20.04
-7 -1 -5 567.38 30.66
7 1 5 545.93 25.06
-7 -1 -5 541.63 25.5
-7 1 -5 558.51 26.99
-7 -1 -5 528.15 27.02
-7 1 -5 524.61 29.75
8 1 5 402.31 20.07
-8 -1 -5 416.7 21.09
-8 1 -5 386.91 21.15
-8 -1 -5 460.66 28.58
-9 -1 -5 242.32 15.88
-9 1 -5 240.94 15.66
-9 -1 -5 289.08 23.88
10 -1 5 64.78 9.03
-10 -1 -5 80.87 10.94
-10 1 -5 90.4 11
-10 -1 -5 80.48 17.99
-11 1 -5 65.63 19.46
-11 -1 -5 43.64 17.94
11 -1 5 48.57 8.74
-12 1 -5 18.01 18.48
12 -1 5 47.6 9.77
12 1 5 31.15 8.11
-12 -1 -5 20.68 19.76
13 1 5 25.79 8.77
-13 -1 -5 15.2 21.99
13 -1 5 14.77 9.35
-13 1 -5 2.47 20.34
14 -1 5 13.04 10.2
-16 -2 5 25.47 24.66
-16 2 5 28.48 22.73
-15 2 5 4.72 20.32
-15 -2 5 10.87 18.32
-15 -2 5 41.72 23.37
-15 2 5 34.96 17.8
-14 -2 5 6.1 16.33
-14 2 5 26.6 16.58
-14 -2 5 45.36 22.42
-14 2 5 49.37 21.74
-13 -2 5 81.34 18.41
-13 2 5 96.69 17.69
-13 -2 5 71.89 21.92
-13 2 5 66.17 18.98
-12 2 5 56.41 14.34
-12 -2 5 55.39 17.92
-12 -2 5 96.51 16.78
-12 2 5 61.27 17.19
-11 -2 5 103.47 19.42
-11 -2 5 153.41 17.78
-11 2 5 95.94 15.18
-11 2 5 134.3 18.15
-10 2 5 47.14 11.59
-10 2 5 61.74 13.64
-10 -2 5 78.65 14.21
-10 -2 5 92.61 16.79
-9 -2 5 132.57 15.28
-9 2 5 100.96 14.16
-9 2 5 126.18 14.09
9 2 -5 128.58 12.75
-9 -2 5 136.46 16.8
-8 -2 5 504.17 29.45
8 2 -5 537.69 27.77
-8 -2 5 502.48 29.88
-8 2 5 479.5 27.9
-8 2 5 532.9 29.02
-7 -2 5 925.45 43.64
-7 2 5 905.83 42.67
-7 -2 5 874 43.81
-7 2 5 860.86 41.66
7 2 -5 839.71 41.6
-6 -2 5 1564.21 68.79
-6 -2 5 1477.66 68.04
6 2 -5 1504.96 67.25
-6 2 5 1530.64 67.73
-6 2 5 1548.77 66.54
-5 -2 5 1969.08 87.33
5 2 -5 2013.13 86.4
-5 -2 5 2044.96 86.74
-5 -2 5 2080.32 86.77
-5 2 5 1998.95 86.58
-5 2 5 1975.54 84.73
4 2 -5 1240.32 56.6
-4 -2 5 1265.37 57.49
-4 -2 5 1271.7 56.22
-4 -2 5 1288.6 56.99
-4 2 5 1246.87 56.93
-4 2 5 1305.9 54.47
4 2 -5 1334.18 55.38
-3 2 5 758.31 35.42
3 -2 -5 777.55 34.42
-3 -2 5 736.56 35.86
-3 2 5 789.4 36.13
3 2 -5 785.21 34.07
-3 -2 5 802.89 36.17
3 2 -5 750.53 35.24
-3 2 5 721.03 35.74
-3 -2 5 722.82 35.39
2 2 -5 1633.92 70.04
2 2 -5 1624.61 68.73
-2 -2 5 1619.29 71.02
-2 2 5 1647.55 70.7
-2 -2 5 1614.89 70.6
-2 2 5 1652.19 70.58
2 -2 -5 1640.92 68.6
-1 2 5 912.17 42.45
1 2 -5 1002.66 43.78
-1 -2 5 978.25 44.62
-1 2 5 978.96 44.53
1 -2 -5 1065.26 42.09
-1 -2 5 912.42 44.53
-1 2 5 1015.25 44.85
1 -2 -5 997.55 44.43
0 2 -5 498.95 23.54
0 -2 -5 507.64 21.78
0 -2 5 505.09 25.48
0 2 5 442.39 25.06
0 2 -5 504.41 24.09
0 -2 -5 500.01 21.82
0 -2 -5 531.24 25.34
-1 -2 -5 1272.67 53.78
-1 2 -5 1211 54.77
-1 -2 -5 1318.57 52.74
-1 -2 -5 1313.56 56.95
-1 -2 -5 1268.05 54.44
-2 2 -5 588.5 28.05
-2 -2 -5 605.95 25.78
-2 -2 -5 648.65 29.17
-2 2 -5 559.3 26.99
-2 -2 -5 569.57 27.61
-3 2 -5 29.96 7.14
-3 -2 -5 15.51 3.19
-3 2 -5 11.67 5.1
-3 2 -5 -3.16 7.15
3 -2 5 8.7 4.94
-3 -2 -5 6.81 5.84
-3 -2 -5 6.8 6.56
-4 -2 -5 -9.24 8.29
-4 2 -5 4.35 5.34
-4 -2 -5 -8.39 7.6
-4 2 -5 3.3 6.36
-4 -2 -5 -6.79 5.89
-4 -2 -5 0.94 2.38
4 -2 5 2.75 4.82
-4 2 -5 3.97 6.84
-5 2 -5 10.51 7.42
5 -2 5 12.52 5.31
-5 2 -5 12.14 6.62
-5 -2 -5 12.87 6.17
-5 -2 -5 13.29 3.56
-5 -2 -5 27.08 8.75
-5 2 -5 12.1 6.1
-5 -2 -5 11.27 8.16
-6 -2 -5 -5.85 10.03
-6 -2 -5 4.41 9.49
-6 2 -5 -7.63 8.18
6 2 5 3.21 3.81
-6 -2 -5 3.5 3.98
-6 2 -5 -9.28 6.59
-6 -2 -5 6.28 6.36
-7 -2 -5 -3.56 9.7
-7 2 -5 1.04 8.41
7 2 5 9.97 4.59
-7 -2 -5 6.8 5.36
-7 2 -5 7.67 6.76
-7 -2 -5 6.71 11.21
-8 -2 -5 15.21 12.08
-8 -2 -5 -1.11 6.36
8 2 5 2.68 5.01
-8 2 -5 12.04 6.87
-8 -2 -5 3.04 12.74
9 2 5 29.16 6.16
-9 -2 -5 32.42 8.35
9 -2 5 34.51 7.61
-9 2 -5 19.22 8.28
-9 -2 -5 39.36 15.43
-10 2 -5 89.54 11.5
-10 -2 -5 74.45 18.73
10 -2 5 73.76 9.62
11 -2 5 25.42 8.47
-11 -2 -5 57.32 19.18
-12 2 -5 40.68 19.66
12 -2 5 41.25 10.29
-12 -2 -5 21.17 18.58
-13 2 -5 27.16 21.53
-13 -2 -5 38.65 22.87
13 2 5 32.85 8.44
13 -2 5 22.86 10.45
14 -2 5 6.51 10.7
-16 3 5 12.73 23.66
-15 -3 5 33.13 19.39
-15 -3 5 16.07 26.15
-15 3 5 16.27 20.91
-14 -3 5 43.32 18.68
-14 3 5 57.09 19.53
-14 3 5 41.37 16.87
-14 -3 5 24.67 21.39
-13 -3 5 26.94 16.14
-13 3 5 -8.65 13.69
-13 3 5 40.15 17.2
-13 -3 5 18.05 19.51
-12 -3 5 65.98 16.49
-12 3 5 65.24 14.43
-12 -3 5 88.44 19.43
-12 3 5 66.46 17
-11 -3 5 98.64 16.24
-11 3 5 128.45 15.41
-11 -3 5 87.43 19.3
-11 3 5 102.65 16.79
-10 3 5 58.8 12.35
10 3 -5 52.65 10.77
-10 3 5 50.28 13.4
-10 -3 5 67.95 13.4
-10 -3 5 15.09 15.21
-9 -3 5 98.13 14.39
-9 3 5 96.18 12.64
9 3 -5 80.54 11.14
-9 -3 5 85.03 15.5
-9 3 5 104.64 13.6
-8 -3 5 89.44 13.37
-8 3 5 86.78 12.03
8 3 -5 97.18 10.76
-8 -3 5 114.8 14.24
-8 3 5 80.51 11.29
-7 3 5 -7.36 8.02
-7 -3 5 21.73 9.59
-7 3 5 -11.8 8.72
7 3 -5 -1.88 7.05
-7 -3 5 -4.63 10.69
-6 3 5 -2.62 6.74
-6 -3 5 8.27 8.47
-6 -3 5 20.2 7.81
-6 3 5 15.71 7.77
6 3 -5 9.57 7.48
-6 -3 5 20.09 9.86
-5 -3 5 34.74 8.8
-5 -3 5 71.65 9.54
-5 3 5 52.72 8.33
-5 3 5 53.11 6.87
5 3 -5 62.95 8.8
-5 -3 5 51.97 9.88
5 3 -5 40.75 7.91
-4 -3 5 80.67 9.06
-4 -3 5 43.31 9.43
4 3 -5 87.23 9.17
-4 -3 5 71.42 9.19
-4 3 5 63.41 6.04
-4 3 5 53.25 8.42
4 3 -5 57.37 7.84
-3 3 5 30.92 7.75
-3 -3 5 21.53 7.5
-3 3 5 17.28 6.56
-3 -3 5 35.6 6.69
-3 -3 5 35.32 7.36
3 3 -5 29.78 7.49
3 3 -5 39.27 6.75
-3 -3 5 25.51 7.75
-3 3 5 39.86 3.74
-3 3 5 28.59 7.11
2 3 -5 4.52 6.36
-2 -3 5 5.22 6.08
-2 3 5 4.62 5.34
2 3 -5 -3.14 6.28
-2 -3 5 -0.74 6.7
-2 3 5 -0.67 6.15
1 3 -5 268.26 16.05
-1 3 5 256.14 13.92
-1 -3 5 289.74 16.41
-1 3 5 251.82 16
-1 -3 5 264.45 16.43
-1 3 5 299.11 16.65
1 -3 -5 301.92 16.26
0 3 -5 25.79 6.76
0 3 5 23.45 4.02
0 3 -5 29.44 5.8
0 -3 -5 29.41 4.02
0 -3 5 29.14 7.32
0 3 5 34.08 7.67
0 -3 -5 34.33 7.04
-1 3 -5 79.97 7.16
-1 -3 -5 64.48 8.67
-1 -3 -5 59.36 6.58
-2 3 -5 232.76 12.72
-2 -3 -5 213.23 10.53
-2 -3 -5 210.14 13.7
-2 3 -5 222.9 13.79
-2 -3 -5 217.39 13.53
-3 3 -5 431.1 21.44
-3 3 -5 434.87 22.74
3 -3 5 433.35 21.31
-3 -3 -5 430.74 18.96
-3 -3 -5 469.18 22.81
-3 -3 -5 456.92 23.35
-3 3 -5 416.94 22.58
-4 3 -5 787.88 35.93
-4 3 -5 784.24 37.68
-4 -3 -5 795.23 37.02
-4 -3 -5 834.25 39.33
-4 -3 -5 829.69 38.85
-4 3 -5 761.43 37.54
4 -3 5 793.18 35.86
-5 3 -5 290.39 16.63
-5 -3 -5 290.1 13.77
-5 3 -5 296.24 16.93
-5 -3 -5 306.28 17.58
-5 -3 -5 297.58 19.78
-5 -3 -5 290.78 19.61
-5 3 -5 322.59 18.74
-6 3 -5 89.68 10.59
6 3 5 85.24 5.73
-6 3 -5 84.7 8.92
-6 -3 -5 79.51 9.17
-6 -3 -5 84.55 6.66
-6 -3 -5 116.78 13.58
-6 -3 -5 89.16 12.52
-7 -3 -5 106.41 7.87
-7 3 -5 73.98 8.59
-7 -3 -5 84.23 13.18
7 3 5 69.78 6.02
-7 -3 -5 80.15 14.02
-8 -3 -5 49.55 13.03
-8 -3 -5 74.05 7.94
-8 3 -5 46.31 7.45
-8 -3 -5 59.5 14.83
8 3 5 42.6 5.6
9 -3 5 25.11 7.82
-9 -3 -5 12.34 14.64
9 3 5 31.91 5.77
-9 -3 -5 19.35 7.89
10 -3 5 25.42 8.11
10 3 5 42.95 6.57
-10 3 -5 34.73 9.45
-10 -3 -5 39.38 17.02
11 -3 5 21.46 8.94
-11 -3 -5 28.26 18.67
12 -3 5 6.17 9.56
-12 -3 -5 -11.95 19.14
-13 3 -5 -9.93 20.9
-13 -3 -5 7.84 21.64
13 -3 5 -1.87 10.19
14 -3 5 -0.99 11.46
-16 4 5 -7.56 21.93
-15 -4 5 -6.7 18.71
-15 -4 5 46.68 26
-15 4 5 16.1 21.09
-14 -4 5 39.8 18.98
14 -4 -5 19.61 7.05
-14 4 5 31.67 15.83
-14 4 5 41.53 20.68
-14 -4 5 5.07 20.76
-13 -4 5 7.82 15.27
-13 4 5 15.47 14.19
-13 -4 5 20.93 20.62
-13 4 5 26.11 17.17
-12 -4 5 67.15 17.1
-12 4 5 88.78 15.71
-12 -4 5 89.17 21.11
-12 4 5 98.07 17.25
-11 -4 5 92.3 16.63
-11 4 5 100.49 16.59
-11 4 5 52.5 13.46
11 4 -5 123.72 14.82
-11 -4 5 57.87 18.24
-10 4 5 31.2 12.16
-10 -4 5 21.59 12.76
-10 4 5 15.92 10.9
10 4 -5 24.34 9.72
-10 -4 5 41.85 16.23
-9 -4 5 193.27 18.2
-9 4 5 179.04 16.46
9 4 -5 182.65 15.66
-9 -4 5 178.42 19.21
-9 4 5 196.22 16.7
-8 -4 5 319.01 22.47
-8 4 5 368.51 21.74
8 4 -5 309.18 19.92
-8 -4 5 280.63 23.32
-7 -4 5 511.97 28.31
-7 4 5 489.65 26.57
7 4 -5 498.56 26.59
-7 -4 5 430.89 28.04
-6 -4 5 255.37 19.23
-6 -4 5 321.18 18.91
-6 -4 5 303.76 20.29
6 4 -5 298.03 18.38
-5 -4 5 433.09 24.8
5 4 -5 388.38 23.41
-5 -4 5 464.59 25.13
-5 -4 5 411.52 23.05
-5 4 5 441.32 23.53
5 4 -5 472.23 23.83
4 4 -5 939.5 42.77
-4 -4 5 872.03 43.41
-4 -4 5 904.05 42.71
-4 -4 5 927.37 42.27
-4 4 5 900.87 42.29
4 4 -5 940.69 42.36
3 4 -5 928.38 40.55
-3 -4 5 912.11 39.77
-3 4 5 848.47 39.5
3 4 -5 822.37 39.61
-3 -4 5 925.35 40.19
-3 4 5 896.69 40.12
-3 -4 5 895.24 40.29
-3 4 5 712.67 38.82
2 4 -5 1837.25 75.35
-2 4 5 1638.39 72.96
2 4 -5 1818.96 74.88
2 -4 -5 1802.54 74.87
-2 -4 5 1753.47 75.33
-2 4 5 1600.98 74.36
-2 -4 5 1784.29 74.93
-2 4 5 1750.86 74.83
1 4 -5 172.24 12.08
-1 4 5 160.74 9.09
-1 -4 5 165.24 11.84
-1 4 5 124.59 11.59
1 -4 -5 136.57 11.32
-1 -4 5 176.35 12.55
0 4 -5 133.69 9.85
0 4 5 130.68 7.54
0 4 5 111.81 10.89
0 -4 -5 153.09 8.36
0 -4 5 97.05 10.63
0 -4 -5 131.93 10.81
0 -4 -5 141.3 10.85
-1 4 -5 235.34 14.12
-1 -4 -5 261.71 15.79
-1 -4 -5 246.2 14.15
-1 -4 -5 277.87 16.04
-2 4 -5 200.23 12.6
-2 4 -5 198.1 13.62
-2 -4 -5 212.85 10.11
-2 -4 -5 254.91 15.2
-2 -4 -5 229.42 13.87
-3 4 -5 4.39 5.81
-3 4 -5 1.44 7.35
-3 -4 -5 9.16 5.43
-3 -4 -5 3.17 1.97
-3 -4 -5 5.61 7.23
-3 -4 -5 1.53 7.31
-3 4 -5 7.02 6.12
-4 4 -5 56.77 9.44
-4 4 -5 40.45 7.89
-4 -4 -5 35.31 6.9
-4 4 -5 38.78 7.18
-4 -4 -5 26.67 9.66
-5 -4 -5 11.22 3.31
-5 4 -5 6.33 6.2
-5 4 -5 5.17 6.31
-5 -4 -5 -1.48 6.48
-5 4 -5 11.76 8.11
-5 -4 -5 -2.17 10.13
-5 4 -5 8.74 7.32
-5 -4 -5 8.77 8.63
-6 -4 -5 -1.62 4.21
-6 -4 -5 8.8 11.45
-6 4 -5 -1.22 6.43
-6 4 -5 -5.25 7.95
-6 -4 -5 3.54 9.78
-7 -4 -5 12.49 5.55
7 4 5 9.26 3.31
-7 4 -5 2.86 6.55
-7 -4 -5 30.15 11.9
-7 -4 -5 6.27 10.4
8 -4 5 7.93 7.32
-8 -4 -5 -5.62 6.76
8 4 5 8.97 4.05
-8 4 -5 2.13 6.3
-8 -4 -5 -4.02 12.16
-8 -4 -5 9.72 13.85
9 -4 5 10.78 7.82
9 4 5 10.13 4.86
-9 -4 -5 2.04 7.67
-9 -4 -5 7.24 14.7
10 -4 5 41.99 9.32
10 4 5 30.79 5.87
-10 -4 -5 24.14 16.52
11 -4 5 -0.88 8.76
-11 4 -5 35.11 11.08
11 4 5 10.84 6.11
-11 -4 -5 37.71 19.39
12 -4 5 0.94 9.89
-12 -4 -5 17.04 20.72
13 -4 5 11.92 11.17
-13 -4 -5 7.98 21.59
14 -4 5 24.14 12.28
-16 5 5 42.52 23.74
-15 5 5 120.25 23.49
-15 -5 5 93.09 27.55
-14 -5 5 231.41 25.48
-14 5 5 194.14 24.27
-14 5 5 184.38 21.67
14 -5 -5 169.7 10.86
-14 -5 5 229.37 30.78
13 -5 -5 82.88 8.84
-13 -5 5 100.92 18.96
-13 5 5 93.07 17.14
-13 -5 5 117.66 24.36
-13 5 5 88.07 17.53
-12 -5 5 156.49 20.16
-12 5 5 95.37 17.83
-12 5 5 126.68 17.19
-12 -5 5 162.9 22.65
-11 -5 5 412.11 28.71
-11 5 5 360.12 26.12
11 5 -5 402.03 25.65
-11 -5 5 380.96 31.09
-11 5 5 385.76 27.11
-10 -5 5 632.7 36.31
-10 5 5 588.61 34.15
-10 -5 5 621.26 38.75
10 5 -5 620.71 33.97
-9 -5 5 311.27 23.49
9 5 -5 316.68 21.72
-9 -5 5 364.04 26.71
-9 5 5 355.93 22.54
-8 -5 5 318.73 22.98
8 5 -5 335.41 21.31
-8 5 5 327.18 21.24
-8 -5 5 351.96 24.98
7 5 -5 71.72 10.66
-7 -5 5 62.3 11.05
7 5 -5 68.19 9.52
-7 5 5 76.18 10.49
-7 -5 5 48.39 13.54
-6 -5 5 -3.41 9.46
-6 -5 5 1.69 7.41
-6 5 5 5.16 7.22
6 5 -5 3.85 6.6
6 5 -5 10.29 8.21
-6 -5 5 5.81 9.97
-5 -5 5 29.74 8.03
-5 5 5 23.9 7.29
5 5 -5 28.15 7.96
-5 -5 5 24.36 9.03
-5 -5 5 5.1 8.86
5 5 -5 17.35 8.33
-4 -5 5 8.86 7.12
-4 -5 5 -6.86 8.47
4 5 -5 -1.73 7.22
-4 5 5 2.25 6.75
4 5 -5 2.47 8.37
3 5 -5 188.13 13.78
-3 5 5 186.14 8.96
-3 -5 5 197.85 12.88
-3 5 5 179.9 12.59
3 5 -5 184.26 13.83
-3 -5 5 203.84 13.36
-3 5 5 188.92 13.2
-3 -5 5 162.85 13.29
-2 5 5 160.56 10.22
2 5 -5 154.96 12.81
2 5 -5 164.76 13.19
-2 5 5 172.47 8.86
-2 -5 5 179.9 12.42
-2 -5 5 151.7 12.56
2 -5 -5 168.55 12.08
-2 5 5 161.39 12.16
1 5 -5 604.7 31.19
1 5 -5 638.46 30.04
-1 5 5 664.81 28.44
-1 -5 5 633.43 30.76
-1 5 5 637.94 30.88
1 -5 -5 649.01 30.98
-1 -5 5 608.01 31.22
-1 5 5 647.07 27.43
0 -5 -5 1338.98 56.22
0 5 -5 1291.74 55.26
0 5 5 1219.55 56.01
0 -5 -5 1326.74 56.09
0 5 5 1242.05 52.81
-1 5 -5 674.27 31.43
-1 -5 -5 736.8 31.84
-1 -5 -5 627.51 32.46
-1 -5 -5 674.33 32.53
-2 5 -5 188.54 12.43
-2 5 -5 204.96 13.59
-2 -5 -5 188.53 8.9
-2 -5 -5 196.51 14.03
-2 -5 -5 198.46 13.6
-3 5 -5 338.86 19.38
-3 5 -5 386.32 20.99
-3 -5 -5 393.9 20.2
-3 -5 -5 387.56 21.13
-3 -5 -5 325.04 21
-3 5 -5 370.81 19.57
-4 5 -5 682.92 33.32
-4 5 -5 737.71 33.93
-4 5 -5 737.9 35.32
-4 -5 -5 736.52 34.24
-4 -5 -5 657.37 35.75
-5 -5 -5 1028.51 48.21
5 5 5 993.09 46.56
-5 5 -5 919.03 44.54
-5 -5 -5 1034.95 45.72
-5 -5 -5 1027.89 48.49
-5 5 -5 1005.3 47.16
-5 5 -5 963.58 45.39
-6 -5 -5 829.05 37.2
-6 5 -5 893.6 42.95
6 5 5 884.96 41.97
-6 5 -5 854.24 39.42
-6 -5 -5 951.37 45.09
-6 -5 -5 921.64 44.24
7 -5 5 465.7 23.81
7 5 5 483.76 26.22
-7 5 -5 411.17 22.47
-7 -5 -5 456.91 29.19
-7 -5 -5 465.45 21.85
-7 -5 -5 446.51 27.75
-7 5 -5 451.39 26.98
-8 -5 -5 242.1 14.15
8 -5 5 264.88 15.46
8 5 5 184.09 9.78
-8 5 -5 228.82 13.19
-8 -5 -5 276.51 22.95
-8 -5 -5 225.6 19.1
-9 -5 -5 191.6 14.13
-9 -5 -5 249.6 22.85
9 -5 5 221.22 14.78
10 -5 5 253.91 16.99
10 5 5 223.24 12.07
-10 -5 -5 309.71 27.12
11 5 5 99.34 8.01
11 -5 5 125.78 13.38
-11 5 -5 145.84 14.73
-11 -5 -5 118.18 22.68
12 -5 5 54.48 11.91
12 5 5 55 7.13
-12 -5 -5 74.84 23.94
13 -5 5 28.34 12.17
-13 -5 -5 57.26 24.88
14 -5 5 2.21 12.41
-16 6 5 -14.85 24.01
-15 6 5 -2.24 20.82
-15 -6 5 -8.69 25.76
-14 -6 5 17.25 18.3
-14 6 5 52.46 17.08
14 -6 -5 14.94 5.03
-14 -6 5 18.77 22.49
-14 6 5 12.12 18.9
-13 6 5 27.38 17.29
13 -6 -5 8 5.84
-13 6 5 1.73 13.66
-13 -6 5 44.55 22.77
-13 -6 5 -12.07 16.26
-12 6 5 92.09 17.34
-12 -6 5 110.39 17.92
12 -6 -5 80.78 8.83
-12 6 5 97.82 16.03
12 6 -5 106.25 15.77
-12 -6 5 84.15 20.27
-11 -6 5 33 14.89
-11 6 5 47.43 13.18
11 6 -5 81.8 13.81
-11 -6 5 45.76 19.01
-10 -6 5 147.64 17.93
10 6 -5 177.09 16.63
-10 6 5 144.96 15.7
-10 -6 5 170.27 22.36
-9 -6 5 234.8 20.36
-9 6 5 208.89 18.08
9 6 -5 259.64 18.75
-9 -6 5 298.55 24.38
-8 -6 5 124.83 14.87
-8 6 5 148.41 13.73
8 6 -5 102.36 12.24
-8 -6 5 101.93 17.52
-7 -6 5 293.96 21.23
7 6 -5 311.45 19.99
-7 -6 5 321.89 23.03
7 6 -5 289.47 20.52
-6 -6 5 348.84 23.66
6 6 -5 401.63 22.41
-6 -6 5 373.16 24.93
6 6 -5 409.07 23.64
-6 -6 5 365.9 21.74
-5 -6 5 511.94 29.9
-5 -6 5 511.05 29.29
-5 -6 5 560.82 27.63
5 6 -5 541.35 29.01
4 6 -5 398.35 22.42
4 6 -5 414.21 23.02
-4 -6 5 330.86 20.44
-4 -6 5 409.47 21.89
-3 -6 5 77.18 8.62
-3 -6 5 73.75 9.34
3 6 -5 80.16 10.25
-3 6 5 69.4 7.79
3 6 -5 83.46 11.33
-3 -6 5 86.13 9.12
2 6 -5 52.72 9.05
-2 -6 5 42.65 7.79
2 -6 -5 42.69 7.46
-2 6 5 55.4 5.96
2 6 -5 55.78 10.28
-2 6 5 55.4 6.03
-2 -6 5 53.29 8.29
-1 6 5 420.71 19.55
-1 -6 5 413.15 22.06
1 -6 -5 374.76 21.76
-1 6 5 440.69 19.84
1 6 -5 439.24 21.62
1 6 -5 405.53 23.09
0 -6 -5 1001.34 47.57
0 6 -5 1100.75 47.49
0 6 5 1083.29 44.75
0 -6 -5 1047.99 48.13
0 -6 -5 1037.82 47.59
0 6 5 1099.27 46.03
-1 6 -5 669.17 32.21
-1 -6 -5 697.99 32.79
-1 -6 -5 702.87 33.21
-1 -6 -5 702.27 32.81
-2 6 -5 127.28 10.14
-2 -6 -5 109.93 5.57
2 6 5 134.72 11.61
-2 -6 -5 111.68 10.78
-2 -6 -5 127.32 11.68
-3 6 -5 127.49 10.18
-3 6 -5 133.41 11.72
-3 6 -5 109.99 9.45
3 6 5 115.12 11.46
-3 -6 -5 97.84 9.66
-3 -6 -5 106.43 11.35
-3 -6 -5 115.01 12.49
-4 6 -5 87.34 8.77
-4 6 -5 74.8 9.13
-4 6 -5 66.75 10.42
-4 -6 -5 67.21 8.43
-4 -6 -5 53.95 10.77
-5 6 -5 7.14 6.87
-5 6 -5 21.42 8.06
-5 6 -5 38.7 10.22
-5 -6 -5 6.03 10.97
-5 -6 -5 7.01 8.26
6 -6 5 -3.66 6.54
-6 6 -5 -5.48 9.64
-6 6 -5 3.75 6.38
6 6 5 1.93 9.12
-6 -6 -5 -5.5 11.76
-6 -6 -5 1.26 9.23
-7 6 -5 -10.83 6.61
-7 6 -5 1.19 10.15
7 -6 5 -8.57 7.22
7 6 5 1.01 9.28
-7 -6 -5 23.21 13.42
-7 -6 -5 2.65 9.96
-8 -6 -5 -9.87 10.8
-8 -6 -5 11.67 7.47
-8 6 -5 -1.29 11.72
8 6 5 3.15 9.72
-8 6 -5 -1 5.69
-8 -6 -5 -1.73 14.56
8 -6 5 2.48 7.54
-9 6 -5 6.9 11.75
9 -6 5 -4.37 7.77
9 6 5 6.52 10.19
-9 -6 -5 -11.56 16.47
10 -6 5 13.92 9.53
10 6 5 16.28 3.77
-10 -6 -5 19.22 17.26
11 -6 5 40.38 10.98
11 6 5 41.67 5.24
-11 -6 -5 98.72 23.13
12 -6 5 27.16 11.32
12 6 5 20.81 5.3
-12 -6 -5 -2.57 21.56
13 -6 5 6.63 11.85
-13 -6 -5 5.6 23.46
14 -6 5 2.33 12.88
-15 -7 5 32.67 26.39
-15 7 5 53.44 21.73
-14 -7 5 11.05 18.6
-14 7 5 15.06 15.53
-14 -7 5 -8.28 23.85
-14 7 5 4.04 18.6
-13 7 5 -5.5 15.78
-13 -7 5 6.18 16.57
-13 7 5 5.18 14.64
13 -7 -5 -5.82 5.49
-13 -7 5 10.2 21.13
-12 -7 5 -17.24 15.02
12 -7 -5 6.67 5.83
-12 7 5 11.02 12.45
12 7 -5 10.35 12.73
-12 -7 5 11.73 19.36
-11 -7 5 37.46 14.28
11 -7 -5 40.26 7.31
-11 7 5 57.49 13.43
11 7 -5 44.7 12.42
-11 -7 5 49.54 17.78
-10 -7 5 82.68 15.67
-10 7 5 114.63 14.7
10 7 -5 101.04 13.94
-10 -7 5 62.95 18.02
-9 -7 5 6.17 11.93
9 7 -5 7.48 9.86
-9 7 5 2.36 9.98
-9 -7 5 21.44 14.68
-8 -7 5 1.44 11.11
8 7 -5 -13.07 9.06
-8 7 5 -8.54 8.73
-8 -7 5 4.89 14.1
8 7 -5 -5.11 11.53
-7 -7 5 16.08 10.62
7 7 -5 32.45 8.96
-7 -7 5 8.86 11.96
7 7 -5 14.36 10.86
6 7 -5 235.77 16.93
-6 -7 5 231.41 19.52
-6 -7 5 232.14 15.85
6 7 -5 213.43 17.42
-6 -7 5 209.77 17.65
-5 -7 5 8.67 7.33
-5 -7 5 6.01 10.88
5 7 -5 -2.16 10.24
-4 -7 5 43.84 8.3
4 7 -5 46.67 9.81
-4 7 5 37.81 5.53
4 7 -5 27.06 9.63
-4 -7 5 35.03 8.01
-3 7 5 81.27 9.49
-3 -7 5 106.47 10.84
3 7 -5 106.83 11.09
-3 7 5 86.74 8.03
-3 -7 5 87.25 9.29
3 7 -5 105.39 12.74
-3 -7 5 75.56 9.12
2 7 -5 9.28 8.08
2 7 -5 5.38 6.26
2 -7 -5 3.92 6.3
-2 -7 5 4.6 6.47
2 7 -5 -2.9 9.6
-2 7 5 4.1 5.41
-2 7 5 9 4.95
-2 -7 5 0.79 6.85
-2 7 5 11.35 6.4
1 -7 -5 79.31 8.86
1 7 -5 62.24 9.83
-1 -7 5 61.03 8.5
-1 7 5 60.13 5.96
1 7 -5 58.64 8.13
-1 7 5 79.84 7.85
0 7 -5 16.91 6.12
0 7 5 13.47 3.27
0 -7 -5 19.71 6.89
0 -7 -5 15.48 6.41
0 7 5 7.01 6.01
0 -7 -5 19.1 6.77
-1 7 -5 111.44 10.09
1 7 5 155.4 12.33
1 7 5 138.71 6.72
-1 -7 -5 128.48 11.49
-1 -7 -5 137.37 11.35
-1 -7 -5 118.98 10.66
1 7 5 125.8 10.4
-2 7 -5 225.23 14.45
2 7 5 229.19 15.59
-2 -7 -5 256.56 15.65
-2 -7 -5 257.2 16.44
-2 7 -5 204.6 12.79
3 7 5 15.03 7.96
-3 7 -5 14.96 7.74
-3 -7 -5 28.5 6.48
-3 -7 -5 2.97 8.44
-3 -7 -5 9.6 7.67
-3 7 -5 18.96 7.22
-3 7 -5 5.8 5.54
-4 7 -5 46.38 7.16
-4 7 -5 39.53 8.61
-4 7 -5 51.53 9.77
-4 -7 -5 51.28 7.99
-4 -7 -5 72.53 11.69
-4 -7 -5 38.92 8.53
-5 7 -5 45.16 9.15
5 -7 5 39.4 7.55
-5 7 -5 45.83 10.43
-5 -7 -5 48.16 10.21
-5 -7 -5 48.77 12.68
6 -7 5 73.73 9.38
-6 7 -5 78.52 12.37
6 7 5 77.6 11.76
-6 -7 -5 69.43 14.02
-6 -7 -5 72.51 12.09
7 -7 5 47.37 9.06
-7 7 -5 58.41 13.25
7 7 5 44.85 11.28
-7 7 -5 48.66 7.73
-7 -7 -5 42.06 15.01
-7 -7 -5 47.61 12.17
-8 7 -5 -4.03 12.52
8 7 5 12.05 10.38
8 -7 5 7.92 8.36
-8 7 -5 3.98 5.83
-8 -7 -5 24.59 11.84
-8 -7 -5 7.2 15.73
-9 7 -5 7.17 12.12
9 -7 5 -9.26 8.57
9 7 5 2.28 11.15
-9 -7 -5 15.99 16.42
-10 7 -5 -1.53 13.44
10 -7 5 -0.98 9.56
10 7 5 -14.17 12.39
-10 -7 -5 -2.2 17.96
-11 7 -5 8.09 14.25
11 -7 5 2.07 9.94
-11 -7 -5 4.83 20.07
12 -7 5 8.78 11.32
12 7 5 0.5 2.86
-12 -7 -5 44.77 23.09
13 -7 5 11.6 12.39
-13 -7 -5 -11.49 25.38
14 -7 5 1.22 13.64
-15 8 5 -2.23 20.02
-15 -8 5 -3.04 26.98
-14 -8 5 -18.06 19.07
-14 8 5 1.89 15.11
-14 -8 5 -2.83 24.67
-14 8 5 16.26 18.46
-13 -8 5 40.18 17.72
-13 8 5 41.54 15.31
-13 -8 5 28.88 21.45
-12 -8 5 53.42 17.27
-12 8 5 68.07 15.59
12 8 -5 95.1 15.95
12 -8 -5 53.13 7.18
-12 -8 5 72.61 22.69
-11 -8 5 97.24 17.41
11 -8 -5 108.71 9.11
-11 8 5 103.89 15.41
11 8 -5 71.45 14.16
-11 -8 5 109.03 22.08
-10 -8 5 268.84 23.79
10 8 -5 280 21.28
-10 8 5 288.82 21.35
-10 -8 5 265.18 26.81
9 8 -5 199.18 17.61
-9 8 5 235.99 17.94
-9 -8 5 203.16 19.72
-9 -8 5 191.1 22.61
9 8 -5 204.69 20.04
-8 -8 5 468.01 30.29
-8 -8 5 532.22 32.9
8 8 -5 438.85 29.19
8 8 -5 472.58 27.98
-7 -8 5 960.22 50.43
-7 -8 5 1022.33 47.79
7 8 -5 1038.39 49.28
-7 -8 5 987.68 52.13
7 8 -5 1061.07 50.98
6 8 -5 1187.27 55.86
-6 -8 5 1178.83 58.29
6 8 -5 1226.74 57.27
-6 -8 5 1177.65 54.31
5 8 -5 1422.13 66.58
-5 8 5 1465.5 62.75
5 8 -5 1521.06 68.01
-5 -8 5 1459.61 64.75
4 8 -5 607.73 34.52
-4 8 5 709.5 30.33
4 8 -5 643.65 35.54
-4 -8 5 644.87 32.75
-4 -8 5 729.57 33.86
3 8 -5 499.91 27.89
3 8 -5 500.49 29.12
-3 -8 5 485.75 26.29
-3 8 5 517.06 25.29
-3 -8 5 520.68 25.6
2 8 -5 539.43 30.12
-2 8 5 476.49 25.79
-2 -8 5 516.84 26.52
-2 -8 5 572.25 27.94
-2 8 5 600.12 27.01
2 8 -5 624.86 27.64
2 -8 -5 496.72 26.45
2 8 -5 528.25 29.26
-1 -8 5 692.26 34.28
-1 8 5 736.04 33.89
1 -8 -5 706.25 34.31
1 8 -5 786.03 34.73
0 8 -5 550.81 26.34
0 -8 -5 487.09 25.91
0 8 5 505.05 27.24
0 -8 -5 539.19 26.79
0 8 5 561.64 26.3
0 -8 -5 521.4 25.63
1 8 5 432.31 24.56
-1 8 -5 484.29 23.75
-1 -8 -5 428.33 23.58
-1 -8 -5 449.88 23.43
1 8 5 474.21 23.78
-2 8 -5 159.74 12.22
2 8 5 159.99 13.01
-2 8 -5 148.17 9.72
-2 -8 -5 139.11 12.46
-2 -8 -5 154.68 14.01
-2 -8 -5 155.86 11.67
2 8 5 173.27 13.19
-3 8 -5 61.58 6.74
-3 8 -5 52.12 8.53
3 8 5 36.36 8.47
-3 -8 -5 65.87 8.29
-3 8 -5 59.52 9.79
-3 -8 -5 40.42 10.88
-3 -8 -5 42.27 9.09
-4 8 -5 76.68 10.48
-4 -8 -5 89.63 11.87
-4 8 -5 103.07 12.36
-4 -8 -5 90.97 13.77
-4 8 -5 100.4 9
-5 8 -5 106.72 11.36
5 -8 5 90.62 9.81
-5 8 -5 78.49 12.19
-5 -8 -5 73.47 14.09
-5 -8 -5 93.09 12.33
-6 8 -5 42.25 10.09
-6 -8 -5 41.19 11.25
-6 8 -5 49.81 11.48
6 8 5 44.34 10.34
6 -8 5 48.43 8.63
-6 -8 -5 51.65 13.92
-7 -8 -5 19.54 11.16
-7 8 -5 27.03 11.98
-7 8 -5 15.89 6.97
7 8 5 8.64 10.35
7 -8 5 22.04 8.35
-7 -8 -5 8.46 14.48
-8 -8 -5 20.75 11.78
8 -8 5 -0.93 8.42
-8 8 -5 20.91 12.4
8 8 5 -1.13 10.43
-8 8 -5 3.5 5.94
-8 -8 -5 24.43 15.94
9 -8 5 6.84 9.51
9 8 5 10.68 11.28
-9 -8 -5 8.3 17.19
-9 8 -5 -1.49 12.53
10 -8 5 69.03 12.53
-10 8 -5 41.33 15.12
10 8 5 81.71 14.48
-10 -8 -5 98.14 22.05
11 -8 5 71.88 13.12
-11 8 -5 58.75 17.02
11 8 5 63.78 14.89
-11 -8 -5 79.89 22.68
12 -8 5 11.52 12.19
-12 -8 -5 32.66 23.27
13 -8 5 23.08 13.02
-13 -8 -5 8.86 24.37
14 -8 5 8.94 13.91
15 -8 5 4.02 15.33
-15 9 5 15.71 20.04
-15 -9 5 18.66 28.15
-14 -9 5 67.06 21.08
-14 9 5 47.36 17.39
-14 -9 5 101.57 27.76
-13 -9 5 52.01 18.73
-13 9 5 41.74 15.42
-13 -9 5 113.07 26.96
-12 -9 5 97.41 19.8
-12 9 5 68.45 15.31
-12 -9 5 24.93 21.63
-11 -9 5 166.25 20.8
11 -9 -5 156.89 11.13
11 9 -5 157.62 17.75
-11 9 5 163.17 17.88
-11 -9 5 172.69 24.89
10 9 -5 51.71 13.35
-10 9 5 93.13 13.98
-10 -9 5 78.65 19.65
-10 -9 5 72.11 15.91
9 9 -5 1.53 12.5
-9 -9 5 3.28 12.13
9 9 -5 5.38 10.53
-9 -9 5 -9.78 16.27
-8 -9 5 -1.53 12.85
8 9 -5 -1.28 9.41
-8 -9 5 5.41 14.69
8 9 -5 2.9 12.78
-7 -9 5 26.27 9.4
7 9 -5 35.8 9.81
7 9 -5 45.92 13.2
-7 -9 5 23.24 14.25
-6 -9 5 43.05 9.45
-6 9 5 42.03 7.92
-6 9 5 41.51 9.32
6 9 -5 27.63 9.62
-6 -9 5 79.23 14.08
6 9 -5 56.43 13.85
-5 9 5 20.41 8.04
5 9 -5 16.34 8.27
-5 9 5 37.75 7.35
5 9 -5 31.18 11.77
-5 -9 5 32.59 8.03
4 9 -5 3.37 8.77
-4 -9 5 3.47 7.49
4 9 -5 -7.54 11.48
-4 -9 5 13.45 7.12
-4 9 5 5.41 7.54
3 9 -5 68.18 11.19
3 9 -5 91.82 9.8
-3 9 5 53.55 8.25
-3 9 5 60.16 8.67
3 9 -5 61.83 12.38
-3 -9 5 63.32 8.81
-3 -9 5 63.49 9.11
2 9 -5 120.35 13.16
2 9 -5 138.76 11.23
-2 -9 5 127.52 10.76
-2 9 5 124.63 10.89
2 9 -5 116.07 14.07
-2 9 5 103.77 10.73
-2 -9 5 126.77 11
-2 9 5 129.64 10.1
-1 9 5 12.36 6.99
1 -9 -5 11.13 6.65
1 -9 -5 15.13 3.46
1 9 -5 25.05 7.36
-1 9 5 8.69 7.5
1 -9 -5 9.39 6.05
-1 9 5 15.62 7.22
-1 -9 5 8.65 6.32
0 9 -5 167.75 12.51
0 9 5 167.38 13.74
0 -9 -5 166.49 12.12
0 -9 -5 151.33 12.56
0 9 5 184.13 13.4
0 -9 -5 195.2 12.03
-1 9 -5 967.68 44.8
-1 -9 -5 981.12 41.41
1 9 5 954.1 45.82
1 9 5 993.13 45.45
-1 -9 -5 999.27 44.19
-1 -9 -5 980.96 44.75
2 9 5 614.5 26.6
-2 9 -5 682.8 31.13
-2 -9 -5 581.86 25.76
2 -9 5 646.69 30.68
2 9 5 638.3 31.74
-2 -9 -5 676.67 33.39
-2 -9 -5 659.58 31.07
-2 -9 -5 638 30.19
2 9 5 668.06 31.6
-2 9 -5 652.5 27.93
-3 9 -5 403.39 22.52
3 9 5 402.08 23.29
-3 9 -5 406.88 19.68
-3 -9 -5 403.89 22.47
-3 -9 -5 392.57 25.1
-4 9 -5 318.7 20.41
-4 -9 -5 281.06 19.91
4 9 5 274.39 19.12
-4 -9 -5 313.14 22.33
-4 9 -5 275 18.17
-5 9 -5 374.04 22.32
-5 9 -5 367.49 23.48
5 -9 5 380.97 21.44
-5 -9 -5 397.04 26.6
-5 -9 -5 354.04 23.8
-6 9 -5 407.63 24.22
6 -9 5 422.34 23.45
6 9 5 464.39 25.88
-6 -9 -5 354.9 25.99
-6 -9 -5 461.62 29.81
-6 9 -5 401.29 26.07
-7 9 -5 409.33 26.22
7 -9 5 340.42 22.11
7 9 5 364.47 24.08
-7 -9 -5 447.2 29.93
-7 -9 -5 395.03 25.93
-8 -9 -5 217.02 19.98
8 -9 5 188.63 15.72
-8 9 -5 169.99 18.54
8 9 5 189.82 17.64
-8 -9 -5 231.87 23.74
-9 -9 -5 129.64 17.39
9 -9 5 129.86 13.83
-9 9 -5 85.08 17.16
9 9 5 129.17 15.98
-9 -9 -5 87.79 20.86
10 -9 5 94.18 13.61
-10 9 -5 79.08 17.06
10 9 5 71.88 14.3
-10 -9 -5 58.63 21.32
11 -9 5 35.38 12.09
11 9 5 12.02 13.71
-11 -9 -5 10.25 21.24
-11 9 -5 1.74 15.52
12 -9 5 -7.22 12.44
12 9 5 36.89 15.71
-12 -9 -5 -5.57 22.62
13 -9 5 16.49 13.73
14 -9 5 1.33 14.04
-14 -10 5 -21.13 21.04
-14 -10 5 -8.93 26.13
-13 -10 5 -13.21 19.03
-13 10 5 -1.75 14.42
-13 -10 5 5.55 22.89
-12 -10 5 37.1 17.96
-12 10 5 20.94 14.54
-12 -10 5 -18.05 20.85
-11 -10 5 -5.78 15.09
11 10 -5 1.5 12.51
-11 10 5 23.71 12.72
-11 -10 5 4.77 18.96
-10 -10 5 102.56 17.26
10 10 -5 73.88 14.34
-10 10 5 66.19 13.46
-10 -10 5 70.68 19.82
-9 -10 5 16.81 13.47
9 10 -5 29.25 11.61
-9 -10 5 36.81 18.49
9 10 -5 46.79 14.8
-8 10 5 35.23 9.75
8 10 -5 30.69 11.21
-8 -10 5 37.92 16.79
8 10 -5 18.72 13.44
7 10 -5 190.79 16.91
-7 -10 5 196.95 21.69
-7 -10 5 208.04 15.95
-7 10 5 195.96 15.77
7 10 -5 191.8 20.11
-6 -10 5 62.9 10.32
-6 10 5 32.87 9.34
6 10 -5 44.5 10.48
-6 10 5 29.6 7.83
6 10 -5 34.72 13.87
-5 -10 5 26.31 8.55
-5 -10 5 32.74 8.78
-5 10 5 11.51 7.94
5 10 -5 24.73 9.61
-5 10 5 30.83 7.78
5 10 -5 29.56 13.12
4 10 -5 243.87 16.26
-4 -10 5 227.56 14.48
4 10 -5 230.51 19.77
-4 -10 5 227.3 15.19
-4 10 5 199.72 15.21
-4 -10 5 227.21 16.37
4 10 -5 238.89 17.62
3 10 -5 65.02 11.86
3 10 -5 58.59 8.97
-3 -10 5 73.63 8.42
3 10 -5 48.8 13.32
-3 10 5 72.83 8.79
-3 -10 5 67.11 9.38
-3 10 5 45.55 7.52
2 10 -5 120.47 10.73
-2 10 5 73.75 10.57
-2 -10 5 84.57 9.52
2 -10 -5 93.04 9.64
-2 10 5 105.58 10.72
2 10 -5 95.67 14.6
-2 10 5 78.03 10.48
2 10 -5 110.01 12.49
-2 -10 5 100.48 10.43
-2 10 5 88.49 8.91
1 -10 -5 23.35 6.74
1 10 -5 20.47 7.14
-1 10 5 17.13 7.8
1 -10 -5 38.84 7.7
-1 10 5 29.88 8.91
-1 -10 5 16.55 7
1 -10 -5 28.97 4.32
-1 10 5 17.19 7.21
0 -10 -5 68.3 6.52
0 10 -5 86.88 9.58
0 10 5 77.04 9.91
0 -10 5 52.88 10.56
0 10 5 55.91 9.75
0 -10 -5 74.55 8.95
-1 -10 -5 20.49 4.36
-1 10 -5 14.01 7.02
1 -10 5 20.53 6.77
1 -10 5 10.6 8.34
1 10 5 22.26 8.29
-1 -10 -5 25.68 7.6
-1 -10 -5 19.84 6.54
1 10 5 16.55 9.22
-1 10 -5 20.97 4.22
-2 10 -5 3.35 4.03
-2 10 -5 3.24 6.89
2 -10 5 9.08 8.5
-2 -10 -5 6.25 2.62
2 -10 5 12.98 6.7
2 10 5 1.91 8.04
-2 -10 -5 6.6 10.61
-2 -10 -5 8.85 7.32
-2 -10 -5 -0.64 6.83
-3 -10 -5 8.73 7.97
3 10 5 17.3 3.63
3 10 5 15.78 9.05
-3 -10 -5 29.59 11.69
-3 10 -5 27.51 8.7
-4 10 -5 5.43 8.52
4 10 5 1.02 8.82
4 10 5 1.37 2.86
-4 10 -5 1.11 9.75
-4 -10 -5 -15.09 12.54
-4 -10 -5 -6.04 8.42
-4 -10 -5 1.22 9.23
-5 -10 -5 27.63 10.86
-5 10 -5 21.95 9.87
-5 10 -5 31.19 11.58
-5 -10 -5 31.84 13.34
-6 10 -5 8.08 10.49
-6 -10 -5 -8.41 10.79
6 -10 5 13.12 8.39
6 10 5 16.76 10.71
-6 10 -5 -14.19 11.75
-6 -10 -5 -5.03 14.33
-7 10 -5 59.63 14.42
7 10 5 38.66 11.93
7 -10 5 41.24 9.66
-7 -10 -5 42.41 16.19
-7 -10 -5 23.47 12.21
-8 -10 -5 -3.1 12
8 -10 5 1.03 9.49
-8 10 -5 1.49 13.1
8 10 5 15.95 11.29
-8 -10 -5 2.02 15.7
-9 -10 -5 -3.27 13.86
-9 10 -5 -9.58 13.76
9 10 5 14.1 12.51
-9 -10 -5 -6.65 18.71
9 -10 5 9.77 10.02
10 -10 5 13.64 10.79
10 10 5 -13.34 13.2
-10 10 -5 -1.7 14.42
-10 -10 -5 -9.68 20.69
-11 -10 -5 23.74 21.04
11 -10 5 -7.17 11.72
11 10 5 -6.91 14.4
12 -10 5 2.52 13.62
12 10 5 10.02 15.33
-12 -10 -5 -5.72 24.08
13 -10 5 -22.51 14.53
13 10 5 -8.69 15.78
14 -10 5 16.71 14.96
-14 -11 5 -6.12 26.65
13 11 -5 96.52 21.12
-13 -11 5 49.17 20
-13 11 5 88.7 17.92
-13 -11 5 22.87 24.5
-12 -11 5 87.96 20.01
-12 11 5 98.35 16.91
-12 -11 5 132.84 25.41
11 11 -5 88.23 16.33
-11 11 5 49.63 14.35
-11 -11 5 59.3 22.21
10 11 -5 59.16 17.35
-10 11 5 28.78 11.06
10 11 -5 49.52 14.11
-10 -11 5 23 17.68
9 11 -5 39.23 15.67
-9 11 5 56.16 11.06
9 11 -5 54.68 13.43
-9 -11 5 36.35 18.24
-8 -11 5 139.35 14.85
8 11 -5 142.51 15.87
-8 -11 5 135.41 21.2
-8 11 5 138.98 13.38
8 11 -5 158.35 20.03
-7 11 5 116.2 13.57
7 11 -5 119.32 14.28
-7 -11 5 103.54 19.27
-7 -11 5 153.99 14.01
7 11 -5 148.01 18.35
-6 11 5 22.27 9.47
6 11 -5 -8.05 8.99
6 11 -5 15.54 13.63
-6 -11 5 12.08 8.78
-5 11 5 11.58 7.79
-5 -11 5 16.1 8.78
5 11 -5 3.63 8.26
5 11 -5 9.12 9.25
5 -11 -5 10.53 6.86
5 11 -5 7.58 13.77
-5 -11 5 4 7.85
-4 11 5 7.26 7.53
-4 11 5 13.16 6.99
4 11 -5 13.96 9.06
-4 -11 5 6.31 7.19
4 11 -5 3.52 8.29
4 -11 -5 0.78 6.17
4 11 -5 17.62 13.38
-4 -11 5 8.93 8.22
-4 -11 5 -1.49 7.25
-4 11 5 8.6 7.89
3 11 -5 64.07 11.44
-3 -11 5 75.86 8.93
3 11 -5 68.76 9.47
-3 11 5 66.54 8.86
3 11 -5 58.45 13.54
-3 -11 5 78.03 9.89
-3 11 5 69.2 8.68
2 11 -5 273.06 16.58
-2 -11 5 252.53 15.53
2 11 -5 252.89 19.49
-2 11 5 253.1 16.3
2 11 -5 237.2 21.42
-2 11 5 261.41 17.72
-2 11 5 268.49 17.82
-2 -11 5 271.44 16.91
-2 11 5 241.88 14.99
1 -11 -5 241.41 13.73
1 -11 -5 220.3 12.27
-1 11 5 252.84 16.61
-1 11 5 222.91 14.98
1 -11 -5 269.83 15.93
-1 11 5 204.65 16.32
1 -11 -5 222.25 14.5
1 11 -5 258.82 16.14
0 -11 -5 204.03 11.38
0 11 -5 198.83 14.22
0 -11 5 184.89 15.69
0 11 5 180.44 15.05
0 11 5 175.12 15.11
0 -11 -5 177.93 12.98
-1 -11 -5 702.62 30.05
1 -11 5 716.22 35.57
-1 11 -5 678.02 33.79
1 -11 5 685.91 33.63
-1 11 -5 670.27 29.2
1 11 5 688.2 34.61
-1 -11 -5 678.79 32.96
-1 -11 -5 686.01 31.98
-1 -11 -5 689.43 32.87
2 -11 5 468.83 27.33
-2 -11 -5 456.11 20.43
2 -11 5 518.99 25.63
2 11 5 475.53 26.41
-2 -11 -5 445.61 24.57
-2 11 -5 492.44 26.12
-2 -11 -5 509.34 24.25
-2 11 -5 484.22 25.95
3 11 5 145.93 8.7
3 -11 5 132.39 12.31
3 11 5 142.92 13.89
-3 -11 -5 149.09 12.76
-3 -11 -5 132.02 15.71
-3 11 -5 139.48 13.48
-4 11 -5 269.32 18.42
4 11 5 250.29 12.16
4 11 5 235.77 18.31
-4 11 -5 243.69 17.05
-4 -11 -5 254.55 17.24
-4 -11 -5 202.33 20.58
4 11 5 225.02 18.32
-4 -11 -5 277.36 19.61
-5 -11 -5 434.42 25.99
-5 11 -5 370.32 22.81
-5 11 -5 369.7 24.55
5 11 5 357 16.69
-5 -11 -5 313.8 25.94
-6 11 -5 199.57 17.89
-6 11 -5 262.27 20.56
6 -11 5 241.95 17.44
6 11 5 247.5 19.53
-6 -11 -5 235.06 20.46
-6 -11 -5 234.52 23.46
7 -11 5 208.32 16.7
-7 11 -5 240.75 20.38
7 11 5 214.1 18.71
-7 -11 -5 213.06 23.69
-7 -11 -5 196.98 19.95
8 -11 5 217.12 17.81
8 11 5 235.77 20.05
-8 11 -5 208.73 21.1
-8 -11 -5 239.31 25.16
-8 -11 -5 271.53 22.41
-9 -11 -5 125.15 18.26
9 -11 5 79.45 13.32
-9 11 -5 124.18 18.66
9 11 5 113.34 16.37
-9 -11 -5 146.44 24.05
10 -11 5 55.98 13.36
-10 11 -5 56.34 16.79
10 11 5 52.75 15.05
-10 -11 -5 99.76 24.17
11 -11 5 3.75 11.95
11 11 5 24.41 15.57
-11 -11 -5 40.62 24.35
12 -11 5 11.81 13.38
12 11 5 -7.44 16.01
-12 -11 -5 -38.1 25.51
13 -11 5 6.92 14.69
13 11 5 -6.08 17.18
-14 12 5 16.69 15.61
-14 -12 5 18.84 27.15
-13 12 5 15.61 14.96
-13 12 5 50.5 16.84
-13 -12 5 2.94 24.24
-12 12 5 43.83 13.9
12 12 -5 32.12 17.71
-12 12 5 59.92 16.07
-12 -12 5 63.09 24.3
-11 12 5 195.19 18.01
-11 -12 5 204.85 27.44
-10 12 5 108.11 14.65
10 12 -5 120.98 17.14
-10 -12 5 129.17 24.11
10 12 -5 104.83 19.38
-9 12 5 115.89 13.97
9 12 -5 120.89 16.18
-9 -12 5 120.58 22.78
9 12 -5 153.57 20.6
8 12 -5 508.25 29.96
-8 12 5 459.4 26.37
-8 -12 5 478.9 34.43
8 12 -5 413.54 31.4
-8 -12 5 467.75 27.39
7 12 -5 278.73 22.13
7 12 -5 269.94 24.4
-7 -12 5 311.82 19.91
-7 12 5 282.77 19.52
6 12 -5 683.29 36.71
6 -12 -5 640.46 32.08
6 12 -5 708.79 39.75
-6 -12 5 672.73 33.59
-6 12 5 651.2 33.61
5 12 -5 573.73 34.05
5 12 -5 652.16 32.26
5 -12 -5 609.65 30.34
5 12 -5 546.19 36.49
-5 -12 5 637.75 30.97
-5 12 5 595.31 31.03
-5 -12 5 637.22 32.09
-4 12 5 570.57 29.85
4 12 -5 576.44 33.72
-4 -12 5 630.81 29.98
4 12 -5 620.89 31.42
4 -12 -5 595.98 30.1
4 12 -5 554.18 35.66
-4 12 5 618.21 30.49
-4 -12 5 635.05 31.53
-4 12 5 625.07 29.54
3 12 -5 873.91 44.15
-3 12 5 815.96 41.75
3 12 -5 799.85 45.95
-3 -12 5 897.64 39.92
-3 12 5 839.68 40.09
-3 -12 5 860.57 41.27
-3 12 5 909.85 39.48
3 12 -5 851.88 41.37
2 -12 -5 1091.19 48.4
2 12 -5 1063.1 49.83
-2 12 5 1124.79 50.95
-2 -12 5 1065.68 48.6
-2 12 5 1102.24 49.08
2 12 -5 1056.68 54.96
-2 12 5 1073.64 51.07
1 -12 -5 1444.37 62.17
1 12 -5 1511.48 64.55
-1 12 5 1453.65 65.1
-1 12 5 1438.25 63.32
-1 12 5 1484.05 65.87
1 -12 -5 1378.96 62.65
1 -12 -5 1440.98 61.21
0 -12 -5 789.92 35.87
0 12 -5 816.12 38.97
0 -12 5 854.58 40.93
0 12 5 804.2 39.93
0 -12 -5 803.81 37.67
-1 -12 -5 564.6 25.76
-1 12 -5 578.74 29.69
1 -12 5 584.98 31.5
-1 -12 -5 558.09 28.24
1 -12 5 628.19 30.01
1 12 5 565.35 30.49
-1 -12 -5 597.17 28.93
-1 12 -5 552.25 29.44
-1 -12 -5 579.92 27.35
2 -12 5 417.04 24.94
-2 -12 -5 394.88 18.16
2 -12 5 414.28 22.97
-2 12 -5 441.13 23.75
2 12 5 407.4 24.28
-2 -12 -5 408.04 22.13
-2 12 -5 415.75 23.42
-2 -12 -5 399.8 21.13
3 12 5 196.37 11.56
3 -12 5 220.87 15.35
-3 12 -5 177.43 15.52
3 12 5 197.51 16.44
-3 -12 -5 170.1 16.68
-3 -12 -5 196.63 14.73
-3 -12 -5 218.95 19.52
3 12 5 207.72 17.32
-4 12 -5 127.82 13.58
4 12 5 109.08 13.01
4 12 5 108.73 7.7
-4 -12 -5 103.54 16.95
-4 12 -5 113.17 11.98
-4 -12 -5 94.92 14.1
-4 -12 -5 102.15 12.01
4 12 5 110.71 14.34
5 12 5 28.44 11.69
-5 12 -5 19.2 10.22
5 12 5 17.24 4.55
-5 -12 -5 33.69 14.85
-5 -12 -5 15.31 11.23
-6 12 -5 1.12 10.47
6 -12 5 -1.04 8.81
-6 -12 -5 -4.44 11.44
6 12 5 -3.98 4.65
-6 12 -5 -4.19 11.32
-6 -12 -5 29.38 15.93
-7 -12 -5 -1.54 12.23
7 -12 5 4.33 9.28
7 12 5 -1.27 11.75
-7 12 -5 4.5 12.67
-7 -12 -5 33.89 17.36
8 -12 5 28.27 10.4
-8 12 -5 30.44 14.95
8 12 5 34.36 13.26
-8 -12 -5 48.7 15.14
-8 -12 -5 39.09 18.33
-9 -12 -5 22.14 15.12
9 -12 5 10.66 11.33
-9 12 -5 30.81 14.92
9 12 5 15.2 13.23
-9 -12 -5 11.82 19.36
10 -12 5 33.53 12.59
-10 12 -5 39.99 16.61
10 12 5 28.83 14.95
-10 -12 -5 10.26 22.37
11 -12 5 30.01 13.59
11 12 5 7.46 15.53
-11 -12 -5 44.46 24.91
12 -12 5 -9.6 14.36
12 12 5 -15.36 16
-12 -12 -5 9 25.46
13 -12 5 -1.44 15.08
13 12 5 1.58 17
-13 13 5 -5.88 14.7
-13 13 5 -11.01 15.33
-13 -13 5 6.05 26.05
12 13 -5 37.86 18.75
-12 13 5 46.98 14.54
-12 13 5 67.57 16.27
-12 -13 5 48.16 25.11
11 13 -5 45.23 19.82
-11 13 5 29.86 13.21
11 13 -5 40.62 16.62
-11 -13 5 31.84 22.02
-10 13 5 27.84 12.46
10 13 -5 51.2 14.98
10 13 -5 49.35 16.11
10 13 -5 37.18 17.47
-10 -13 5 4.97 20.71
-9 13 5 68.65 12.45
-9 -13 5 82.29 13.36
9 13 -5 63.75 14.82
-9 -13 5 44.37 19.29
9 13 -5 51.63 18.02
-8 -13 5 7.24 9.73
8 13 -5 -10.68 11.85
-8 13 5 15.88 10.33
-8 13 5 20.66 10.76
-8 -13 5 -2.18 16.85
8 13 -5 -3.68 15.01
-7 -13 5 23.52 10.32
-7 13 5 10.72 10.09
7 13 -5 3.02 10.92
-7 13 5 16.82 9.94
7 13 -5 1.81 15.33
-6 -13 5 6.02 8.75
-6 -13 5 3.1 9.28
-6 13 5 17 9.13
6 13 -5 5.92 10.03
6 13 -5 10.62 14.84
5 13 -5 12.99 10.64
5 13 -5 24.47 9.57
-5 13 5 7.53 8.67
5 13 -5 5.19 14.61
-5 -13 5 22.2 8.71
-5 -13 5 12.54 9.29
4 13 -5 75.71 13.44
4 13 -5 111.3 12.35
-4 13 5 107 10.63
4 13 -5 107.56 18.08
-4 13 5 107.66 9.97
-4 13 5 109.47 11.34
-4 -13 5 104.61 10.39
-4 -13 5 68.89 10.63
3 13 -5 11.25 9.65
3 -13 -5 9.12 7.48
-3 13 5 -0.99 8.01
-3 13 5 0.72 7.15
3 13 -5 4.58 8.21
-3 -13 5 3.35 6.76
3 13 -5 -21.38 15.13
-3 -13 5 6.17 8.05
-3 13 5 6.38 6.17
2 -13 -5 23.29 7.13
-2 13 5 20.34 7.72
2 13 -5 35.04 8.84
-2 13 5 26.79 9.44
2 13 -5 32.57 14.57
-2 -13 5 12.37 7.26
1 -13 -5 95.2 8.5
1 13 -5 118.46 12.02
1 -13 -5 100.44 9.49
-1 13 5 89.97 11.97
0 -13 -5 90.75 8.3
0 13 -5 94.99 11.47
0 13 5 77.39 11.3
0 -13 5 73.33 11.96
0 -13 -5 82.02 9.17
-1 13 -5 5.56 8.39
1 -13 5 1.87 7.11
1 -13 5 1.16 9.5
1 13 5 13.74 10.07
-1 -13 -5 -1.93 6.74
-1 -13 -5 -4.88 7.04
-1 -13 -5 -0.76 4.54
-1 13 -5 -6.98 7.89
-2 13 -5 69.85 10.97
-2 -13 -5 61.05 5.33
2 -13 5 44.11 11.36
2 -13 5 88.7 10.42
2 13 5 60.87 11.13
-2 -13 -5 55.22 9.14
-2 13 -5 61.95 9.8
-2 -13 -5 60.3 8.18
-3 13 -5 149.77 14.65
3 -13 5 153.73 13.52
3 13 5 135.66 14.54
3 13 5 137.97 10.25
-3 -13 -5 159.89 13.07
-3 -13 -5 139.68 11.61
3 13 5 176.68 16.21
-3 13 -5 139.36 13.52
-4 13 -5 88.89 12.45
4 13 5 68.25 7.25
4 13 5 51.06 12.3
-4 -13 -5 50.77 10.3
-4 -13 -5 93.37 17.02
-4 13 -5 110.74 11.62
4 13 5 95.49 13.83
-5 13 -5 150.61 15.74
-5 -13 -5 167.93 15.03
-5 -13 -5 120.69 19.58
5 13 5 150.93 16.66
5 13 5 136 9.36
6 13 5 132.33 9.43
-6 13 -5 141.69 16.17
-6 13 -5 184.39 17.84
-6 -13 -5 145.84 21.41
-7 -13 -5 67.74 15.89
7 -13 5 56.6 11.86
7 13 5 74.9 14.49
-7 13 -5 68.24 15.43
-7 -13 -5 51.98 18.02
8 -13 5 24.81 10.92
8 13 5 13.72 12.95
-8 13 -5 26.6 14.03
-8 -13 -5 49.48 19.68
-8 -13 -5 24.86 13.82
-9 -13 -5 34.74 15.79
9 -13 5 33.3 12.02
9 13 5 11.46 14.28
-9 13 -5 14.17 14.75
-9 -13 -5 -14.59 19.41
10 -13 5 3.88 12.09
10 13 5 11.93 14.93
-10 -13 -5 -5.27 21.9
11 -13 5 51.57 14.67
11 13 5 15.47 15.65
-11 -13 -5 -2.85 23.7
12 -13 5 17.09 14.77
12 13 5 15.92 16.93
-13 14 5 1.51 14.89
-13 -14 5 -9.35 26.93
12 14 -5 -12.24 18.8
-12 14 5 -7.14 14.53
-12 -14 5 11.7 24.03
11 14 -5 14.93 18.61
-11 14 5 26.98 13.66
-11 -14 5 24.74 22.61
11 14 -5 47.64 18.18
10 14 -5 57.26 15.89
-10 14 5 59.57 14.04
-10 -14 5 31.03 20.64
10 14 -5 38.99 19.83
9 14 -5 34.56 14.32
-9 -14 5 29.26 12.47
-9 14 5 28.31 11.5
-9 -14 5 41.2 20.68
9 14 -5 48.09 18.07
9 14 -5 45.3 14.21
8 14 -5 45.35 12.49
-8 14 5 48.72 12.15
8 14 -5 46.19 11.71
8 14 -5 44.79 13.8
-8 14 5 51.07 11.22
-8 -14 5 55.66 12.27
8 14 -5 33 16.82
-7 14 5 110.94 13.31
7 14 -5 74.38 14.76
-7 -14 5 109.39 12.82
-7 14 5 106.8 12.43
7 14 -5 101.15 19.59
6 14 -5 186.45 18.17
-6 -14 5 140.46 14.89
-6 -14 5 158.48 13.95
6 14 -5 174.31 21.75
-6 14 5 159.71 14.22
5 14 -5 151.64 16.2
-5 -14 5 150.61 12.73
-5 14 5 166.21 13.24
-5 -14 5 141.44 13.02
-5 14 5 157.49 13.71
5 14 -5 128.36 19.39
-5 -14 5 155.82 14.67
4 -14 -5 51.54 9.98
4 14 -5 67.81 12.95
4 14 -5 54.96 10.51
-4 -14 5 48.39 8.34
-4 14 5 70.74 11.29
4 14 -5 87.65 17.57
-4 14 5 52.63 9.25
-4 -14 5 31.49 9.84
-4 14 5 42.39 8.09
3 -14 -5 61.57 9.44
3 14 -5 73.92 13.33
3 14 -5 77.44 11.26
-3 14 5 66.61 11.57
-3 -14 5 70.84 9.36
3 14 -5 59.71 16.81
-3 14 5 76.11 9.86
-3 -14 5 103.91 11.55
-3 14 5 90.99 9.14
2 -14 -5 93.93 9.7
2 14 -5 97.1 11.57
-2 14 5 92.19 12.2
2 14 -5 95.94 18.03
-2 -14 5 90.47 9.78
-2 14 5 113.75 10.6
2 14 -5 96.89 7.06
1 -14 -5 0.61 6.55
1 14 -5 1.9 8.41
1 -14 -5 -1.09 6.44
-1 14 5 -10.58 10.02
0 -14 -5 124.36 9.54
0 -14 -5 102.71 10.14
0 14 -5 87.76 11.67
0 14 5 127.44 13.69
0 -14 5 134.76 14.38
1 -14 5 116.55 12.42
1 -14 5 149.13 15.1
1 14 5 141.56 14.66
-1 -14 -5 134.78 9.25
-1 14 -5 146.9 13.7
-1 -14 -5 113.75 11.15
-1 14 -5 149.87 12.79
2 -14 5 3.77 10.36
-2 -14 -5 -6.84 6.36
2 14 5 5.68 10
-2 -14 -5 1.83 4.26
2 -14 5 11.17 8.38
-2 -14 -5 4.83 7.79
2 14 5 2.63 11.01
-2 14 -5 -10.28 8.85
-2 14 -5 5.13 9.29
3 14 5 29.56 7.37
-3 14 -5 22.55 10.8
3 -14 5 19.42 11.29
3 -14 5 15.68 8.66
3 14 5 23.38 10.85
-3 14 -5 39.03 9.79
-3 -14 -5 21.36 7.37
-3 -14 -5 37.31 9.51
3 14 5 46.32 12.66
-4 14 -5 16.84 10.86
-4 14 -5 -0.87 8.15
4 14 5 6.99 6.35
4 14 5 -7.25 10.64
4 -14 5 -1.07 8.52
-4 -14 -5 27.61 15.4
4 14 5 -4.31 11.91
-4 -14 -5 5.85 9.2
-5 14 -5 54.27 12.41
5 14 5 21.01 6.37
-5 -14 -5 5.59 15.9
-5 14 -5 32.99 10.22
-5 -14 -5 13.87 10.04
5 14 5 -9 12.65
-6 14 -5 4.95 11.84
6 14 5 14.41 13.22
6 14 5 10.8 6.1
-6 -14 -5 62.3 18.74
7 -14 5 33.14 10.85
7 14 5 6.82 12.7
-7 14 -5 38.29 14.46
7 14 5 16.91 6.45
-7 -14 -5 30.28 18.85
8 14 5 4.27 13.29
-8 14 -5 39.42 15.1
8 -14 5 11.07 11.19
-8 -14 -5 32.7 21
9 -14 5 -6.41 11.64
9 14 5 -8.9 14.52
-9 14 -5 10.99 16.12
-9 -14 -5 17.59 21.15
10 -14 5 -1.34 13.24
10 14 5 -7.72 15.8
-10 -14 -5 -2.71 22.51
11 14 5 -3.2 16.44
11 -14 5 19.67 14.5
-11 -14 -5 55.39 27.01
12 -14 5 10.33 14.98
-13 15 5 64.14 17.84
-13 -15 5 89.71 28.44
-12 15 5 43.12 15.03
12 15 -5 40.61 18.43
-12 -15 5 93.67 28.13
12 -15 -5 38.1 16.95
11 15 -5 31.04 19.61
11 15 -5 81.94 19.47
11 -15 -5 81.4 17.39
-11 15 5 47.81 14.48
-11 -15 5 82.59 25.89
-10 -15 5 168.02 18.18
-10 15 5 157.61 17.9
10 15 -5 179.84 21.34
-10 -15 5 165.83 27.48
10 15 -5 188.9 24.39
9 15 -5 119.29 17.13
-9 -15 5 112.16 14.22
9 15 -5 93.35 14.21
-9 15 5 88.39 13.88
9 15 -5 110.87 17.75
9 15 -5 98.66 21.69
-9 15 5 102.72 15.3
-8 -15 5 43.9 11.77
-8 15 5 59.32 12.41
8 15 -5 43.17 12.36
8 15 -5 36.69 14.09
-8 15 5 44.03 11.89
8 15 -5 40.04 12.88
8 15 -5 22.48 18.39
7 15 -5 11.96 11.02
7 -15 -5 4.89 10.83
-7 -15 5 6.5 9.64
-7 15 5 0.97 9.83
7 15 -5 1.65 12.27
7 15 -5 -6.53 10.33
-7 -15 5 13.51 10.95
7 15 -5 -14.09 16.81
6 15 -5 -3.41 9.77
6 -15 -5 1.12 10.17
6 15 -5 8.11 12.54
-6 -15 5 10.42 10.14
6 15 -5 11.9 16.75
-6 -15 5 4.23 8.96
-6 15 5 9.9 9.25
5 15 -5 4.97 8.3
-5 15 5 2 7.99
5 15 -5 7.92 11.31
-5 15 5 14.02 8.23
-5 -15 5 21.22 8.38
5 -15 -5 -8.14 9.31
5 15 -5 -3.89 15.99
-5 15 5 -4.2 8.57
-5 -15 5 1.96 9.52
4 -15 -5 7.33 8.64
4 15 -5 4.74 11.29
4 15 -5 19.88 7.32
-4 15 5 23.21 10.63
-4 15 5 17.21 8.28
4 15 -5 17.08 15.67
4 15 -5 10.14 9.74
-4 -15 5 19.59 9.45
-4 -15 5 4.11 7.25
-4 15 5 21.42 7.35
3 -15 -5 115.5 11.26
-3 -15 5 100.57 10.53
3 15 -5 109.79 12.71
-3 15 5 119.33 13.63
3 15 -5 107.18 8.65
-3 15 5 126.59 11.63
3 15 -5 137.98 16.06
3 15 -5 114.05 19.78
-3 15 5 99.16 9.35
2 -15 -5 76.21 9.5
2 -15 -5 50.3 8.41
-2 15 5 50.97 11.55
2 15 -5 62.6 10.88
2 15 -5 57.7 17.2
-2 15 5 54.02 9.5
2 15 -5 69.34 5.69
-1 15 5 423.09 25.36
1 -15 -5 397.41 21.56
1 15 -5 421.78 24.38
1 -15 -5 401.66 21.66
1 15 -5 445.19 30.9
-1 -15 5 410.53 26.11
0 15 -5 106.57 12.65
0 -15 -5 87.72 9.44
0 -15 -5 102.71 9.3
0 15 5 102.99 13.14
0 -15 5 97.64 13.96
0 -15 -5 86.98 10.06
0 15 5 60.6 13.8
-1 15 -5 200.83 16.49
1 -15 5 201.23 18.14
-1 -15 -5 212.7 12.41
1 -15 5 199.52 15.92
1 15 5 193.49 17.1
1 15 5 259.88 19.95
-1 -15 -5 187.21 13.96
-1 15 -5 224.34 15.76
-2 -15 -5 264.83 17.15
-2 15 -5 269.56 19.91
2 -15 5 269.36 21.7
-2 -15 -5 274.57 14.63
2 -15 5 303.49 19.69
2 15 5 277.62 20.88
-2 -15 -5 323.31 18.28
2 15 5 327.38 22.89
-2 15 -5 327.75 19.76
-2 -15 -5 298.73 15.84
3 15 5 484.24 24.79
-3 15 -5 520.59 28.59
3 -15 5 487.01 29.65
-3 -15 -5 483.53 29.7
3 -15 5 484.97 27.69
3 15 5 501.49 29.25
-3 -15 -5 482.21 25.76
-3 15 -5 455.11 26.87
-3 -15 -5 473.15 24.16
3 15 5 526.71 30.98
4 -15 5 824.04 41.08
-4 15 -5 837.77 41.93
4 15 5 772.57 37.06
4 15 5 805.35 42.07
-4 15 -5 829.37 39.35
-4 -15 -5 800.41 39.12
4 15 5 866.64 44.35
5 15 5 449.26 22.76
5 15 5 449.9 28.74
-5 15 -5 449.17 25.75
-5 -15 -5 433.11 25.79
-5 -15 -5 504 34.55
-5 15 -5 455.19 28.11
5 15 5 488.72 30.85
-6 15 -5 243.72 20.64
6 15 5 209.72 13.76
-6 -15 -5 252.31 18.48
-6 -15 -5 252.18 27.01
6 15 5 256.71 22.67
7 -15 5 249.53 20.23
7 15 5 255.91 22.22
7 15 5 267.48 15.22
-7 -15 -5 270.45 28.58
8 -15 5 208.76 18.91
8 15 5 210.85 20.95
-8 15 -5 237.75 23.59
-8 -15 -5 200.61 27.85
9 15 5 92.19 17.61
9 -15 5 104.02 15.63
-9 -15 -5 83.04 24.03
10 -15 5 57.17 15.02
10 15 5 47.91 17.04
-10 -15 -5 33.46 24.62
11 -15 5 84.6 17.28
-11 -15 -5 80.9 28.21
-13 16 5 3.24 16.7
12 16 -5 14.91 13.8
-12 16 5 1.55 15.12
-12 -16 5 -12.46 24.85
11 -16 -5 88.55 17.28
11 16 -5 68.66 14.26
-11 16 5 57.3 16.06
-11 -16 5 73.33 25.88
11 16 -5 78.31 22.65
10 16 -5 57.71 13.86
10 16 -5 53.91 17.34
-10 16 5 69.4 14.41
-10 16 5 77.6 15.82
10 -16 -5 73.67 16.7
10 16 -5 62.91 20.84
9 16 -5 23.4 13.77
9 -16 -5 71.83 15.6
9 16 -5 80.79 13.47
-9 16 5 59 14.34
-9 16 5 37.86 12.55
9 16 -5 46.13 20.65
8 16 -5 154.72 16.96
-8 -16 5 130.05 15.02
-8 16 5 157.28 15.74
8 -16 -5 170.15 18.18
8 16 -5 135.05 15.85
8 16 -5 159.88 19.76
8 16 -5 154.71 23.55
7 -16 -5 209.89 18.37
7 16 -5 201.22 17.84
7 16 -5 222.14 21.87
7 16 -5 176.19 17.01
-7 -16 5 182.61 15.98
-7 16 5 204.78 16.85
-7 -16 5 229.71 18.43
7 16 -5 182.2 24.92
6 -16 -5 249.94 19.7
6 16 -5 241.98 22.32
6 16 -5 237.23 19.3
-6 -16 5 264.7 17.79
-6 -16 5 277.36 17.79
6 16 -5 290.33 27.56
-6 16 5 263.73 18.07
-6 -16 5 269.09 19.42
6 16 -5 257.36 18.43
5 16 -5 267.84 22.38
5 -16 -5 245.22 18.42
-5 16 5 254.87 16.85
-5 16 5 281.34 17.88
-5 -16 5 263.41 18.76
-5 16 5 224.47 15.58
5 16 -5 256.61 26.19
-5 -16 5 242.94 16.3
5 16 -5 258.28 16.59
-4 16 5 127.01 12.07
4 -16 -5 101.28 12.23
4 16 -5 106.38 16.24
-4 16 5 105.27 13.7
-4 -16 5 110.23 10.89
-4 16 5 127.61 10.52
4 16 -5 116.45 20.64
-4 -16 5 148.58 13.64
4 16 -5 109.58 10.38
3 16 -5 175.57 19.36
3 16 -5 225.41 17.3
-3 -16 5 188.14 13.71
-3 16 5 200.81 17.02
-3 16 5 242.29 14.92
3 -16 -5 188.85 15.16
-3 16 5 204.08 20.16
3 16 -5 162.8 23.34
3 16 -5 195.37 11.86
2 -16 -5 199.41 13.69
2 16 -5 215.84 17.06
-2 16 5 200 17.39
2 -16 -5 185.68 14.37
2 16 -5 239.78 24.9
-2 16 5 203.93 19.86
1 -16 -5 38.8 8.55
1 -16 -5 34.3 8.54
-1 16 5 41.71 11.2
-1 -16 5 24.21 11.5
1 16 -5 47.7 17.86
-1 16 5 51.96 13.31
1 16 -5 26.08 10.16
0 16 -5 95.19 12.93
0 -16 -5 82.98 9.03
0 16 5 82.95 13.69
0 -16 5 65.09 13.34
0 -16 -5 75.8 10.19
0 16 5 107.6 15.8
-1 16 -5 280.93 20.26
1 -16 5 229.74 21.21
-1 -16 -5 291.71 15.6
1 -16 5 286.15 19.29
1 16 5 311.22 21.48
1 16 5 304.91 22.89
-1 -16 -5 269.68 16.68
-1 16 -5 281.29 18.51
-2 16 -5 173.07 16.29
-2 -16 -5 131.14 9.46
2 -16 5 157.16 14.62
2 16 5 157.4 16.2
-2 -16 -5 149.64 12.1
2 -16 5 151.19 16.57
-2 16 -5 152.74 13.73
-2 -16 -5 122.47 11.55
2 16 5 137.54 17.24
-3 -16 -5 -5.51 11.63
-3 16 -5 -4.74 11.3
3 -16 5 14.21 11.33
3 -16 5 -4.62 9.29
-3 -16 -5 6.53 8.29
3 16 5 -6.36 11.35
-3 16 -5 18.15 9.69
3 16 5 18.59 12.62
-3 -16 -5 2.63 7.01
-4 16 -5 12.33 11.92
4 16 5 12.32 7.93
4 -16 5 1.19 9.98
-4 16 -5 -6.78 8.78
4 16 5 15.73 12.56
-4 -16 -5 7.27 9.56
-4 16 -5 9.79 9.95
-4 -16 -5 -0.63 7.64
-4 -16 -5 1.47 12.34
4 16 5 -1.6 13.34
-5 16 -5 33.65 12.93
-5 -16 -5 15.22 10.15
5 16 5 18.94 7.27
5 16 5 12.2 12.73
-5 -16 -5 26.57 16.94
5 16 5 30.05 15.07
-5 16 -5 6.66 9.6
-5 -16 -5 7.74 12.84
-6 -16 -5 8.09 13.3
-6 16 -5 25.71 13.47
6 16 5 15.4 6.8
-6 -16 -5 2.2 18.14
-6 -16 -5 8.03 11.52
6 16 5 -1.74 13.58
-7 -16 -5 -13.48 14.18
7 16 5 14.65 14.13
-7 -16 -5 -18.77 20.42
-8 -16 -5 29.95 16.27
8 -16 5 22.68 12.83
8 16 5 -12.21 14.41
-8 -16 -5 -2.51 20.78
9 -16 5 -1.38 12.86
9 16 5 -3.18 14.92
-9 -16 -5 2.68 22.91
10 -16 5 2.89 13.92
-10 -16 -5 -17.2 24.22
11 -16 5 28.67 16.07
-12 17 5 3.22 16.25
-12 -17 5 -22.37 27.32
11 -17 -5 -1.7 15.82
11 17 -5 2.46 13.03
-11 17 5 -15.99 13.94
-11 17 5 4.59 16.08
10 17 -5 9.61 12.19
-10 17 5 7.43 12.35
-10 17 5 -1.43 14.25
10 -17 -5 -1.6 14.41
10 17 -5 9.41 20.11
9 -17 -5 -3 13.51
-9 17 5 -3.43 11.61
9 17 -5 9.44 11.78
9 17 -5 9.16 18.43
-8 -17 5 8.5 12.46
8 -17 -5 27.87 13.25
-8 17 5 34.67 11.56
8 17 -5 2.33 11.75
8 17 -5 10.87 16.19
8 17 -5 15.82 19.61
-7 17 5 -2.9 9.85
7 -17 -5 11.61 12.36
7 17 -5 -17.93 15.27
7 17 -5 -6.88 11.69
-7 -17 5 23.54 11.46
7 17 -5 -11.17 19.45
6 -17 -5 13 10.8
6 17 -5 26.43 15.09
6 17 -5 16.84 11.02
-6 17 5 31.34 9.91
-6 -17 5 2.45 9.23
6 17 -5 24.18 19.23
-6 -17 5 40.96 11.88
-6 -17 5 29.45 9.16
-6 17 5 24.21 10.22
5 17 -5 26.08 14.69
-5 -17 5 7.81 7.96
-5 17 5 -1.11 10.83
5 -17 -5 6.46 10.9
-5 17 5 10.15 8.89
5 17 -5 -4.33 17.33
-5 -17 5 -4.95 9.94
-5 17 5 3.7 7.52
5 17 -5 -2.74 8.34
4 -17 -5 46.06 11.05
4 17 -5 71.31 15.32
-4 -17 5 56.05 9.44
-4 17 5 30.79 11.94
4 17 -5 31.82 18.23
-4 -17 5 47.1 10.66
-4 17 5 36.67 9.4
-4 17 5 56.57 8.24
-3 17 5 5.58 7.82
3 17 -5 -1.7 12.33
3 -17 -5 4.45 8.61
3 17 -5 -6.56 10.29
-3 17 5 -2.32 10.47
-3 17 5 3.22 13.9
3 17 -5 -2.1 16.84
2 -17 -5 4.02 7.96
2 -17 -5 0.72 7.64
2 17 -5 11.98 10.41
-2 17 5 16.66 10.77
2 17 -5 -8.4 17.34
-2 17 5 26.69 13.52
1 -17 -5 27.8 8.21
1 17 -5 13.14 10.44
-1 17 5 20.64 11.57
-1 -17 5 41.22 12.72
1 17 -5 25.37 17.82
1 -17 -5 16.95 8.6
-1 17 5 26.43 13.71
0 17 -5 23.37 10.48
0 -17 -5 10.58 7.14
0 17 5 23.56 11.97
0 -17 5 11.42 11.97
0 -17 -5 17.96 8.8
0 17 5 -9.37 13.11
-1 17 -5 -0.9 8.53
-1 17 -5 2.3 10.31
-1 -17 -5 13.3 7.11
-1 -17 -5 1.58 6.37
1 -17 5 6.87 9.41
1 17 5 -6.33 11.8
1 17 5 6.34 13.02
1 -17 5 18.59 11.8
2 -17 5 24.73 9.99
-2 17 -5 43 12.02
2 -17 5 26.19 12.26
-2 -17 -5 22.52 6.16
2 17 5 27.15 12.78
2 17 5 53.3 14.42
-2 -17 -5 37.61 8.18
-2 17 -5 33.97 9.68
-3 17 -5 32.32 12.56
3 -17 5 37.53 11.16
3 -17 5 38.62 13.34
3 17 5 25.19 12.67
-3 17 -5 23.25 10.41
-3 -17 -5 30.78 9.25
3 17 5 54.38 15.33
-3 -17 -5 67.91 14.27
4 17 5 32.1 16
4 -17 5 -9.94 10.77
4 17 5 15 12.25
-4 17 -5 -6.63 9
-4 17 -5 1.09 10.21
-4 17 -5 -3.88 12.08
-4 -17 -5 0.78 8.62
-4 -17 -5 19.54 12.85
-5 17 -5 -27.03 13.15
-5 17 -5 -8.41 10.21
5 -17 5 -1.27 10.96
5 17 5 -9.86 13.43
-5 -17 -5 -19.01 13.65
5 17 5 -1.76 14.21
-6 17 -5 -2.82 12.73
-6 -17 -5 11.42 19.29
-6 17 -5 -2.08 10.32
-6 -17 -5 3.3 14.03
6 17 5 30.91 16.79
-7 -17 -5 -3.44 15.1
7 17 5 -16.71 15
-7 -17 -5 -21.99 20.97
7 17 5 -11.49 17.21
-8 -17 -5 17.96 16.36
8 -17 5 -1.39 12.38
8 17 5 15.81 14.55
-8 -17 -5 -2.6 22.04
9 -17 5 2.87 13.69
-9 -17 -5 -22.15 25.06
10 -17 5 -11.96 14.38
-10 -17 -5 -17.72 26.73
-12 18 5 29.99 16.8
-12 18 5 21.64 17.67
11 -18 -5 34.84 17.47
-11 18 5 17.29 16.32
-11 18 5 27.97 14.36
10 -18 -5 50.82 16.55
-10 18 5 38.31 13.55
10 18 -5 22.07 13.13
9 -18 -5 130.17 17.86
-9 18 5 113.82 15.43
9 18 -5 142.34 17.15
9 18 -5 119.66 24.87
-8 -18 5 126.56 16.33
-8 18 5 164.26 16.01
8 -18 -5 155.19 18.56
8 18 -5 152.31 16.68
8 18 -5 146.61 24.54
7 -18 -5 123.63 16.46
7 18 -5 107.98 19.24
7 18 -5 143.81 15.87
-7 18 5 116.99 14.21
7 18 -5 170.99 25.8
-7 -18 5 110.94 14.6
6 -18 -5 289.2 22.38
6 18 -5 311.63 26.41
6 18 -5 331.07 22.57
-6 18 5 296.23 19.7
-6 18 5 321.98 20.91
-6 -18 5 372.82 22.18
-6 18 5 310.45 18.72
6 18 -5 265.66 28.87
5 18 -5 491.56 32.43
5 18 -5 458.34 27.68
-5 18 5 509.15 28.39
5 -18 -5 481.32 27.74
5 18 -5 429.89 35.57
-5 18 5 448.46 25.08
-5 -18 5 454.83 26.54
-5 18 5 440.25 23.34
4 18 -5 182.84 21.09
4 -18 -5 174.74 15.98
-4 18 5 162.84 16.77
-4 18 5 195.44 14.5
4 18 -5 161.06 24.03
3 18 -5 39.06 15.03
3 -18 -5 15.71 9.15
-3 18 5 19.42 11.47
-3 18 5 17.25 14.61
3 18 -5 22.24 19.46
-3 18 5 34.18 8.46
2 -18 -5 61.9 10.51
2 -18 -5 68.59 10.72
2 18 -5 74.05 12.73
-2 18 5 70.91 13.06
2 18 -5 62.27 20.3
-2 18 5 52.26 15.79
1 -18 -5 212.73 14.79
1 18 -5 173.3 17
-1 -18 5 193.26 19.32
1 18 -5 251.4 26.79
1 -18 -5 192.98 15.24
-1 18 5 206.94 21.8
-1 18 5 209.69 19.35
0 18 -5 291.72 20.86
0 -18 -5 259.69 16.67
0 -18 5 253.34 21.69
0 -18 -5 283.91 18.51
0 18 5 284.08 21.56
0 18 5 292.8 23.91
1 -18 5 199.74 20.22
-1 -18 -5 207.42 13.73
1 -18 5 230.47 18.05
1 18 5 237.63 19.94
-1 -18 -5 237.23 14.15
-1 18 -5 228.96 19.26
1 18 5 201.36 21.14
-2 -18 -5 81.89 10.08
-2 18 -5 102.78 15.2
2 -18 5 114.32 16.71
2 -18 5 90.11 13.12
2 18 5 87.58 15.08
2 18 5 94.37 17.5
-2 -18 -5 87.19 15.05
-2 18 -5 113.21 12.02
-3 18 -5 15.62 12.11
3 -18 5 -1.55 13.12
3 -18 5 26.59 10.46
3 18 5 31.74 13.55
-3 -18 -5 13.11 12.84
3 18 5 6.98 14.59
-3 18 -5 12.11 9.46
-4 18 -5 -1.35 12.31
4 -18 5 20.8 11.57
-4 -18 -5 3.08 13.23
4 18 5 11.34 12.3
-4 18 -5 7.13 8.75
-4 18 -5 7.62 9.92
4 18 5 1.78 14.87
-5 18 -5 35.36 13.68
5 -18 5 -3.98 11.63
-5 18 -5 9.09 8.96
5 18 5 -5.85 12.32
-5 18 -5 21.2 11.7
5 18 5 16.63 15.92
-5 -18 -5 4.87 13.71
-6 -18 -5 21.86 15.63
6 18 5 1.9 16.12
-6 18 -5 3.06 10.42
7 18 5 -3.97 17.27
-7 -18 -5 14.05 15.52
7 18 5 -1.57 15.04
-7 -18 -5 -2.53 21.02
-7 18 -5 1.12 11.55
-8 -18 -5 1.83 16.34
-8 -18 -5 16.17 24.23
8 -18 5 36 14.03
9 -18 5 -1.49 13.82
-9 -18 -5 -28.58 25.78
-10 -18 -5 27.37 26.11
-12 19 5 88.5 18.15
-11 19 5 67.73 16.25
10 -19 -5 43.41 16.53
-10 19 5 30.71 13.89
10 19 -5 25.02 13.74
9 -19 -5 34.37 15.45
-9 19 5 46.33 13.01
9 19 -5 35.61 13.04
9 19 -5 34.92 22.77
-8 19 5 21.87 12.27
8 -19 -5 1.46 14.18
8 19 -5 21.8 13.02
8 19 -5 42.03 21.92
7 -19 -5 -12.16 12.92
7 19 -5 32.83 16.51
7 19 -5 -1.2 12.1
-7 19 5 27.22 10.88
7 19 -5 14.71 20.39
-7 19 5 11.5 10.66
6 19 -5 3.81 15.19
6 19 -5 20.32 11.97
-6 19 5 -0.64 8.23
-6 19 5 29.62 10.14
6 19 -5 -2.42 19.13
6 -19 -5 6.23 11.4
5 -19 -5 -4.59 11.25
5 19 -5 17.02 15.41
5 19 -5 16.69 11.57
-5 19 5 -4.84 12.51
5 19 -5 35.84 20.8
-5 -19 5 10.87 10.37
-5 19 5 1.06 7.07
-5 19 5 2.33 8.88
-4 19 5 33.45 9.94
4 19 -5 39.68 15.67
4 -19 -5 33.59 11.12
-4 19 5 48.12 13.58
4 19 -5 56.55 20.65
3 19 -5 118.75 19.02
3 -19 -5 126.77 14.09
-3 19 5 147.36 16.13
-3 19 5 93.97 19.53
3 19 -5 107.86 23.01
2 -19 -5 166.88 14.4
2 -19 -5 187.78 14.87
-2 19 5 140.46 16.75
2 19 -5 148.92 17.1
2 19 -5 185.53 26.2
-2 19 5 194.44 21.15
1 19 -5 103.48 15.06
1 -19 -5 129.53 12.14
1 -19 -5 111.39 12.6
-1 19 5 120.93 16.04
-1 -19 5 86.7 15.52
1 19 -5 125.73 24.43
-1 19 5 117.68 18.89
0 19 -5 66.52 13.72
0 -19 5 64.45 14.56
0 -19 -5 68.96 9.85
0 19 5 52.8 13.95
0 -19 -5 73.54 11.91
0 19 5 57.12 16.74
-1 19 -5 183.09 18.42
1 -19 5 201.16 17.57
1 -19 5 185.56 19.93
1 19 5 173.58 18.88
-1 19 -5 223.13 13.66
1 19 5 199.58 22.06
2 -19 5 283.82 24.03
2 -19 5 312.77 22.53
2 19 5 279.31 23.38
2 19 5 295.03 26.03
-2 19 -5 340.84 20.59
-2 19 -5 325.37 23.71
-2 -19 -5 334.89 24.05
3 19 5 95.25 12.34
-3 19 -5 103.22 16.24
3 -19 5 116.59 17.49
3 -19 5 96.67 14.55
3 19 5 94.8 16.04
3 19 5 162.08 20.23
-3 19 -5 109.08 13.29
-3 -19 -5 119.83 17.3
-4 19 -5 101.73 16.49
-4 19 -5 98.96 11.29
4 -19 5 115.34 15.06
4 19 5 95.78 16.47
-4 -19 -5 158.24 18.86
-4 19 -5 85.32 13.07
4 19 5 112.26 19.09
-5 19 -5 173.93 19.27
5 -19 5 113.85 15.97
5 19 5 115.49 17.79
-5 19 -5 123.22 13.12
-5 19 -5 87 14.17
-5 -19 -5 152.47 19.79
5 19 5 88.79 18.99
-6 -19 -5 95.89 18.4
-6 19 -5 114.69 13.85
6 19 5 87.35 20.08
7 19 5 150.24 23.52
-7 -19 -5 87.73 18.69
-7 19 -5 118.32 15.47
-8 -19 -5 169.27 23.03
8 -19 5 128.63 18.36
-8 -19 -5 133.26 28.74
-9 -19 -5 82.77 27.58
-11 20 5 -3.97 15.08
10 -20 -5 3.41 16.8
-10 20 5 12.19 13.57
-9 20 5 11.22 12.51
9 -20 -5 4.82 15.02
9 20 -5 33.81 14.62
8 -20 -5 17.95 14.57
-8 20 5 32.05 12.24
8 20 -5 17.42 13.05
8 20 -5 7.73 21.88
-7 20 5 3.56 8.91
7 -20 -5 22.19 13.26
7 20 -5 18.59 12.4
-7 20 5 3.49 10.2
-7 20 5 0.95 11.09
7 20 -5 10.23 20.41
6 20 -5 -1.98 16.17
6 20 -5 17.31 12.44
-6 20 5 18.81 10.38
-6 20 5 1.19 7.87
6 -20 -5 8.97 12.28
6 20 -5 -17.74 21.5
5 20 -5 19.61 15.26
-5 20 5 3.78 12.83
5 20 -5 28.51 12.81
5 -20 -5 28.3 11.9
-5 20 5 18.99 9.77
5 20 -5 97.69 23.37
4 20 -5 76.64 18.72
4 -20 -5 77.02 12.99
4 20 -5 96.54 15.11
-4 20 5 120.99 15.97
-4 20 5 90.05 20.67
4 20 -5 96.65 23.45
-4 20 5 83.69 10.89
3 20 -5 44.47 16.07
3 -20 -5 69.4 11.82
-3 20 5 34.52 13.61
3 20 -5 29.67 20.65
-3 20 5 39.09 17.79
2 -20 -5 -9.94 9.68
2 -20 -5 10.86 9.97
-2 20 5 1.36 12.76
2 20 -5 -7.43 20.68
-2 20 5 -1.92 17.05
1 20 -5 17.67 12.24
1 -20 -5 29.66 9.6
1 -20 -5 51.85 10.97
-1 20 5 31.93 14.07
-1 -20 5 19.86 13.93
1 20 -5 37.51 21.73
-1 20 5 34.17 17.11
0 20 -5 72.45 13.94
0 -20 -5 88.73 10.98
0 -20 5 41.13 14.79
0 -20 -5 71.82 12.5
0 20 5 87.66 15.5
0 20 5 83.58 18.51
-1 20 -5 1.33 12.52
1 -20 5 -6.58 13.41
1 20 5 -5.74 13.11
1 20 5 17.16 15.47
-2 20 -5 5.64 9.69
-2 20 -5 1.37 12.42
2 -20 5 -1.67 12.33
2 -20 5 1.35 10.96
-2 -20 -5 -4.36 12.78
2 20 5 2.92 12.24
2 20 5 26.95 16.57
3 20 5 50.4 11.47
3 -20 5 49 15.82
3 -20 5 51.2 13.49
3 20 5 34.31 13.69
3 20 5 50.49 17.51
-3 20 -5 62.52 12
-3 20 -5 36.77 13.9
-3 -20 -5 52.34 15.45
-4 20 -5 42.78 15.5
4 20 5 76.59 11.83
-4 -20 -5 118.01 17.93
4 -20 5 69.38 14.67
4 20 5 53.59 15.24
-4 20 -5 58.37 10.14
-4 20 -5 84.71 12.94
4 20 5 66.98 18.57
-5 -20 -5 40.44 15.91
-5 20 -5 19.95 14.22
5 20 5 15.72 9.16
5 -20 5 23.14 12.66
5 20 5 12.62 14.34
-5 20 -5 5.82 9.12
-5 20 -5 16.31 11.74
5 20 5 10.09 18.28
6 20 5 6.21 17.88
6 -20 5 30.9 13.54
-6 20 -5 0.96 10.37
6 20 5 4.78 8.72
-6 20 -5 3.8 12.47
-6 -20 -5 24.43 16.27
-7 -20 -5 41.89 18.18
7 20 5 2.13 17.74
7 20 5 9.64 8.73
-7 20 -5 2.16 11.57
-8 -20 -5 -7.57 18.3
-8 20 -5 -11.83 13.2
-9 -20 -5 -45.49 28.23
-10 21 5 -9.66 13.33
9 -21 -5 26.22 16.87
-9 21 5 18.93 12.81
8 -21 -5 21.41 15.79
8 21 -5 19.2 13.83
-8 21 5 27.01 11.45
-8 21 5 26.5 12.61
7 -21 -5 31.25 14.8
7 21 -5 25.57 13.92
-7 21 5 7.77 10.54
7 21 -5 2.67 22.54
-7 21 5 3.29 9.07
6 -21 -5 -6.57 12.81
6 21 -5 12.84 13.2
6 21 -5 -8.17 17.26
6 21 -5 7.94 23.63
-6 21 5 -3.65 7.65
-6 21 5 0.8 9.66
5 -21 -5 8.5 11.78
5 21 -5 8.17 16
5 21 -5 9.01 12.67
-5 21 5 9.31 9.41
-5 21 5 2.63 12.63
5 21 -5 28.88 22.27
4 21 -5 -4.08 16.63
4 -21 -5 8.93 11.53
4 21 -5 -3.85 12.38
-4 21 5 2.69 12.91
-4 21 5 2.12 18.88
4 21 -5 -15.6 20.83
3 21 -5 16.1 16.47
3 -21 -5 10.23 10.52
-3 21 5 12.49 13.47
-3 21 5 2.07 18.12
3 21 -5 -10.39 21.09
2 -21 -5 29.22 10.57
-2 21 5 5.68 13.04
-2 -21 5 20.8 14.61
2 21 -5 36.46 22.44
-2 21 5 12.2 17.46
1 -21 -5 38.1 10.75
-1 21 5 42.01 14.52
-1 -21 5 26 14.77
1 21 -5 42.05 22.93
-1 21 5 24.17 18.41
0 21 -5 21.73 13.24
0 -21 5 29.2 14.85
0 21 5 67.66 15.57
0 21 -5 29.19 21.57
0 21 5 16.09 16.37
-1 21 -5 30.63 13.79
1 -21 5 25.78 14.7
-1 -21 -5 4.26 13.08
1 21 5 4.48 13.88
1 21 5 10.08 16.58
-2 21 -5 61.59 15.26
-2 21 -5 55.85 8.62
2 -21 5 60.86 16.09
2 -21 5 73.3 14.58
-2 -21 -5 29.76 14.25
2 21 5 56.2 14.72
2 21 5 32.49 17.75
-3 21 -5 39.24 11.08
3 21 5 64.13 13.35
-3 21 -5 87.04 16.69
3 -21 5 36.97 15.71
-3 -21 -5 40.88 16.02
3 -21 5 74.99 14.76
3 21 5 58.89 15.63
3 21 5 61.3 19.3
-4 21 -5 52.2 15.79
4 -21 5 39.81 13.36
-4 21 -5 45.35 11.88
4 21 5 14.31 14.86
4 21 5 41.32 18.96
4 21 5 47.96 11.9
-4 -21 -5 44.51 16.03
-5 -21 -5 49.62 17.51
-5 21 -5 24.11 9.85
5 -21 5 54.25 14.56
-5 21 -5 66.47 13.31
5 21 5 35.83 19.1
5 21 5 62.14 11.28
-6 -21 -5 65.75 18.9
6 -21 5 47.61 14.9
6 21 5 50.77 11.15
-6 21 -5 48.78 11.88
-6 21 -5 47.7 14.25
6 21 5 56.04 20.88
-7 -21 -5 33.28 18.47
-7 21 -5 34.49 12.83
7 21 5 46.63 10.01
-7 21 -5 42.17 15.03
-8 21 -5 27.78 13.33
-9 22 5 53.63 13.04
-9 22 5 52.58 14.82
-8 22 5 105.24 12.72
8 -22 -5 126.57 19.4
-8 22 5 146.01 15.19
-8 22 5 118.27 15.17
7 22 -5 165.63 18.54
7 -22 -5 149.69 18.88
-7 22 5 162.51 15.24
-7 22 5 151.64 13.1
6 22 -5 237.15 20.71
6 -22 -5 211.68 20.48
-6 22 5 197.27 16.28
5 -22 -5 172.96 18.19
5 22 -5 195.34 19.51
-5 22 5 199.29 14.56
5 22 -5 192.31 29.49
4 -22 -5 251.22 19.89
4 22 -5 258.73 27.17
4 22 -5 252.33 21.57
-4 22 5 266.45 22.45
-4 22 5 226.85 28.42
4 22 -5 223.67 31.08
3 22 -5 358.28 31.14
3 22 -5 409.73 26.9
3 -22 -5 388.97 24.32
-3 22 5 383.7 27.53
-3 22 5 352.88 32.72
3 22 -5 387.34 37.79
2 -22 -5 301.41 20.26
-2 -22 5 279.63 26.23
-2 22 5 303.71 24.46
2 22 -5 238.24 32.47
-2 22 5 270.96 28.97
-1 22 5 170.61 19.67
-1 -22 5 173.86 21.62
1 22 -5 179.57 28.84
-1 22 5 153.19 24.34
0 22 -5 191.74 20.26
0 -22 5 193.75 22.12
0 22 5 200.65 20.41
0 22 -5 209.54 29.73
0 22 5 202.26 25.75
-1 22 -5 206.59 20.57
1 -22 5 181.01 21.97
1 22 5 197.31 20.59
-1 -22 -5 175.59 19.63
1 22 5 183.15 24.59
-2 22 -5 76.41 17.18
2 -22 5 52.58 17.26
2 -22 5 99.77 15.92
2 22 5 78.93 16.09
2 22 5 104.7 21.63
-2 -22 -5 79.34 16.42
-3 22 -5 50.57 11.6
3 22 5 54.41 13.15
3 -22 5 54.98 17.79
3 -22 5 49.57 14.54
3 22 5 32.17 18.85
-3 -22 -5 61.01 16.8
4 22 5 41.45 12.44
4 -22 5 73.67 15.61
4 22 5 17.28 18.74
-4 22 -5 33.15 11.95
-4 -22 -5 26.88 16.93
5 22 5 21.16 10.95
5 -22 5 25.06 14.56
-5 -22 -5 6.94 16.23
-5 22 -5 20.54 9.06
-5 22 -5 -2.26 11.91
5 22 5 -17.59 19.97
-6 -22 -5 16.26 17.98
6 -22 5 -1.6 14.62
6 22 5 6.47 9.58
6 22 5 -9.03 21.31
-6 22 -5 4.92 13.88
-6 22 -5 0.85 9.55
-7 -22 -5 -18.74 18.6
-7 22 -5 -5.98 11.12
-7 22 -5 8.09 14
8 -23 -5 -6.39 16.71
7 -23 -5 10.41 15.44
-7 23 5 -6.48 10.6
6 -23 -5 1.38 14.27
-6 23 5 -3.49 9.86
5 23 -5 13.76 13.86
5 -23 -5 19.14 13.46
-5 23 5 -9.66 21.64
4 -23 -5 1.18 11.68
4 23 -5 1.39 13.53
-4 23 5 -20.46 15.41
-4 23 5 11.81 20.87
3 23 -5 25.21 14.44
3 -23 -5 3.3 11.09
-3 23 5 -15.09 15.23
-3 23 5 36.96 21.05
3 23 -5 11.44 24.73
2 23 -5 -4.27 13.53
-2 23 5 -3.09 14.92
-2 -23 5 1.9 16.25
2 23 -5 -17.21 24.61
-2 23 5 -9.08 19.91
-1 23 5 40.87 15.57
-1 -23 5 41.59 17.43
1 23 -5 72.44 25.75
-1 23 5 38.18 20.2
0 -23 5 58.02 17.56
0 23 5 43.02 15.94
0 23 -5 49.86 24.86
0 23 5 53.9 21.68
1 -23 5 9.34 16.05
1 23 5 32.28 15.63
1 23 5 -13.44 20.01
-1 -23 -5 50.16 15.74
2 -23 5 9.45 16.22
2 -23 5 7.63 13.49
-2 -23 -5 7.79 15.21
2 23 5 17.96 19.69
3 23 5 15.11 12.51
3 -23 5 32.39 16.78
-3 23 -5 10.1 7.32
3 -23 5 32.84 13.58
3 23 5 29.22 21.02
-3 -23 -5 1.63 16.03
-4 23 -5 44.58 12.26
4 23 5 22.06 11.43
4 -23 5 81.48 16.43
-4 -23 -5 66.36 18.43
4 23 5 24.9 21.43
-5 -23 -5 49.14 18.54
5 23 5 45.11 12.68
-5 23 -5 43.5 9.98
5 23 5 18.32 20.45
-5 23 -5 48.31 12.95
-6 -23 -5 38.42 18.04
-6 23 -5 19.26 14.4
-7 -23 -5 43.6 19.4
-7 23 -5 38.32 14.99
7 -24 -5 18.17 15.87
6 -24 -5 -12.65 13.91
5 -24 -5 18.29 14.51
-5 24 5 33.04 25.1
-4 24 5 -7.44 22.59
-3 24 5 -9.43 15.69
-3 24 5 19.42 21.66
-2 24 5 38.54 16.99
-2 -24 5 19.87 17.91
-2 24 5 47.9 22.51
-1 24 5 -11.44 16.22
-1 -24 5 1.97 16.82
-1 24 5 2.36 20.05
0 -24 5 -11.68 16.32
0 -24 -5 -2.88 14.2
1 -24 5 3.89 16.25
-1 -24 -5 -13.54 15.27
2 -24 5 -7.87 16.62
-2 -24 -5 3.16 15.66
2 -24 5 23.8 14.6
2 24 5 2.36 22.24
3 24 5 -6.67 12.99
3 -24 5 3.96 17.17
3 -24 5 -16.25 15.44
3 24 5 -14.11 22.2
-3 -24 -5 13.25 16.57
-4 24 -5 13.89 10.75
-4 -24 -5 15.42 16.67
4 24 5 -6.16 12.53
4 24 5 -16.53 21.94
-5 -24 -5 -1.78 17.64
-5 24 -5 10.66 11.85
-6 -24 -5 -9.24 18.84
6 -25 -5 7.19 15.23
-5 25 5 -13.33 24.7
-4 25 5 18.19 23.61
-3 25 5 -5.09 23.2
-2 -25 5 8.28 18.02
-2 25 5 -10.05 23.19
-1 -25 5 38.82 19.29
0 -25 5 40.56 19.32
0 -25 -5 68.47 16.65
0 25 5 44.62 25.04
-1 -25 -5 119.5 19.62
1 25 5 96.28 25.7
2 25 5 37.03 24.25
-2 -25 -5 89.83 19.04
3 25 5 60.7 16.21
-3 -25 -5 43.63 18.93
-4 -25 -5 72.35 18.62
-5 -25 -5 125.57 21.28
-6 -25 -5 115.29 23.97
-4 26 5 81.5 27.9
-3 26 5 109.28 29.93
-2 26 5 86.85 27.21
1 -26 -5 42.51 16.35
-1 26 5 39.1 24.27
0 26 5 23.34 23.84
0 -26 -5 54.63 17.39
-1 -26 -5 63.46 17.87
-2 -26 -5 21.03 17.08
-3 -26 -5 25.14 17.88
-4 -26 -5 -20.8 18.2
-5 -26 -5 19.82 18.69
2 -27 -5 1.38 15.2
1 -27 -5 -19.93 16.35
0 -27 -5 -8.96 16.15
-1 -27 -5 -3.12 16.03
-2 -27 -5 8.15 17.52
-3 -27 -5 6.7 19.25
-4 -27 -5 20.87 19.03
1 -28 -5 4.31 15.55
0 -28 -5 10.48 16.45
-1 -28 -5 1.56 17.56
-2 -28 -5 25.85 18.38
-3 -28 -5 6.67 18.74
-4 -28 -5 29.52 20.34
-16 0 6 5.32 23.48
-15 0 6 2.44 21.77
-14 0 6 60.13 19.04
-14 0 6 28.95 20.64
-13 0 6 42.3 17.11
-13 0 6 97.14 21.81
-12 0 6 315.26 25.56
-12 0 6 247.44 25.65
-11 0 6 187.31 20.76
-11 0 6 269 23.49
-10 0 6 77.02 13.93
-10 0 6 20.42 13.07
-9 0 6 134.14 15.39
-9 0 6 135.75 16.32
-8 0 6 853.94 42.64
-8 0 6 807.87 41.62
-7 0 6 313.38 21.32
7 0 -6 324.36 19.59
-7 0 6 295.55 19.91
-7 0 6 300.64 20.09
6 0 -6 447.6 23.44
-6 0 6 402.85 22.93
-6 0 6 420.33 24.05
5 0 -6 1371.65 60.3
-5 0 6 1370.64 59.41
-5 0 6 1341.63 61.28
4 0 -6 951.01 43.07
-4 0 6 942.02 44.56
-4 0 6 955.78 44.67
3 0 -6 862.93 40.67
-3 0 6 881.13 42.02
-3 0 6 985.58 42.94
-2 0 6 1249.91 55.12
2 0 -6 1240.35 54.09
-2 0 6 1285.22 56.35
-2 0 6 1216.81 56.27
1 0 -6 577.86 27.58
-1 0 6 682.94 27.09
-1 0 6 586.28 30.3
1 0 -6 580.53 25.79
0 0 6 444.39 23.89
0 0 -6 449.04 21.05
-1 0 -6 459.44 20.74
-1 0 -6 424.61 21.06
-2 0 -6 502.13 22.99
-2 0 -6 514.61 24.41
-2 0 -6 509.39 23.56
-2 0 -6 507.87 26.36
-3 0 -6 484.99 23.2
-3 0 -6 443.2 21.32
-3 0 -6 435.05 24.15
-4 0 -6 358.41 17.45
-4 0 -6 324.79 19.64
-4 0 -6 342.39 21.01
-5 0 -6 59.45 8.79
-5 0 -6 68.74 10.9
6 0 6 4.76 5.36
-6 0 -6 11.51 9.31
-6 0 -6 19.18 7.75
-7 0 -6 22.01 10.61
7 0 6 35.95 6.51
-7 0 -6 54.69 9.14
-7 0 -6 60.84 6.97
-8 0 -6 29.89 11.45
-8 0 -6 6.8 7.74
-8 0 -6 11.47 6.14
-9 0 -6 29.94 15.27
-10 0 -6 42.95 17.33
-11 0 -6 64.81 20.36
11 0 6 46.32 8.27
12 0 6 48.63 9.28
-12 0 -6 59.53 22.42
13 0 6 40.57 9.58
-13 0 -6 60.46 24.33
-16 -1 6 54.42 25.14
-16 1 6 2.6 24.38
-15 -1 6 22.55 21.61
-15 1 6 45.2 22.14
-14 1 6 6.11 16.91
-14 -1 6 46.31 18.96
-14 -1 6 55.16 22.12
-14 1 6 23.85 19.66
-13 -1 6 23.57 16.55
-13 1 6 60.51 17.19
-13 -1 6 41.92 19.86
-13 1 6 43.15 18.98
-12 -1 6 36.36 14.63
-12 1 6 40.12 15.09
-12 -1 6 53.09 18.06
-12 1 6 74.16 17.87
-11 -1 6 15.16 13.67
-11 1 6 22.49 13.31
-11 -1 6 -15.4 15.74
-11 1 6 -9.46 15.06
-10 -1 6 12.4 12.1
-10 1 6 -1.47 10.91
-10 -1 6 25.97 14.47
-10 1 6 2.79 13.08
-9 -1 6 11.36 11.19
-9 1 6 1.35 10.77
-9 -1 6 29.67 13.05
-9 1 6 4.87 11.32
-8 -1 6 9.07 10.24
-8 1 6 1.23 9.39
8 1 -6 -1.02 8.21
-8 -1 6 5.88 10.92
-8 1 6 7.35 10.34
-7 -1 6 51.76 11.15
-7 -1 6 39.73 10.02
-7 1 6 57.21 10.05
7 1 -6 42.1 9.07
-7 -1 6 38.3 10.41
-7 1 6 44 9.81
-6 -1 6 31.34 9.11
-6 1 6 40.04 9.44
6 1 -6 15.41 7.26
-6 -1 6 49.41 9.74
-6 1 6 36.52 8.27
-5 -1 6 28.71 8.7
-5 1 6 43.2 8.57
5 1 -6 23.21 7.45
5 -1 -6 29.41 7.61
-5 -1 6 15.78 7.69
-5 1 6 30.07 6.95
-4 1 6 66.17 9.65
4 1 -6 56.34 8.52
-4 -1 6 67.91 9.64
-4 1 6 64.7 6.11
4 -1 -6 56.91 7.99
-4 -1 6 58.88 9.41
-4 1 6 49.45 8.95
-3 -1 6 489.85 25.17
-3 1 6 524.95 25.52
3 1 -6 484.77 24.36
3 -1 -6 473.56 23.34
-3 1 6 469.85 24.6
-3 -1 6 443 25.28
-3 1 6 508.41 25.82
3 1 -6 460.74 21.31
-2 1 6 225.74 13.95
-2 1 6 228.11 10.83
2 1 -6 195.98 13.18
-2 -1 6 202.34 14.16
2 -1 -6 246.16 12.93
-2 -1 6 191.33 14.56
-2 1 6 217.84 14.98
2 1 -6 205.81 11.06
-2 -1 6 223.58 15.49
-2 1 6 209.21 15.04
-1 1 6 243.21 14.85
-1 -1 6 290.33 14.18
1 1 -6 273.12 15.04
1 -1 -6 256.83 13.85
-1 -1 6 290.94 17.25
-1 1 6 275.19 17.01
0 -1 -6 391.18 18.31
0 1 -6 386.33 19.52
0 -1 6 418.63 22.23
0 1 6 379.38 21.69
0 -1 -6 392.04 17.63
-1 1 -6 131.13 8.9
-1 -1 -6 139.69 8.3
-1 -1 -6 130.03 7.37
-1 1 -6 123.33 8.85
-1 -1 -6 115.94 8.23
-1 -1 -6 116.28 10.53
-2 1 -6 154.43 10.27
-2 -1 -6 167.12 8.79
-2 -1 -6 172.87 10.75
-2 1 -6 169.85 11.55
-2 1 -6 183.33 10.82
-2 -1 -6 169.45 12.62
-2 -1 -6 178.68 9.85
-3 -1 -6 163.51 9.5
-3 1 -6 149.33 12.38
-3 -1 -6 160.03 12.46
-3 1 -6 178.66 10.66
-3 1 -6 150.81 11.95
-3 -1 -6 162.27 8.56
-4 -1 -6 235.19 12.19
-4 1 -6 215.02 15
-4 1 -6 198.54 14.62
-4 1 -6 241.41 13.33
-4 -1 -6 243.43 15.59
-4 -1 -6 253.09 16.92
-4 1 -6 189.42 15.68
5 -1 6 262.75 14.49
-5 1 -6 265.18 16.61
-5 1 -6 245.27 14.55
-5 -1 -6 255.73 16.56
-5 -1 -6 262.02 12.53
-5 -1 -6 279.28 19.46
-5 1 -6 247.9 18.3
-6 1 -6 69.56 11.79
6 -1 6 70.1 7.28
-6 -1 -6 67.44 6.09
-6 1 -6 65.25 9.4
-6 -1 -6 60.75 9.23
-6 -1 -6 19.14 10.45
-7 -1 -6 66.9 12.59
-7 1 -6 37.85 10.89
7 1 6 38.43 6.06
-7 1 -6 25.73 8.28
-7 -1 -6 41.27 6.16
-7 -1 -6 38.98 8.86
-7 -1 -6 40.58 12.76
-8 -1 -6 143.7 18.3
-8 -1 -6 135.52 16.04
8 1 6 119.33 9.45
-8 -1 -6 138.78 10.36
-8 1 -6 132.39 10.57
-8 1 -6 121.96 11.75
9 1 6 107.7 8.81
-9 1 -6 111.38 10.99
-9 -1 -6 90.24 18.55
10 -1 6 49.59 8.27
-10 -1 -6 59.1 17.52
-11 1 -6 21.57 18.26
11 -1 6 26.73 8.34
-11 -1 -6 48.12 19.28
12 1 6 21.01 7.65
12 -1 6 23.39 8.3
-12 -1 -6 24.18 21.22
-12 1 -6 11.87 20.53
-13 -1 -6 18.67 24.3
13 -1 6 2.99 8.85
-13 1 -6 36.5 22.95
-16 -2 6 13.89 24.27
-16 2 6 -7.65 23.77
-15 -2 6 2.56 22.33
-15 2 6 -9.3 21.86
-14 -2 6 -6.41 17.83
-14 2 6 -2.01 16.69
-14 -2 6 18.9 21.38
-14 2 6 -10.53 20
-13 -2 6 -1.99 16.51
-13 2 6 1.85 14.85
-13 -2 6 12.98 19.18
-13 2 6 -11.43 16.95
-12 -2 6 62.98 16.66
-12 2 6 35.89 15.07
-12 -2 6 59.06 18.46
-12 2 6 49.58 16.85
-11 2 6 57.89 15.75
-11 -2 6 53.18 15.38
-11 2 6 62.89 14.6
-11 -2 6 51.56 17.14
-10 2 6 1.44 11.12
-10 2 6 18.79 12.64
-10 -2 6 12.63 11.99
-10 -2 6 33.4 15.11
-9 2 6 5.83 10.65
-9 -2 6 11.61 12.31
-9 2 6 -1.32 10.33
9 2 -6 9.13 8.36
-9 -2 6 5.67 12.16
-8 2 6 186.78 16.65
-8 -2 6 206.9 17.88
-8 -2 6 194.15 17.81
-8 2 6 168.12 15.48
8 2 -6 188.2 15.34
-7 -2 6 85.56 12.37
-7 -2 6 81.45 11.83
-7 2 6 71.84 11.39
7 2 -6 84.27 10.81
-7 -2 6 93.6 12.78
-7 2 6 90.8 10.89
-6 -2 6 96.87 11.65
-6 2 6 105.22 11.83
-6 -2 6 121.46 12.98
6 2 -6 86.22 10.81
-6 -2 6 87.55 11.2
-6 2 6 97.46 10.21
-5 2 6 99.31 11.11
-5 -2 6 103.28 11.2
5 2 -6 103.37 10.76
-5 2 6 96.95 8.44
-5 -2 6 83.6 10.22
4 2 -6 428.62 22.47
-4 2 6 418.51 18.98
-4 -2 6 382.74 22.94
-4 2 6 415.91 23.11
-4 -2 6 397.38 23.17
-4 2 6 413.1 23.25
4 2 -6 436.44 20.47
-3 2 6 396.65 20.7
-3 2 6 341.01 19.46
-3 -2 6 338.48 20.01
3 2 -6 360.47 19.69
3 -2 -6 372.97 18.51
3 2 -6 348.42 17.62
-3 -2 6 321.45 20.64
-3 2 6 373.55 20.96
-2 2 6 228.93 9.72
2 2 -6 202.21 13.86
2 -2 -6 179.18 11.58
2 2 -6 192.09 11.88
-2 -2 6 207.83 14.5
-2 2 6 213.79 14.6
-2 -2 6 216.26 15
-2 2 6 201.58 14.85
-2 2 6 196.86 12.85
1 -2 -6 33.09 7.32
-1 2 6 32.41 6.04
-1 -2 6 29.08 8.32
-1 2 6 31.73 8
-1 -2 6 29.95 6.19
1 2 -6 34.54 7.15
1 -2 -6 34.01 4.76
0 2 -6 38.53 6.39
0 2 -6 39.22 6.33
0 -2 -6 52.16 4.63
0 2 6 44.31 8.39
0 -2 -6 44.24 4.55
0 -2 -6 50.43 8.45
-1 2 -6 114.82 9.22
-1 -2 -6 105.14 7.28
-1 2 -6 104.09 8.77
-1 -2 -6 113.9 7.49
-1 -2 -6 129.53 6.24
-1 -2 -6 109.65 10.86
-1 -2 -6 100.71 7.91
-2 -2 -6 -5.69 5.74
-2 -2 -6 7.29 4.15
-2 -2 -6 -9.67 5.96
-2 2 -6 1.81 5.69
-2 2 -6 2.99 5.05
-2 -2 -6 -0.88 6.87
-2 -2 -6 8.04 3.58
-3 -2 -6 3.93 3.55
-3 2 -6 2.54 5.31
-3 2 -6 3.45 6.89
-3 -2 -6 4.05 6.65
-3 -2 -6 0.73 6.47
-4 -2 -6 -0.91 3.53
-4 2 -6 12.31 5.93
-4 2 -6 17.3 8.32
-4 -2 -6 -9.85 8.81
-4 2 -6 2.36 7.33
-4 2 -6 -11.26 7.47
-4 -2 -6 -5.63 7.05
-4 -2 -6 -8.51 8.71
-5 2 -6 28.91 8.84
-5 2 -6 23.29 7.56
-5 -2 -6 5.32 9.35
-5 -2 -6 12.69 3.2
-5 -2 -6 26.32 8.01
-5 2 -6 13.58 6.44
-5 2 -6 18.87 8.95
-5 -2 -6 18.42 9.71
-6 -2 -6 18.49 4.47
-6 2 -6 21.12 7.93
-6 -2 -6 37.43 8.8
-6 2 -6 22.27 9.68
-6 -2 -6 30.91 11.56
-6 -2 -6 33.4 10.93
-7 -2 -6 46.91 13.04
-7 2 -6 39.91 10.85
-7 -2 -6 50.96 13.76
-7 2 -6 34.65 8.5
-7 -2 -6 27.82 9.05
-7 -2 -6 31.12 5.8
-8 -2 -6 30.44 12.67
8 2 6 27.51 5.71
-8 -2 -6 33.6 7.11
-8 2 -6 42.03 8.7
-8 -2 -6 16.03 14.01
9 -2 6 -12.36 6.93
9 2 6 10.94 5.61
-9 -2 -6 12.6 14.79
-9 2 -6 -1.42 7.52
10 -2 6 7.6 7.08
10 2 6 16.5 6.19
-10 -2 -6 14.04 17.97
11 -2 6 4.4 7.96
-11 -2 -6 8.94 18.28
-12 2 -6 -4.76 19.54
-12 -2 -6 -4.92 20.8
12 -2 6 16.29 9.17
13 -2 6 10.62 9.76
-13 -2 -6 -16.15 23.95
-16 -3 6 39.84 28.41
-16 3 6 14.98 23.66
-15 -3 6 44.8 24.03
-15 3 6 63.7 22.93
-14 -3 6 71.65 20.4
14 -3 -6 90.19 10.83
-14 3 6 122.39 20.37
-14 -3 6 68.01 22.47
-14 3 6 57.79 21.5
-13 -3 6 154.2 21.46
-13 3 6 147.97 20.29
-13 -3 6 104.84 23.17
-13 3 6 109.92 21.03
-12 -3 6 139.43 19.83
-12 3 6 97.45 17.02
-12 3 6 85.25 18.84
-12 -3 6 105.74 20.79
-11 -3 6 113.45 17.45
-11 3 6 90.94 15.02
-11 3 6 118.91 17.68
-11 -3 6 101.45 19.33
-10 -3 6 114.21 15.72
-10 3 6 96.06 14.53
10 3 -6 56.62 11.92
-10 -3 6 106.48 18.19
-10 3 6 94.02 15.55
-9 -3 6 45.89 13.21
-9 3 6 67.77 12.78
-9 3 6 42.53 12.03
9 3 -6 74.61 11.59
-9 -3 6 72.73 15.88
-8 -3 6 29.76 11.98
8 3 -6 35.81 9.67
-8 -3 6 32.85 12.47
-8 3 6 31.59 10.16
-7 -3 6 40.82 10.94
-7 -3 6 27.55 9.57
-7 3 6 28.83 9.51
-7 3 6 26.04 8.08
7 3 -6 27.12 8.97
-7 -3 6 17.14 10.47
-6 -3 6 14.26 8.07
-6 -3 6 37.35 10.17
-6 3 6 10.56 8.24
6 3 -6 23.34 8.79
-6 -3 6 17.61 9.38
-6 3 6 18.58 6.88
-5 3 6 108.68 11.45
5 3 -6 101.72 9.79
5 3 -6 91.32 10.83
-5 -3 6 122.47 11.74
-5 -3 6 131.36 11.81
-5 3 6 101.43 8.6
-4 3 6 131.51 11.33
4 3 -6 123.21 11.52
-4 -3 6 111.74 11.21
-4 3 6 111.24 7.49
-4 -3 6 131.82 12.2
-4 3 6 143.25 12.17
4 3 -6 138.98 10.33
-4 -3 6 121.09 11.92
-4 3 6 129.37 11.87
-3 3 6 194.64 12.82
3 3 -6 205.89 13.88
3 3 -6 176.65 12.19
-3 -3 6 233.11 15.34
-3 3 6 191.18 14.14
-3 -3 6 161.74 13.27
-3 3 6 189.06 14.1
-2 3 6 859.12 38.38
2 3 -6 821.99 39.66
2 3 -6 837.28 38.44
-2 -3 6 878.07 40.4
-2 3 6 854.42 40.38
-2 -3 6 844.66 40.82
-2 3 6 889.24 40.65
-1 3 6 1000.22 44.67
1 3 -6 1071.47 46.65
-1 -3 6 999.82 47.32
-1 3 6 996.43 47.35
-1 -3 6 1081.94 45.67
1 -3 -6 1040.33 47.18
0 3 -6 471.79 24.21
0 -3 6 522.22 24.24
0 3 -6 500.08 23.73
0 3 6 483.38 25.56
0 -3 -6 460.25 21.26
0 -3 -6 504.41 25.61
-1 3 -6 1233.1 53.93
-1 -3 -6 1209.52 51.43
-1 3 -6 1266.98 53.52
-1 -3 -6 1204.92 52.65
-1 -3 -6 1263.71 55.58
-2 3 -6 822.47 36.33
-2 3 -6 783.28 37.04
-2 -3 -6 790.49 34.15
-2 -3 -6 826.97 38.07
-2 -3 -6 802.63 38.45
-2 -3 -6 754.58 37.98
-2 -3 -6 801.6 36.51
-3 -3 -6 338.15 16.15
-3 3 -6 366.28 18.78
-3 3 -6 330.54 19.54
-3 -3 -6 354.65 20.06
-3 3 -6 352.52 21.17
-3 -3 -6 377.1 21.4
-3 -3 -6 360.46 20.36
-3 3 -6 392.64 20.9
-4 3 -6 736.64 34.85
-4 -3 -6 700.08 38.05
-4 3 -6 807.77 37
-4 -3 -6 754.01 36.31
-4 3 -6 790.53 37.16
-4 -3 -6 743.96 37.38
-5 3 -6 467.82 24.37
-5 3 -6 477.95 26.75
-5 3 -6 446.29 25.23
-5 -3 -6 529.12 26.17
-5 -3 -6 529.96 28.33
-5 -3 -6 475.33 28.43
-5 3 -6 503.22 27.07
-6 3 -6 483.5 26.13
-6 -3 -6 490.14 28.13
-6 3 -6 447.18 23.78
-6 -3 -6 478.41 24.58
-6 -3 -6 402.47 19.57
-6 -3 -6 487.47 28.06
-6 3 -6 443.36 25.51
-7 -3 -6 283.18 22.68
-7 -3 -6 304.11 15.64
-7 3 -6 327.94 18.58
-7 -3 -6 313.52 19.48
-7 -3 -6 285.48 23.62
-7 3 -6 348.76 21.71
-8 -3 -6 168.22 18.41
-8 -3 -6 154.39 11.42
8 -3 6 174.06 12.78
-8 3 -6 171.79 12.93
-8 -3 -6 225.82 21.73
9 -3 6 93.07 10.04
9 3 6 78.11 6.94
-9 -3 -6 103.79 19.5
10 -3 6 57.17 9.32
10 3 6 60.55 6.74
-10 -3 -6 47.32 18.52
11 -3 6 66.06 10.32
11 3 6 59.59 7.3
-11 -3 -6 43.11 20.33
12 -3 6 40.35 10.83
-12 -3 -6 57.35 21.78
13 -3 6 4.42 10.33
-13 -3 -6 -2.73 24.6
-16 4 6 7.37 22.75
-15 -4 6 -8.11 24.82
-15 4 6 -31.29 21.7
-14 -4 6 28.57 19.49
-14 4 6 17.6 15.81
-14 -4 6 15.02 22.66
-14 4 6 -2.03 19.28
-13 4 6 51.29 17.78
-13 -4 6 38.98 17.53
-13 4 6 23.45 15.49
-13 -4 6 41.45 20.11
-12 -4 6 59.25 17.09
12 -4 -6 33.28 8.44
-12 4 6 59.59 14.67
-12 -4 6 54.71 19.69
-12 4 6 34.37 16.33
-11 -4 6 356.2 26.85
-11 4 6 319.67 24.53
11 4 -6 319.77 23.18
-11 -4 6 310.49 28.4
-11 4 6 310.76 24.72
-10 4 6 260.93 21.08
-10 -4 6 271.9 23.31
10 4 -6 268.22 20.13
-10 -4 6 253.13 24.46
-10 4 6 263.21 20.83
-9 -4 6 182.3 17.87
9 4 -6 165.6 15.17
-9 4 6 151.69 16.05
-9 -4 6 176.02 19.11
-9 4 6 148.63 15.16
-8 -4 6 278.51 21.97
8 4 -6 303.42 20.25
-8 -4 6 306.63 20.45
-8 -4 6 254.53 21.77
-8 4 6 287.87 18.94
-7 -4 6 375.57 24.31
7 4 -6 372.9 22.89
-7 -4 6 389.13 24.83
-7 -4 6 347.99 22.76
-7 4 6 350.2 22.71
-7 4 6 407.06 21.55
-6 -4 6 766.71 39.22
6 4 -6 766.49 37.8
-6 -4 6 761.98 38.54
-6 -4 6 749.13 37.48
-6 4 6 760.28 37.8
-6 4 6 722.67 34.92
6 4 -6 806.03 37.05
5 4 -6 1795.66 79.17
-5 -4 6 1810.12 79.2
-5 -4 6 1856.82 79.36
-5 4 6 1865 79.43
5 4 -6 1702.81 77.85
-5 4 6 1855.27 75.83
-5 -4 6 1705.22 80.14
4 4 -6 714.95 34.56
-4 4 6 660.7 32.91
-4 -4 6 702.17 34.46
-4 4 6 736.36 34.84
4 4 -6 690.66 33.3
-4 4 6 688.87 29.87
-4 4 6 727.79 34.16
-4 -4 6 685.75 34.71
-4 -4 6 684.71 33.91
3 4 -6 390.07 21.45
-3 4 6 384.12 20.13
3 4 -6 361.91 20.46
-3 -4 6 393.8 22.07
-3 -4 6 387.07 21.34
-3 4 6 342.72 20.97
-2 4 6 440.31 21.16
2 4 -6 440.05 22.87
2 4 -6 430.01 22.29
-2 -4 6 430.07 23.13
-2 4 6 361.48 22.72
-2 -4 6 432.37 23.87
2 -4 -6 426.34 23.08
1 4 -6 222.71 15.21
-1 4 6 223.6 12.5
-1 -4 6 204.76 13.8
1 4 -6 226.99 13.74
-1 -4 6 221.67 15.12
-1 4 6 234.47 15.39
1 -4 -6 205.14 14.71
0 4 6 447.86 20.66
0 4 -6 459.2 23.96
0 -4 -6 476.23 24.45
0 -4 6 490.62 23.51
0 4 -6 461.48 22.97
0 -4 -6 436.39 20.56
0 -4 -6 483.26 25.06
0 -4 -6 470.93 24.58
-1 -4 -6 831.25 34.98
-1 4 -6 818.74 37.46
-1 -4 -6 772.62 36.77
-1 4 -6 828.64 39.13
-1 -4 -6 832.35 39.31
-1 -4 -6 873.37 39.64
-2 -4 -6 278.88 12.91
-2 -4 -6 249.15 16.32
-2 4 -6 301.06 17.82
-2 -4 -6 251.43 17.1
-2 -4 -6 254.02 15.83
-2 -4 -6 274.99 17.58
-2 4 -6 271.97 15.59
-3 -4 -6 2.79 7.77
-3 4 -6 0.94 6.74
-3 -4 -6 1.86 2.65
-3 4 -6 6.7 6.47
-3 4 -6 9.1 7.35
-3 4 -6 -13.41 8
-3 -4 -6 3.3 6.27
-3 -4 -6 -1.62 7.93
-4 4 -6 16.09 6.79
-4 4 -6 3.49 8.07
-4 -4 -6 1.14 8.74
-4 -4 -6 17.34 7.09
-4 -4 -6 4.05 8.25
-4 -4 -6 4.85 8.99
-4 4 -6 5 7.32
-5 4 -6 9.99 8.52
-5 4 -6 -5.43 7.16
-5 4 -6 -9.67 9.32
-5 4 -6 -10.35 7.82
-5 -4 -6 4.29 7.73
-5 -4 -6 -11.42 10.23
-5 -4 -6 -22.14 10.71
-6 4 -6 19.6 10.16
-6 4 -6 36 11.44
-6 4 -6 17.31 8.06
-6 -4 -6 19.05 8.77
-6 -4 -6 7.91 11.71
-6 -4 -6 23.68 12.17
-7 -4 -6 37.42 13
-7 -4 -6 35.23 5.77
-7 4 -6 32.04 11.48
-7 4 -6 41.35 8.62
7 -4 6 30.48 7.61
-7 -4 -6 49.63 14.23
-8 -4 -6 11.73 13.31
8 -4 6 5.84 7.24
-8 4 -6 -1.32 7.02
-8 -4 -6 -22.01 15.22
-9 -4 -6 18.55 13.9
9 -4 6 3.85 7.54
-9 -4 -6 15.13 16.04
10 -4 6 21.92 8.6
10 4 6 19.96 4.67
-10 -4 -6 29.35 17.1
11 4 6 19.04 5.33
11 -4 6 31.68 10.25
-11 -4 -6 16.19 19.63
12 4 6 9.5 5.69
12 -4 6 33.39 10.97
-12 -4 -6 38.08 22.35
13 -4 6 13.26 10.86
-16 5 6 -9.71 23.19
-15 -5 6 5.55 24.33
-15 5 6 6.64 20.88
-14 -5 6 15.64 18.51
-14 5 6 9.7 16.27
-14 -5 6 7.72 22.72
-14 5 6 2.01 18.19
-13 -5 6 4.18 16.94
-13 5 6 1.79 14.86
-13 -5 6 -7.12 20.75
-13 5 6 10.77 16.56
-12 -5 6 7.78 16.17
-12 5 6 4.8 14.61
-12 5 6 -3.29 13.24
-12 -5 6 -6.54 18.48
-11 -5 6 82.91 16.37
-11 5 6 25.34 12.82
-11 5 6 36.4 13.42
11 5 -6 18.22 11.6
-11 -5 6 35.83 17.64
-10 -5 6 13.34 13.66
-10 5 6 18.04 11.88
10 5 -6 11.83 10.14
-10 -5 6 46.99 17.28
-10 5 6 8.63 12.05
-9 -5 6 6.16 11.46
-9 5 6 12.78 10.21
9 5 -6 4.92 9.34
-9 -5 6 1.63 14.37
-8 5 6 3.62 8.9
-8 -5 6 -4.29 11.95
-8 -5 6 15.48 10.63
-8 5 6 8.97 10.01
8 5 -6 11.62 8.2
-8 -5 6 -1.46 13.04
-7 -5 6 21.33 10.48
-7 -5 6 25.67 9.29
7 5 -6 16.91 10.12
-7 5 6 33.32 10.19
7 5 -6 7.67 8.93
-7 -5 6 9.08 11.24
-6 -5 6 2.49 9.63
-6 -5 6 -7.65 8.32
-6 5 6 3.88 8.53
6 5 -6 -7.19 8.41
6 5 -6 5.44 8.4
-6 -5 6 -2.29 10.48
-5 5 6 0.92 8.16
-5 -5 6 12.88 8.4
-5 -5 6 -1.16 9.47
5 5 -6 2.91 7.44
-5 5 6 -5.69 7.5
5 5 -6 -10.16 8.73
-5 -5 6 1.81 7.86
-4 -5 6 21.74 8.1
4 5 -6 36.14 9.14
-4 5 6 45.2 8.53
-4 5 6 34.75 7.83
-4 -5 6 35.02 8.01
-4 -5 6 27.02 8.08
4 5 -6 29.31 8.73
-4 5 6 41.45 9.14
3 5 -6 17.64 7.89
-3 5 6 17.51 6.55
-3 -5 6 13.55 7.33
3 5 -6 7.92 8.07
-3 -5 6 11.11 7.31
-3 5 6 14.6 6.72
2 -5 -6 18.35 7.15
2 5 -6 12.51 7.9
-2 5 6 23.76 5.71
2 5 -6 10.12 7.8
-2 -5 6 8.02 7.01
-2 -5 6 22.75 8.18
-2 5 6 17.19 7.29
-1 -5 6 20.93 7.63
1 5 -6 1.62 7.54
-1 5 6 6.58 7.48
1 5 -6 1.95 5.91
-1 5 6 6.64 4.59
-1 -5 6 13.91 7.01
1 -5 -6 16.46 7.28
0 5 6 54.9 5.21
0 5 -6 49.98 9.47
0 5 -6 57.96 7.91
0 -5 6 65.03 8.47
0 -5 -6 75.84 9.15
0 -5 -6 68.6 9.26
0 -5 -6 51.07 8.79
-1 5 -6 21.08 7.22
-1 -5 -6 -2.48 7.34
-1 5 -6 4.3 6.24
-1 -5 -6 18.08 6.47
-1 -5 -6 2.43 7.39
-2 5 -6 15.8 6.86
-2 -5 -6 13.17 3.17
-2 5 -6 12.15 7.36
-2 -5 -6 25.96 6.82
-2 -5 -6 29.74 8.41
-2 -5 -6 7.59 7.55
-2 -5 -6 14.38 7.49
-3 -5 -6 165.47 7.94
-3 5 -6 202.47 12.95
-3 5 -6 169.07 13.98
-3 -5 -6 178.2 13.02
-3 5 -6 184.05 14.12
-3 -5 -6 206.26 15.3
-3 -5 -6 176.76 14.12
-3 5 -6 189.79 13.02
-4 5 -6 159.05 12.15
-4 5 -6 164.09 14.08
-4 -5 -6 175.54 15.23
-4 5 -6 164.45 13.04
-4 -5 -6 158.98 12.77
-4 -5 -6 137.19 13.99
-4 -5 -6 153.6 14.56
-5 5 -6 59.38 10.14
-5 5 -6 67.39 9.65
-5 5 -6 71.76 11.73
-5 -5 -6 76.64 10.05
-5 -5 -6 49.47 11.7
-5 -5 -6 65.84 12.9
-6 5 -6 29.9 10.31
-6 5 -6 25.48 10.87
6 -5 6 41.69 8.26
-6 5 -6 48.7 9.21
-6 -5 -6 51.07 9.69
-6 -5 -6 58.81 13.68
-6 -5 -6 39.31 12.59
-7 -5 -6 25.68 12.42
-7 5 -6 28.76 11
7 -5 6 23.97 8.4
-7 5 -6 24.21 8.33
-7 -5 -6 23.29 14.6
-8 5 -6 -7.69 11.52
8 -5 6 -19.7 8.17
-8 -5 -6 7.54 13.22
-8 5 -6 1.3 7.19
-8 -5 -6 -1.74 15.16
-9 -5 -6 -1.58 13.64
-9 5 -6 1.37 13.01
9 -5 6 0.83 7.38
-9 -5 -6 5.83 15.83
10 -5 6 11.32 8.96
-10 5 -6 14.48 13.5
-10 -5 -6 -6.46 17.18
-11 5 -6 -6.15 14.09
11 -5 6 -0.92 9.37
-11 -5 -6 23.68 21.65
12 -5 6 -4.82 11.27
-12 -5 -6 -33.81 23.38
13 -5 6 -4.04 11.86
-16 6 6 45.78 24.38
-15 -6 6 14.25 26.57
-15 6 6 21.97 20.16
-14 -6 6 56.93 20.7
-14 6 6 13.5 16.08
-14 -6 6 42.36 23.41
-14 6 6 9.86 18.41
-13 -6 6 55.47 19.95
-13 6 6 8.92 15.11
-13 6 6 72.36 18.45
-13 -6 6 56.27 23.65
-12 -6 6 115.31 19.74
-12 6 6 118.74 17.41
12 6 -6 117.31 16.72
-12 -6 6 90.12 22.18
-12 6 6 107.08 17.9
-11 6 6 149.32 18.07
-11 -6 6 200.97 21.39
-11 6 6 200.68 19.71
11 6 -6 176.22 17.95
-11 -6 6 148.46 23.56
-10 6 6 41.81 12.74
-10 -6 6 20.64 14.84
10 6 -6 2.7 10.48
-10 -6 6 52.52 17.45
-9 -6 6 142.24 17.29
9 6 -6 146.24 15.2
-9 -6 6 167.03 21.23
-8 -6 6 306.7 22.58
8 6 -6 268.32 19.7
-8 -6 6 255.72 22.64
-8 -6 6 263 19.6
-7 -6 6 563.33 33.81
7 6 -6 581.69 32.19
-7 -6 6 614.75 34.73
-7 -6 6 632.14 32.35
7 6 -6 618.06 32.74
-6 -6 6 668.9 37.15
6 6 -6 660.74 35.68
6 -6 -6 708.87 34.14
-6 -6 6 717.8 37.69
-6 -6 6 714.16 35.4
6 6 -6 693.7 35.75
5 6 -6 375.44 21.86
-5 6 6 335.27 19.97
5 -6 -6 336.83 20.11
-5 -6 6 349.78 20.95
5 6 -6 317.13 21.02
-5 -6 6 372.96 21.77
4 6 -6 503.89 27.05
-4 6 6 488.55 21.27
-4 6 6 474.74 24.52
-4 -6 6 480.07 25.56
-4 -6 6 458.75 25.97
4 6 -6 476.01 26.88
-4 -6 6 495.88 26.84
3 6 -6 562.68 28.38
-3 6 6 537.55 25.54
3 -6 -6 560.41 27.3
-3 6 6 479.67 22.71
3 6 -6 544.68 28.25
-3 -6 6 495.68 27.64
-3 -6 6 540.89 27.1
2 6 -6 280.84 17.79
-2 6 6 266.08 14.69
2 6 -6 280.94 18.75
-2 -6 6 288.91 17.24
-2 -6 6 285.83 18.25
2 -6 -6 236.72 16.69
2 -6 -6 260.64 16.8
1 6 -6 368.65 21.91
-1 -6 6 378.35 21.29
-1 6 6 381.71 18.37
1 6 -6 357.15 20.36
-1 -6 6 380.14 21.44
1 -6 -6 375.44 21.62
1 6 -6 430.19 22.45
0 -6 6 251.29 16.54
0 -6 -6 281.23 17.23
0 6 -6 266.2 15.94
0 6 6 263.46 12.97
0 -6 -6 282.32 17.68
0 6 -6 281.54 17.49
0 -6 -6 274.54 17.36
1 -6 6 68.1 9.42
-1 6 -6 63.24 8.44
-1 -6 -6 61.26 9.59
-1 -6 -6 55.71 8.14
-1 6 -6 80.25 9.96
-1 -6 -6 59.89 9.52
-2 6 -6 156.05 12.19
-2 -6 -6 162.12 8.18
-2 -6 -6 189.1 13.06
-2 -6 -6 163.23 13.65
-2 -6 -6 172.56 13.4
-2 6 -6 173.85 13.84
-2 -6 -6 161.55 13.43
-3 -6 -6 80.9 11.32
-3 -6 -6 75.77 8.93
-3 6 -6 84.6 10.95
-3 -6 -6 69.57 11.2
-3 6 -6 63.67 8.59
-3 6 -6 49.01 8.28
4 -6 6 31.67 6.86
-4 6 -6 12.68 9
-4 -6 -6 29.19 9.53
-4 -6 -6 25.03 7.46
-4 6 -6 24.79 7.96
-4 -6 -6 16.09 8.9
-4 -6 -6 14.3 10.16
-4 6 -6 21.06 7.39
-5 6 -6 133.91 12.87
5 -6 6 162.87 11.97
-5 6 -6 137.84 12.99
-5 -6 -6 128.68 12.94
-5 6 -6 151.48 14.36
-5 -6 -6 152.85 15.36
-5 -6 -6 127.3 15.59
-6 6 -6 -0.84 9.2
-6 6 -6 -5.33 8.84
-6 6 -6 6.91 10.67
-6 6 -6 -3.1 7.86
6 -6 6 0.77 7.04
-6 -6 -6 4.3 12.79
-6 -6 -6 -2.79 10.48
-7 -6 -6 -13.21 12.26
7 -6 6 9.67 7.34
-7 6 -6 27.49 12.78
-7 6 -6 3.57 7.58
-7 -6 -6 9.7 14.28
-8 -6 -6 -4.64 13.34
8 -6 6 20.25 8.39
-8 6 -6 22.66 7.72
-8 -6 -6 16.28 15.83
-8 6 -6 33.49 13.2
-9 -6 -6 37.33 14.09
-9 6 -6 15.66 12.58
9 -6 6 -0.88 8.79
-9 -6 -6 28.15 18.01
10 -6 6 38.98 10.6
-10 6 -6 30.08 13.86
-10 -6 -6 17.8 18.98
-11 6 -6 27.01 15.03
11 -6 6 32.15 11.18
-11 -6 -6 -2.44 20.34
12 -6 6 6.14 11.19
-12 -6 -6 21.33 23.13
13 -6 6 10.72 12.66
-16 7 6 59.98 26.16
-15 7 6 52.01 22.74
-15 -7 6 64.18 27.2
-14 -7 6 14.02 19.18
-14 7 6 32.94 16.93
14 -7 -6 37.09 7.26
-14 -7 6 62.46 25.51
-14 7 6 25.39 18.49
-13 -7 6 39.24 19.37
-13 7 6 44.87 16.26
-13 -7 6 98.1 26.08
-13 7 6 49.21 16.97
-12 -7 6 145.09 21.89
-12 7 6 120.1 18
12 7 -6 126.99 17.61
-12 -7 6 171.75 24.82
-12 7 6 102.23 17.28
-11 -7 6 59.08 16.8
-11 7 6 93.03 16.02
11 7 -6 83.69 14.62
-11 -7 6 100.22 20.95
-10 -7 6 65.5 16.04
10 7 -6 35.96 11.59
-10 -7 6 68.5 18.98
-9 -7 6 69.58 14.66
9 7 -6 52.63 12.24
-9 -7 6 50.01 16.27
8 7 -6 11.25 12.02
-8 -7 6 1.11 10.05
8 -7 -6 3.99 7.11
-8 -7 6 -4.63 12.53
8 7 -6 13.84 9.5
-8 -7 6 16.26 15.15
-7 -7 6 17.25 11.47
-7 -7 6 11.39 9.68
7 -7 -6 -0.82 6.55
7 7 -6 -8.31 8.92
-7 -7 6 8.83 12.81
7 7 -6 -5.87 10.74
-6 -7 6 8.67 9.14
-6 -7 6 18.8 10.71
6 7 -6 28.43 9.8
6 -7 -6 39.12 7.76
-6 7 6 19.73 8.12
-6 -7 6 26.37 12.71
6 7 -6 16.73 10.54
-5 -7 6 8.16 7.93
-5 7 6 -1.57 4.94
5 -7 -6 18.53 7.15
-5 7 6 -2.38 7.3
5 7 -6 2.16 9.79
5 7 -6 2.2 8.64
-5 -7 6 1.83 8.02
-4 7 6 19.58 7.93
-4 -7 6 24.66 7.85
4 7 -6 15.84 8.87
-4 7 6 14.52 7.09
-4 -7 6 5.27 7.66
4 7 -6 5.26 9.75
-4 -7 6 3.91 7.95
-3 7 6 114.07 11.25
3 7 -6 114.29 12.52
-3 7 6 105.89 9.16
-3 -7 6 100.01 10.62
3 -7 -6 78.58 9.54
-3 7 6 89.23 7.69
3 7 -6 96.84 13.06
-3 -7 6 94.45 11.04
2 7 -6 356.74 22.62
2 7 -6 366.31 21.05
-2 7 6 397.5 19.4
2 -7 -6 355.09 21.37
-2 -7 6 457.58 22.43
2 7 -6 383.47 23.63
-2 7 6 393.16 18.32
-2 -7 6 394.18 22.57
-2 7 6 380.47 21.63
2 -7 -6 368.71 21.29
-1 -7 6 184.61 14.14
1 7 -6 194.08 13.14
-1 7 6 182.04 10.6
-1 -7 6 171.57 13.71
1 -7 -6 181.78 13.81
-1 7 6 189.01 10.51
1 7 -6 169.87 13.92
1 7 -6 178.27 14.67
0 7 -6 131.06 10.7
0 -7 -6 116.97 11.13
0 7 6 104.41 6.8
0 -7 6 100.52 10.82
0 -7 -6 127.37 10.95
0 -7 -6 87.82 10.93
0 7 -6 107.53 11.34
-1 7 -6 555.46 27.42
-1 -7 -6 554.28 27.51
-1 7 -6 531.78 28.79
-1 -7 -6 584.6 28.51
-1 -7 -6 524.4 28.28
-2 7 -6 409.27 21.51
-2 -7 -6 370.54 16.5
-2 -7 -6 382.64 21.67
-2 -7 -6 397.9 22.34
-2 -7 -6 408.86 22.73
-2 7 -6 383.96 22.58
-2 -7 -6 419.85 22.48
-3 7 -6 302.34 18.45
3 -7 6 305.92 17.96
-3 -7 -6 295.9 18.65
-3 -7 -6 334.3 20.17
-3 -7 -6 274.16 20.11
-3 7 -6 325.21 17.71
-4 7 -6 339.43 22.05
4 -7 6 335.14 19.94
-4 7 -6 375.87 21
-4 -7 -6 375.83 22.23
-4 -7 -6 354.56 20.56
-4 -7 -6 360.46 23.32
-4 -7 -6 377.39 23.51
-4 7 -6 318.23 19.6
-5 7 -6 342.45 20.11
-5 7 -6 309.32 21.65
5 -7 6 333.5 19.05
-5 -7 -6 294.97 22.82
-5 -7 -6 319.97 22.77
-5 7 -6 307.3 18.91
-6 7 -6 237.71 17.15
-6 7 -6 207.04 18.65
6 -7 6 225.6 15.55
-6 -7 -6 236.56 20.22
-6 -7 -6 252.96 21.61
-7 7 -6 262.98 21.09
7 -7 6 294.42 18.37
-7 7 -6 251 17.02
-7 -7 -6 295.02 24.79
-7 -7 -6 340.49 23.73
-8 -7 -6 134.59 17.5
8 -7 6 137.64 13.06
-8 7 -6 148.89 16.97
-8 7 -6 139.07 11.82
-8 -7 -6 179.82 21.94
-9 -7 -6 111.37 17.6
9 -7 6 72.41 11.53
-9 7 -6 51.86 14.96
-9 -7 -6 109.71 20.84
-10 7 -6 78.4 16.93
10 -7 6 76.83 12.12
-10 -7 -6 61.59 21.74
-11 7 -6 47.93 17.02
11 -7 6 54.72 12.73
-11 -7 -6 100.21 24.77
12 -7 6 47.65 12.93
-12 -7 -6 43.77 26.21
13 -7 6 22.66 13.22
14 -7 6 11.8 13.63
-15 -8 6 17.89 27.71
-15 8 6 -10.76 20.24
-14 -8 6 -16.69 20.38
-14 8 6 -1.95 17.58
-14 -8 6 -11.14 24.26
-13 8 6 10.56 15.82
-13 -8 6 -2.24 17.99
-13 8 6 1.8 14.69
-13 -8 6 -7.76 21.87
-12 -8 6 8.38 16.94
-12 8 6 -3.29 14.15
12 8 -6 9.5 12.75
-12 -8 6 12 20.13
-11 -8 6 35.22 15.72
11 8 -6 39.04 13.22
-11 -8 6 6.64 18.38
-10 -8 6 12.77 14.68
10 8 -6 10 11.83
-10 -8 6 -8.15 18.57
-9 -8 6 139.21 18.03
9 -8 -6 154.03 12.26
9 8 -6 131.43 15.68
-9 -8 6 172.7 16.86
-9 -8 6 151.52 21.32
-8 -8 6 201.61 19.84
8 8 -6 195.87 16.79
8 -8 -6 165.94 13.64
-8 -8 6 207.45 21.69
-8 -8 6 208.37 17.57
-8 8 6 178.95 16.76
8 8 -6 193.75 19.12
-7 -8 6 11.86 11.44
-7 -8 6 12.46 10.1
-7 8 6 26.54 10.45
7 -8 -6 25.14 8.22
7 8 -6 11.18 9.46
-7 8 6 14.1 9.27
-7 -8 6 29.72 14.55
7 8 -6 32.07 12.54
-6 8 6 235.84 14.16
6 8 -6 212.33 18.01
6 -8 -6 273.86 16.48
-6 8 6 241.68 16.69
-6 -8 6 225.68 17.46
6 8 -6 240.37 19.64
5 8 -6 275.13 20
-5 8 6 298.63 15.16
5 -8 -6 269.17 17.58
-5 8 6 285.08 17.83
-5 -8 6 272.34 18.76
5 8 -6 300.91 21.17
-5 -8 6 283.48 19.45
4 8 -6 464.56 26.29
-4 -8 6 435.39 24.32
-4 8 6 421.43 22.71
-4 -8 6 449.65 24.6
4 8 -6 443.3 26.94
-4 -8 6 409.91 24.56
-4 8 6 442.31 23.85
3 8 -6 145.44 13.87
3 8 -6 158.58 12.42
-3 8 6 128.45 10.19
-3 8 6 135.69 10.19
-3 -8 6 121.37 11.87
3 8 -6 123.65 15.17
-3 8 6 132.79 11.87
-3 -8 6 133.29 12.54
2 8 -6 26.52 9.48
2 -8 -6 14.19 7.36
2 8 -6 26.1 7.6
-2 -8 6 18.48 8.46
2 -8 -6 20.74 6.96
-2 8 6 24.5 5.64
2 8 -6 27.85 10.46
-2 8 6 29.24 6.33
-2 -8 6 31.17 9.26
-2 8 6 22.18 7.41
1 8 -6 307.33 19.75
1 8 -6 254.77 17.04
-1 8 6 300.83 14.83
-1 -8 6 250.27 17.21
1 -8 -6 310.4 17.85
1 -8 -6 305.4 18
-1 8 6 282.13 15.45
0 8 -6 133.84 11.15
0 8 6 120.38 7.84
0 -8 -6 127.06 11.71
0 -8 -6 133.99 12.26
0 -8 -6 140.49 11.72
0 8 6 153.17 10.21
1 8 6 104.03 5.91
-1 8 -6 136.32 11.13
-1 -8 -6 131.67 10.87
-1 -8 -6 133.89 11.31
-1 -8 -6 131.82 12.07
1 8 6 143.29 10.58
-2 -8 -6 3.26 2.23
-2 8 -6 6.19 7.37
2 8 6 -14.29 8.35
-2 -8 -6 0.92 6.41
-2 -8 -6 6.43 8.93
-2 -8 -6 -2.61 8.57
-2 -8 -6 -5.66 7.91
-2 8 -6 1.07 5.42
-3 8 -6 15.01 8.51
-3 8 -6 29.27 8.63
-3 -8 -6 24.07 9.18
3 8 6 28.43 9.92
-3 -8 -6 30.61 8.25
-3 -8 -6 20.41 10.64
-3 8 -6 20.21 7
-4 8 -6 2.61 6.91
4 -8 6 7.44 6.83
-4 8 -6 18.89 8.78
-4 8 -6 -2.16 10.37
-4 -8 -6 15.19 7.83
-4 -8 -6 3.71 11
-4 8 -6 16.42 9.29
-4 -8 -6 5 9.84
-4 -8 -6 -7.75 9.12
-5 8 -6 11.51 7.68
-5 8 -6 17.07 9.43
5 -8 6 -11.98 7.31
-5 8 -6 -5.84 10.77
-5 -8 -6 5.6 11.97
-5 -8 -6 6.91 10.39
6 -8 6 13.21 8.56
6 8 6 -2.35 10.65
-6 8 -6 16.33 11.6
-6 -8 -6 -1.57 13.95
-6 8 -6 34.18 10.82
-6 -8 -6 11.78 11.45
7 -8 6 -3.66 8.11
-7 8 -6 18.93 12.76
-7 -8 -6 3.09 12.27
7 8 6 12.22 11.89
-7 8 -6 -1.47 8.16
-7 -8 -6 21.02 15.25
8 -8 6 24.82 9.74
-8 -8 -6 -1.62 12.62
-8 8 -6 31.72 13.37
8 8 6 13.94 12.42
-8 -8 -6 17.52 16.33
9 -8 6 6.97 9.13
-9 8 -6 19.95 13.95
-9 -8 -6 -4.3 17.55
10 -8 6 -7.28 10.18
-10 8 -6 13 14.61
-10 -8 -6 23.61 20.02
11 -8 6 3.27 11.09
-11 -8 -6 -12.9 21.96
12 -8 6 3.42 12.4
-12 -8 -6 5.62 24.54
13 -8 6 -8.33 13.7
14 -8 6 2.48 14.95
-15 9 6 6.46 19.74
-14 -9 6 14.34 25.07
-14 9 6 25.44 19.28
-13 -9 6 -2.28 18.41
-13 9 6 16.17 15.01
-13 -9 6 8.01 23.42
-12 -9 6 -4.26 16.62
12 9 -6 -1.62 13.73
-12 -9 6 -2.48 21.52
-11 -9 6 65.79 17.46
11 9 -6 35.33 13.47
-11 -9 6 55.09 21.35
-10 -9 6 5.59 14.59
10 9 -6 7.38 11.46
-10 -9 6 14.86 17.94
9 9 -6 16.61 13.63
-9 -9 6 29.6 14.14
-9 -9 6 8.49 11.57
-9 9 6 12.3 11.39
9 -9 -6 10.31 7.46
9 9 -6 -1.42 10.56
-9 -9 6 3.92 16.17
-8 -9 6 68.64 12.58
-8 9 6 73.27 12.57
8 9 -6 54.07 11.69
8 -9 -6 44.9 8.73
-8 -9 6 19.87 15.86
8 9 -6 38.73 13.86
-7 -9 6 11.46 9.99
-7 9 6 11.72 10.09
7 9 -6 14.36 10.46
7 -9 -6 2.41 7.81
-7 -9 6 4.96 13.91
-7 9 6 5.09 9.05
7 9 -6 -1.38 13.48
-6 -9 6 31.13 9.54
-6 9 6 85.39 11.78
-6 9 6 30.21 7.28
6 9 -6 48.24 11.25
6 -9 -6 45.41 8.52
-6 9 6 66.28 9.45
6 9 -6 51.02 13.42
-5 -9 6 -3.14 9.24
-5 9 6 -0.94 8.87
5 9 -6 1.23 10.17
5 -9 -6 4.22 6.67
-5 9 6 11.31 5.5
-5 9 6 2.41 7.03
5 9 -6 -1.31 11.86
-5 -9 6 20.21 9.04
4 9 -6 43.98 11.03
-4 9 6 50.34 8.3
-4 -9 6 60.38 9.38
-4 9 6 30.29 7.31
-4 9 6 55.9 9.56
4 9 -6 29.41 12.15
-4 9 6 22.69 9.27
-4 -9 6 48.33 10.02
-3 -9 6 1.62 7
3 9 -6 1.15 9.38
-3 9 6 -0.84 7.93
3 9 -6 -0.86 8.62
-3 9 6 11.4 6.7
-3 9 6 0.61 5.59
3 9 -6 -6.23 10.88
-3 -9 6 11.73 8.45
-3 9 6 3.11 7.49
2 9 -6 31.85 10.16
2 9 -6 19.86 8.27
-2 -9 6 26.48 8.13
2 -9 -6 34.41 8.06
2 -9 -6 27.04 7.34
-2 9 6 26.99 8.7
2 9 -6 57.56 12.95
-2 9 6 35.32 5.95
-2 9 6 31.24 7.11
-2 -9 6 46.78 9.54
-2 9 6 30.74 7.51
1 9 -6 1.1 8.92
1 -9 -6 6.43 6.6
1 9 -6 7.92 7.43
1 -9 -6 -1.76 5.78
-1 9 6 4.13 4.67
-1 -9 6 4.82 6.89
-1 9 6 1.75 6.44
-1 9 6 7.52 7.36
0 -9 -6 56.89 8.59
0 -9 -6 80.63 9.81
0 -9 -6 64.09 4.56
0 9 -6 64.98 8.97
0 9 6 85.48 9.12
0 9 6 61.34 5.63
0 -9 -6 68.76 8.85
0 -9 -6 80.02 10.05
-1 9 -6 255.45 16.51
1 9 6 225.15 11.42
1 9 6 241.28 17.83
-1 -9 -6 287.82 16.93
-1 -9 -6 258.74 16.18
1 9 6 241.95 15.58
-1 9 -6 284.67 16.61
-1 -9 -6 255.27 16.6
-2 9 -6 154.43 12.68
-2 -9 -6 126.14 6.48
2 9 6 135.59 13.62
-2 -9 -6 168.01 12.93
-2 -9 -6 168.7 14.58
-2 9 -6 138.93 12.4
-2 -9 -6 163.83 13.22
-2 -9 -6 145.93 12.53
-2 9 -6 141.76 10.04
-3 9 -6 122.84 12.53
-3 9 -6 111.52 12.23
3 9 6 123.19 13.85
-3 -9 -6 141.83 12.74
-3 -9 -6 141.02 13.13
-3 -9 -6 131.93 14.57
-3 9 -6 128.73 10.14
-4 9 -6 182.37 14.7
4 -9 6 149.49 12.88
-4 -9 -6 151.55 15.86
-4 -9 -6 156.66 14.69
-4 -9 -6 139.42 16.9
-4 9 -6 136.26 14.04
-4 9 -6 159.2 11.78
-5 9 -6 124 13.49
5 -9 6 142.86 12.55
-5 9 -6 106.2 14.77
-5 -9 -6 96.35 13.46
-5 -9 -6 122.15 16.79
-5 -9 -6 143.59 16.06
-6 9 -6 12.1 10.03
6 -9 6 16.83 8.55
6 9 6 10.96 11.01
-6 9 -6 17.06 12.25
-6 -9 -6 39.39 15.46
-6 -9 -6 24.16 12.07
-7 -9 -6 87.27 14.94
7 -9 6 38.83 10.04
-7 9 -6 41.72 9.36
7 9 6 55.77 13.06
-7 9 -6 68.74 14.76
-7 -9 -6 51.02 17.11
-8 -9 -6 69.68 15.95
8 -9 6 63.59 11.58
-8 9 -6 67.54 15.15
8 9 6 67.42 14.62
-8 -9 -6 94.78 20.7
-9 -9 -6 34.76 14.81
9 -9 6 48.35 11.51
-9 9 -6 4.78 14.39
9 9 6 43.79 14.15
-9 -9 -6 53.18 20.04
10 -9 6 26.32 11.58
-10 9 -6 5.04 14.6
-10 -9 -6 9.7 20.9
11 -9 6 1.14 11.8
-11 -9 -6 -5.29 22.45
12 -9 6 -9.58 12.51
-12 -9 -6 5.74 24.54
13 -9 6 15.01 14.03
14 -9 6 -11.71 15.47
-15 10 6 2.16 20.29
-14 -10 6 32.42 26.25
-13 -10 6 64.67 20.19
-13 10 6 70.36 18.07
-13 -10 6 41.25 24.07
-12 -10 6 114.82 21
12 10 -6 87.6 17.3
-12 -10 6 89.63 25.07
-11 -10 6 127.8 21.02
11 10 -6 137.95 17.49
-11 -10 6 164.29 25.31
10 10 -6 320.46 24.99
-10 -10 6 374.77 25.35
-10 -10 6 364.21 28.48
-10 -10 6 360.55 32.1
-9 10 6 226.21 16.75
9 10 -6 233.8 20.15
9 -10 -6 234.14 15.3
-9 -10 6 231.81 25.86
-9 -10 6 218.04 19.13
-9 10 6 215.95 19.39
9 10 -6 239.36 21.88
8 10 -6 526.01 30.27
8 -10 -6 503.04 25.64
-8 10 6 435.9 27.72
-8 -10 6 488.65 34.17
-8 -10 6 468.05 28.39
-8 10 6 467.5 28.74
8 10 -6 558.63 32.64
7 10 -6 944.56 48.68
7 -10 -6 928.4 44.69
-7 10 6 905.88 46.15
-7 -10 6 1058.95 47.57
-7 10 6 1022.8 47.46
7 10 -6 990.87 50.59
6 10 -6 703.82 37.27
-6 10 6 734.22 32.79
6 -10 -6 675.65 33.56
-6 10 6 649.58 33.99
-6 -10 6 681.52 34.96
-6 10 6 694.03 35.33
6 10 -6 655.44 38.47
-6 -10 6 661.29 35.9
5 10 -6 672.25 36.61
-5 10 6 674.99 33.64
5 -10 -6 692.3 33.53
-5 -10 6 751.99 34.21
-5 10 6 650.19 33.07
-5 -10 6 654.78 34.18
-5 10 6 668.01 34.35
5 10 -6 656.64 37.89
-5 -10 6 665.46 35.3
4 10 -6 717.58 39.07
-4 10 6 743.42 36.55
4 10 -6 733.31 36.91
-4 -10 6 785.19 36.53
4 -10 -6 749.05 36.26
-4 10 6 749.2 37.06
4 10 -6 728.77 40.39
-4 -10 6 739.04 37.83
-4 10 6 754.43 36.05
3 10 -6 716.43 39.26
3 10 -6 788.93 37.43
-3 10 6 720.12 36.01
3 10 -6 788.54 41.25
-3 -10 6 768.75 36.77
-3 10 6 772.21 37.24
-3 -10 6 805.67 38.58
-3 10 6 755.49 36.52
2 10 -6 437 24.22
2 10 -6 437.31 26.64
2 -10 -6 468.74 24.46
-2 -10 6 467.45 24.27
-2 10 6 458.56 24.49
2 10 -6 436.88 28.05
-2 10 6 378.24 22.65
1 10 -6 629.93 32.52
1 -10 -6 699.74 33.22
-1 10 6 626.26 32.6
-1 10 6 696.47 32.21
1 -10 -6 636.14 32.32
0 -10 -6 789.7 34.65
0 10 -6 838.82 39.31
0 10 6 843.98 40.84
0 -10 -6 855.54 39.83
0 -10 -6 831.59 39.39
0 10 6 841.36 38.77
-1 -10 -6 311.75 15.45
-1 10 -6 329.64 19.93
1 10 6 353.36 21.67
-1 -10 -6 299.73 19.44
-1 -10 -6 341.6 19.16
1 10 6 337.12 19.62
-1 10 -6 324.07 19.18
-1 -10 -6 335.12 19.77
-2 10 -6 200.22 15.08
-2 -10 -6 170.6 8.4
2 10 6 178.81 15.65
-2 -10 -6 223.13 15.2
-2 -10 -6 185.59 16.32
-2 10 -6 205.42 14.64
-2 -10 -6 214.71 15.39
-2 -10 -6 180.98 13.93
-2 10 -6 214 11.74
-3 10 -6 247.42 17.26
3 10 6 270.28 19
-3 10 -6 243.84 17.01
-3 -10 -6 220.88 17.08
-3 -10 -6 236.99 19.6
-3 -10 -6 240.79 16.57
-3 10 -6 236.24 13.77
-4 -10 -6 12.85 9.2
-4 10 -6 28.98 10.1
4 -10 6 30.77 8.6
-4 -10 -6 24.61 11.27
-4 -10 -6 17.95 12.78
-4 10 -6 17.36 8.8
-5 10 -6 24.28 10.32
5 -10 6 26.98 8.78
-5 -10 -6 16.07 11.37
-5 10 -6 11.42 11.43
-5 -10 -6 -6.15 13.32
-5 -10 -6 26.99 11.6
-6 -10 -6 4.65 11.98
-6 10 -6 6.39 10.85
6 -10 6 3.96 8.58
6 10 6 -12.52 11.52
-6 10 -6 6.84 12.54
-6 -10 -6 -6.86 14.65
-7 -10 -6 -9.73 13.59
7 -10 6 1.02 9.55
7 10 6 3.93 11.48
-7 10 -6 -2.93 12.55
-7 -10 -6 7.57 16.36
-8 -10 -6 28.84 14.29
8 -10 6 17.01 9.99
8 10 6 17.8 13.41
-8 10 -6 4.67 13.82
-8 -10 -6 8.34 18.48
-9 -10 -6 14.21 14.77
9 -10 6 41.98 11.89
-9 10 -6 51.24 16.95
9 10 6 17.1 13.89
-9 -10 -6 45.72 19.95
10 10 6 75.05 17
10 -10 6 54.08 12.82
-10 10 -6 55.88 17.75
-10 -10 -6 74.93 23.19
11 -10 6 66.04 14.6
-11 -10 -6 73.3 25.04
12 -10 6 13.79 13.44
-12 -10 -6 38.24 25.99
13 -10 6 17.01 15.09
-15 11 6 24.05 21.04
-14 -11 6 -6.05 27.38
-13 -11 6 44.43 20.96
-13 -11 6 48.18 26.05
-12 -11 6 31.77 23.17
-11 11 6 30.11 12.66
11 11 -6 62 15.57
-11 -11 6 81.59 23.27
10 11 -6 163.09 21.12
-10 11 6 114.37 14.2
-10 -11 6 145.73 17.34
10 11 -6 136.02 17.94
10 -11 -6 119.05 11.24
-10 -11 6 142.86 24.49
-9 11 6 101.8 12.4
-9 -11 6 126.03 15.74
9 11 -6 89.5 15.8
9 -11 -6 108.07 10.76
-9 11 6 142.54 15.71
-9 11 6 132.94 15.53
-9 -11 6 150.39 22.63
9 11 -6 111.69 17.61
-8 -11 6 30.53 11.92
-8 11 6 3.47 10.97
8 11 -6 22.12 10.89
8 -11 -6 17.3 7.46
-8 -11 6 53.69 18.67
-8 11 6 6.94 10.14
8 11 -6 44.38 15.72
-7 -11 6 13.62 10.53
-7 11 6 13.93 10.74
7 11 -6 27.34 11.19
7 -11 -6 15.52 7.49
-7 11 6 6.29 9.25
7 11 -6 9.56 14.09
-6 11 6 42.18 10.59
-6 -11 6 30.7 11.29
6 11 -6 31.02 11.37
-6 -11 6 28.41 10.46
6 -11 -6 26.17 8.21
-6 11 6 35.89 8.31
-6 11 6 25.5 9.11
6 11 -6 29.76 14.79
-5 11 6 3.33 7.95
-5 -11 6 16.14 10.5
5 11 -6 26.08 11.91
5 11 -6 6.01 9.35
5 -11 -6 2.61 7.5
-5 11 6 5.31 8.44
-5 -11 6 6.07 8.06
-5 -11 6 10.14 9.68
5 11 -6 39.97 15.39
-5 11 6 3.81 9.29
4 11 -6 1.33 11.46
4 11 -6 44.73 9.77
4 -11 -6 33.19 8.25
-4 -11 6 25.66 8.39
4 11 -6 27 13.72
-4 -11 6 39.44 10.16
-4 11 6 35.32 8.93
-4 11 6 17.21 8.29
3 11 -6 13.11 11.03
3 11 -6 0.94 8.03
-3 11 6 4.28 8.16
-3 11 6 -0.82 9.12
3 11 -6 2.93 12.51
-3 -11 6 2.44 7.72
-3 -11 6 1.01 9.13
-3 11 6 3.01 7.37
-2 -11 6 99.17 10.93
2 11 -6 101.74 14.38
-2 11 6 119.88 12
2 11 -6 94 11.18
2 11 -6 94.12 15.48
-2 11 6 101.14 12.13
1 11 -6 228.53 15.73
-1 11 6 178.81 16.45
-1 11 6 213.55 15.66
1 -11 -6 240.15 15.93
-1 11 6 200.15 15.56
1 -11 -6 238.64 15.76
0 -11 -6 202.93 11.16
0 11 -6 213.17 15.4
0 11 6 215.29 16.74
0 -11 -6 229.37 15.61
0 -11 -6 216.02 15.42
0 11 6 196.47 15.71
0 -11 -6 211.97 12.29
0 11 -6 209.13 15.88
-1 -11 -6 279.19 14
-1 11 -6 316.43 18.99
-1 -11 -6 279.43 18.11
1 11 6 297.98 20.3
-1 -11 -6 280.38 18.29
-1 11 -6 313.14 18.09
-1 -11 -6 290.7 18.37
-1 11 -6 270.39 18.69
1 11 6 267.54 18.26
-1 -11 -6 288.35 17.27
-1 11 -6 267.82 14.27
2 11 6 266.06 13.28
-2 11 -6 303.83 19.04
-2 -11 -6 268.47 12.4
2 11 6 281 19.76
-2 11 -6 274.66 18
-2 11 -6 308.72 14.8
-2 -11 -6 299 18.71
-2 11 -6 306.08 19.58
-2 -11 -6 322.75 18.2
-3 11 -6 228.6 17.45
3 11 6 221.89 17.77
-3 11 -6 217.48 16.41
-3 -11 -6 280.06 20.66
-3 -11 -6 218.77 16.55
-3 11 -6 261.27 18.1
-3 -11 -6 174.21 15.32
-4 11 -6 232.67 17.98
4 11 6 187.41 17.84
-4 11 -6 246.85 17.79
-4 -11 -6 253.84 17.89
-4 -11 -6 237.71 21.13
-4 -11 -6 230.21 19.63
-5 11 -6 217.62 18
5 -11 6 222.78 17.18
-5 11 -6 259.25 18.57
-5 -11 -6 214.57 18.09
-5 -11 -6 223.11 22.23
-5 -11 -6 213.11 20.18
-6 11 -6 231.38 18.64
-6 11 -6 236.97 20.79
6 11 6 207.84 18.62
6 -11 6 206.42 16.94
-6 -11 -6 190.65 22.39
-6 -11 -6 212.63 20.6
7 -11 6 151.79 14.9
7 11 6 152.13 17.54
-7 -11 -6 185.9 20.22
-7 11 -6 171.73 19.14
-7 -11 -6 168.88 22.26
8 -11 6 130.65 14.99
8 11 6 160.87 18.18
-8 11 -6 147.33 19.05
-8 -11 -6 112.03 21.5
-8 -11 -6 135.28 19.03
-9 -11 -6 74.35 17.22
9 -11 6 75.34 13.5
9 11 6 81.04 16.49
-9 11 -6 77.19 17.7
-9 -11 -6 56.53 21.31
10 -11 6 20.49 11.85
10 11 6 9.18 15.21
-10 -11 -6 33.34 23.91
11 -11 6 3.77 12.74
11 11 6 12.57 15.78
-11 -11 -6 13.93 24.16
12 -11 6 24.9 14.89
-12 -11 -6 -27.09 27.69
13 -11 6 13.66 14.7
-14 12 6 -5.88 15.24
-14 -12 6 12.46 26.11
-13 12 6 -1.38 13.97
-13 -12 6 58.44 28.18
-12 12 6 -7.77 12.96
-12 -12 6 19.17 24.1
-11 12 6 3.63 11.84
-11 -12 6 19.74 13.88
11 12 -6 -1.68 14.02
-11 -12 6 -7.69 22.8
-10 12 6 16.8 11.37
-10 -12 6 21.08 12.78
-10 12 6 38.49 14.41
10 12 -6 16.35 14.16
-10 12 6 32.81 13.37
-10 -12 6 16.81 20.62
10 12 -6 37.15 17.18
-9 -12 6 -4.9 11.84
-9 12 6 17.4 12.47
-9 12 6 -7.13 9.79
9 12 -6 -6.28 12.85
9 -12 -6 -5.22 7.21
-9 -12 6 2.24 18.47
-9 12 6 5.2 10.77
9 12 -6 21.59 16.45
-8 12 6 2.32 11.23
8 12 -6 -6.15 11.04
-8 12 6 14.58 9.73
8 -12 -6 11.09 7.6
-8 12 6 11.85 10.8
-8 -12 6 18.11 11.76
8 12 -6 1.74 15.14
-7 -12 6 9.44 10.62
-7 12 6 38.73 11.35
7 12 -6 12.07 10.98
7 -12 -6 25.78 7.94
-7 12 6 14 9.75
7 12 -6 34.13 15.62
-6 -12 6 32.07 11.14
6 12 -6 34.03 12.17
6 12 -6 34.12 10.8
6 -12 -6 33.78 8.94
6 12 -6 35.3 14.26
-6 -12 6 38.13 10.96
-6 12 6 11.11 10.32
-5 12 6 123 12.09
-5 -12 6 102.4 13.49
5 12 -6 96.61 14.39
5 12 -6 117.61 13.18
-5 12 6 124.93 12.3
5 -12 -6 104.73 11.13
-5 -12 6 100.48 12.51
5 12 -6 85.65 17.29
-5 -12 6 132.42 12.82
-5 12 6 97.58 13.4
4 12 -6 148.85 16.03
4 12 -6 127.95 13.43
4 -12 -6 135.03 12.47
-4 -12 6 144.71 12.8
-4 12 6 139.65 12.48
4 12 -6 136.65 18.58
-4 12 6 151.94 13.3
-4 -12 6 145.76 14.4
3 12 -6 25.08 11.59
3 12 -6 11.66 9.01
-3 -12 6 5.68 7.82
-3 12 6 3.72 8.81
3 12 -6 4.72 13.62
-3 12 6 21.62 9.1
-3 -12 6 5.08 9.01
-3 12 6 3.69 7.56
2 12 -6 24.52 12.38
-2 12 6 13.64 8.4
2 12 -6 14.02 8.53
2 12 -6 -1.56 13.58
-2 12 6 12.61 9.18
-2 -12 6 10.36 7.75
1 -12 -6 93.2 8.79
1 -12 -6 86.24 10.15
1 12 -6 86.54 11.46
-1 12 6 74.21 11.74
1 -12 -6 81.2 10.33
-1 12 6 60.26 11.23
0 12 -6 56.24 9.63
0 -12 -6 60.56 7.2
0 12 -6 75.19 10.86
0 12 6 67.57 11.78
0 -12 -6 64.17 6.43
0 -12 -6 64.28 10.12
0 12 6 78.5 11.29
-1 -12 -6 8.71 7.26
-1 -12 -6 4.98 4.5
-1 -12 -6 3.17 7.79
-1 12 -6 -0.94 8.82
1 12 6 8.01 10.17
-1 12 -6 5.44 8.03
-1 12 -6 0.86 7.14
-1 -12 -6 -10.34 8.6
-1 12 -6 -1 8.65
-1 12 -6 1.35 4.11
-2 12 -6 0.84 7.66
-2 12 -6 4.87 8.94
-2 -12 -6 5.08 3.05
2 -12 6 2.93 8.14
2 12 6 1.16 9.33
-2 -12 -6 5.92 8.69
2 12 6 9.53 4.71
-2 12 -6 9.5 9.12
-2 -12 -6 -0.73 7.72
-3 12 -6 12.32 9.54
3 12 6 8.23 2.79
3 12 6 -13.2 10.86
-3 12 -6 -7.41 8.8
-3 -12 -6 -8.35 12.68
-3 -12 -6 -6.35 9.4
-3 12 -6 4.48 10
-3 -12 -6 8.69 8.61
3 12 6 9.01 9.8
4 12 6 6.16 10.53
-4 12 -6 -7.09 9.96
-4 12 -6 -11.84 10.38
-4 -12 -6 2.93 9.76
-4 -12 -6 2.88 10.99
4 12 6 9.93 11.04
-4 -12 -6 -1.54 13.52
-5 12 -6 13.49 11.15
5 -12 6 -8.57 9.33
-5 -12 -6 -10.17 14.75
-5 12 -6 -3.32 10.02
-5 -12 -6 1.06 10.34
-5 -12 -6 6.16 12.28
-6 12 -6 17.72 12.11
6 -12 6 34.01 11.04
6 12 6 16.08 12.64
-6 12 -6 10.25 12.59
-6 -12 -6 24.19 17.08
-6 -12 -6 21 11.41
-6 -12 -6 14.64 13.11
-7 -12 -6 11.88 13.78
7 -12 6 18.08 10.9
7 12 6 -4.19 13.05
-7 12 -6 1.57 13.81
-7 -12 -6 50.8 19.13
-8 -12 -6 30.14 15.85
8 -12 6 29.27 11.68
8 12 6 18.88 13.98
-8 12 -6 -6.72 14.91
-8 -12 -6 31.09 20.64
-9 -12 -6 5.55 15.14
9 -12 6 9.71 11.31
9 12 6 -10.61 15.25
-9 12 -6 -19.58 16.59
-9 -12 -6 2.42 20.23
10 -12 6 -1.26 11.63
10 12 6 1.58 16.34
-10 -12 -6 15.81 22.69
11 -12 6 -3.93 13.12
11 12 6 22.85 17.43
-11 -12 -6 25.69 24.49
12 -12 6 -2.73 14.31
12 12 6 -16.64 19.38
-14 13 6 15.18 16.29
-13 13 6 57.17 15.83
-13 -13 6 33.11 27.77
12 13 -6 36.33 18.79
-12 13 6 43.01 14.05
-12 -13 6 64.68 17.4
-12 -13 6 42.44 23.88
11 13 -6 32.66 19.37
-11 13 6 28.87 13.04
-11 -13 6 2.82 14.56
-11 13 6 28.35 14.05
11 13 -6 38.24 16.35
-11 13 6 66.47 15.67
-11 -13 6 45.23 24.35
-10 -13 6 26.41 13.39
-10 13 6 26.78 12.52
-10 13 6 30.64 13.47
10 13 -6 23.38 17.17
10 13 -6 23.61 14.39
-10 -13 6 29.93 22.05
-10 13 6 5.8 12.28
-9 -13 6 26.92 12.18
-9 13 6 29.92 12.58
-9 13 6 34.02 11.44
9 13 -6 27.78 13.4
-9 13 6 9.3 11.52
9 13 -6 3.82 16.34
-8 -13 6 -2.26 10.96
-8 13 6 13.89 11.19
8 13 -6 1.6 12.05
-8 13 6 5.72 9.17
-8 13 6 8.52 9.96
8 13 -6 5.54 16.02
-7 -13 6 24.65 11.64
-7 13 6 -6.46 10.57
-7 -13 6 17.83 10.87
7 13 -6 20.58 12.35
7 -13 -6 -0.85 6.98
7 13 -6 3.64 15.62
6 13 -6 83.89 12.96
6 13 -6 82.31 13.78
-6 -13 6 99.4 13.43
6 -13 -6 77.72 10.33
6 13 -6 39.47 16.85
-6 -13 6 72.2 11.53
-6 13 6 72.95 12.15
-5 -13 6 161.63 13.95
-5 13 6 165.06 14.49
5 13 -6 167.56 18.03
5 13 -6 165.78 15.58
5 -13 -6 187.59 14.22
-5 13 6 159.86 14.83
-5 13 6 150.28 13.63
5 13 -6 173.93 21.5
-5 -13 6 156.48 15.77
4 13 -6 72.61 13.72
4 13 -6 80.38 11.98
-4 13 6 95.98 11.71
-4 -13 6 87.09 11.23
4 -13 -6 48.08 9.77
4 13 -6 41.2 16.41
-4 -13 6 67.67 11.71
-4 13 6 78.35 10.38
3 13 -6 191.5 19.55
3 13 -6 214.54 16.7
-3 -13 6 212.59 15.55
-3 13 6 218.27 16.24
3 13 -6 257.93 23.59
-3 -13 6 216.84 17.35
-3 13 6 236.8 15.37
2 13 -6 288.79 22.16
2 -13 -6 264.14 16.28
2 13 -6 272.09 18.73
-2 13 6 263.31 19.54
-2 -13 6 250.05 17.25
-2 13 6 290.47 18.34
2 13 -6 311.34 25.03
1 -13 -6 135.45 10.8
1 -13 -6 131.11 8.81
1 13 -6 135.9 13.58
-1 13 6 143.71 14.12
1 -13 -6 138.18 12.19
0 -13 -6 236.95 13.99
0 13 -6 262.48 17.99
0 -13 -6 253.98 13.79
0 13 6 233.72 18.34
0 -13 -6 240.31 16.52
0 13 -6 265.01 17.74
-1 13 -6 307.96 19.88
-1 13 -6 321.82 18.23
1 13 6 291.78 20.87
-1 -13 -6 270.91 18.11
-1 -13 -6 294.73 14.96
-1 13 -6 291.87 18.56
-1 -13 -6 297.64 19.09
-1 13 -6 309.39 19.9
-2 13 -6 166.59 15.2
-2 -13 -6 139.47 7.85
2 -13 6 144.07 13.73
2 13 6 149.15 15.75
-2 13 -6 164.49 14.85
-2 -13 -6 150.69 12.4
-2 13 -6 185.4 13.71
-2 -13 -6 139.61 13.16
3 13 6 82.44 6.67
-3 13 -6 83.14 13.01
3 13 6 121.31 13.68
3 13 6 88.58 13.77
-3 13 -6 108.07 12.16
-3 13 -6 100.75 13.27
-3 -13 -6 94.01 10.99
-3 -13 -6 98.48 11.78
-4 13 -6 312.05 21.36
4 13 6 276.31 13.17
4 13 6 333.88 22.15
-4 13 -6 322.88 20.47
-4 -13 -6 285.4 19.89
-4 -13 -6 268.59 24.49
-4 -13 -6 294.86 18.94
-4 13 -6 295.17 21.14
4 13 6 338.75 22.5
-4 -13 -6 368.74 24.62
5 -13 6 399.66 25.09
-5 13 -6 393.1 25.15
-5 -13 -6 387.49 24.78
-5 -13 -6 432.25 31.23
-5 -13 -6 441.85 29.06
-5 13 -6 455.43 26.67
-6 13 -6 165.19 18.07
6 -13 6 209.56 17.69
6 13 6 206.94 19.76
-6 -13 -6 186.16 22.88
-6 -13 -6 148.75 17.31
-6 -13 -6 238.12 21.69
7 -13 6 183.36 17.18
-7 -13 -6 180.2 21.46
7 13 6 146.01 18.01
-7 13 -6 168.44 20.05
-7 -13 -6 133.05 22.85
-8 -13 -6 112.22 19.22
8 -13 6 104.04 14.63
8 13 6 75.23 16.89
-8 13 -6 110.97 19.07
-8 -13 -6 98.67 23
-9 -13 -6 79.24 18.55
9 -13 6 59.55 13.43
9 13 6 53.14 17.18
-9 13 -6 84.76 18.68
-9 -13 -6 64.65 23.62
10 -13 6 36.79 13.76
10 13 6 35.86 17.59
-10 -13 -6 37.73 24.68
11 -13 6 -5.46 14.01
11 13 6 28.73 18.17
-11 -13 -6 20.4 26.82
12 -13 6 12.81 15.67
-13 14 6 -2.95 14.98
-13 -14 6 15.53 27.05
12 14 -6 38.58 19.42
-12 14 6 38.94 15.23
-12 -14 6 58.53 26.54
11 14 -6 65.82 20.68
11 14 -6 81.21 19.21
-11 -14 6 86.16 17.87
-11 14 6 84.9 15.75
-11 14 6 92.27 17.13
-11 -14 6 66.03 25.7
-11 14 6 90.03 16.08
-10 -14 6 181.98 19.56
-10 14 6 174.67 19.1
-10 14 6 168.38 17.55
10 14 -6 142.56 19.74
-10 14 6 139.04 17.75
10 14 -6 131.08 22.97
-9 -14 6 131.63 16
9 14 -6 84.28 20.31
-9 14 6 76.04 14.85
9 14 -6 73.08 16.41
-9 14 6 92.17 13.52
-9 14 6 88.6 14.87
-8 -14 6 152 16.27
8 14 -6 184.79 19.27
-8 14 6 124.02 14.25
-8 14 6 196.75 17.35
8 14 -6 185.4 22.99
7 14 -6 347.67 25.25
-7 -14 6 288.24 20.91
-7 14 6 300.32 21.41
7 14 -6 335.37 28.12
-7 -14 6 306.01 22.44
6 14 -6 233.76 21.51
-6 -14 6 291.23 18.77
-6 14 6 245.69 18.5
-6 -14 6 262.96 18.79
-6 14 6 263.59 19.24
6 14 -6 285.35 26.14
-6 -14 6 235.98 19.45
5 14 -6 487.72 31.23
5 14 -6 523.72 28.88
-5 14 6 505.57 27.6
5 14 -6 506.66 34.52
-5 -14 6 472.04 28.29
-5 14 6 494.25 26.13
-5 -14 6 502.88 26.74
-5 14 6 444.64 26.62
4 14 -6 320.03 24.62
4 14 -6 357.43 22.49
4 14 -6 350.65 28.44
-4 -14 6 333.12 20.64
-4 14 6 330.36 20.75
-4 -14 6 331.03 22.15
-4 14 6 373.41 20.31
3 -14 -6 77.88 10.58
3 14 -6 52.62 13.96
-3 -14 6 79.29 10.73
3 14 -6 54.18 11.73
-3 14 6 70.72 11.37
3 14 -6 80.9 17.61
2 -14 -6 121.99 10.88
2 14 -6 83.01 15.76
2 14 -6 111.44 13.13
-2 14 6 115.37 14.35
2 14 -6 125.2 18.79
-2 14 6 109.23 12.14
1 -14 -6 154.63 11.46
1 -14 -6 140.86 9.99
1 14 -6 168.65 14.75
-1 14 6 133.67 15.58
0 -14 -6 354.72 17.9
0 14 -6 359.44 21.55
0 14 -6 369.01 22.59
0 -14 -6 285.17 17.34
0 14 6 356.65 23.3
0 -14 -6 366.58 20.38
-1 14 -6 270.78 18.61
-1 -14 -6 235.52 13.08
1 14 6 262.36 19.96
-1 14 -6 240.04 16.52
-1 -14 -6 222.75 16.66
-1 14 -6 254.32 18.21
-2 -14 -6 123.98 12.55
-2 14 -6 127.86 14.17
-2 -14 -6 124.71 7.64
2 -14 6 128.6 13.77
2 14 6 150.24 15.88
-2 -14 -6 127.2 13.06
-2 14 -6 163.63 12.8
-2 14 -6 145.37 14.41
2 14 6 113.27 14.87
-2 -14 -6 121.65 11.26
-3 14 -6 47.61 11.6
-3 -14 -6 43.36 10.5
3 14 6 35.91 6.05
3 14 6 29.87 11.93
-3 14 -6 46.79 11.27
-3 14 -6 32.42 9.27
-3 -14 -6 42.01 9.12
3 14 6 37.82 12.14
-4 14 -6 4.74 10.76
-4 14 -6 22.89 10.44
4 14 6 6.6 4.37
4 14 6 4.02 11.19
-4 -14 -6 17.06 15.55
-4 -14 -6 5.77 10.33
-4 14 -6 2.43 10.07
-4 -14 -6 4.05 9.07
4 14 6 -6.85 11.72
-5 14 -6 35.99 11.33
5 14 6 13.31 12.22
-5 14 -6 17.34 11.68
-5 -14 -6 30.26 11.54
5 14 6 18.08 3.85
-5 -14 -6 20.51 16.89
-6 14 -6 3.9 12.79
6 -14 6 1.21 10.4
-6 14 -6 13.01 11.71
-6 -14 -6 -12.63 11.49
7 -14 6 -2.47 11.16
7 14 6 -3 13.42
-7 -14 -6 -21.9 19.95
-7 -14 -6 3.81 12.16
-8 -14 -6 24.03 16.67
8 -14 6 5.11 12.13
8 14 6 -4.67 14.47
-8 14 -6 17.84 15.76
-8 -14 -6 11.86 20.12
9 -14 6 5.28 12.33
9 14 6 38.79 16.14
-9 -14 -6 20.54 23.01
-9 -14 -6 11.53 16.69
10 -14 6 30.11 13.76
10 14 6 25.14 17.12
-10 -14 -6 -13.86 23.61
11 -14 6 9.95 14.58
-11 -14 -6 -26.86 27.28
-13 15 6 13.73 17.3
-12 15 6 3.02 14.52
-12 15 6 -5.77 15.13
-12 -15 6 3.01 25.46
-12 15 6 -8.87 15.39
11 15 -6 -2.21 20.83
-11 15 6 7.11 14.1
-11 15 6 13.57 14.22
-11 15 6 52.44 16.14
10 15 -6 8.69 15.69
-10 15 6 17.35 14.28
10 15 -6 1.8 15.12
-10 15 6 5.05 12.59
-10 15 6 4.54 13.24
10 15 -6 10.74 19.17
9 15 -6 19.42 13.55
-9 -15 6 10.91 11.65
-9 15 6 6.21 12.58
9 15 -6 -6.16 12.9
9 15 -6 8.85 14.43
-9 15 6 10.3 11.04
9 15 -6 -2.11 18.62
-8 -15 6 -3.99 12.05
-8 15 6 1.16 11.08
8 15 -6 10.92 11.77
8 15 -6 -5.26 13.86
8 15 -6 18.57 18.03
-8 -15 6 19.05 12.08
-7 -15 6 2.48 11.39
7 15 -6 10.4 13.46
7 15 -6 16.27 16.92
-7 -15 6 -3.1 10.53
-7 15 6 1.08 11.07
-6 15 6 38.91 10.52
6 15 -6 16.96 13.39
-6 15 6 34.95 10.64
-6 -15 6 24.07 9.95
-6 -15 6 16.35 10.1
6 15 -6 34.18 18.22
-6 15 6 24.4 10.83
-6 -15 6 21.17 11.65
5 -15 -6 -5.17 9.97
5 15 -6 9.94 12.13
5 15 -6 -1.14 10.41
-5 -15 6 5.14 9.1
-5 15 6 4.65 8.46
-5 15 6 19.05 9.94
5 15 -6 -19.8 15.93
-5 -15 6 -5.61 10.98
4 -15 -6 13.98 10.05
4 15 -6 -4.93 12
-4 -15 6 11.54 9
4 15 -6 21.29 17.87
-4 -15 6 26.97 11.55
-4 15 6 9.39 8.59
4 15 -6 14.37 10.22
-4 15 6 4.47 9.28
3 -15 -6 60.37 9.93
3 15 -6 37.4 13.43
-3 15 6 56.6 10.59
-3 15 6 43.11 11.95
3 15 -6 61.2 18.12
-3 -15 6 59.27 9.83
3 15 -6 53.13 11.47
2 15 -6 28.53 14.77
2 -15 -6 27.58 8.27
2 15 -6 33.21 10.76
-2 15 6 33.01 11.85
2 15 -6 45.71 16.87
-2 15 6 24.17 8.96
1 -15 -6 7.6 7.05
1 15 -6 8.55 9.93
1 -15 -6 -3.44 5.98
-1 15 6 7.43 10.58
1 15 -6 7.64 16.32
0 -15 -6 -0.53 6.11
0 15 -6 10.73 10.09
0 -15 -6 15.3 8.07
0 15 6 5.02 11.4
0 -15 -6 -1.09 6.14
-1 15 -6 -2.06 9.45
-1 15 -6 12.05 9.85
-1 -15 -6 14.36 5.68
1 15 6 20.54 12.08
1 15 6 16.65 11.67
-1 15 -6 0.83 7.64
-1 -15 -6 11.39 8.39
-2 -15 -6 51.05 8.87
-2 15 -6 39.99 11.78
-2 15 -6 36.08 9.3
-2 -15 -6 32.58 5.04
2 -15 6 34 10.73
2 15 6 40.78 12.54
-2 -15 -6 29.61 9.74
-2 -15 -6 29.76 10.14
2 15 6 40.99 12.64
-2 15 -6 45.36 10.97
-3 15 -6 1.77 8.94
-3 15 -6 4.76 11.02
3 15 6 5.12 6.26
3 -15 6 -12.86 10.54
3 15 6 -10.82 11.6
-3 -15 -6 10.42 8.88
-3 15 -6 2.29 9.71
3 15 6 5.56 11.08
-3 -15 -6 3.49 7.82
-4 15 -6 27.38 12.39
4 15 6 5 5.29
4 15 6 -4.18 12.65
-4 15 -6 -16.75 10.29
-4 -15 -6 6.59 10.46
-4 15 -6 12.25 11.42
-4 -15 -6 -3.9 8.64
4 15 6 7.27 11.49
5 15 6 40.1 14.23
-5 15 -6 73.92 14.5
-5 15 -6 58.46 12.36
-5 -15 -6 80.17 12.77
5 15 6 61.59 5.96
-5 -15 -6 64.36 19.25
-6 -15 -6 61.21 13.51
-6 15 -6 57.1 15.04
6 -15 6 50.56 13
-6 -15 -6 67.44 20.09
-6 15 -6 58.87 12.84
7 -15 6 24.57 12.68
7 15 6 23.25 14.66
-7 -15 -6 40.95 20.54
-7 -15 -6 12.62 13.57
8 -15 6 13.29 12.55
8 15 6 -4.83 14.67
-8 -15 -6 -7.36 20.56
9 -15 6 2.75 12.81
9 15 6 -6.68 15.86
-9 -15 -6 21.13 24.3
10 -15 6 1.42 14.02
-10 -15 -6 -11.38 25.04
11 -15 6 11.83 15.28
-13 16 6 -1.58 17.63
-12 16 6 10.59 16.61
-12 16 6 3 15.94
11 -16 -6 48.89 17.24
-11 16 6 59.85 16.19
-11 16 6 50.73 15.7
-11 16 6 55.25 16.14
10 -16 -6 9.5 14.4
-10 16 6 23.98 14.72
10 16 -6 20.59 13.46
-10 16 6 23.38 14.19
-10 16 6 24.88 14.28
10 16 -6 29.4 21.63
-9 -16 6 96.99 16.95
-9 16 6 62 14.79
9 16 -6 59.31 13.83
9 16 -6 47.77 15.86
9 16 -6 72.88 21.89
8 -16 -6 186.29 19.1
8 16 -6 204.96 18.72
8 16 -6 165.79 20.96
-8 16 6 195.15 18.29
-8 -16 6 192.91 18.68
8 16 -6 201.55 26.03
7 -16 -6 206.91 18.24
-7 -16 6 166.65 15.44
-7 -16 6 134.15 15.13
7 16 -6 144.17 23.42
-7 16 6 130.73 15.45
-7 -16 6 169.87 17.55
7 16 -6 136.85 19.06
6 -16 -6 239.09 19.91
6 16 -6 240.55 23.08
-6 16 6 194.06 17.17
-6 16 6 231.33 18.27
-6 -16 6 221.45 19.7
-6 16 6 239.2 16.83
-6 -16 6 258.12 17.75
6 16 -6 309.28 27.56
5 16 -6 226.62 21.35
-5 -16 6 208.82 15.8
-5 -16 6 206.26 17.7
-5 16 6 223.69 15.46
-5 16 6 190.19 16.24
5 16 -6 192.04 24.99
5 -16 -6 205.5 17.26
4 -16 -6 215.34 16.32
4 16 -6 228.82 21.09
4 16 -6 221.46 18.28
-4 -16 6 211.17 15.77
-4 16 6 207.48 19.92
-4 16 6 211.35 16.82
-4 -16 6 233.32 17.97
-4 16 6 203.77 15.05
4 16 -6 259.98 26.1
-3 16 6 101.09 12.31
3 -16 -6 89.47 11.05
3 16 -6 125.77 17.03
3 16 -6 93.75 13.42
-3 16 6 106.1 14.76
-3 16 6 72.71 14.32
3 16 -6 111.56 21.01
-3 -16 6 70.83 10.67
2 16 -6 28.21 14.09
2 -16 -6 15.92 8.18
2 16 -6 2.25 10.25
-2 16 6 22.86 12.23
2 16 -6 14.16 17.3
-2 16 6 21.46 12.67
1 -16 -6 0.66 7.08
1 16 -6 -8.93 10.5
1 -16 -6 9.42 6.95
-1 16 6 8.98 11.85
1 16 -6 14.23 16.15
-1 16 6 20.1 12.33
0 -16 -6 50.12 8.06
0 16 -6 46.12 11.69
0 -16 -6 45.96 8.93
0 16 6 44.52 12.72
0 -16 -6 59.93 8.32
0 16 6 62.34 14.37
-1 -16 -6 191.56 11.61
-1 16 -6 160.18 16.44
1 16 6 175.24 17.79
-1 16 -6 174.82 14.13
1 16 6 205.03 18.71
-1 -16 -6 181.83 14.26
-1 16 -6 197.51 16.01
-2 16 -6 55.13 13.26
-2 -16 -6 65.86 11.07
2 -16 6 40.94 13.98
2 -16 6 61.76 11.9
-2 16 -6 59.63 12.16
2 16 6 78.01 14.22
-2 16 -6 71.51 10.45
-2 -16 -6 71.36 10.78
2 16 6 86.42 14.74
-2 16 -6 75.18 10.48
-3 16 -6 44.84 13.42
3 -16 6 53.81 12.17
-3 16 -6 58.76 10.02
3 16 6 46.33 13.28
3 16 6 44.91 8.19
-3 -16 -6 39.78 10.22
-3 16 -6 66.78 12.84
3 16 6 51.52 13.52
-3 -16 -6 57.9 14.87
-4 -16 -6 36.04 10.75
-4 16 -6 11.68 12.56
-4 -16 -6 48.29 15.19
4 16 6 28.54 6.85
4 16 6 44.77 13.16
-4 16 -6 15.44 9.7
-4 16 -6 13.55 11.65
4 16 6 50.74 14.47
5 16 6 8.06 13.57
-5 16 -6 20.35 13.16
-5 16 -6 21.35 11.06
5 16 6 -1.49 13.07
5 16 6 -2.5 5.37
-5 -16 -6 3.05 10.9
-5 16 -6 1.31 11.72
-6 16 -6 7.09 13.34
6 -16 6 6.61 12
6 16 6 1.81 5.07
-6 -16 -6 13.19 19.28
-6 16 -6 4.65 11.45
7 -16 6 16.18 12.67
7 16 6 17.65 15.53
-7 -16 -6 11.81 20.19
-7 16 -6 20.04 13.03
8 -16 6 13.83 12.91
8 16 6 21.64 16.81
-8 -16 -6 17.76 21.94
9 -16 6 27.13 14.63
-9 -16 -6 8.18 24.01
10 -16 6 -5.91 14.66
-10 -16 -6 35.08 28.51
-13 17 6 70.41 19.28
-12 17 6 103.06 19.6
-12 17 6 130.15 20.53
11 -17 -6 32.76 17.73
-11 17 6 35.59 15.56
-11 17 6 39.02 15.43
-11 17 6 82.26 17.48
10 -17 -6 35.74 15.69
-10 17 6 59.77 15.45
10 17 -6 28.36 21.94
10 17 -6 27.51 14.14
-9 -17 6 83.99 16.26
-9 17 6 85.32 15.21
9 -17 -6 25.88 14.86
9 17 -6 55.39 14.5
9 17 -6 66.62 18.06
9 17 -6 23.1 20.75
8 -17 -6 12.75 13.88
8 17 -6 25.38 13.23
8 17 -6 26.57 15.86
-8 -17 6 9.29 12.77
8 17 -6 36.52 19.81
-8 17 6 4.62 12.13
-7 17 6 24 10.14
7 -17 -6 6.53 12.39
7 17 -6 20.61 14.97
7 17 -6 32.52 12.91
7 17 -6 40.7 19.98
-7 17 6 3.23 10.75
-7 17 6 16.94 10.79
-7 -17 6 16.27 12.61
-6 17 6 18.08 10.36
6 17 -6 1.84 14.42
-6 -17 6 9.74 9.44
6 -17 -6 2.39 11.78
6 17 -6 13.38 19.21
-6 -17 6 3.57 11.96
-6 17 6 7.19 8.89
5 -17 -6 8.71 10.79
-5 17 6 9.24 10.04
5 17 -6 5.4 13.47
-5 -17 6 5.87 9.5
5 17 -6 19.8 19.37
-5 -17 6 18.14 11.88
-5 17 6 15.34 8.72
-4 -17 6 7.95 9.02
4 -17 -6 -1.96 9.82
4 17 -6 16.17 14.33
4 17 -6 -4.75 10.82
-4 17 6 -3.58 9.84
-4 17 6 10.75 13.84
4 17 -6 17.28 18.32
3 17 -6 62.15 15.71
3 -17 -6 46.07 10.52
-3 17 6 48.04 13.4
-3 17 6 53.43 15.26
3 17 -6 109.34 20.69
-3 17 6 72.95 11.67
3 17 -6 67.21 13.24
2 17 -6 269.09 23.91
2 -17 -6 285.81 17.66
2 17 -6 267.33 20.53
-2 17 6 250.16 20.87
-2 17 6 261.69 22.41
2 17 -6 240.18 27.13
1 -17 -6 347.17 19.14
1 17 -6 345.79 22.83
-1 -17 6 324.57 24.62
-1 17 6 362.22 24.12
1 17 -6 337.19 30.04
-1 17 6 323.04 24.5
1 -17 -6 278.85 18.3
0 -17 -6 208.02 13.56
0 -17 6 196.69 19.93
0 -17 -6 197.43 14.26
0 17 -6 178.15 17.32
0 17 6 228.06 19.83
0 17 6 182.74 19
-1 17 -6 196.33 17.79
1 -17 6 170.72 18.72
1 17 6 153.35 17.56
-1 -17 -6 199.1 14.49
-1 17 -6 171.63 15.63
1 17 6 166.45 18.73
2 -17 6 319.82 26.04
2 -17 6 372.68 23.9
2 17 6 347.4 25.28
-2 17 -6 361.76 24.46
-2 17 -6 331.07 21.04
-2 -17 -6 346.58 21.07
2 17 6 346.5 25.86
-2 17 -6 368.43 22.76
3 17 6 357.73 20.83
-3 17 -6 437.97 27.12
-3 -17 -6 363.47 22.54
3 -17 6 395.11 25.48
3 17 6 437.46 27.99
-3 -17 -6 392.37 27.67
-3 -17 -6 372.96 23.04
-3 17 -6 393.66 24.96
3 17 6 387.82 28.09
-3 17 -6 390.95 22.39
-4 17 -6 424.3 26.29
4 17 6 348.57 19.32
4 17 6 328.08 25.87
-4 17 -6 376.81 22.62
-4 17 -6 349.54 24.01
4 17 6 363.27 27.23
-4 -17 -6 380.15 28.12
5 17 6 256.86 14.52
5 17 6 287.51 23.85
-5 17 -6 230.51 22.03
-5 17 -6 261.14 19.52
-5 17 -6 276.04 22.02
5 17 6 259.85 23.9
-5 -17 -6 292.53 25.29
6 17 6 164.32 21.13
-6 17 -6 156.56 18.86
6 17 6 128.49 9.41
-6 17 -6 109.48 15.3
-6 -17 -6 168.21 25.22
-6 -17 -6 165.3 20.95
-7 -17 -6 133.3 21.01
7 -17 6 112.47 16.53
7 17 6 117.57 18.67
-7 -17 -6 100.48 25.01
-7 17 -6 137.06 16.86
-8 -17 -6 95.91 20.77
8 -17 6 69.07 15.88
-8 -17 -6 78.64 25.12
-8 17 -6 97.57 17.41
-9 -17 -6 123.71 22.5
9 -17 6 69.62 16.79
-9 -17 -6 81.43 27.54
-10 -17 -6 33.06 26.2
-12 18 6 28.49 17.42
-11 18 6 1.42 15.81
10 -18 -6 11.58 15.58
-10 18 6 19.82 14.49
-9 18 6 29.57 13.97
9 -18 -6 37.23 15.61
9 18 -6 56.44 14.81
9 18 -6 48.23 22.04
8 -18 -6 49.14 15.21
8 18 -6 71.25 14.59
8 18 -6 70.83 18.93
8 18 -6 57.33 21.44
-8 18 6 50.62 13.08
-8 -18 6 39.77 14.49
-7 18 6 103.23 12.92
7 -18 -6 112.25 15.99
7 18 -6 81.62 18.68
7 18 -6 98.02 15.42
-7 18 6 96.63 13.99
-7 18 6 88.28 14
7 18 -6 97.18 23.83
-7 -18 6 78.97 14.68
6 -18 -6 130.8 15.34
6 18 -6 93.58 18.02
6 18 -6 136.93 16.43
-6 18 6 125.99 14.42
6 18 -6 135.85 24.47
-6 -18 6 110.35 15.92
-6 18 6 100.42 12.28
5 -18 -6 112.43 14.51
5 18 -6 153.7 19.91
5 18 -6 113.32 22.88
-5 -18 6 120.28 14.66
-5 18 6 122.76 12.17
-5 18 6 110.93 13.52
4 -18 -6 152.29 15.53
4 18 -6 198.72 21.44
-4 18 6 170.83 18.1
-4 18 6 179.14 15.27
-4 18 6 133.67 19.88
4 18 -6 188.95 25.79
3 -18 -6 201.21 15.86
3 18 -6 210.9 22.49
3 18 -6 219.17 18.85
-3 18 6 178.41 19.1
-3 18 6 210.03 16.03
-3 18 6 148.41 19.59
3 18 -6 203.66 26.78
2 18 -6 279.58 24.28
-2 18 6 284.97 22.39
2 -18 -6 256.19 17.61
2 18 -6 236.51 20.56
-2 18 6 258.36 23.06
2 18 -6 199.54 26.12
1 -18 -6 216.82 15.08
1 18 -6 195.4 18.4
-1 18 6 219 20.09
-1 -18 6 218.55 20.89
1 18 -6 185.35 27.16
-1 18 6 180.78 20.21
0 18 -6 108.79 14.85
0 -18 6 62.49 15.17
0 18 6 108.16 16.41
0 18 6 73.53 16.43
-1 18 -6 25.44 12.39
1 -18 6 45.52 15.45
1 18 6 30.5 13.67
1 18 6 19.04 13.46
-2 18 -6 38.09 13.15
2 -18 6 3.2 13.68
2 -18 6 6.49 11.14
2 18 6 11.84 12.9
2 18 6 -8.06 14.04
-2 18 -6 16.54 9.1
-2 18 -6 16.29 10.45
-3 18 -6 47.64 14.39
3 -18 6 17.35 11.92
-3 -18 -6 28.8 14.57
-3 18 -6 24.97 9.05
3 18 6 21.21 13.93
3 18 6 14.81 14.1
-3 18 -6 35.62 11.83
-4 18 -6 -1.41 12.79
-4 18 -6 -6.36 9.63
4 18 6 -0.6 7.22
4 -18 6 2.74 11.47
4 18 6 9.32 13.48
-4 18 -6 15.97 11.91
4 18 6 10.28 15.09
-4 -18 -6 8.48 15.81
-5 18 -6 -8.85 14
5 18 6 13.53 7.2
5 18 6 3.2 14.54
-5 18 -6 24.59 11.61
5 18 6 -1.76 15.42
-5 18 -6 5.29 12.69
-5 -18 -6 -3.56 16.1
6 18 6 -1.85 15.88
-6 18 -6 -7.68 14.86
-6 18 -6 -10.19 12.29
-6 -18 -6 9.26 16.53
6 18 6 -0.85 6.18
-6 18 -6 -2.82 13.12
-7 18 -6 18.43 12.6
-7 -18 -6 1.91 16.9
7 -18 6 2.93 13.86
-7 -18 -6 -7.58 23.39
7 18 6 -1.13 5.74
-8 -18 -6 15.93 18.8
8 -18 6 -2.99 13.81
-8 -18 -6 -13.56 24.38
-8 18 -6 -23.7 14.56
-9 -18 -6 -11.58 24.84
-9 18 -6 13.79 15.12
-11 19 6 1.41 15.53
-10 19 6 -7.9 13.95
10 -19 -6 6.77 16.7
9 -19 -6 -3.17 14.76
-9 19 6 19.66 13.74
8 -19 -6 1.47 13.99
8 19 -6 6.57 13.23
-8 19 6 18.28 12.32
-8 19 6 7.37 11.06
8 19 -6 27.47 21.98
-7 19 6 10.98 10.74
7 -19 -6 -2.72 12.89
7 19 -6 12.08 16.21
7 19 -6 6.51 12.45
7 19 -6 32.28 21.78
-7 19 6 9.9 9.65
6 -19 -6 11.24 12.98
-6 19 6 5.76 10.74
6 19 -6 29.72 16.68
6 19 -6 19.42 13.46
6 19 -6 14.71 21.51
-6 19 6 8.14 9.3
5 -19 -6 3.44 11.46
5 19 -6 35.14 16.24
-5 19 6 12.93 10.64
-5 -19 6 22.57 11.94
-5 19 6 14.6 8.48
5 19 -6 -2.42 21.04
4 -19 -6 9.39 10.58
4 19 -6 -9.74 15.87
-4 19 6 -4.11 12.76
-4 19 6 -7.05 15.95
4 19 -6 -7.18 21.07
-4 19 6 12.85 9.79
3 19 -6 15.42 15.37
3 -19 -6 1.89 9.95
3 19 -6 15.29 12.33
-3 19 6 -5.61 12.56
-3 19 6 6.84 14.99
3 19 -6 -2.39 19.84
2 -19 -6 33.1 10.16
2 19 -6 45.77 13.2
-2 19 6 42.71 14.87
-2 -19 6 21.4 14.42
2 19 -6 40.66 21.62
-2 19 6 58.75 16.06
1 -19 -6 7.51 8.42
1 19 -6 21.69 12.74
-1 19 6 23.26 14.23
-1 -19 6 11.54 13.6
1 19 -6 24.15 21.49
-1 19 6 1.67 14.49
0 19 -6 35.03 13.41
0 -19 6 -1.64 13.1
0 19 6 -5.93 13.24
0 19 6 8.36 13.52
-1 19 -6 -13.34 12.9
1 -19 6 -14.77 13.2
1 19 6 18.11 12.9
1 19 6 -1.69 13.77
-2 19 -6 -1.09 10.62
-2 19 -6 -9.61 12.59
-2 19 -6 -7.99 8.24
2 -19 6 18.37 14.54
2 19 6 4.61 13.04
2 19 6 3.42 14.61
-2 -19 -6 -3.13 13.49
-3 19 -6 38.3 14.34
3 -19 6 19.48 12.36
3 19 6 31.43 14.81
-3 19 -6 27.12 8.92
-3 19 -6 11.32 9.08
-3 19 -6 22.89 11.64
3 19 6 29.53 16.01
-3 -19 -6 1.64 14.52
-4 19 -6 36.73 14.88
4 -19 6 27.05 12.55
4 19 6 20.95 15.07
-4 19 -6 61.45 11.17
4 19 6 46.64 17.12
-4 19 -6 58.85 13.51
-4 -19 -6 26.02 15.52
-5 19 -6 7.66 14.6
5 19 6 -14.92 15.26
-5 19 -6 -10.53 13.03
-5 19 -6 -10.83 11.07
5 19 6 -11.08 16.6
-5 -19 -6 -1.82 16.65
6 19 6 -9.61 18.25
-6 -19 -6 -11.29 17.98
-6 19 -6 7.74 12.11
6 19 6 8.81 7
-6 19 -6 -11.3 13.83
-7 -19 -6 -7.8 17.87
-7 19 -6 -3.64 13.07
7 -19 6 3.05 14.25
7 19 6 5.13 6.55
-8 -19 -6 2.02 18.3
8 -19 6 7.78 14.5
-8 -19 -6 25.06 25.45
-8 19 -6 -7.81 14.26
-9 19 -6 4.14 15.17
-11 20 6 82.82 18.15
-10 20 6 48.47 15.56
9 -20 -6 88.48 18.2
-9 20 6 64.57 15.43
-8 20 6 139.99 14.21
8 -20 -6 125.94 18.53
-8 20 6 117.5 15.16
-8 20 6 123.92 16.68
7 -20 -6 118.36 17.49
7 20 -6 132.54 17.41
-7 20 6 92.94 12.78
-7 20 6 120.31 14.75
7 20 -6 163.11 27.16
6 -20 -6 190.95 18.41
6 20 -6 131.12 21.2
6 20 -6 154.68 18.39
-6 20 6 206.54 14.6
6 20 -6 151.5 28.25
-6 20 6 170.45 16.11
5 -20 -6 212.68 19.16
5 20 -6 255.97 21.46
5 20 -6 233.59 24.73
-5 20 6 230.21 17.82
-5 20 6 233.32 25.46
5 20 -6 271.94 32.35
4 -20 -6 188.9 16.89
4 20 -6 166.51 21.84
-4 20 6 169.57 18.96
-4 20 6 165.15 14.86
-4 20 6 183.69 23.41
4 20 -6 158.47 26.05
3 -20 -6 266.5 19.27
3 20 -6 255.31 25.83
-3 20 6 339.52 24.07
-3 20 6 227.77 24.02
3 20 -6 185.9 28.68
2 20 -6 217.54 24.9
2 -20 -6 291.35 19.32
2 20 -6 292.55 22.53
-2 -20 6 281.75 24.49
-2 20 6 305.19 24.14
-2 20 6 284.8 25.72
2 20 -6 289.33 31.52
1 20 -6 105.37 16.28
-1 20 6 127.15 17.35
-1 -20 6 103.41 17.74
1 20 -6 91.51 24.64
-1 20 6 76.59 18.58
0 20 -6 155.07 17.6
0 -20 6 119.62 18.76
0 20 6 146.59 18.89
0 20 -6 143.28 25.94
0 20 6 177.98 21.23
-1 20 -6 118.6 16.9
1 -20 6 102.87 17.96
1 20 6 106.75 17.38
1 20 6 96.82 18.93
-2 20 -6 48.07 9.34
-2 20 -6 40.22 11.71
-2 20 -6 32.98 13.89
2 -20 6 34.82 15.49
2 20 6 30.34 15.36
2 20 6 9.03 15.84
-2 -20 -6 14.43 14.28
-3 20 -6 31.12 14.9
3 -20 6 26.08 13.14
3 20 6 13.05 14.89
-3 20 -6 14.76 10.69
-3 20 -6 17.52 9.42
3 20 6 42.03 16.4
-3 -20 -6 43.8 16.6
-4 20 -6 0.83 9.25
-4 -20 -6 24.82 16.42
4 -20 6 2.96 12.61
-4 20 -6 -8.49 12
4 20 6 26.3 16.71
-5 20 -6 -5.65 10.18
-5 20 -6 -5.21 13.3
5 20 6 -7.73 17.06
-5 -20 -6 3.71 16.6
-6 -20 -6 -13.4 18.51
-6 20 -6 -3.2 11.97
-6 20 -6 -16.91 14.68
7 -20 6 1.58 14.5
-7 20 -6 2.37 13.29
-7 -20 -6 15.88 18.32
-7 20 -6 15.05 15.76
-8 20 -6 10.28 14.25
-9 20 -6 -4.1 15.56
9 -21 -6 -16.5 17.53
-9 21 6 16.65 13.11
-9 21 6 -1.92 11.47
-9 21 6 -13.29 14.46
8 -21 -6 9.21 15.65
-8 21 6 1.04 11.48
-8 21 6 5.06 10.22
-7 21 6 2.98 11.81
7 -21 -6 -12.81 14.59
-7 21 6 3.7 10.21
6 -21 -6 2.62 12.98
6 21 -6 23.45 14.07
-6 21 6 3.77 11.1
-6 21 6 9.67 8.71
6 21 -6 -18.77 24.03
-5 21 6 -6.01 10.38
5 -21 -6 16.87 12.09
5 21 -6 -2.77 13.91
-5 21 6 18.41 19.12
5 21 -6 -21.28 23.25
4 21 -6 -12.64 16.44
4 -21 -6 3.31 11.5
-4 21 6 2.96 14.49
-4 21 6 13.9 17.54
4 21 -6 13.19 23.14
3 21 -6 18.82 16.9
3 -21 -6 7.03 10.62
-3 21 6 3.04 14.02
-3 21 6 3.87 17.04
3 21 -6 18.47 22.63
2 21 -6 30.94 17.06
2 21 -6 34.47 14.59
-2 21 6 33.94 15.4
-2 -21 6 28.98 16.49
2 21 -6 97.87 30.95
-2 21 6 1.91 16.57
1 21 -6 40.47 14.67
-1 21 6 39.39 14.94
-1 -21 6 19.81 16.31
1 21 -6 29.35 24.27
-1 21 6 43.53 18.57
0 21 -6 149.7 18.34
0 -21 6 132.07 19.57
0 21 6 125.14 19.15
0 21 -6 193.97 29.36
0 21 6 115.27 20.78
-1 21 -6 157.26 18.57
1 -21 6 130.69 19.76
1 21 6 169.32 20.02
1 21 6 119.38 20.87
-2 21 -6 8.98 14.79
2 -21 6 21.77 15.99
2 21 6 24.84 14.96
2 21 6 32.34 17.81
-2 -21 -6 26.2 15.95
-3 21 -6 117.14 14.78
3 21 6 81.72 12.76
3 -21 6 76.72 15.47
3 21 6 53.82 18.34
-3 21 -6 85.8 11.44
-3 -21 -6 72.5 18.02
4 21 6 101.69 12.36
4 -21 6 117 16.95
-4 -21 -6 123.01 21.18
-4 21 -6 115.78 12.41
-4 21 -6 100.49 12.83
4 21 6 135.49 21.72
-4 21 -6 105.42 16.21
5 -21 6 72.35 16.19
-5 21 -6 61.9 12.46
-5 21 -6 49.11 14.38
5 21 6 40.31 19.99
-5 -21 -6 88.67 20
-6 -21 -6 81.52 21.86
-6 21 -6 59.89 16.13
-6 21 -6 41.64 12.72
6 21 6 53.76 21.14
-7 -21 -6 88.71 21.7
-7 21 -6 69.04 14.86
-7 21 -6 54.07 17.56
-8 21 -6 41.52 18.13
-9 22 6 7.71 12.4
8 -22 -6 -3.13 15.97
-8 22 6 14.52 13.43
7 -22 -6 5.81 14.7
-7 22 6 -1.32 9.6
-7 22 6 -20.49 12.92
6 -22 -6 -8.05 13.24
-6 22 6 -10.79 11.88
5 -22 -6 9.88 13.05
-5 22 6 2.16 20.36
-5 22 6 -13.63 10.18
4 -22 -6 -3.39 12
-4 22 6 4.61 14.61
-4 22 6 21 19.07
4 22 -6 -19.35 24.51
-3 22 6 -1.57 14.81
-3 22 6 16.41 18.11
3 22 -6 -11.06 23.63
-2 22 6 -1.6 15.29
-2 -22 6 -5.68 15.69
2 22 -6 8.33 22.9
-2 22 6 -4.03 18
1 22 -6 -8.75 14
-1 22 6 16.38 15.38
-1 -22 6 35.63 16.58
1 22 -6 47.59 24.3
-1 22 6 24.1 18.73
0 -22 6 11.17 15.86
0 22 6 10 15.73
0 22 -6 5.66 23.55
0 22 6 -9.99 18.09
1 -22 6 -1.87 15.77
-1 -22 -6 -11.22 14.25
1 22 6 -6 18.35
2 -22 6 1.89 15.18
2 22 6 -24.06 19.33
-2 -22 -6 -1.67 15.62
-3 22 -6 -5.92 8.1
-3 22 -6 1.12 11.97
3 22 6 -5.1 10.54
3 -22 6 -4.68 12.82
3 22 6 2.02 18.08
-3 -22 -6 -1.76 16.99
4 22 6 -7.13 9.73
4 -22 6 -1.6 14.26
-4 22 -6 3.31 8.85
4 22 6 -2.05 18.06
-4 22 -6 -7.07 12.59
-4 -22 -6 14.74 18.08
-5 -22 -6 -1.91 17.65
-5 22 -6 3.29 9.72
-5 22 -6 17.76 13.84
5 22 6 -2.1 18.37
-6 -22 -6 3.94 18.98
-6 22 -6 2.75 14.78
-7 22 -6 -8.92 15.4
7 -23 -6 1.48 15.08
-7 23 6 -8.5 11.91
6 -23 -6 24.66 14.95
-6 23 6 4.67 21.77
-6 23 6 2.51 10.69
-5 23 6 9.1 21.68
-4 23 6 1.6 15.92
-4 23 6 -11.06 20.23
-3 23 6 49.1 17.15
-3 -23 6 11.91 16.6
-3 23 6 2.17 20.21
-2 23 6 1.67 15.24
-2 -23 6 15.82 17.95
-2 23 6 -10.66 19.94
-1 -23 6 52.72 18.74
-1 23 6 31.83 19.66
0 -23 6 67.98 18.83
0 23 6 29.51 20.12
1 -23 6 101.17 21.1
-1 -23 -6 104.49 19.55
1 23 6 111.69 22.52
2 -23 6 49.04 18.67
-2 -23 -6 34.17 17.74
2 23 6 6.31 19.33
3 23 6 31.69 11.97
3 -23 6 12.95 14.42
3 23 6 38.02 19.39
-3 -23 -6 -14.33 17.94
-4 23 -6 31.31 14.23
-4 23 -6 33.79 9.61
-4 -23 -6 46.76 18.99
4 23 6 60.02 19.72
-5 -23 -6 73.4 21.47
-5 23 -6 101.82 16.58
5 23 6 85.53 23.41
-6 -23 -6 61.86 22.44
-6 23 -6 16.18 14.82
7 -24 -6 48.29 16.5
-6 24 6 179.24 30.15
-5 24 6 143.09 27.22
-4 24 6 121.01 25.38
-3 -24 6 91.17 21.24
-3 24 6 95.9 24.9
-2 -24 6 92.62 21.06
-2 24 6 78.65 23.42
-1 -24 6 77.13 20
-1 24 6 60.37 22.18
0 -24 6 113.07 21.62
0 24 6 84.42 21.86
0 -24 -6 102.06 18.74
1 24 6 62.06 21.52
-1 -24 -6 64.63 18.79
-2 -24 -6 3.48 17.25
2 24 6 26.48 20.25
3 24 6 2.21 20.9
-3 -24 -6 20.03 17.83
-4 24 -6 1.14 12.63
-4 -24 -6 -17.11 19.45
4 24 6 -13.42 21.05
-5 -24 -6 -3.89 18.94
-6 25 6 -7.71 24.49
-5 25 6 -12.49 24.24
-4 25 6 21.97 22.41
-3 25 6 -9.59 21.92
-2 25 6 -7.09 21.83
-1 25 6 11.73 22.42
0 25 6 30.33 23.35
0 -25 -6 -8.09 17.23
1 25 6 -25.55 23.24
-1 -25 -6 11.8 17.29
2 25 6 -4.62 22.02
-2 -25 -6 -5.3 17.27
-3 -25 -6 3.68 18.64
-4 -25 -6 15.27 19.94
-4 26 6 -15.32 25.35
-3 26 6 15.07 24.22
-2 26 6 24.82 23.73
-1 26 6 34.45 24.15
1 -26 -6 -4.74 16.53
0 26 6 26.88 23.64
0 -26 -6 6.54 17.79
-1 -26 -6 -10.27 18.77
-2 -26 -6 -1.79 18.15
-3 -26 -6 9.3 19.02
-4 -26 -6 30.6 21.04
1 -27 -6 38.22 17.91
0 -27 -6 26.46 19.24
-1 -27 -6 82.99 21.12
-2 -27 -6 115.09 22.54
-3 -27 -6 42.9 20.97
1 -28 -6 17.58 18.2
0 -28 -6 21.72 18.83
-1 -28 -6 -3.48 19.11
-2 -28 -6 7.22 20.28
-16 0 7 10.36 26.06
-15 0 7 -2.39 22.24
-14 0 7 30.53 18.89
-14 0 7 30.66 20.32
-13 0 7 28.47 17.71
-13 0 7 -3.99 17.86
-12 0 7 -22.71 15.74
-12 0 7 3.62 16.7
-11 0 7 8.78 13.71
-11 0 7 4.86 14.92
-10 0 7 6.5 13.67
-10 0 7 5.51 11.92
-10 0 7 10.08 13.64
-9 0 7 2.58 11.28
-9 0 7 -6.31 12.27
-8 0 7 -14.53 11.11
-8 0 7 -1.09 10.5
-7 0 7 2.26 9.45
7 0 -7 -0.97 8.4
-7 0 7 20.66 9.94
-6 0 7 1.07 9.21
6 0 -7 -5.29 8.4
-6 0 7 -2.08 7.6
-5 0 7 4.21 7.99
-5 0 7 -12.23 9.25
5 0 -7 -3.2 7.35
-5 0 7 3.1 8.16
-4 0 7 -9.16 8.17
-4 0 7 6.13 8.26
-4 0 7 -2.84 7.92
4 0 -7 -2.15 6.78
-4 0 7 -6.06 7.59
-3 0 7 2.51 8.07
-3 0 7 -6.65 7.77
3 0 -7 4.5 6.5
-3 0 7 1.01 8.08
-2 0 7 5.89 4.33
2 0 -7 4.01 5.97
-2 0 7 13.45 8.03
-2 0 7 10 7.84
1 0 -7 0.96 6.52
1 0 -7 -8.1 5.83
-1 0 7 -0.96 7.59
0 0 -7 0.89 4.71
0 0 -7 8.79 7.34
-1 0 -7 -0.99 5.26
-1 0 -7 3.18 4.27
-1 0 -7 1.01 6.89
-2 0 -7 0.36 4.07
-2 0 -7 9.03 5.2
-2 0 -7 8.8 7.56
-2 0 -7 7.79 5.87
-2 0 -7 3.02 6.22
-2 0 -7 -1.04 7.08
-3 0 -7 2.47 3.86
-3 0 -7 -1.88 5.24
-3 0 -7 -5.34 7.46
-3 0 -7 3.28 7.07
-3 0 -7 -9.52 8.13
-4 0 -7 19.55 5.87
-4 0 -7 4.54 8.05
-4 0 -7 -2.8 8.72
-4 0 -7 5.79 8.08
-4 0 -7 11.16 9.54
-5 0 -7 11.21 6.32
-5 0 -7 -9.28 9.39
-5 0 -7 -13.77 9.36
-5 0 -7 1.25 9.77
-5 0 -7 -1.2 9.9
-6 0 -7 -8.96 8.86
-6 0 -7 5.13 9.81
-7 0 -7 1.34 10.46
-7 0 -7 11.45 8.57
-7 0 -7 1.24 5.2
-8 0 -7 19.85 11.98
-8 0 -7 4.41 9.21
-8 0 -7 -1.67 14.17
-9 0 -7 27.95 16.67
-10 0 -7 6.21 17.75
-11 0 -7 -2.29 19.66
12 0 7 -5.2 7.39
-12 0 -7 10.12 22.67
-16 -1 7 15.89 25.09
-16 1 7 10.16 24.42
-15 -1 7 51.4 23.89
-15 1 7 -2.33 21.39
-14 -1 7 73.06 20.14
-14 1 7 60.19 19.82
-14 -1 7 31.47 21.96
-14 1 7 31.86 21
-13 -1 7 43.35 18.01
-13 1 7 13.98 16.38
-13 -1 7 32.85 19.35
-13 1 7 30.83 18.33
-12 -1 7 34.66 16.15
-12 1 7 50.04 16.9
-12 -1 7 31.75 18.23
-12 1 7 34.81 18.14
-11 -1 7 51.71 16.29
-11 1 7 54.8 15.76
-11 -1 7 42.05 16.42
-11 1 7 34.21 15.5
-10 -1 7 39.68 14.37
-10 -1 7 67.5 14.12
-10 1 7 64.8 13.6
-10 -1 7 49.66 15.76
-10 1 7 26.22 13.84
-9 -1 7 15.47 11.2
-9 1 7 5.17 11.48
-9 -1 7 23.88 13.18
-9 1 7 22.9 12.21
8 1 -7 254.9 18.62
-8 -1 7 254.43 20.04
-8 1 7 231.74 18.85
-8 -1 7 244.2 19.55
-8 1 7 257.2 19.43
-7 -1 7 39.59 10.93
-7 1 7 31.75 10.04
7 1 -7 26.84 9.45
-7 -1 7 35.4 10.94
-7 1 7 7.59 9.39
-6 1 7 3.23 8.59
-6 -1 7 10.72 9.61
-6 1 7 1.1 9.5
6 1 -7 10.07 8.15
-6 -1 7 9.88 8.02
6 -1 -7 18.1 8.22
-6 1 7 12.1 7.21
-5 -1 7 3.19 8.32
-5 1 7 13.54 8.02
-5 1 7 6.93 8.44
5 1 -7 6.65 7.38
-5 1 7 2.79 5.52
5 -1 -7 17.72 7.48
-5 -1 7 18.56 9.56
-5 1 7 12.4 8.57
-4 -1 7 22.32 8.88
-4 1 7 9.72 7.79
-4 -1 7 25.59 8.9
-4 1 7 11.4 8.22
4 1 -7 7.62 7.32
4 -1 -7 13.01 6.62
-4 -1 7 10.1 8.64
-4 1 7 6.07 7.8
-4 -1 7 7.24 8.65
-4 1 7 10.11 8.35
-3 -1 7 38.84 8.41
-3 1 7 31.46 8.74
-3 -1 7 40.84 9.36
3 1 -7 43.3 7.57
3 -1 -7 34.4 6.56
-3 1 7 42.83 9.13
-3 -1 7 37.85 9.8
-3 1 7 24.03 8.84
-2 1 7 300.63 18.48
-2 1 7 352.76 15.63
-2 -1 7 353.4 16.93
2 1 -7 333.89 18.3
2 -1 -7 332.32 17.51
-2 -1 7 349.92 20.85
-2 1 7 350.56 20.88
2 1 -7 304.99 15.05
-2 -1 7 353 21.17
-2 1 7 331.18 20.77
-1 -1 7 327.65 16.65
1 1 -7 343.95 17.81
1 -1 -7 323.31 16.55
-1 -1 7 297.58 19.93
-1 1 7 309.46 20.23
1 1 -7 314.66 15.91
1 -1 -7 347.7 20.4
0 1 -7 629.8 27.47
0 1 -7 611.09 27.56
0 -1 -7 558 25.89
0 -1 -7 586.09 30.12
0 -1 -7 543.22 25.03
-1 1 -7 608.54 27.57
-1 -1 -7 574.13 25.86
-1 -1 -7 586.02 27.09
-1 -1 -7 572.49 30.38
-1 1 -7 571.48 27.49
-1 -1 -7 612.82 30.56
-1 1 -7 579.28 30.92
-1 -1 -7 594.93 30.93
-1 -1 -7 592.8 26.94
-2 1 -7 348.19 18.07
-2 -1 -7 349.47 16.23
-2 1 -7 360.09 18.47
-2 1 -7 370.62 19.22
-2 -1 -7 355.73 17.73
-2 -1 -7 349.16 21.2
-2 -1 -7 368.5 18.37
-2 1 -7 363.79 21.44
-2 -1 -7 353.17 21.17
-2 1 -7 376.07 22.1
-2 -1 -7 314.18 21.43
-2 -1 -7 380.38 19.18
-3 1 -7 264.05 14.94
-3 -1 -7 274.44 12.96
-3 -1 -7 311.65 16.53
-3 -1 -7 268.47 14.58
-3 1 -7 281.06 15.58
-3 1 -7 282.67 17.1
-3 1 -7 277.98 18.67
-3 -1 -7 315.68 18.66
-3 1 -7 264.15 18.8
-3 -1 -7 260.64 18.41
-4 -1 -7 550.18 25.03
-4 -1 -7 601.59 26.61
-4 1 -7 571.83 27.47
-4 -1 -7 557.13 28.66
-4 1 -7 581.86 29.65
-4 1 -7 556.31 30.1
-4 -1 -7 579.26 30.28
-4 1 -7 616.47 32.12
-4 -1 -7 614.81 31.81
-4 -1 -7 651.25 31.3
-4 -1 -7 567.27 31.92
-4 1 -7 623.62 31.77
-5 1 -7 327.84 17.33
-5 1 -7 300.36 19.57
-5 1 -7 297.03 19.52
-5 -1 -7 315.08 19.52
-5 -1 -7 277.4 13.77
-5 1 -7 369.95 22.72
-5 -1 -7 284.86 20.9
-5 1 -7 320.41 21.53
-5 -1 -7 350.74 22.05
-5 -1 -7 340.77 22.42
-6 -1 -7 188.3 18.48
-6 1 -7 184.23 16.01
-6 -1 -7 184.66 10.23
-6 1 -7 200.72 15.27
-6 -1 -7 187.68 15.12
-6 -1 -7 225.13 19.04
-6 1 -7 212.51 18.05
-7 -1 -7 93.33 16.46
-7 -1 -7 102.59 15.05
-7 1 -7 94.59 14.05
-7 1 -7 102.6 12.16
-7 -1 -7 114.71 12.67
-8 -1 -7 112.81 15.59
-8 1 -7 58.89 13.07
-8 1 -7 111.45 12
-8 -1 -7 84.11 11.31
-8 -1 -7 113.69 18.24
-9 -1 -7 88.02 18.4
-10 1 -7 87.02 19.72
10 -1 7 44.88 8.63
-10 -1 -7 52.25 19.47
-11 1 -7 22.86 20.66
11 -1 7 35.4 8.58
-11 -1 -7 18.58 19.51
-12 1 -7 -2.51 21.95
-12 -1 -7 -2.57 22.55
12 -1 7 9.86 8.19
-16 -2 7 24.39 26.37
-16 2 7 9.94 24.24
-15 -2 7 -2.51 23.84
-15 2 7 6.8 21.58
-14 -2 7 -4.49 19.34
-14 2 7 18.99 18.04
-14 -2 7 -16.19 22.57
-14 2 7 22.76 19.77
-13 -2 7 48.34 19.56
-13 2 7 60.75 17.96
-13 -2 7 38.23 19.95
-13 2 7 43.05 18.83
-12 -2 7 224.9 23.75
-12 2 7 243.96 23.09
-12 -2 7 212.64 24.54
-12 2 7 163.21 21.98
-11 -2 7 237.95 23.01
-11 2 7 204.4 21.21
-11 -2 7 169.79 22.25
-11 2 7 208.41 21.55
-10 -2 7 206.95 21.39
-10 2 7 230.82 19.98
-10 -2 7 263.67 22.87
-10 -2 7 227.37 20.12
-10 2 7 194.06 19.54
-9 -2 7 528.32 33.85
9 2 -7 615.91 32.57
-9 -2 7 546.98 34.26
-9 2 7 568.35 32.11
-9 -2 7 600.4 33.3
-9 2 7 583.49 33.16
8 2 -7 387.03 23.24
-8 -2 7 395.89 25.04
-8 2 7 333.95 22.3
-8 -2 7 351.67 23.47
-8 2 7 376.95 24.2
7 2 -7 308 20.5
-7 -2 7 347.06 21.93
-7 2 7 327.18 19.56
-7 -2 7 331.29 21.6
-7 2 7 309.45 21.5
-6 2 7 519.97 28.43
6 2 -7 527.83 27.73
-6 -2 7 500.81 27.05
-6 2 7 495.87 25.17
-6 -2 7 507.99 28.68
-6 2 7 524.38 28.76
-5 2 7 950.04 43
5 2 -7 876.15 42.13
-5 2 7 849.84 38.01
-5 -2 7 894.3 43.11
-5 2 7 870.94 43.02
-5 -2 7 868.46 43.07
-5 2 7 926.25 43.36
-4 -2 7 829.08 39.4
-4 2 7 740.74 37.72
-4 -2 7 773.19 38.49
-4 2 7 808.39 38.71
4 2 -7 753.5 37.46
-4 2 7 766.86 39.05
-4 -2 7 852.48 39.61
-4 2 7 780.95 38.87
-3 2 7 536.85 26.3
-3 2 7 503.48 22.14
3 2 -7 528.63 26.23
3 -2 -7 508.37 24.69
-3 -2 7 537.26 27.8
-3 2 7 500.71 27.42
-3 -2 7 489.98 28.05
-3 2 7 485.38 27.52
3 2 -7 480.52 23.3
3 2 -7 546.2 27.5
3 -2 -7 546.84 27.35
-2 2 7 636.62 30.63
-2 -2 7 661.34 29.6
2 2 -7 645.52 30.76
2 -2 -7 619.34 29.31
-2 -2 7 638.79 32.71
-2 2 7 636.61 32.95
2 2 -7 611.57 28.66
-2 -2 7 682.8 33.5
-2 2 7 633.1 32.91
-1 -2 7 519.96 24.43
1 2 -7 535.44 25.54
1 -2 -7 501.28 23.23
-1 -2 7 477.47 27.34
-1 2 7 444.78 26.99
1 -2 -7 514.42 27.12
0 2 -7 572.34 27.26
0 2 -7 593.4 29.18
0 -2 -7 598.62 29.03
0 2 -7 583.58 27.05
0 -2 -7 573.25 29.31
0 -2 -7 525.38 24.5
0 -2 -7 542.42 29.11
0 -2 -7 530.05 24.03
0 -2 -7 600.05 29.56
-1 2 -7 207.77 12.98
-1 2 -7 206.15 12.91
-1 -2 -7 207.71 11.74
-1 -2 -7 203.25 14.77
-1 -2 -7 196.88 9.87
-1 2 -7 189.71 14.93
-1 -2 -7 198.8 14.64
-1 2 -7 216.83 15.74
-1 -2 -7 221.79 15.6
-1 -2 -7 199.26 11.81
-2 2 -7 58.53 7.91
-2 -2 -7 68.23 6.2
-2 2 -7 82.44 8.3
-2 -2 -7 73.39 7.19
-2 -2 -7 72.45 9.89
-2 2 -7 54.19 9.29
-2 -2 -7 70.26 9.02
-2 2 -7 90.85 10.58
-2 -2 -7 84.78 10.57
-2 -2 -7 52.56 7.66
-3 -2 -7 112.84 9.47
-3 -2 -7 108.28 7.65
-3 2 -7 94.73 9.07
-3 2 -7 100.5 11.53
-3 -2 -7 98.1 11.28
-3 -2 -7 95.27 11.03
-3 2 -7 122.02 11.44
-3 -2 -7 102.9 11.49
-4 -2 -7 19.18 10.24
-4 2 -7 41.97 7.71
-4 2 -7 27.76 9.51
-4 2 -7 27.76 9.15
-4 -2 -7 32.74 9.1
-4 2 -7 30.16 9.73
-4 -2 -7 32.23 8.82
-4 2 -7 39.16 10.22
-4 -2 -7 17.25 9.64
-4 -2 -7 30.54 5.1
-5 2 -7 -5.5 7.07
-5 2 -7 10.27 10.16
-5 2 -7 11.04 9.36
-5 -2 -7 -4.62 8.41
-5 2 -7 -2.51 9.56
-5 -2 -7 -6.23 8.94
-5 -2 -7 -16.69 11.38
-5 2 -7 -4.46 9.92
-5 -2 -7 -12.46 11.02
-6 2 -7 14.2 10
-6 2 -7 7.12 9.98
-6 -2 -7 6.86 3.45
-6 -2 -7 15.78 13.23
-6 2 -7 8.93 9.51
-6 -2 -7 7.33 8.76
-6 -2 -7 12.31 11.65
-7 -2 -7 58.88 14.49
-7 2 -7 66.87 12.67
-7 2 -7 56.51 10.31
-7 -2 -7 73.34 11.41
-7 2 -7 63.84 13.23
-7 -2 -7 78.14 15.55
-8 -2 -7 75.53 14.88
-8 2 -7 11.91 11.88
-8 2 -7 30.85 9.75
-8 -2 -7 22.11 14.92
-9 -2 -7 61.75 15.47
9 -2 7 18.81 7.38
-9 -2 -7 5.73 16.17
10 -2 7 20.29 8.21
-10 -2 -7 59.68 19.77
-11 2 -7 29.91 20.96
11 -2 7 39.4 9.27
-11 -2 -7 61.33 22.26
-12 2 -7 73.07 24.02
12 -2 7 50.44 10.04
-12 -2 -7 44.05 24.4
-16 -3 7 16.64 26.34
-16 3 7 -14.6 24.29
-15 -3 7 20.6 24.15
-15 3 7 2.22 21.56
-14 -3 7 29.57 19.14
-14 3 7 -6.24 17.16
14 -3 -7 8.1 9.54
-14 -3 7 2.38 20.89
-14 3 7 14.11 18.49
-13 -3 7 -2.13 17.4
-13 3 7 -5.77 16.32
-13 -3 7 2.19 18.49
-13 3 7 1.82 16.81
-12 -3 7 -1.99 16.12
-12 3 7 15.99 15.69
-12 -3 7 2 19.27
-12 3 7 14.65 15.74
-11 -3 7 40.59 15.74
-11 -3 7 16.38 16.95
-11 3 7 23.09 15.37
-10 -3 7 3.42 13.58
-10 -3 7 -6.9 12.28
-10 3 7 13.85 12.7
10 3 -7 10.56 10.39
-10 -3 7 -9.84 16
-10 3 7 7.59 12.59
-9 -3 7 33.2 13.32
-9 -3 7 19.38 11.47
-9 3 7 14.3 11.25
9 3 -7 -1.23 10.58
-9 -3 7 16.02 13.8
-9 3 7 13.08 10.34
-8 -3 7 43.56 13.59
-8 -3 7 65.29 12.23
-8 3 7 52.49 12.01
8 3 -7 45.82 11.03
-8 -3 7 35.82 14.1
-8 3 7 51.51 11.42
-7 -3 7 22.65 10.32
-7 3 7 42.26 11.27
-7 3 7 24.18 10.56
7 3 -7 11.7 9.1
-7 -3 7 14.26 11.19
-7 3 7 17.14 8.24
-6 3 7 33.55 10.2
-6 3 7 20.82 9.54
6 3 -7 18.9 8.75
-6 -3 7 27.5 10
-6 -3 7 33.33 9.62
-6 3 7 22.26 7.28
5 3 -7 59.87 7.89
-5 -3 7 49.01 10.34
-5 3 7 56.21 10.03
-5 -3 7 58.96 10.15
-5 3 7 34.98 9.09
-5 3 7 74.01 10.38
5 3 -7 74.51 10.41
-5 3 7 52.92 6.03
-5 -3 7 58.91 10.65
-5 3 7 65.48 10.71
-4 -3 7 -5.34 9.5
-4 3 7 3.96 8.07
-4 -3 7 1.9 7.9
-4 3 7 -6.63 8.13
-4 3 7 -6.69 7.59
4 3 -7 14.65 8.16
-4 3 7 -3.05 8.83
-4 -3 7 9.56 9.05
4 3 -7 2.66 6.12
3 3 -7 136.67 11.87
-3 -3 7 112.97 12.26
-3 3 7 108.54 10.79
3 3 -7 113.64 9.58
-3 3 7 137.07 12.52
3 3 -7 123.82 11.55
3 -3 -7 137.01 11.48
-3 -3 7 102.66 12.25
-3 3 7 95.91 11.75
-2 3 7 257.94 15.54
2 3 -7 278.91 17.02
-2 -3 7 271.27 15.65
-2 -3 7 282.32 18.14
-2 3 7 278.02 18.34
2 3 -7 260.95 15.6
-2 -3 7 289.51 18.58
-2 3 7 234.9 17.71
2 3 -7 270.98 17.64
2 -3 -7 292.02 17.72
-1 3 7 150.29 10.4
1 3 -7 131.29 11.75
-1 -3 7 150.12 11.05
-1 -3 7 147.73 13.54
-1 3 7 128.29 12.83
1 3 -7 145.96 12.67
1 -3 -7 148.06 12.73
0 3 -7 68.55 8.82
0 3 -7 69.09 8.39
0 -3 -7 84.89 9.89
0 3 -7 92.33 9.89
0 -3 -7 46.8 4.55
0 3 -7 61.23 9.79
0 -3 -7 85.7 9.96
0 -3 -7 78.27 9.88
0 -3 -7 90.53 10.23
-1 3 -7 172.92 12.26
-1 3 -7 150.64 11.36
-1 -3 -7 141.36 9.46
-1 -3 -7 153.72 13.02
-1 -3 -7 148.98 10.26
-1 3 -7 172.98 13.52
-1 -3 -7 184.47 13.76
-1 -3 -7 169.74 13.59
-2 3 -7 14.05 6.3
-2 -3 -7 20.88 4.59
-2 -3 -7 19.61 4.81
-2 -3 -7 20.05 7.25
-2 3 -7 26.99 8.52
-2 -3 -7 20.04 8
-2 3 -7 24.88 8.52
-2 -3 -7 19.19 8.13
-2 -3 -7 21.19 6.32
-3 -3 -7 62.78 5.65
-3 3 -7 68.86 8.61
-3 3 -7 52.35 10.68
-3 -3 -7 69.14 10.78
-3 -3 -7 76.82 9.66
-3 3 -7 67.15 9.8
-3 -3 -7 79.07 10.37
-4 -3 -7 9.55 3.85
-4 3 -7 9.06 7.16
-4 -3 -7 -3.44 8.99
-4 3 -7 -6.79 9.02
-4 3 -7 13.3 9.03
-4 3 -7 4.64 9.13
-4 -3 -7 3.97 9.69
-4 -3 -7 0.94 7.94
-4 -3 -7 -4.95 10.18
-4 3 -7 22.78 9.94
-5 3 -7 10.71 7.62
-5 3 -7 6.84 9.99
-5 3 -7 -0.93 8.33
-5 -3 -7 3.73 8.41
-5 3 -7 -15.07 11.36
-5 -3 -7 -1.24 9.61
-5 -3 -7 12.92 11.53
-5 -3 -7 10.59 11.45
-5 3 -7 5.35 9.91
-6 3 -7 150.72 15.24
-6 3 -7 140.85 15.1
-6 -3 -7 134.2 16.94
-6 3 -7 116.05 13
-6 -3 -7 124.44 13.1
-6 -3 -7 124.98 16.91
-7 -3 -7 136.35 17.61
-7 3 -7 107.33 14.98
-7 3 -7 160.47 15.63
-7 -3 -7 146.16 13.92
-7 3 -7 132.16 13.41
-7 -3 -7 148.96 18.72
-8 -3 -7 12.45 13.95
-8 3 -7 15.89 11.97
8 -3 7 9.63 7.21
-8 3 -7 16.1 8.58
-8 -3 -7 59.45 16.97
-9 -3 -7 21.17 14.5
-9 3 -7 2.6 12.09
9 -3 7 21.43 7.83
-9 -3 -7 -7.81 16.57
10 -3 7 -5.2 8.03
-10 -3 -7 8.65 17.78
11 -3 7 -4.63 8.39
-11 -3 -7 23.86 22.72
-12 3 -7 5.09 22.15
12 -3 7 -1.6 9.42
-12 -3 -7 -13.08 23.98
-16 -4 7 2.84 27.13
-16 4 7 9.57 23.75
-15 -4 7 81.9 26.24
-15 4 7 -2.17 21.36
-14 -4 7 16.15 19.87
-14 4 7 10.23 16.25
14 -4 -7 5.84 9.09
-14 -4 7 26.97 23.71
-14 4 7 13.76 18.26
-13 -4 7 32.39 17.75
13 -4 -7 7.21 9.38
-13 4 7 39.77 16.85
-13 -4 7 2.26 20.38
-13 4 7 -8.85 16.45
-12 -4 7 46.39 17.63
12 -4 -7 34.69 9.78
-12 4 7 45.53 16.49
-12 -4 7 41.49 20.53
-12 4 7 28.46 16.07
-11 -4 7 108.86 18.88
11 4 -7 158.66 17.06
-11 -4 7 100.05 20.34
-11 4 7 119.01 17.65
-10 -4 7 62.63 15.66
-10 -4 7 62.26 14.13
-10 4 7 68.11 14.53
10 4 -7 57.88 12.37
-10 -4 7 64.81 17.37
-10 4 7 47.73 12.87
-9 -4 7 33.84 14.06
-9 -4 7 33.72 12.46
-9 4 7 20.92 12.34
9 4 -7 25.26 11.15
-9 -4 7 6.12 13.74
-9 4 7 22.04 10.8
-8 -4 7 35.98 13.15
-8 -4 7 43.61 11.59
-8 4 7 64.97 12.77
8 4 -7 22.4 10.87
-8 -4 7 33.81 13.59
-8 4 7 46.43 10.55
-7 -4 7 99.92 12.97
-7 4 7 62.02 11.7
-7 4 7 60.79 11.63
7 4 -7 59.9 11.36
-7 -4 7 84.7 13.44
-7 4 7 74.63 9.99
-6 -4 7 288.31 20.31
-6 4 7 284.07 19.32
6 4 -7 260.52 19.65
-6 -4 7 293.41 19.93
-6 4 7 284.17 19.85
-6 4 7 300.54 16.44
6 4 -7 325.21 18.54
-5 4 7 464.56 24.66
5 4 -7 437.08 25
-5 -4 7 430.22 24.73
-5 4 7 410.85 19.91
-5 -4 7 462 25.69
-5 4 7 411.37 25.28
-5 4 7 479.04 25.22
-5 -4 7 409.62 25.38
5 4 -7 448.66 23.31
-4 -4 7 109.39 12.05
-4 4 7 118.76 11.29
-4 4 7 117.1 12.2
4 4 -7 113.27 12.28
-4 -4 7 118.46 12.66
4 4 -7 107.74 10.33
3 4 -7 346.81 20.76
3 -4 -7 317.59 20.72
-3 4 7 391.45 20.1
3 4 -7 339.04 19.52
-3 -4 7 382.25 21.76
-3 4 7 363.01 21.57
-3 -4 7 322.36 21.74
3 4 -7 358.62 21.06
3 -4 -7 352.24 21.09
-2 4 7 379.89 20.25
2 4 -7 423.86 22.69
-2 -4 7 419.97 21.08
2 -4 -7 415.18 22.85
-2 -4 7 363.6 22.63
-2 4 7 362.45 22.82
2 4 -7 371.22 21.15
-2 -4 7 425.53 23.74
2 4 -7 378.13 22.47
2 -4 -7 393.97 22.62
-1 4 7 369.5 18.83
1 4 -7 391.49 21.12
-1 -4 7 361.32 19.82
1 4 -7 387.32 20.72
-1 -4 7 381.24 22.53
-1 4 7 370.62 22.39
1 4 -7 348.85 21.58
1 -4 -7 337.37 21.58
1 4 -7 415.13 22.55
0 4 -7 131.84 12.04
0 -4 7 160.74 11.68
0 4 -7 135.88 12.18
0 -4 -7 134.19 12.17
0 4 -7 163.08 11.56
0 -4 -7 159.84 12.98
0 4 -7 144.8 12.57
0 4 -7 128.24 12.57
0 -4 -7 148.82 13.3
0 -4 -7 107.33 12.08
-1 4 -7 -2.22 6.89
-1 4 -7 1.93 5.96
-1 4 -7 10.33 7.93
-1 -4 -7 1.93 6.61
-1 -4 -7 7.62 8.1
-1 -4 -7 -4.03 3.89
-1 -4 -7 -4.44 5.74
-1 4 -7 6.31 7.78
-1 -4 -7 3.85 8.39
-2 -4 -7 56.95 5.99
-2 4 -7 43.9 7.82
-2 -4 -7 45.05 5.11
-2 -4 -7 51.76 9.07
-2 4 -7 59.8 9.53
-2 -4 -7 49.06 9.86
-2 4 -7 45.97 9.97
-2 -4 -7 56.87 10.45
-2 -4 -7 43.23 8.38
-3 -4 -7 -1.75 3.44
-3 4 -7 0.67 6.86
-3 4 -7 -9.62 8.96
-3 -4 -7 2.12 8.79
-3 -4 -7 5.71 6.97
-3 4 -7 -0.85 7.91
-3 -4 -7 -0.86 8.2
-3 4 -7 2.64 8.42
-4 -4 -7 22.85 10.24
-4 4 -7 15.45 8.05
-4 4 -7 6.56 9.53
-4 -4 -7 24.63 8.36
-4 -4 -7 23.02 11.68
-4 -4 -7 17.48 10.24
-4 4 -7 34.77 10.6
-4 4 -7 35.22 10.08
-5 4 -7 136.58 12.53
-5 4 -7 160.26 15.53
-5 4 -7 134.76 13.77
-5 -4 -7 137.22 13.45
-5 4 -7 139.41 15.71
-5 -4 -7 139.88 15.58
-5 -4 -7 159.06 16.68
-5 -4 -7 197.86 18.51
-5 4 -7 166.12 15.15
-6 4 -7 30.39 10.74
-6 4 -7 40.4 9.67
-6 4 -7 38.96 11.84
6 -4 7 63.77 8.75
-6 4 -7 43.07 10.45
-6 -4 -7 78.68 11.58
-6 -4 -7 55.68 14.83
-6 -4 -7 87.27 14.67
-7 -4 -7 19.87 13.74
-7 4 -7 5.79 10.55
-7 4 -7 -5.99 11.45
7 -4 7 8.7 7.4
-7 4 -7 5.11 8.72
-7 -4 -7 21.78 9.43
-7 -4 -7 -11.07 14.7
-8 -4 -7 16 14.44
-8 4 -7 29.38 12.91
8 -4 7 5.26 7.68
-8 4 -7 29.4 9.34
-8 -4 -7 21.36 15.96
-9 -4 -7 1.67 14.37
-9 4 -7 9.46 12.83
9 -4 7 8.56 8.25
-9 -4 -7 1.99 17.36
-10 4 -7 10.01 13.65
10 -4 7 18.56 8.71
-10 -4 -7 39.67 19.89
-11 4 -7 4.56 14.31
11 -4 7 27.54 9.92
-11 -4 -7 12.13 21.29
12 -4 7 9.53 10.23
-12 -4 -7 7.99 24.98
-16 5 7 42.28 24.52
-15 -5 7 46.11 25.75
-15 5 7 47.01 22.55
-14 5 7 10.13 16.88
14 -5 -7 36.93 9.29
-14 -5 7 -7.56 22.66
-14 5 7 1.93 18.32
-13 -5 7 68.28 20.32
-13 5 7 95.37 18.26
13 -5 -7 76.31 10.92
-13 -5 7 86.19 23.47
-13 5 7 81.73 18.35
-12 -5 7 104.87 20.48
12 -5 -7 91.58 12.44
12 5 -7 147.4 18.01
-12 -5 7 130.6 23.55
-12 5 7 103.93 19.23
-11 -5 7 84.53 18.66
-11 5 7 52.14 14.44
11 -5 -7 52.33 10.26
-11 -5 7 72.5 16.04
11 5 -7 41.04 13.68
-11 -5 7 60.66 19.33
-10 5 7 90.95 14.26
-10 -5 7 74.99 16.72
-10 -5 7 111.09 15.82
10 -5 -7 93.08 11.49
10 5 -7 85.77 13.94
-10 -5 7 83.73 19.14
-9 -5 7 174.38 19.32
9 -5 -7 180.24 15.27
9 5 -7 240.94 18.6
-9 -5 7 178.15 21.23
-9 -5 7 184.75 17.97
-9 5 7 189.07 16.78
-8 -5 7 12.4 12.37
-8 -5 7 51.02 12.42
-8 5 7 48 12.48
8 -5 -7 13.79 8.54
-8 5 7 36.53 11.49
8 5 -7 37.9 11.28
-8 -5 7 28.65 13.71
-8 5 7 40.73 10.16
-7 -5 7 23.94 10.94
-7 5 7 3.46 9.53
-7 -5 7 15.97 12.38
7 -5 -7 19.83 8.26
-7 5 7 1.1 9.35
7 5 -7 24.31 10.8
-7 -5 7 12.62 12.25
-7 5 7 12.96 7.63
-6 -5 7 5.87 9.22
6 -5 -7 6.97 8.04
-6 5 7 31.8 9.99
6 5 -7 16.39 9.8
-6 5 7 12.15 6.16
-6 -5 7 16.26 9.24
6 5 -7 25.09 9.56
-6 5 7 2.19 9.34
-5 -5 7 16.79 8.92
-5 5 7 9.79 8.47
5 5 -7 21.21 8.57
5 5 -7 15.41 9.26
-5 5 7 13.28 8.47
-5 -5 7 37.98 9.42
-5 -5 7 23.92 9.41
-5 5 7 19.74 5.26
-5 5 7 9.44 9.36
-4 -5 7 7.62 8.48
-4 5 7 15.43 8.49
4 5 -7 3.92 8.63
-4 5 7 5.47 6.94
4 5 -7 3.96 8.33
-4 -5 7 8.74 8.98
-3 -5 7 58.97 10.24
-3 5 7 89.94 11.27
3 5 -7 64.98 10
-3 5 7 63.69 8.46
3 5 -7 52.16 9.06
3 -5 -7 59.46 9.37
3 -5 -7 52.17 9.25
3 5 -7 47.34 9.57
-3 -5 7 61.17 10.56
2 5 -7 275.52 17.27
-2 5 7 228.72 14.39
2 -5 -7 237.02 16.76
-2 -5 7 241.5 17.14
-2 5 7 221.23 17.02
2 5 -7 273.59 17.02
-2 -5 7 238.48 17.2
2 5 -7 255.12 16.89
2 -5 -7 235.16 17.16
1 5 -7 586.71 29.12
-1 -5 7 531.59 28.16
-1 5 7 563.77 26.11
1 5 -7 590.09 28.36
1 -5 -7 564.58 29.45
-1 -5 7 517.51 29.59
-1 5 7 568.49 30.08
1 5 -7 559.7 29.72
1 -5 -7 566.44 29.88
1 5 -7 572.61 30.01
0 5 -7 349.58 21.95
0 -5 7 408.79 21.98
0 5 -7 342.13 21.69
0 5 -7 374.7 21.05
0 -5 -7 415.4 22.93
0 -5 -7 440.11 23.08
0 5 -7 392.97 22.73
0 -5 -7 416.54 23.67
0 5 -7 377.56 23.02
0 -5 -7 396.6 22.75
-1 -5 -7 496.79 22.63
-1 5 -7 561.41 26.71
-1 -5 -7 534.43 28.07
-1 5 -7 520.33 27.29
-1 -5 -7 541.33 25.32
-1 5 -7 594.47 29.62
-1 -5 -7 488.9 28.1
-1 5 -7 487.46 27.77
-1 -5 -7 575.96 28.7
-2 5 -7 578.3 27.02
-2 -5 -7 515.75 23.2
-2 -5 -7 563.27 28.28
-2 5 -7 467.41 28.07
-2 -5 -7 551.75 27.09
-2 -5 -7 540.21 28.92
-2 5 -7 507.52 29.02
-2 -5 -7 482.33 28.53
-3 -5 -7 413.27 19.4
-3 5 -7 505.21 24.21
-3 5 -7 483.62 25.34
-3 -5 -7 457.62 24.87
-3 5 -7 436.95 25.89
-3 -5 -7 485.48 26.59
-3 -5 -7 468.16 25.19
-3 5 -7 458.67 26.47
-3 -5 -7 446.27 26.23
-3 5 -7 454.4 24.68
-4 5 -7 626.67 31.29
-4 5 -7 633.87 33.01
-4 -5 -7 637.26 32.41
-4 5 -7 584.62 33.52
-4 -5 -7 605.1 33.52
-4 -5 -7 640.91 33.86
-4 -5 -7 643.03 35.07
-4 5 -7 631.05 32.3
-5 5 -7 761.07 36.8
-5 5 -7 801.06 39.14
5 -5 7 798.99 36.2
-5 5 -7 711.87 37.69
-5 -5 -7 734.48 39.69
-5 -5 -7 751.74 38.01
-5 -5 -7 717.91 39.97
-5 -5 -7 809.88 41.51
-5 5 -7 724.18 37.68
-6 5 -7 408.89 24.04
-6 5 -7 460.92 27.04
6 -5 7 474.54 23.61
-6 5 -7 434.15 24.56
-6 -5 -7 430.38 25.04
-6 -5 -7 418.51 28.72
-6 -5 -7 440.23 29.26
-6 5 -7 394.6 25.3
-7 5 -7 338.1 24.47
7 -5 7 380.23 21.36
-7 5 -7 373.67 22.11
-7 -5 -7 426.7 28.84
-7 -5 -7 368.37 27.39
-7 5 -7 372.94 24.12
-8 -5 -7 219.95 21.83
8 -5 7 199.05 14.71
-8 5 -7 191.74 18.98
-8 5 -7 170.71 14.73
-8 -5 -7 153.88 21.3
-9 -5 -7 116.95 19.09
-9 5 -7 59.2 14.79
9 -5 7 61.41 10.53
-9 -5 -7 59.29 19.13
-10 5 -7 29.76 14.8
10 -5 7 22.54 9.69
-10 -5 -7 36.09 19.31
11 -5 7 22.48 10.9
-11 -5 -7 19.94 21.95
12 -5 7 5.6 10.8
-12 -5 -7 19.08 25.73
-16 6 7 -2.32 22.75
-15 -6 7 13.88 25.42
-15 6 7 50.65 22.36
14 -6 -7 1.41 8.63
-14 -6 7 31.03 25.22
-14 6 7 -1.91 17.57
-13 -6 7 11.25 18.8
13 -6 -7 14.99 8.8
-13 6 7 13.75 16.58
-13 -6 7 -2.4 20.88
-12 -6 7 8.46 16.91
12 -6 -7 26.3 9.4
-12 6 7 25.91 15.12
12 6 -7 44.56 14.44
-12 -6 7 28.78 19.86
-11 -6 7 37.55 17.28
-11 -6 7 23.74 14.02
11 -6 -7 8.01 8.61
11 6 -7 11.99 12.49
-11 -6 7 44.8 19.7
-11 6 7 28.08 13.44
-10 -6 7 86.36 17.11
-10 -6 7 97.53 15.81
10 -6 -7 121.9 12.29
10 6 -7 96.36 14.95
-10 -6 7 111.41 20.32
-10 6 7 108.03 14.77
-9 -6 7 84.34 16.51
-9 -6 7 114.78 14.97
9 -6 -7 115.11 12.26
-9 6 7 107.53 15.19
9 6 -7 120.42 14.67
-9 -6 7 117.96 19.04
-9 6 7 67.25 12.81
-8 -6 7 162.23 18.31
-8 -6 7 171.73 16.83
8 -6 -7 148.37 14.01
-8 6 7 158.74 15.96
8 6 -7 156.4 15.99
-8 -6 7 175.75 19.61
-8 6 7 173.24 14.5
-7 -6 7 161.44 17.93
-7 6 7 190.01 16.09
7 6 -7 181.29 16.54
7 -6 -7 135.5 13.45
-7 -6 7 170.82 18.12
-7 -6 7 193.38 16.65
-7 6 7 151.11 12.53
7 6 -7 155.63 15.41
6 6 -7 252.47 20.55
-6 6 7 326 20.43
6 -6 -7 351.32 20.63
-6 -6 7 303.61 21.43
6 6 -7 313.4 20.85
-6 -6 7 360.32 22.77
-6 6 7 339.5 17.19
5 6 -7 367.03 23.29
-5 6 7 404.29 22.2
-5 6 7 373.09 17.41
-5 -6 7 373.53 22.42
-5 -6 7 385.02 23.21
5 6 -7 417.67 23.28
-5 -6 7 374.17 23.36
-5 6 7 341.65 22.38
-5 6 7 362.14 17.77
4 6 -7 563.2 30.25
-4 6 7 558.86 28.17
4 6 -7 552.47 29.5
-4 -6 7 579.25 30.7
-4 6 7 524.12 29.19
-4 -6 7 543.9 29.43
3 6 -7 496.97 28.95
-3 6 7 566.43 26.76
3 -6 -7 551.6 28.56
3 6 -7 543.14 29.14
-3 -6 7 533.02 28.72
-3 -6 7 522.49 29.53
-3 6 7 503.5 28.4
2 6 -7 146.24 13.8
-2 6 7 136.28 10.41
2 6 -7 159.7 12.36
2 -6 -7 144.75 12.25
-2 -6 7 152.08 13.51
2 6 -7 133.01 13.53
-2 -6 7 158.11 14.45
2 -6 -7 129.08 12.5
-2 6 7 123.98 13.23
1 -6 -7 32.07 8.82
1 6 -7 52.05 9
1 6 -7 32.64 9.49
-1 6 7 30.44 5.68
1 6 -7 39.76 8.15
-1 -6 7 25.09 8.12
1 -6 -7 39.23 8.75
-1 -6 7 43.83 9.59
0 -6 -7 26.11 9.02
0 6 7 19.77 4.27
0 6 -7 22.96 8.83
0 -6 7 15.43 7.82
0 -6 -7 8.8 7.13
0 6 -7 21.93 7.39
0 -6 -7 21.06 9.14
0 -6 -7 16.05 8.34
0 6 -7 12.47 8.14
-1 6 -7 64.04 8.9
-1 -6 -7 46.28 4.36
-1 -6 -7 53.5 8.73
-1 -6 -7 59.17 8.07
-1 -6 -7 70.16 10.51
-1 6 -7 49.53 10.01
-1 -6 -7 59.83 9.97
-2 -6 -7 59.96 5.11
-2 6 -7 84.1 9.71
-2 -6 -7 79.5 10.58
-2 -6 -7 56.79 10.07
-2 6 -7 60.55 10.68
-2 -6 -7 68.13 10.99
-2 -6 -7 73.89 11.13
-3 6 -7 7.72 7.86
-3 -6 -7 7.41 9.97
-3 -6 -7 0.97 6.71
-3 6 -7 20.06 9.62
-3 -6 -7 25.52 10.11
-3 -6 -7 19.23 10.13
-3 6 -7 9.53 7.91
-4 -6 -7 32.95 11.33
-4 6 -7 36.51 9.62
-4 6 -7 31.26 11.05
-4 -6 -7 34.99 8.91
-4 -6 -7 37.56 12.26
-4 -6 -7 25.77 11.76
-4 6 -7 37.27 9.51
-5 6 -7 5.89 8.63
-5 6 -7 21.29 9.7
-5 -6 -7 30.31 12.44
5 -6 7 9.53 7.69
-5 6 -7 14.7 11.17
-5 -6 -7 8.14 8.77
-5 -6 -7 11.1 11.86
-5 -6 -7 14.5 12.34
-6 6 -7 -2.98 9.8
-6 6 -7 15.91 9.71
6 -6 7 10.65 7.66
-6 6 -7 7.41 9.31
-6 6 -7 9.72 11.72
-6 -6 -7 -1.03 9.31
-6 -6 -7 23.97 14.05
-6 -6 -7 4.62 12.66
7 -6 7 12.69 8.67
-7 6 -7 -2.6 12.12
-7 6 -7 -10.29 9.05
-7 -6 -7 -5.08 15.07
-7 -6 -7 -8.1 14.46
-8 -6 -7 42.12 15.51
8 -6 7 25.34 8.91
-8 6 -7 37.3 14
-8 -6 -7 41.7 17.88
-9 6 -7 5.85 13.09
9 -6 7 19.84 9.7
-9 -6 -7 19.4 16.4
-9 -6 -7 35.82 19.08
-10 6 -7 20.06 14.4
10 -6 7 12.08 9.57
-10 -6 -7 20.9 20.6
11 -6 7 11.56 10.98
-11 -6 -7 45.9 23.24
12 -6 7 13.96 11.94
-12 -6 -7 -2.78 25.26
-16 7 7 25.29 23.91
-15 7 7 12.58 20.28
-15 -7 7 -2.85 26.39
14 -7 -7 0.64 7.73
-14 -7 7 29.29 24.98
-14 7 7 41.74 19.25
-13 -7 7 11.56 19
13 -7 -7 2.22 8.16
-13 -7 7 29.71 22.03
-13 7 7 23.64 17.18
-12 -7 7 -36.72 18.18
-12 7 7 -6 15.37
12 -7 -7 -11.32 8.47
12 7 -7 9.72 13.59
-12 -7 7 20.66 19.77
-11 -7 7 16.23 16.46
-11 -7 7 19.35 14.35
-11 7 7 29.83 14.76
11 -7 -7 4.29 8.52
11 7 -7 -4.61 13.67
-11 -7 7 14.8 19.39
-11 7 7 -5.27 12.89
-10 7 7 25.27 12.12
-10 -7 7 3.78 14.62
-10 -7 7 14 12.71
10 -7 -7 -1.79 8.13
10 7 -7 18.86 12.03
-10 -7 7 9.69 17.12
-9 7 7 -3.94 9.86
-9 -7 7 12.34 14.55
-9 -7 7 7.87 12.87
9 -7 -7 0.93 7.72
-9 7 7 10.55 11.61
9 7 -7 -6.91 11.08
-9 -7 7 -3.54 16.12
8 7 -7 3.64 11.03
-8 -7 7 1.65 12.38
-8 -7 7 17.13 11.55
8 -7 -7 8.52 8.04
8 7 -7 11.91 11.27
-8 7 7 4.79 10.01
-8 -7 7 24.07 15.7
-7 -7 7 154.06 16.2
-7 -7 7 138.5 17.34
7 -7 -7 147.29 13.38
7 7 -7 159.13 16.26
-7 7 7 159.21 15.14
7 7 -7 168.32 16.18
-6 -7 7 148.42 14.64
6 7 -7 110.13 13.92
6 -7 -7 120.91 12.11
-6 7 7 88.69 12.23
-6 -7 7 118.94 14.24
6 7 -7 103.44 13.91
-5 7 7 4.94 8.82
-5 -7 7 0.98 8.72
5 7 -7 -17.32 10.27
-5 7 7 0.53 4.03
5 -7 -7 -3.93 7.74
-5 7 7 -12.18 8.14
-5 -7 7 -8.38 9.77
5 7 -7 8.5 10.72
-5 -7 7 -1.15 9.45
4 7 -7 21.2 9.86
-4 7 7 23 7.18
-4 7 7 18.34 4.52
-4 -7 7 30.66 9.6
4 7 -7 38.79 11.65
-4 -7 7 19.17 9.71
-4 7 7 22.98 9.44
3 7 -7 -8.57 9.99
3 -7 -7 4.94 7.57
-3 7 7 1.32 6.69
3 7 -7 -1.03 10.18
-3 -7 7 8.83 8.92
-3 7 7 1.88 8.18
-3 -7 7 6.68 8.52
2 7 -7 -4.12 9.51
2 -7 -7 0.94 7.97
-2 -7 7 -1.9 8.13
2 7 -7 1.68 7.67
-2 7 7 3.26 5.68
2 -7 -7 -5.93 7.02
2 7 -7 -1.03 9.7
1 -7 -7 5.81 8.05
1 7 -7 8.26 7.72
1 7 -7 -1.02 9.03
1 7 -7 -11.21 8.19
-1 7 7 6.84 4.95
-1 -7 7 -3.41 8.4
1 -7 -7 -1.97 7.19
-1 -7 7 26.59 8.62
0 -7 -7 -0.89 8.17
0 7 -7 -0.99 8.8
0 7 7 2.45 3.71
0 -7 -7 -7.3 8.69
0 7 -7 11.55 7.4
0 -7 7 6.99 8.44
0 -7 -7 0.98 6.67
0 7 -7 12.61 8.2
0 -7 -7 7.01 8.78
-1 -7 -7 134.98 7.72
1 -7 7 176.91 14.11
-1 7 -7 167.17 12.9
-1 -7 -7 195.22 14.24
-1 7 -7 179.73 14.91
-1 -7 -7 181.2 14.38
-1 -7 -7 151.46 13.84
-2 -7 -7 108.67 12.45
-2 7 -7 96.48 10.63
-2 -7 -7 85.2 5.66
-2 -7 -7 96.1 11.24
-2 -7 -7 91.83 10.9
-2 7 -7 119.18 12.92
-2 -7 -7 88.11 11.59
-3 7 -7 20.56 8.78
-3 -7 -7 26.14 8.99
-3 -7 -7 25.38 10.62
-3 7 -7 28.56 8.4
-3 -7 -7 22.38 10.79
-3 7 -7 23.89 10.44
-3 -7 -7 7.05 9.92
-4 7 -7 -6.92 9.46
-4 -7 -7 4.53 10.99
-4 -7 -7 2.06 8
-4 7 -7 11.98 11.37
-4 -7 -7 21.55 12.05
-4 -7 -7 12.55 10.84
-4 7 -7 7.38 8.5
-5 7 -7 7.88 9.07
-5 7 -7 -5.4 9.37
5 -7 7 -6.82 8.05
-5 7 -7 -5.93 10.84
-5 -7 -7 3.13 8.85
-5 -7 -7 33.05 13.67
-5 -7 -7 -12.26 12.53
-5 -7 -7 10.38 11.41
-6 7 -7 52.69 11.11
-6 7 -7 48.92 11.67
6 -7 7 57.14 9.9
-6 7 -7 39.41 10.7
-6 7 -7 45.73 12.78
-6 -7 -7 63.43 13.75
-6 -7 -7 55.36 14.61
-6 -7 -7 68.82 16.38
7 -7 7 54.36 10.16
-7 7 -7 10.84 12.08
-7 7 -7 17.25 9.29
-7 -7 -7 36.53 14.51
-7 -7 -7 45.84 16.69
-8 -7 -7 -5.18 14.53
8 -7 7 -9.34 9.35
-8 7 -7 33.12 13.88
-8 -7 -7 13.74 17.22
-9 -7 -7 -3.61 14.66
9 -7 7 16.34 10.06
-9 7 -7 -4.55 13.16
-9 -7 -7 -6.51 18.06
10 -7 7 12.89 10.89
-10 7 -7 6.38 15.34
-10 -7 -7 -11.95 21.12
11 -7 7 17.42 11.32
-11 -7 -7 10.46 22.86
12 -7 7 8.5 12.22
-12 -7 -7 34.23 26.08
13 -7 7 6.6 12.46
-16 8 7 22.91 23.01
-15 -8 7 -5.86 26.78
-15 8 7 -10.44 20.38
-14 -8 7 43.89 25.91
-14 8 7 16.86 17.71
-13 -8 7 54.21 20.58
13 -8 -7 57.36 9.55
-13 -8 7 28.11 22.53
-13 8 7 83.49 18.9
-12 -8 7 70.7 19.53
-12 -8 7 158.73 19.79
12 -8 -7 93.77 11.25
12 8 -7 112.57 17.76
-12 -8 7 132.84 26.19
-12 8 7 80.36 17.07
-11 -8 7 278.46 26.67
11 -8 -7 269.82 17.64
11 8 -7 281.44 23.07
-11 -8 7 226.23 27.73
-11 -8 7 312.65 24.13
-11 8 7 284.63 23.48
-11 8 7 252.92 21.79
-10 -8 7 152.36 20.75
-10 -8 7 164.69 18.78
-10 8 7 168.48 18.58
10 8 -7 197.83 18.82
10 -8 -7 157.02 13.91
-10 8 7 150.4 18.19
-10 -8 7 162.01 23.68
-9 -8 7 77.58 16.13
-9 -8 7 98.63 15.06
-9 8 7 105.39 14.87
9 -8 -7 84.27 10.94
9 8 -7 73.2 13.84
-9 8 7 74.32 13.69
-9 -8 7 76.14 18.38
-8 -8 7 551.48 34.38
8 8 -7 570.55 32.43
-8 8 7 549.37 30.96
8 -8 -7 517.05 28.84
-8 -8 7 593.34 35.72
-8 -8 7 545.3 31.48
-8 8 7 508.08 31.19
8 8 -7 576.63 32.76
-7 8 7 469.85 23.68
7 8 -7 475.81 28.81
-7 8 7 443.19 26.67
7 -8 -7 457.96 25.67
-7 -8 7 458.76 27.67
-7 8 7 487.04 28.26
7 8 -7 458.64 28.54
-6 8 7 410.3 19.91
6 8 -7 404.38 25.73
-6 8 7 414.59 23.71
6 -8 -7 407.29 23.24
-6 -8 7 387.66 24.42
-6 8 7 376.76 24.57
6 8 -7 385.9 25.79
-6 -8 7 373.59 24.96
5 8 -7 369.27 23.36
-5 -8 7 370.97 22.35
-5 8 7 364.5 21.02
5 -8 -7 357.26 21.49
-5 -8 7 362.11 22.82
-5 8 7 331.38 22.66
5 8 -7 353.62 23.92
-5 -8 7 336.51 22.76
-5 8 7 339.95 21.72
4 8 -7 281.53 20.19
-4 8 7 241.58 16.3
-4 8 7 252.64 14.04
4 8 -7 302.24 20.85
-4 -8 7 279.16 19.75
-4 8 7 264.01 18.25
-4 -8 7 282.74 18.79
3 8 -7 276.45 19.69
3 8 -7 227.63 16.95
-3 8 7 249.81 15.44
3 8 -7 292.01 20.25
-3 -8 7 272.72 18.38
-3 8 7 257.4 12.84
-3 -8 7 246.82 18.73
-3 8 7 241.31 17.37
2 8 -7 208.88 17
2 8 -7 207.11 15.24
-2 8 7 186.98 12.45
2 -8 -7 216.42 15.28
-2 -8 7 184.42 15.59
2 8 -7 180.08 17.04
2 8 -7 180.11 14.69
2 -8 -7 198.4 15.47
-2 8 7 193.99 10.05
1 -8 -7 65.43 11.14
1 8 -7 98.64 12.74
-1 8 7 81.36 7.26
1 8 -7 84.31 10.35
-1 -8 7 111.52 11.3
1 -8 -7 73.44 10.06
-1 -8 7 63.51 11.21
0 -8 -7 51.31 9.84
0 8 -7 27.78 9.97
0 8 -7 44.66 9.13
0 8 7 43.4 4.82
0 -8 7 49.66 10.21
0 8 -7 40.61 8.94
0 -8 -7 48.63 8.61
0 -8 -7 39.02 9.9
0 -8 -7 11.97 9.41
-1 -8 -7 113.72 12.54
1 -8 7 84.01 12.02
-1 8 -7 86.96 10.86
-1 -8 -7 102.24 10.8
-1 8 -7 94.01 11.48
-1 -8 -7 102.05 11.74
-2 -8 -7 134.23 13.77
-2 8 -7 125.66 12.28
-2 -8 -7 129.39 6.9
-2 -8 -7 129.08 12.71
-2 -8 -7 153.84 13.53
-2 -8 -7 153.68 13.86
-2 8 -7 109.46 12.48
-3 8 -7 83.13 11.56
-3 8 -7 87.33 12.22
-3 -8 -7 97.83 11.82
-3 -8 -7 109.03 13.57
-3 -8 -7 90.37 13.66
-3 -8 -7 99.33 12.74
-3 8 -7 85.96 10.22
-4 8 -7 6.92 10.48
-4 8 -7 -0.92 9.41
-4 -8 -7 6.76 10.61
4 -8 7 5.28 7.76
-4 -8 -7 10.54 8.41
-4 -8 -7 1.26 11.94
-4 -8 -7 27.24 11.29
-4 8 -7 17.67 8.48
-5 8 -7 3.3 8.64
-5 8 -7 12.42 10.07
5 -8 7 23.65 8.7
-5 8 -7 6.18 11.04
-5 -8 -7 12.95 13.08
-5 8 -7 22.54 11.31
-5 -8 -7 3.66 11.59
-5 -8 -7 12.19 12.37
-6 8 -7 6 10.94
6 -8 7 45.93 9.8
-6 8 -7 33.2 13.08
-6 -8 -7 24.32 13.53
-6 -8 -7 30.29 12.71
-6 -8 -7 27.62 15.43
7 -8 7 15.43 9.26
-7 8 -7 0.88 9.46
-7 8 -7 24.01 13.46
-7 -8 -7 29.12 16.97
-7 -8 -7 22.19 14.43
-8 -8 -7 35.38 15.41
8 -8 7 0.99 9.43
-8 8 -7 35.89 15.18
-8 -8 -7 14.14 17.92
-9 -8 -7 22.18 16.8
9 -8 7 18.38 10.27
-9 8 -7 25.28 15.2
-9 -8 -7 -2.23 20.15
10 -8 7 36.83 12.06
-10 8 -7 53.01 17.02
-10 -8 -7 31.93 22.51
11 -8 7 58.69 13.67
-11 -8 -7 83.16 25.84
12 -8 7 41.64 13.76
-12 -8 -7 72.98 27.62
13 -8 7 24.46 13.57
-16 9 7 18.3 23.15
-15 9 7 26.86 21.6
-14 9 7 14.86 18.76
-14 -9 7 19.74 26.54
-13 -9 7 21.51 20.68
13 -9 -7 26.52 8.42
-13 -9 7 31.63 23.95
-13 9 7 21.73 16.39
-12 -9 7 49.34 19.32
-12 9 7 65.88 16.8
-12 -9 7 65.28 17.45
-12 9 7 52.34 15.88
12 -9 -7 65.9 9.56
-12 -9 7 29.5 22.15
-11 -9 7 42 17.9
-11 -9 7 90.05 16.81
-11 9 7 75.19 15.8
11 -9 -7 48.59 9.63
-11 9 7 54.7 14.85
11 9 -7 48.26 14.8
-11 -9 7 104.98 23.15
-10 -9 7 119.9 19.06
-10 -9 7 104.44 16.04
-10 9 7 102.55 16.25
10 -9 -7 88.13 11.07
-10 9 7 87.15 14.85
10 9 -7 94.15 15.96
-10 -9 7 90.85 21.55
9 9 -7 26.57 14.46
-9 -9 7 21.12 12.87
-9 9 7 24.11 12.39
9 -9 -7 23.98 8.62
9 9 -7 20.87 12.22
-9 9 7 3.9 11.23
-9 -9 7 25.36 17.43
-8 -9 7 18.52 11.47
-8 9 7 1.26 12.17
8 9 -7 9.93 11.47
8 -9 -7 -1.84 8.01
-8 9 7 -4.72 9.98
8 9 -7 21.05 13.61
-7 9 7 10.62 11.32
-7 -9 7 45.77 12.51
-7 9 7 15.73 7.77
7 9 -7 12.3 11.43
7 -9 -7 17.02 8.58
-7 9 7 6.4 9.9
7 9 -7 13.57 13.21
-7 -9 7 4.65 10.84
-6 -9 7 9.88 11.06
-6 9 7 25.77 10.01
6 9 -7 21.26 11.22
6 -9 -7 3.86 8.3
-6 9 7 10.55 8.96
-6 -9 7 10.98 10.69
6 9 -7 -1.32 12.76
-6 9 7 17.91 10.9
-5 -9 7 33.27 11.25
5 9 -7 23.31 11.43
5 -9 -7 27.44 8.99
-5 -9 7 41.67 10.25
-5 9 7 20.55 8.35
-5 9 7 40.89 10.81
-5 9 7 35.22 10.29
5 9 -7 23.58 13.6
-5 9 7 41.82 9.97
4 9 -7 97.58 13.96
-4 -9 7 110.68 11.96
4 9 -7 67.22 11.23
-4 9 7 94.47 11.92
-4 9 7 95.8 9.95
-4 9 7 79.67 8.58
4 9 -7 96.87 15.67
-4 -9 7 95.96 12.63
-4 9 7 88.62 12.02
3 9 -7 45.91 11.43
3 9 -7 61.82 10.41
-3 9 7 34.6 7.38
-3 -9 7 40.48 10
3 9 -7 47.01 13.31
-3 9 7 45.69 6.85
-3 9 7 50.79 11.03
-3 -9 7 63.32 11.79
-3 9 7 67.3 10.31
2 9 -7 338.65 23.04
2 9 -7 351.22 21.09
-2 9 7 348.15 18.2
2 -9 -7 322.81 20.62
-2 -9 7 356.62 21.3
-2 9 7 343.16 21.58
2 9 -7 315.09 23.74
-2 9 7 336.91 17.18
2 9 -7 379.86 21.44
2 -9 -7 333.59 21.03
1 9 -7 386.2 24.66
-1 -9 7 375.33 23.19
1 9 -7 355.23 21.85
-1 9 7 399.32 19.04
1 -9 -7 412.35 22.89
-1 9 7 367.15 22.77
1 9 -7 358.29 22.47
1 -9 -7 425.6 23.44
-1 9 7 381.18 18.97
0 -9 7 440.62 25.46
0 9 7 433.14 20.02
0 9 -7 413.22 23.95
0 9 -7 460 24.46
0 -9 -7 435.14 24.67
0 9 -7 461.43 25.13
0 -9 -7 436.52 25.4
-1 -9 -7 333.52 20.14
1 -9 7 318.7 20.69
-1 9 -7 306.39 19.06
-1 -9 -7 255.35 18.33
-1 -9 -7 265.49 19.85
-1 -9 -7 318.18 19.3
-1 9 -7 285.25 18.64
-2 -9 -7 260.6 11.88
-2 9 -7 317.21 18.55
-2 -9 -7 244 11.7
-2 9 -7 290.3 16.22
-2 -9 -7 292.18 18.4
-2 -9 -7 318.1 19.81
-2 9 -7 297.32 19
-2 -9 -7 325.65 19.84
-2 -9 -7 297.41 18.85
-3 9 -7 453.05 25.19
-3 -9 -7 460.8 26.15
-3 9 -7 407.78 25.27
-3 -9 -7 397.7 26.13
-3 -9 -7 450.71 26.19
-3 -9 -7 407.1 25.02
-3 9 -7 450.8 23.04
-4 9 -7 451.08 25.62
4 -9 7 478.69 25.15
-4 -9 -7 466.7 26.01
-4 9 -7 437.28 26.32
-4 -9 -7 430.5 26.88
-4 -9 -7 356.54 26.87
-4 -9 -7 425.54 28.6
-4 9 -7 429.26 23.44
-5 -9 -7 145.16 16.49
-5 9 -7 178.25 15.87
5 -9 7 155.59 14.2
-5 9 -7 161.7 17.53
-5 -9 -7 132.03 18.91
-5 9 -7 164.61 16.33
-5 9 -7 172.37 13.48
-5 -9 -7 151.53 17.8
-6 9 -7 139.97 15.05
6 -9 7 157.13 14.35
-6 9 -7 156.39 18
-6 9 -7 150.95 17.04
-6 -9 -7 182.36 21.07
-6 -9 -7 113.18 16.5
-6 -9 -7 121.27 17.39
7 -9 7 147.36 14.44
-7 9 -7 134.25 13.88
-7 9 -7 138.49 18.21
-7 -9 -7 165.76 22.33
-7 -9 -7 148.55 19.14
-8 -9 -7 59.66 17.06
8 -9 7 85.29 13.1
-8 9 -7 90.26 16.82
-8 -9 -7 96 21.93
9 -9 7 69.18 12.79
-9 9 -7 62.26 16.72
-9 -9 -7 87.35 22.98
-9 -9 -7 68.09 18.55
10 -9 7 58.96 13.38
-10 -9 -7 65.42 24.74
11 -9 7 21.82 13.1
-11 -9 -7 19.22 25.03
12 -9 7 7.13 13.2
13 -9 7 14.75 14.58
-15 10 7 -4.11 20.18
-14 -10 7 -5.8 25.82
-14 10 7 -22.36 18.55
-13 10 7 -13.48 17.18
-13 -10 7 2.42 20.05
13 -10 -7 -1.27 7.3
-13 -10 7 -5.44 24.13
-12 -10 7 -18.18 19.35
-12 -10 7 22.38 15.55
-12 10 7 27.05 16.15
-12 10 7 10.27 15.54
12 -10 -7 5.09 8.03
-12 -10 7 -15.27 23.79
-11 -10 7 3.02 15.04
-11 10 7 37.79 15.02
11 -10 -7 21.66 8.24
-11 10 7 6.26 13.14
11 10 -7 1.66 13.28
-11 -10 7 33.2 21.76
-10 10 7 0.98 9.35
-10 -10 7 -5.67 13.25
-10 10 7 1.43 13.25
10 -10 -7 -0.83 8.01
10 10 -7 17.61 13.74
-10 10 7 4.29 12.36
-10 -10 7 2.21 19.49
-9 -10 7 6.62 12.54
-9 10 7 16.13 12.89
-9 10 7 1.76 9.17
9 10 -7 -9.26 12.15
9 -10 -7 7.84 8.05
-9 10 7 14.32 11.13
-9 -10 7 40.69 19.14
9 10 -7 9.4 13.79
-8 -10 7 34.67 13.12
-8 10 7 -1.26 12.3
8 10 -7 13.26 11.37
8 -10 -7 24.51 8.42
-8 10 7 35.48 11.53
8 10 -7 19.77 14.94
-7 10 7 23.73 11.58
-7 -10 7 43.65 13.16
7 10 -7 8.59 11.61
-7 10 7 25.97 8.1
7 -10 -7 17.81 8.51
-7 10 7 40.7 10.73
7 10 -7 14.67 14.09
-7 -10 7 17.5 11.72
-6 10 7 61.27 11.62
6 10 -7 43.28 13.06
6 -10 -7 69.22 10.03
-6 10 7 37.63 9.35
-6 -10 7 39.36 10.89
-6 10 7 41.86 11
-6 -10 7 37.5 12.06
6 10 -7 30.37 14.31
-6 10 7 43.82 12.28
-6 -10 7 45.04 12.69
-5 -10 7 100.38 12.61
5 10 -7 69.39 14.27
-5 -10 7 78.31 13.23
-5 10 7 99.51 12.48
5 -10 -7 93.99 11.08
-5 10 7 68.98 10.31
-5 10 7 78.03 13.21
5 10 -7 74.36 15.62
-5 10 7 108.94 12.53
-4 -10 7 33.05 9.97
4 10 -7 28.99 11.89
4 10 -7 27.75 10.48
-4 10 7 32.13 10.67
4 -10 -7 12.91 8.42
-4 10 7 21.32 7.56
-4 10 7 31.35 8.09
4 10 -7 31.02 13.83
-4 -10 7 22.21 10.94
-4 10 7 26.2 9.7
3 10 -7 7.67 11.34
3 10 -7 0.99 8.6
-3 -10 7 1.92 8.65
-3 10 7 0.66 6.46
-3 10 7 8.07 9.25
3 10 -7 1.38 12.44
-3 10 7 3.85 6.76
-3 -10 7 -11.4 10.18
-3 10 7 -10.92 8.9
-2 10 7 57.97 10.99
2 10 -7 74.85 13.56
2 10 -7 43.74 9.24
2 10 -7 49.16 10
-2 -10 7 61.52 10.49
2 -10 -7 19.35 8.76
2 -10 -7 37.32 8.7
-2 10 7 38.01 6.79
2 10 -7 46.68 13.89
-2 10 7 42.9 7.5
1 10 -7 -12.24 8.74
1 10 -7 22.45 11.81
1 -10 -7 -7.59 8.67
1 10 -7 6.37 8.4
-1 -10 7 -13.78 10.31
1 -10 -7 6.14 7.91
-1 10 7 4.06 5
-1 10 7 8.34 6.77
0 10 -7 80.15 10.88
0 10 7 72.22 6.4
0 -10 7 102.68 12.35
0 -10 -7 98.65 11.06
0 10 7 96.37 9.55
0 10 -7 66.85 10.53
0 -10 -7 55.38 10.95
-1 10 -7 53.71 10.43
1 -10 7 59.71 11.7
-1 10 -7 72.49 10.33
-1 -10 -7 38.4 9.08
-1 -10 -7 72.33 11.43
-1 -10 -7 63.68 11.19
-1 -10 -7 63.72 10.58
-2 -10 -7 -2.08 2
-2 10 -7 0.93 9.24
-2 10 -7 8.82 9.08
-2 -10 -7 0.99 9.92
-2 -10 -7 7.53 8.66
-2 -10 -7 14.57 9.53
-2 10 -7 2.23 6.6
-3 10 -7 5.88 9.56
-3 -10 -7 19.71 9.5
-3 -10 -7 -15.75 12.55
-3 10 -7 9.59 9.48
-3 -10 -7 -8.35 10.03
-3 -10 -7 20.2 10.07
-3 10 -7 13.26 7.31
-4 10 -7 22.67 7.84
-4 10 -7 18.51 10.68
-4 10 -7 37.86 11.15
4 -10 7 18.88 9.14
-4 -10 -7 8.91 10.7
-4 -10 -7 15.2 14.15
-4 -10 -7 9.06 11.48
-5 -10 -7 3.61 11.5
-5 10 -7 -2.14 10.13
5 -10 7 -7.16 8.9
-5 -10 -7 20.85 13.34
-5 -10 -7 7.79 15.07
-5 10 -7 13.65 10.81
-6 10 -7 38.1 12.5
6 -10 7 10.52 9.87
-6 10 -7 15.76 12.55
-6 10 -7 21.31 12.52
-6 -10 -7 8.75 15.96
-6 -10 -7 30.13 13.21
-6 -10 -7 23.84 14.52
7 -10 7 22.72 10.59
-7 10 -7 -10.72 14.1
-7 -10 -7 2.83 13.39
-7 -10 -7 21.44 17.22
-7 -10 -7 10.73 14.99
-8 -10 -7 22.18 16.21
8 -10 7 1.11 10.78
-8 10 -7 -11.35 15.21
-8 -10 -7 -8.6 19.12
-9 -10 -7 1.93 15.87
9 -10 7 17.1 11.39
-9 10 -7 1.7 15.64
-9 -10 -7 51.96 22.3
-10 -10 -7 10.03 17.79
10 -10 7 -10.55 11.96
-10 -10 -7 -15.5 22.58
11 -10 7 3.63 13.53
-11 -10 -7 45.01 27.69
12 -10 7 -2.5 13.38
13 -10 7 -9.05 15.12
-15 11 7 14.44 20.83
-14 11 7 15.03 18.32
-14 11 7 1.4 14.96
-14 -11 7 -17.94 28.13
-13 11 7 20.86 14.26
-13 -11 7 47.74 27.89
-12 11 7 19.37 13.13
-12 -11 7 24.08 16.12
-12 11 7 20.76 16.85
-12 11 7 13.73 14.9
12 -11 -7 11.34 8.12
-12 -11 7 36.87 24.4
-11 11 7 -8.95 11.41
-11 -11 7 12.11 15.35
-11 11 7 -3.03 13.95
11 -11 -7 -3.91 8.54
11 11 -7 -1.71 14.02
-11 11 7 4.72 13.71
-11 -11 7 22.2 20.76
10 11 -7 48.8 16.6
-10 -11 7 18.46 14.11
-10 11 7 41.58 14.28
-10 11 7 41.91 11.58
10 11 -7 36.5 15.17
10 -11 -7 30 8.88
-10 11 7 14.4 12.04
-10 -11 7 34.4 20.65
-9 -11 7 10.61 12.72
9 11 -7 19.97 15.57
-9 11 7 40.38 14.41
-9 11 7 5.45 9.68
9 11 -7 3.18 12.92
9 -11 -7 13.02 8.43
-9 11 7 1.31 11.22
-8 -11 7 12.43 12.42
-8 -11 7 11.36 12.01
-8 11 7 10.11 12.48
8 11 -7 15.38 12.22
8 -11 -7 11.71 8.38
-8 11 7 14.35 11.08
8 11 -7 3.26 15.51
-7 -11 7 54.74 12.88
7 11 -7 82.47 14.69
-7 11 7 67.48 9.37
7 -11 -7 87.69 11.12
-7 11 7 69.53 11.72
7 11 -7 85.45 16.93
-7 -11 7 63.05 13.42
-7 11 7 61.99 12.71
-6 11 7 45.55 10.8
-6 11 7 44.27 11.32
6 11 -7 35.34 13.06
6 -11 -7 52.76 9.85
-6 11 7 53.78 10.77
-6 -11 7 52.01 11.7
-6 -11 7 46.44 12.03
-6 11 7 37.27 11.95
6 11 -7 78.19 17.17
-6 -11 7 58.31 12.91
-5 11 7 8.18 10.12
5 11 -7 -7.16 11.96
5 11 -7 6.59 10.21
5 -11 -7 4.91 8.04
-5 11 7 6.98 7.71
5 11 -7 21.69 14.72
-5 -11 7 16.9 10.64
-5 -11 7 6.12 11.3
-5 11 7 6.69 9.75
-4 11 7 -2.03 9.65
4 11 -7 2.78 11.53
4 11 -7 21.27 10.48
4 -11 -7 25.02 9.01
-4 11 7 5.4 7.85
-4 11 7 21.78 8.77
4 11 -7 24.39 14.13
-4 -11 7 7.1 10.68
-4 11 7 6.47 9.1
-4 -11 7 18.5 9.89
3 11 -7 126.42 15.73
3 11 -7 109.53 12.86
-3 -11 7 121.44 13.1
-3 11 7 129.75 10.81
-3 11 7 128.13 13.82
3 11 -7 115.33 17.38
-3 11 7 87.34 10.53
-3 -11 7 111.61 14.37
-3 11 7 98.4 12.09
2 11 -7 217.61 19.45
2 11 -7 194.57 16.4
-2 11 7 225.63 13.73
2 -11 -7 229.51 16.93
-2 -11 7 212.62 16.46
-2 11 7 225.95 17.28
2 11 -7 243.63 21.53
-2 11 7 228.72 15.08
2 11 -7 229.72 16.26
1 11 -7 152.16 17.34
-1 -11 7 232.57 17.34
1 11 -7 225.79 15.94
-1 11 7 184.84 11.79
1 -11 -7 196.07 15.67
1 11 -7 196.94 15.29
1 -11 -7 178.62 15.24
-1 11 7 183.39 13.78
0 11 -7 157.68 14.43
0 11 7 138.75 9.2
0 -11 7 153.45 15.1
0 -11 -7 129.23 13.42
0 11 -7 147.91 13.52
0 -11 -7 157.86 14.58
0 11 -7 196.88 15.85
0 11 7 158.65 12.96
-1 -11 -7 65.36 10.43
-1 -11 -7 48.32 5.61
-1 -11 -7 52.27 11.13
-1 11 -7 48.84 10.56
1 -11 7 42.08 11.78
1 11 7 39.39 4.42
-1 -11 -7 47.96 9.67
-1 11 -7 71.96 10.33
-1 11 -7 30.21 9.36
-1 -11 -7 55.06 11.25
-1 11 -7 19.3 10.02
1 11 7 67.62 10.06
-2 11 -7 132.79 14.03
-2 11 -7 136.25 13.46
-2 -11 -7 125.2 13.19
-2 -11 -7 142.74 14.11
-2 11 -7 160.5 15.2
-2 -11 -7 96.53 12.64
-2 11 -7 148.55 10.5
-3 11 -7 332.1 21.51
-3 11 -7 313.56 17.6
3 11 7 288.4 23.03
-3 -11 -7 350.25 23.81
-3 11 -7 315.77 21.25
-3 -11 -7 331.22 21.69
-3 11 -7 333.18 22.75
-3 -11 -7 330.98 21.01
-4 11 -7 280.41 19.65
4 -11 7 279.38 18.78
-4 11 -7 244.27 19.34
-4 -11 -7 246.2 19.52
-4 -11 -7 246.95 21.99
-4 11 -7 233.17 19.94
-4 -11 -7 219.43 18.33
-4 -11 -7 230.79 21.3
-5 11 -7 167.79 16.78
-5 11 -7 183.51 17.38
-5 -11 -7 147.24 16.93
5 -11 7 159.65 15.24
-5 -11 -7 185.61 21.72
-5 -11 -7 166.07 19.45
-6 11 -7 165.22 16.91
6 -11 7 136.41 14.67
6 11 7 122.38 17.28
-6 11 -7 128.96 17.46
-6 -11 -7 90.58 20.01
-6 11 -7 140.94 17.35
-6 -11 -7 139.24 17.88
-6 -11 -7 158.31 19.58
7 -11 7 84.32 13.24
7 11 7 83.57 16.09
-7 11 -7 84.04 16.67
-7 -11 -7 122.36 22.55
-7 -11 -7 80.48 15.62
-7 -11 -7 87.46 18.22
-8 -11 -7 90.59 18.53
8 -11 7 38.6 12.51
8 11 7 58.68 16.93
-8 11 -7 37.04 16.37
-8 -11 -7 55.36 20.81
-9 -11 -7 41.38 16.93
9 -11 7 45.54 12.54
-9 11 -7 46.1 17.24
-9 -11 -7 41.27 23.26
-10 -11 -7 49.08 19.97
10 -11 7 45.55 13.7
-10 -11 -7 34.44 24.99
11 -11 7 5.08 13.34
-11 -11 -7 -2.88 24.31
12 -11 7 2.62 14.03
-15 12 7 4.15 21.91
-14 12 7 30.21 15.83
-14 -12 7 9.23 28.7
-13 12 7 41.79 14.29
-13 -12 7 81.23 27.87
-12 12 7 59.07 14.43
-12 -12 7 86.93 19.51
-12 12 7 83.32 18.52
-12 12 7 96.77 18.2
-12 -12 7 109.1 27.49
-11 -12 7 127.46 18.56
-11 12 7 105.04 17.88
-11 12 7 99.82 14.46
11 -12 -7 81.07 10.75
-11 12 7 112.76 16.97
-11 -12 7 117.53 26.29
10 12 -7 104.39 19.5
-10 -12 7 66.78 15.66
-10 12 7 84.79 16.29
-10 12 7 120.08 13.97
10 12 -7 80.59 16.82
10 -12 -7 89.07 10.94
-10 12 7 74.16 14.3
-9 12 7 367.34 21.96
9 12 -7 345.49 26.58
-9 12 7 276.87 23.27
9 -12 -7 333.63 20.64
-9 -12 7 349.72 25.44
-9 12 7 361.59 25.15
9 12 -7 342.66 28.82
8 12 -7 282.78 23.61
-8 12 7 280.73 20.85
8 -12 -7 277.87 18.73
-8 -12 7 302.65 22.16
-8 12 7 276.21 21.49
8 12 -7 268.43 24.79
-8 -12 7 312.15 23.41
7 12 -7 381.01 26.9
-7 12 7 330.3 23.01
7 -12 -7 409.78 23.05
-7 -12 7 412.07 25.43
-7 12 7 353.85 24.9
7 12 -7 394.44 28.95
-7 -12 7 402.31 25.9
6 12 -7 554.3 33.4
-6 -12 7 588.84 30.34
6 12 -7 623.21 31.52
-6 12 7 538.57 29.96
6 -12 -7 522.75 28.87
-6 12 7 464.58 28.54
-6 -12 7 534.35 30.31
-6 12 7 544.54 30.82
6 12 -7 513.92 34.53
-6 -12 7 526.27 31.36
-6 12 7 503.48 29.03
5 12 -7 613.21 35.51
5 12 -7 618.4 32.55
5 -12 -7 610.13 31.39
-5 12 7 530.05 29.95
5 12 -7 555.75 36.61
-5 -12 7 616.52 33.67
-5 12 7 612.28 31.27
-5 -12 7 599.68 31.62
-5 12 7 553.87 31.47
4 12 -7 837.65 43.88
4 12 -7 884.42 41.7
4 -12 -7 802.16 40.27
-4 12 7 759.12 38.48
-4 12 7 780.69 39.4
4 12 -7 783.85 45.3
-4 -12 7 829.74 40.54
-4 12 7 813.95 40.77
-4 -12 7 842.88 41.93
-4 12 7 868.45 40.35
3 12 -7 219.35 20.06
3 12 -7 216.2 17.34
-3 12 7 237.99 14.81
-3 -12 7 251.95 17.53
-3 12 7 207.79 17.56
-3 12 7 177.53 15.83
3 12 -7 226.77 22.48
2 12 -7 148.92 17.09
2 12 -7 135.21 13.6
2 12 -7 120.93 12.48
-2 12 7 133.24 10.39
2 12 -7 142.28 19.14
-2 -12 7 128.58 13.75
-2 12 7 85.92 12.38
-2 12 7 105.46 13.44
1 12 -7 316.31 24.62
-1 -12 7 341.7 23.43
1 12 -7 372.29 22.53
1 -12 -7 395.27 22.89
-1 12 7 368.81 18.34
-1 12 7 353.88 21.5
1 12 -7 338.12 21.32
1 -12 -7 332.92 21.47
0 -12 -7 286.95 15.4
0 -12 -7 261.75 13.16
0 -12 7 347.98 22.43
0 12 -7 317.7 19.83
0 12 7 291.6 14.78
0 -12 -7 299.28 19.53
0 12 -7 259.03 18.7
0 -12 -7 290.13 19.25
0 12 7 288.78 18.72
0 12 -7 346.51 20.89
-1 -12 -7 95.73 7.38
-1 -12 -7 133.14 13.11
-1 12 -7 106.65 12.65
1 -12 7 70.3 13.21
-1 12 -7 89.32 8.19
1 12 7 99.01 6.75
-1 12 -7 114.19 11.82
1 12 7 102.1 14.74
-1 -12 -7 104.45 12.2
-1 12 -7 122.12 12.49
-1 -12 -7 93.98 12.84
-1 -12 -7 98.33 11.57
-1 12 -7 103.14 13.43
2 -12 7 108.01 14.43
-2 12 -7 99.45 12.65
2 12 7 85.16 14.36
-2 12 -7 96.25 11.92
-2 12 -7 91.25 13.4
-2 -12 -7 67.77 12.33
-2 12 -7 97.2 8.47
-2 -12 -7 108.43 12.22
-3 -12 -7 68.83 12.21
-3 12 -7 67.48 12.77
3 12 7 55.28 14.17
-3 12 -7 63.17 12.97
-3 -12 -7 67.96 11.37
-3 12 -7 57.4 11.22
-4 12 -7 22.75 12.2
4 -12 7 1.11 9.34
4 12 7 -18.08 13.96
-4 12 -7 -4.54 9.78
-4 -12 -7 6.11 14.28
-4 -12 -7 11.06 11.25
-4 12 -7 16.06 12.27
-4 -12 -7 3.95 9.98
-4 -12 -7 3.18 13.05
-5 12 -7 14.2 11.35
-5 12 -7 6.16 11.52
-5 -12 -7 -1.19 11.02
5 -12 7 1.13 9.56
-5 -12 -7 13.6 16
-5 -12 -7 32.05 14.8
-6 -12 -7 6.44 12.16
-6 12 -7 16.11 12.81
6 -12 7 15.15 10.73
6 12 7 -8.95 14.08
-6 -12 -7 -11.29 16.79
-6 12 -7 5.29 12.37
-6 -12 -7 -5.34 14.33
7 -12 7 14.36 11.89
7 12 7 3.1 14.16
-7 12 -7 22.89 14.71
-7 12 -7 21.01 13.87
-7 -12 -7 -2.07 19.29
-7 -12 -7 16.94 14.37
-7 -12 -7 26.08 16.35
-8 -12 -7 21.19 16.85
8 -12 7 12.28 11.32
8 12 7 6.41 15.05
-8 12 -7 20.88 15.97
-8 -12 -7 22.85 15.96
-8 -12 -7 29.54 19.65
-9 -12 -7 30.12 17.25
9 -12 7 22.63 13.01
9 12 7 9.92 16.48
-9 -12 -7 14.91 21.73
10 -12 7 23.23 13.61
-10 -12 -7 21.67 25.03
11 -12 7 27.94 14.89
12 -12 7 10.98 15.28
-15 13 7 69.37 24.49
-14 13 7 2.96 16.75
-13 13 7 6.94 14.75
-13 -13 7 -26.96 27.47
-12 -13 7 29.04 16.61
-12 13 7 15.53 13.48
-12 13 7 22.74 15.42
-12 -13 7 33.82 25.77
11 13 -7 22.17 19.32
-11 -13 7 -10.61 15.33
-11 13 7 9.16 15.58
-11 13 7 -7.18 12.34
-11 13 7 -14.44 14.42
-10 -13 7 4.26 13.41
-10 13 7 27.31 14.51
-10 13 7 21.75 11.19
10 13 -7 14.15 14.54
-10 13 7 -1.48 12.49
10 13 -7 5.77 17.72
-9 -13 7 5.32 12.47
-9 13 7 12.15 13.06
9 13 -7 -5.13 14.55
-9 13 7 -7.72 10.17
9 -13 -7 15.99 8.82
-9 13 7 4.06 11.91
9 13 -7 13.23 17.79
-8 13 7 -3.81 11.98
-8 -13 7 -7.21 13.09
8 13 -7 1.67 13.36
8 -13 -7 2.81 8.66
-8 13 7 8.63 10.85
8 13 -7 -5.52 15.72
-8 -13 7 12.45 12.36
7 13 -7 -6.59 12.91
7 13 -7 9.82 11.83
7 -13 -7 15.56 8.62
-7 13 7 3.36 10.03
-7 -13 7 3.5 11.46
7 13 -7 -10.93 16.14
-7 13 7 -1.2 11.14
-7 -13 7 -18.65 11.94
-7 -13 7 -1.36 12.34
-6 13 7 18.69 9.96
6 13 -7 22.62 14.11
-6 -13 7 34.38 11.26
6 13 -7 13.25 11.63
6 -13 -7 27.2 10
-6 13 7 26.38 10.38
-6 13 7 44.69 11.63
-6 13 7 46.73 12.45
6 13 -7 25.29 16.44
-6 -13 7 15.55 12.65
5 13 -7 52.07 14.92
-5 -13 7 44.07 11.54
5 13 -7 32.84 11.63
5 -13 -7 35.25 9.77
-5 13 7 32.17 11.12
-5 13 7 31.99 9.34
5 13 -7 33.8 15.5
-5 -13 7 38.67 12.64
-5 13 7 31.76 10.27
4 13 -7 53.78 14.73
4 13 -7 43.22 11.98
4 -13 -7 48.78 10.83
-4 13 7 78.45 11.72
-4 -13 7 69.48 11.91
4 13 -7 62.89 17.73
-4 -13 7 60.43 12.92
-4 13 7 46.73 11.02
-4 13 7 54.69 11.89
-3 -13 7 34.17 10.49
3 13 -7 62.52 14.44
3 13 -7 67.63 12.03
-3 13 7 57.2 11.82
3 13 -7 46.47 16.96
-3 13 7 38.44 10.47
2 13 -7 30.12 13.72
2 13 -7 -1.06 9.24
2 13 -7 1.71 14.69
-2 13 7 14.16 9.88
-2 13 7 -1.01 10.01
1 13 -7 -19.18 13.53
1 -13 -7 2.33 6.61
1 13 -7 2.79 8.35
1 13 -7 -3.14 9.27
1 -13 -7 2.75 9.12
-1 -13 7 -6.35 11.18
1 -13 -7 11.19 9.45
-1 13 7 -2.71 8.93
0 13 -7 9.01 10.39
0 -13 -7 8.58 9.65
0 -13 -7 16.85 5.89
0 13 -7 4.18 9.52
0 -13 -7 2.64 4.02
0 13 7 -7.77 10.51
0 -13 7 7.63 11.48
0 13 -7 17.19 9.07
-1 -13 -7 74.07 7.01
-1 13 -7 100.36 13.08
1 -13 7 105.28 15
1 13 7 83.57 13.6
1 13 7 75.39 6.47
-1 13 -7 98.6 11.67
-1 13 -7 92.44 11.47
-1 -13 -7 98.87 12.77
-1 13 -7 86.84 7.18
-1 13 -7 110.85 13.66
2 13 7 50.49 4.44
-2 13 -7 78.42 12.36
2 -13 7 86.74 14.68
-2 -13 -7 67.27 11.57
-2 -13 -7 70.55 11.33
2 13 7 54.54 4.11
2 13 7 73.43 14.11
-2 -13 -7 69.07 11.92
-2 13 -7 51.32 10.87
-2 13 -7 83.39 12.65
-2 13 -7 76.09 6.5
-3 13 -7 4.14 9.49
-3 13 -7 -1.14 10.98
-3 -13 -7 -4.08 10.2
3 13 7 4.19 11.94
-3 13 -7 -13.99 11.67
-3 -13 -7 -12.53 9.83
-4 13 -7 7.16 11.52
4 -13 7 16.25 10.44
4 13 7 -10.07 13.59
-4 13 -7 18.11 10.76
-4 -13 -7 46.58 15.68
-4 -13 -7 13.07 11.41
-4 13 -7 2.71 12.26
-4 -13 -7 1.93 9.94
-4 -13 -7 35.8 14.63
-5 13 -7 88.08 14.8
-5 13 -7 102.81 14.7
5 -13 7 107.16 13.62
-5 -13 -7 83.39 14.36
-5 -13 -7 90.46 18.68
-5 -13 -7 93.27 17.18
-6 13 -7 148.02 17.16
-6 -13 -7 100 15.21
6 -13 7 106.33 14.8
6 13 7 124.81 17.85
-6 -13 -7 92.76 18.56
-6 -13 -7 58.58 19.91
-6 13 -7 76.19 14.77
-7 -13 -7 39.87 17.24
7 -13 7 57.65 13.56
7 13 7 65.47 16.71
-7 -13 -7 36.43 19.82
-7 13 -7 57.24 14.93
-7 -13 -7 37.84 14.99
8 -13 7 51.41 14.22
8 13 7 23.24 16.64
-8 13 -7 10.74 16.18
-8 -13 -7 11.73 20.37
-8 -13 -7 18.31 15.68
-8 -13 -7 33.41 17.63
-9 -13 -7 18.4 17.55
9 -13 7 22.39 12.75
9 13 7 -6.86 17.78
-9 -13 -7 20.43 22.08
-10 -13 -7 41.54 27.69
11 -13 7 -1.39 14.98
-13 14 7 7.15 16.14
-13 -14 7 -6.16 28.13
-12 14 7 -10.69 13.92
-12 14 7 -1.77 15.03
11 14 -7 8.41 18.58
-11 14 7 6.1 15.37
-11 14 7 18.53 13.05
-11 14 7 42.41 15.51
-10 -14 7 46.83 15.04
-10 14 7 58.88 15.92
-10 14 7 62.83 13.16
-10 14 7 31.6 13.92
10 14 -7 77.07 19.96
-9 14 7 5.4 12.85
-9 -14 7 29.26 14.95
9 14 -7 31.96 15.31
-9 14 7 22.63 10.76
-9 14 7 17.89 12.39
9 14 -7 2 18.24
-9 -14 7 22.59 13.35
-8 -14 7 40.42 14.24
8 14 -7 26.18 13.96
-8 14 7 22.66 11.16
-8 -14 7 2.48 12.48
8 14 -7 50.76 18.68
-8 14 7 27.98 13.08
-7 14 7 17.81 11.95
-7 14 7 -4.45 12.31
7 14 -7 25.81 14.73
7 14 -7 27.84 12.86
-7 -14 7 33 12.27
7 -14 -7 26.73 9.38
-7 14 7 13.8 10.61
-7 -14 7 8.14 11.73
-7 14 7 17.96 12.62
7 14 -7 34.79 17.97
-7 -14 7 30.14 13.5
-6 14 7 18.21 10.87
6 14 -7 20.26 13.66
6 14 -7 24.81 12.02
6 -14 -7 18.46 9.65
-6 14 7 14.64 9.5
-6 14 7 25.2 12.2
6 14 -7 30.7 17.5
-6 -14 7 27.96 11.96
-6 -14 7 26.2 12.69
-6 14 7 11.65 10.32
-5 -14 7 64.92 11.94
5 14 -7 65.85 15.29
5 14 -7 93.03 13.84
-5 14 7 85.05 13.18
5 -14 -7 63.45 11.33
5 14 -7 68.16 18.87
-5 -14 7 86.77 14.22
-5 14 7 72.94 11.9
4 14 -7 111.24 17.54
4 14 -7 127.31 14.83
-4 -14 7 88.14 12.92
4 -14 -7 128.11 13.35
-4 14 7 102.14 14.14
4 14 -7 94.71 18.46
-4 -14 7 96.1 14.38
-4 14 7 105.66 12.39
3 14 -7 63.97 15.07
-3 14 7 53.29 12.06
3 14 -7 65.58 12.56
3 -14 -7 88.98 12.25
3 14 -7 60.51 17.26
-3 -14 7 76.27 11.94
2 -14 -7 31.28 8.16
2 14 -7 20.57 13.99
2 14 -7 53.05 11.87
-2 -14 7 29.34 12.62
2 14 -7 32.9 17.19
-2 14 7 27.92 10.52
1 -14 -7 73.91 9.02
1 14 -7 91.1 13.67
1 14 -7 110.64 11.82
1 -14 -7 89.97 12.03
-1 -14 7 52.37 13.8
1 14 -7 64.21 17.78
0 14 -7 56.65 10.49
0 -14 -7 95.17 8.35
0 -14 -7 76.82 11.56
0 14 -7 79.84 12.59
0 -14 -7 61.36 6.61
0 14 7 75.42 14.11
0 -14 7 65.72 14.02
-1 14 -7 32.59 11.28
-1 -14 -7 25.01 5.56
-1 14 -7 27.68 11.02
1 14 7 22.04 12.13
-1 14 -7 39.38 10.27
-1 -14 -7 36.48 10.79
-2 -14 -7 70.96 10.27
2 14 7 58.34 6.15
-2 14 -7 45.78 11.95
-2 14 -7 61.23 10.45
2 14 7 50.7 13.85
-2 -14 -7 70.19 11.58
-2 -14 -7 42.34 10.91
-2 14 -7 51.06 12.73
2 14 7 46.98 11.75
3 14 7 -1.23 10.52
-3 14 -7 -2.39 11.01
-3 14 -7 -3.07 9.69
3 14 7 37.47 13.69
-3 -14 -7 12.07 10.82
-3 14 -7 1.28 10.54
-3 -14 -7 14.64 9.63
-4 14 -7 12.49 12.57
4 -14 7 21.88 11.18
4 14 7 -5.92 12.75
-4 14 -7 13.41 10.48
-4 14 -7 -9.54 11.96
-4 -14 -7 0.93 9.93
-4 -14 -7 -2.15 11.1
-5 14 -7 14.29 13.01
5 -14 7 17.45 11.48
-5 14 -7 8.49 11.16
-5 -14 -7 2.33 11.45
-5 -14 -7 -5.56 16.15
-5 14 -7 11.53 13.27
-5 -14 -7 26.54 15.52
-6 14 -7 1.31 12.02
-6 14 -7 6.8 13.38
-6 -14 -7 10.15 13.14
6 -14 7 2.56 11.57
6 14 7 6.36 14.44
-6 -14 -7 8.11 18.66
-6 -14 -7 9.3 15.71
-7 -14 -7 1.94 15.87
-7 -14 -7 24.97 14.06
7 -14 7 17.04 12.43
7 14 7 23.05 15.11
-7 -14 -7 48.77 21
-7 14 -7 9.74 12.99
-8 -14 -7 2 16.99
8 -14 7 4.03 12.4
8 14 7 27.39 16.85
-8 -14 -7 -16.88 21.9
-8 14 -7 11.66 14.31
-8 -14 -7 32.04 15.53
9 -14 7 1.37 13.45
-9 -14 -7 -13.12 23.34
-9 -14 -7 -20.83 18.91
10 -14 7 -1.41 14.31
11 -14 7 -4.35 15.18
-12 15 7 -2.76 14.49
-11 15 7 16.77 15.51
-11 15 7 40.73 14.77
-11 15 7 23.31 15.11
11 15 -7 26.32 20.92
-10 -15 7 26.28 16.56
-10 15 7 21.53 14.84
-10 15 7 67.46 14.22
-10 15 7 48.98 14.8
10 15 -7 23.53 19.88
-9 15 7 12.15 13.75
-9 -15 7 3.09 14.04
9 15 -7 40.35 14.59
9 15 -7 12.92 14.87
-9 15 7 25.34 12.46
9 15 -7 16.82 19.04
8 15 -7 40.04 16.09
-8 15 7 28.44 12.22
-8 -15 7 6.16 12.55
8 15 -7 18.58 18.5
-8 15 7 6.35 13.08
-8 -15 7 5.81 13.6
-7 15 7 -2.06 9.98
-7 15 7 7.82 11.64
7 15 -7 7.19 14.27
-7 -15 7 10.91 11.39
-7 15 7 3.55 10.65
-7 15 7 6 11.8
7 15 -7 8.18 17.68
-7 -15 7 1.38 12.19
6 15 -7 15.85 14.11
6 15 -7 6.37 11.99
-6 -15 7 12.42 11.21
6 15 -7 -16.23 17.98
-6 -15 7 -3.97 11.73
-6 15 7 7.52 11.22
-6 15 7 0.95 9.72
-5 15 7 91.04 13.25
5 15 -7 96.42 17.13
5 15 -7 67.09 13.74
5 15 -7 90.27 20.74
-5 -15 7 66.62 12.12
-5 -15 7 77.49 14.38
-5 15 7 67.78 11.58
4 15 -7 47.22 15.76
-4 -15 7 84.52 12.25
4 15 -7 80.42 13.85
-4 15 7 75.55 13.3
4 15 -7 49.28 18.39
-4 -15 7 106.24 14.71
-4 15 7 71.73 11.43
-3 15 7 39.8 11.35
3 -15 -7 69.63 10.81
3 15 -7 42.09 14.75
3 15 -7 41.1 11.68
3 15 -7 76.02 19.46
-3 -15 7 54.14 10.98
2 -15 -7 151.82 12.86
2 15 -7 152.64 19.46
2 15 -7 176.75 16.5
2 15 -7 175.09 22.33
1 -15 -7 217.36 14.46
1 15 -7 220.21 18.19
-1 15 7 206.77 19.57
1 15 -7 213.14 24.22
1 15 -7 226.23 16.37
0 -15 -7 357.36 19.33
0 15 -7 383.32 24.58
0 15 7 397.79 26.52
0 15 -7 390.85 22.51
0 -15 -7 359.61 22.58
-1 15 -7 227.66 19.81
1 15 7 251.3 21.45
-1 15 -7 236.64 17.7
-1 -15 -7 246.28 18.25
1 15 7 258.94 20.01
-1 15 -7 268.8 19.53
2 15 7 106.01 8.72
-2 -15 -7 114.18 12.43
-2 15 -7 125.07 15.09
2 15 7 116.53 16.46
-2 15 -7 128.4 14.75
-2 -15 -7 101.03 12.83
-2 15 -7 76.22 12.08
-2 -15 -7 114.85 13.97
-2 15 -7 132.45 12.88
2 15 7 115.61 14.91
-3 15 -7 216.45 18.88
3 15 7 170.75 8.92
3 15 7 217.09 20.37
-3 15 -7 204.39 18.46
-3 15 -7 239.78 17.08
3 15 7 219.49 18.64
-3 -15 -7 218.31 16.92
-4 15 -7 302.42 22.55
4 -15 7 264.33 21.53
4 15 7 291.06 23.69
-4 15 -7 266.98 19.96
-4 -15 -7 267.17 20.36
-4 15 -7 257.63 22.32
-5 15 -7 316.14 23.66
5 -15 7 329.65 23.02
-5 15 -7 288.38 21.92
-5 -15 -7 276.87 21.61
-5 -15 -7 281.14 27.93
-5 15 -7 284.9 23.1
-6 15 -7 293.31 23.73
6 -15 7 288.38 22.26
6 15 7 263.16 24.65
-6 15 -7 265.92 21.97
-6 -15 -7 270.28 22.13
-6 -15 -7 236.12 28.04
7 -15 7 118.9 16.71
7 15 7 90.02 18.37
-7 -15 -7 151.25 25.95
-7 15 -7 103.52 16.83
8 -15 7 44.8 14.7
-8 -15 -7 52.24 22.96
9 -15 7 73.12 16.4
-9 15 -7 39.32 16.76
10 -15 7 10.3 15.21
-12 16 7 8.5 15.92
-11 16 7 42.59 17.33
-11 16 7 32.37 14.66
-11 16 7 66.09 17.1
-10 16 7 65.92 16.63
-10 -16 7 70.71 18.33
-10 16 7 82.83 16.81
10 16 -7 65.19 21.8
-9 -16 7 61.61 17.3
9 16 -7 70.13 15.92
-9 16 7 56.22 14.73
9 16 -7 46.38 21.26
-9 16 7 79.69 16.16
-8 16 7 74.68 13.79
-8 16 7 78.49 14.3
8 16 -7 83.44 17.77
-8 16 7 61.2 13.87
-8 -16 7 105.44 15.38
-8 16 7 74.76 15
8 16 -7 69.69 21.16
-8 -16 7 59.83 15.61
-7 16 7 112.41 14.11
-7 -16 7 157.06 16.1
7 16 -7 157.45 20.58
-7 16 7 140.93 15.35
-7 16 7 127.43 16.18
7 16 -7 177.29 24.22
-7 -16 7 131.73 17.29
6 16 -7 258.72 23.98
6 16 -7 237.61 20.87
-6 -16 7 265.96 19.18
-6 -16 7 265.1 21.38
-6 16 7 211.89 17.75
-6 16 7 218.88 18.94
6 16 -7 265.8 27.44
5 -16 -7 164.19 15.97
5 16 -7 206.18 21.37
5 16 -7 139.72 16.46
-5 16 7 132.99 16.69
-5 -16 7 149.89 15.2
-5 16 7 174.91 14.61
5 16 -7 118.61 22.11
-5 -16 7 149.34 17.4
-5 16 7 129.09 14.9
-4 -16 7 164.24 14.81
4 -16 -7 131.91 14.3
4 16 -7 129.26 19.52
4 16 -7 162.64 16.49
-4 16 7 145.35 15.48
4 16 -7 160.41 23.03
3 -16 -7 249.34 17.56
3 16 -7 248.45 23.96
3 16 -7 260.73 20.42
-3 16 7 274.53 19.69
3 16 -7 262.15 27.08
2 16 -7 50.38 16.28
2 -16 -7 59.32 9.59
2 16 -7 63.87 13.41
2 16 -7 86.62 20.27
1 -16 -7 25.97 7.91
1 16 -7 7.16 11.21
-1 16 7 21.39 12.7
1 16 -7 -4.16 17.24
0 16 -7 95.76 11.67
0 16 -7 102.9 14.25
0 -16 -7 95.13 12.32
0 16 7 101.83 16.33
0 16 7 66.73 13.55
-1 16 -7 124.4 14.74
-1 -16 -7 82.16 12.4
-1 16 -7 102.16 14.97
1 16 7 82.78 15.87
1 16 7 111.74 15.02
-1 16 -7 100.83 12.2
-2 16 -7 20.03 9.26
2 16 7 19.32 6.93
-2 16 -7 44.16 12.81
2 16 7 15.04 12.86
-2 16 -7 35.44 10.28
-2 -16 -7 24.96 10.33
2 16 7 62.52 13.76
-2 16 -7 36.81 11.95
-3 16 -7 -1.31 11.96
-3 -16 -7 5.85 10
3 16 7 9.38 5
3 16 7 3.08 14.26
-3 -16 -7 9.51 10.34
-3 16 -7 -0.98 9.81
-3 16 -7 24.65 12.77
3 16 7 12.47 12.16
4 16 7 10.32 12.84
-4 16 -7 2.16 9.91
-4 16 -7 31.3 14.18
-4 -16 -7 -3.13 10.9
4 16 7 6.31 14.28
-4 16 -7 15.09 12.83
-5 16 -7 16.98 13.8
5 -16 7 -1.36 11.83
-5 16 -7 4.76 11.52
-5 16 -7 7.32 13.15
-6 16 -7 28.09 15.28
-6 16 -7 -7.7 12.74
6 -16 7 4.17 12.68
6 16 7 5.04 15.25
-6 -16 -7 -15.27 20.01
-6 16 -7 10.81 14.11
7 -16 7 35.58 14.11
-7 -16 -7 -21.35 22.65
8 -16 7 -1.46 14.17
-8 16 -7 4.34 14.04
9 -16 7 16.41 15.45
-9 16 -7 -13.57 15.98
-11 17 7 -4.56 16.87
-11 17 7 -6.91 15.95
-10 17 7 22.88 15.28
-10 -17 7 24.56 16.98
10 -17 -7 3.28 15.73
-10 17 7 17.58 14.81
10 17 -7 7.09 22.37
9 -17 -7 -7.69 14.29
-9 -17 7 7.71 15.52
-9 17 7 -4.44 13.55
9 17 -7 -23.13 22.04
-9 17 7 -9.41 13.65
-8 17 7 13.94 11.74
8 -17 -7 21.5 14.2
8 17 -7 -6.9 13.68
-8 17 7 36.42 12.97
-8 17 7 15.18 12.92
8 17 -7 25.16 21.86
-8 -17 7 4.38 14.3
-7 17 7 13.48 12.54
7 -17 -7 13.26 12.72
7 17 -7 -17.51 16.51
7 17 -7 6.83 20.46
-7 -17 7 4.18 12.88
-7 17 7 22.59 11.11
6 -17 -7 -1.22 11.97
-6 17 7 14.23 12.16
6 17 -7 28.67 16.08
6 17 -7 -15.8 20.01
-6 -17 7 1.33 12.92
-6 17 7 -4.59 10.12
5 -17 -7 6.61 11.12
5 17 -7 26.17 16.16
5 17 -7 2.61 12.37
-5 -17 7 7.79 10.11
-5 17 7 2.91 13.29
-5 17 7 -1.07 10.87
-5 -17 7 -2.55 12.53
5 17 -7 17.83 20.57
-5 17 7 3.42 9.56
4 -17 -7 6.94 10.63
4 17 -7 -5.55 14.75
-4 17 7 -8.35 10.92
4 17 -7 -2.57 12.16
-4 17 7 -5.54 12.65
4 17 -7 -21.97 18.49
-4 -17 7 -4.66 10.15
3 -17 -7 5.28 9.2
3 17 -7 16.59 15.14
3 17 -7 -5.07 11.47
3 17 -7 -6.54 17.7
-3 17 7 -5.35 12.43
-3 17 7 2 10.31
2 17 -7 9.09 16.06
2 -17 -7 8.57 8.78
2 17 -7 5.04 11.63
-2 17 7 17.36 12.69
2 17 -7 15.28 18.45
-2 17 7 7.92 11.83
1 17 -7 -3.74 11.39
-1 17 7 -5.93 12.81
1 17 -7 13.24 20.1
-1 17 7 18.49 12.92
0 17 -7 13.75 11.96
0 17 -7 10.86 8.92
0 -17 -7 20.03 9.69
0 17 7 13.57 13.38
0 17 7 4.01 11.66
-1 17 -7 19.74 9.68
-1 17 -7 11.91 11.52
-1 -17 -7 16.54 9.77
-1 17 -7 -3.83 11.72
1 17 7 -1.53 13.46
1 17 7 19.06 12.86
2 17 7 3.4 7.76
-2 17 -7 21.12 12.66
2 17 7 23.39 14.9
-2 17 -7 10.93 9.56
2 17 7 19.79 13.59
-2 -17 -7 20.52 9.84
-2 17 -7 -9.84 11.73
-3 17 -7 8.18 12.64
3 17 7 26.62 6.59
-3 17 -7 1.92 10.25
3 17 7 1.59 12.78
-3 17 -7 -2.59 12.12
-3 -17 -7 -8.54 15.15
3 17 7 2.94 12.66
-4 17 -7 -1.42 13.94
-4 17 -7 31.68 11.76
4 17 7 9.27 13.45
4 17 7 -3.26 14.36
4 17 7 2.01 3.66
-4 17 -7 13.76 13.31
-4 -17 -7 -5.39 15.98
-5 17 -7 22.12 14.72
5 -17 7 11.32 13.1
-5 -17 -7 -1.89 16.65
-5 17 -7 2.32 11.84
-5 17 -7 8.79 14.34
-6 17 -7 -1.54 15.1
6 -17 7 -13.03 13.41
-6 17 -7 2.53 13.02
-6 17 -7 -15.54 15.55
-6 -17 -7 1.98 17.67
-7 17 -7 9.52 14.05
7 -17 7 1.48 14.13
-7 -17 -7 8.15 18.2
8 -17 7 -10.58 14.71
-8 17 -7 -1.43 14.71
-11 18 7 4.55 16.14
10 -18 -7 30.2 17.64
-10 18 7 62.27 16.66
-10 18 7 84.22 17.16
9 -18 -7 130.43 19.23
-9 18 7 141.72 19.1
-9 18 7 127 17.37
-9 18 7 109.68 17.6
9 18 -7 147.75 27.34
-8 18 7 129.88 15.52
8 -18 -7 127.17 17.98
-8 18 7 116.1 16.34
-8 18 7 82.12 16.11
8 18 -7 81.8 23.88
-8 -18 7 173.97 19.34
7 -18 -7 79.75 16.12
7 18 -7 68.57 18.58
7 18 -7 70.5 16.37
-7 18 7 81.04 14.39
7 18 -7 143.24 25.85
-7 -18 7 87.81 16.07
-7 18 7 99.51 13.41
-6 18 7 153.89 16.57
6 -18 -7 162.17 17.1
6 18 -7 152.57 20.94
-6 -18 7 129.51 17.43
6 18 -7 182.12 27.24
-6 18 7 143.55 14.68
5 -18 -7 250.17 19.5
5 18 -7 199.83 23.3
-5 18 7 255.61 19.95
-5 18 7 225.14 23.01
5 18 -7 241.56 29.24
4 -18 -7 191.91 16.64
4 18 -7 163.89 21.76
4 18 -7 195.48 18.85
-4 18 7 170.35 19.66
4 18 -7 219.68 27.54
-4 18 7 169.9 17.18
3 -18 -7 92.53 12.02
3 18 -7 92.43 18.81
3 18 -7 106.91 15.73
3 18 -7 115.05 23.73
-3 18 7 88.32 16.65
2 18 -7 94.89 19.38
2 18 -7 71.67 14.52
-2 18 7 24.09 14.94
2 18 -7 96.83 22.41
-2 18 7 32.89 14.13
1 18 -7 101.34 15.17
-1 18 7 76.97 16.62
1 18 -7 90.81 22.84
-1 18 7 69.86 15.38
0 18 -7 44.45 13.04
0 18 -7 23.87 9.45
0 18 7 34.43 15.5
0 18 7 31.7 13.99
-1 18 -7 9.16 8.73
-1 18 -7 5.35 12.85
1 18 7 4.75 13.22
1 18 7 -5.85 12.92
-2 18 -7 1.23 11.56
2 18 7 10.99 8.3
-2 18 -7 13.78 13.13
2 18 7 14.52 14.6
-2 18 -7 7.77 9.54
2 18 7 1.5 13.88
3 18 7 18.71 14.81
-3 18 -7 -8.54 13.52
-3 18 -7 15.86 10.13
3 18 7 12.77 6.83
3 18 7 29.64 14.5
-3 18 -7 -7.29 10.19
-3 -18 -7 21 16.26
-3 18 -7 -5.17 12.73
-4 18 -7 8.82 13.74
4 18 7 3.2 5.33
4 18 7 8.45 14.92
-4 -18 -7 7.37 15.8
-4 18 -7 7.13 10.34
-4 18 -7 -1.38 13.27
4 18 7 -6.46 14.82
-5 18 -7 -3.39 11.29
5 18 7 -1.71 15.87
-5 18 -7 12.29 15.04
-5 -18 -7 7.74 16.73
5 -18 7 7.35 13.53
-5 18 -7 20.47 14.23
6 -18 7 37.58 15.03
-6 18 -7 31.25 13.72
-6 -18 -7 46.52 19.21
-7 -18 -7 26.95 19.08
7 -18 7 19.94 15.7
-7 18 -7 -1.34 14.2
-7 18 -7 22.95 16.69
-8 18 -7 19.97 15.54
-11 19 7 46.83 18.22
-10 19 7 -1.68 15.45
-10 19 7 32.61 16.62
-9 19 7 1.11 12.59
9 -19 -7 28.78 15.87
-9 19 7 -1.23 13.61
-9 19 7 4 14.33
-8 19 7 -1.17 12.27
8 -19 -7 1.49 14.65
8 19 -7 22.64 23
-8 19 7 -3.03 11.69
7 -19 -7 -11 13.69
-7 19 7 4.54 12.14
7 19 -7 27.5 22.62
-7 19 7 8.36 11.12
6 -19 -7 -13.83 12.48
6 19 -7 12.3 17.12
-6 19 7 1.1 11.83
-6 19 7 8.49 9.89
6 19 -7 -22.33 22.07
5 -19 -7 -3.43 11.64
5 19 -7 -4.03 16.28
-5 19 7 1.06 11.81
-5 19 7 -10.03 16.17
5 19 -7 -14.75 21.94
4 -19 -7 24.92 11.41
4 19 -7 8 16.47
4 19 -7 40.02 14.56
-4 19 7 24.07 15.65
4 19 -7 46.2 23.19
-4 19 7 30.32 12.24
3 19 -7 52.06 17.8
3 -19 -7 39.21 11.11
3 19 -7 68.46 15.34
3 19 -7 72.74 23.8
-3 19 7 35.84 15.67
2 19 -7 120.9 20.92
2 19 -7 138.3 16.97
-2 19 7 119.07 17.96
2 19 -7 157.82 26.43
-2 19 7 118.6 18.2
1 19 -7 207.29 20.32
-1 19 7 215.88 22.19
-1 19 7 252.93 22.48
1 19 -7 193.79 28.17
0 19 -7 224.11 20.54
0 19 7 233.61 23.17
0 19 7 226.61 21.48
-1 19 -7 180.76 20.02
1 19 7 199.97 20.5
-1 19 -7 223.63 16.31
1 19 7 214.73 21.65
-2 19 -7 139.58 16.45
-2 19 -7 81.91 16.36
2 19 7 130.34 19.65
2 19 7 131.55 18.74
-2 -19 -7 123.32 19.08
-2 19 -7 119.74 13.2
-3 19 -7 114.13 17.4
3 19 7 93.44 10.67
3 19 7 143.31 18.86
-3 19 -7 114.37 14.26
3 19 7 95.52 18.29
-3 -19 -7 142.98 20.46
-3 19 -7 139.21 17.14
-4 19 -7 155.74 15.38
4 19 7 124.25 9.71
-4 19 -7 133.98 17.1
-4 -19 -7 154.62 22.13
4 19 7 147.59 20.33
-5 19 -7 65.81 13.79
5 19 7 66.48 5.63
5 19 7 58.7 18.5
-5 19 -7 94.82 17.31
-5 -19 -7 96.62 21.28
6 -19 7 88.75 17.28
-6 19 -7 71.45 15.15
-6 19 -7 59.2 17.67
-6 -19 -7 77.9 21.55
-7 19 -7 62.09 16.56
-7 19 -7 34.64 17.55
-8 19 -7 46.55 17.37
-10 20 7 2.36 13.58
-10 20 7 -1.3 14.6
-10 20 7 -5.63 16.57
9 -20 -7 -1.63 16.14
-9 20 7 -3.69 13.73
-9 20 7 -4.27 12.31
-9 20 7 -7.96 15.3
8 -20 -7 9.07 14.87
-8 20 7 -1.17 13.2
-8 20 7 9.74 11.79
-7 20 7 27.26 13.59
7 -20 -7 27.92 14.5
7 20 -7 20.91 23.19
-7 20 7 24.81 11.02
6 -20 -7 50.1 14.41
-6 20 7 50.66 13.93
-6 20 7 77.65 19.33
-6 20 7 46.51 10.88
6 20 -7 90.68 24.78
-5 20 7 -1.04 12.16
5 -20 -7 48.1 13.11
-5 20 7 12.44 16.32
5 20 -7 15.45 22.67
4 20 -7 18.77 16.86
-4 20 7 10.29 15.99
4 20 -7 10.2 21.46
3 20 -7 27.06 17.54
3 20 -7 22.65 14.24
-3 20 7 41.09 16.19
3 20 -7 12.73 22.42
-3 20 7 13.35 15.44
2 20 -7 72.28 18.69
2 20 -7 35.26 14.84
-2 20 7 17.9 14.81
2 20 -7 40.83 22.91
-2 20 7 39.58 16.34
1 20 -7 100.22 16.43
-1 20 7 97.91 18.78
1 20 -7 85.06 25.64
-1 20 7 86.83 18.26
0 20 -7 50.09 14.89
0 20 7 21.85 16.22
0 20 -7 10.41 22.79
0 20 7 44.43 16.35
-1 20 -7 -7.31 13.37
-1 20 -7 10.34 9.38
1 20 7 23.83 16.07
1 20 7 8.28 14.94
-2 20 -7 12.71 9.58
2 20 7 -1.68 15.01
-2 -20 -7 1.75 16.19
-3 20 -7 8.96 13.23
-3 20 -7 -5.86 9.82
3 20 7 6.92 16.43
-3 -20 -7 21.94 16.99
4 20 7 7 7.38
-4 20 -7 -1.36 13.43
-4 20 -7 -9.57 11.35
4 20 7 12.4 16.78
-4 -20 -7 -9.62 17.7
-4 20 -7 0.95 10.39
5 20 7 1.85 17.74
-5 20 -7 -1.05 11.5
-5 20 -7 17.44 14.78
-5 -20 -7 -12.06 19.08
-6 -20 -7 20.83 20.38
-6 20 -7 -3.51 13.16
-6 20 -7 7.73 15.35
-7 20 -7 1.29 14.03
-7 20 -7 -8.24 16.5
-10 21 7 23.21 15.32
-9 21 7 13.48 14.25
8 -21 -7 -7.7 16.16
-8 21 7 -2.35 13.57
-8 21 7 0.93 11.04
7 -21 -7 -15.71 14.95
-7 21 7 12.43 13.58
-7 21 7 -1.66 10.65
6 -21 -7 1.31 13.83
-6 21 7 10.75 12.45
-6 21 7 1.96 18.35
-5 21 7 15.11 18.32
5 21 -7 -5.38 24.16
-5 21 7 9.07 11.71
-4 21 7 16.44 16.19
4 21 -7 -5.34 23.6
-3 21 7 21.35 16.54
3 21 -7 26.7 24.25
-3 21 7 8.9 16.61
-2 21 7 54.13 17.54
2 21 -7 16.08 22.69
-2 21 7 33.46 17.35
-1 21 7 99.73 19.17
1 21 -7 73.04 25.43
-1 21 7 71.53 18.47
0 21 -7 38.34 24.65
0 21 7 29.68 16.88
1 21 7 17.49 17.03
-2 21 -7 30.41 10.46
2 21 7 38.87 18.31
-2 -21 -7 44.74 17.62
-3 21 -7 40.86 14.41
3 21 7 39.87 18.34
-3 -21 -7 50.54 18.57
-3 21 -7 24.33 10.32
-4 21 -7 27.52 11.89
4 21 7 46.39 18.69
-4 21 -7 33.58 14.61
-4 -21 -7 96.11 21.21
-5 21 -7 29 12.41
-5 21 -7 35.84 16.1
-5 -21 -7 36.81 20.38
5 21 7 1.92 18.13
-6 21 -7 12.33 13.23
-6 21 -7 23.05 16.81
8 -22 -7 70.58 18.21
-8 22 7 66.58 14.82
7 -22 -7 104.55 18.32
-7 22 7 89.31 15.86
-6 22 7 122.79 16.55
-6 22 7 120.1 23.16
-5 22 7 125.77 23.18
-4 22 7 42.64 19.15
-3 22 7 109.1 19.19
3 22 -7 78.3 27.88
-3 22 7 58.67 20.29
2 22 -7 126.36 28.87
-2 22 7 52.37 19.11
1 22 -7 45.37 25.64
-1 22 7 87.14 21.24
0 22 7 38.83 18.97
1 22 7 14.79 18.17
-1 -22 -7 31.56 16.93
2 22 7 23.63 11.74
-2 22 -7 30.47 10.08
2 22 7 29.74 18.01
-2 -22 -7 45.53 18.32
-3 22 -7 -7.08 9.92
-3 22 -7 7.59 13.76
3 22 7 1.9 17.73
-3 -22 -7 -34.43 19.46
-4 22 -7 -5.3 13.73
-4 -22 -7 -10 19.63
-4 22 -7 -1.94 10.21
4 22 7 -21.31 18.9
5 22 7 -1.99 19.43
-5 22 -7 -11.76 11.68
-5 22 -7 -2.83 14.94
-5 -22 -7 14.59 20.39
-6 22 -7 4.56 16
-7 23 7 -4.5 22.37
-6 23 7 17.38 20.83
-5 23 7 -14.75 19.71
-4 23 7 26.69 20.46
-3 23 7 -22.05 19.41
-2 23 7 11.89 18.72
-1 23 7 17.67 17.84
0 23 7 -3.91 18.66
1 23 7 33.08 19.18
-1 -23 -7 23.22 17.25
2 23 7 31.27 18.48
-2 -23 -7 20.41 17.33
3 23 7 49.59 21.22
-3 -23 -7 15.58 19.42
-4 23 -7 20.97 14.89
4 23 7 52.59 21.49
-4 -23 -7 54.79 21.13
-5 23 -7 19.43 15.05
-6 24 7 6.84 22.24
-5 24 7 11.07 21.15
-4 24 7 -6.49 20.98
-3 24 7 4.24 20.91
-2 24 7 8.37 19.45
-1 24 7 16.57 20.96
0 24 7 -6.18 19.73
1 24 7 -2.05 19.72
2 24 7 12.28 20.04
-2 -24 -7 15.14 18.79
3 24 7 6.22 20.23
-3 -24 -7 -1.98 19.61
-5 25 7 11.61 22.2
-4 25 7 9.09 21.86
-3 25 7 51.36 22.51
-2 25 7 46.3 22.68
-1 25 7 26.13 21.64
0 25 7 93.12 23.95
0 -25 -7 71.02 19.85
-1 -25 -7 60.56 20.52
1 25 7 75.12 22.68
2 25 7 38.56 20.75
-2 -25 -7 63.51 21.04
-2 26 7 39.31 24.49
-1 26 7 22.84 23.31
0 26 7 2.27 22.38
0 -26 -7 12.56 18.69
-1 -26 -7 70.88 21.55
1 -27 -7 1.76 19.58
0 -27 -7 7.23 20.49
-16 0 8 -25 26.06
-15 0 8 13.85 22.73
-14 0 8 53.1 22.22
-13 0 8 83.49 20.47
-13 0 8 79.46 20.45
-12 0 8 51.78 16.05
-12 0 8 75.5 19.57
-11 0 8 196.3 21.53
-11 0 8 234.87 23.3
-10 0 8 427.76 28.56
-10 0 8 395.67 28.25
-9 0 8 727.19 39.24
-9 0 8 751.64 40.46
-8 0 8 557.4 34.53
-8 0 8 625.83 32.41
-8 0 8 576.57 33.77
-7 0 8 646.6 35.48
7 0 -8 649.27 33.03
-7 0 8 568.44 30.84
-7 0 8 645.49 34.53
-6 0 8 1333.59 61.6
-6 0 8 1315.31 60.64
6 0 -8 1326.76 59.45
-6 0 8 1292.12 61.2
-6 0 8 1230.95 61.17
-5 0 8 360.7 22.48
-5 0 8 314.18 21.27
5 0 -8 338.19 20.05
-5 0 8 301.2 21.57
-5 0 8 319.99 22.03
-4 0 8 289.52 20.18
4 0 -8 305.81 18.46
-4 0 8 327.78 21.42
-4 0 8 335.6 21.34
-3 0 8 572.14 31.19
-3 0 8 620.96 27.73
3 0 -8 595.9 29.89
-3 0 8 679.65 33.53
-3 0 8 633.22 33.41
3 0 -8 589.47 32.09
2 0 -8 605.78 29.16
-2 0 8 571.89 32.46
2 0 -8 646.4 32.56
1 0 -8 663.42 34.27
1 0 -8 664.8 30.62
-1 0 8 623.07 34.36
1 0 -8 626.95 33.92
0 0 -8 213.02 12.94
0 0 -8 239.21 16.38
0 0 -8 219.11 13.83
0 0 -8 221.1 17.05
0 0 -8 163.06 15.57
-1 0 -8 51.29 7.75
-1 0 -8 64.66 6.64
-1 0 -8 54.4 9.53
-1 0 -8 48.13 10.41
-2 0 -8 109.05 12.42
-2 0 -8 98.86 7.58
-2 0 -8 98.28 9.02
-2 0 -8 89.01 12.3
-2 0 -8 122.16 13.93
-3 0 -8 5.84 6.32
-3 0 -8 11.7 4.73
-3 0 -8 9.95 9.74
-3 0 -8 4.92 7.67
-3 0 -8 25.25 9.97
-3 0 -8 14.97 10.39
-4 0 -8 16.43 6.56
-4 0 -8 12.62 4.57
-4 0 -8 25.8 10.26
-4 0 -8 3.21 8.35
-4 0 -8 14.07 9.88
-4 0 -8 24.95 11.03
-5 0 -8 30.11 6.95
-5 0 -8 32.38 10.2
-5 0 -8 19.03 10.01
-5 0 -8 14.62 10.97
-5 0 -8 34.74 11.42
-6 0 -8 5.57 12.52
-6 0 -8 0.98 9.61
-6 0 -8 8.24 9.38
-6 0 -8 -2.98 11.36
-6 0 -8 15.49 11.9
-7 0 -8 22.02 11.97
-7 0 -8 14.22 15.15
-7 0 -8 -6.34 10.28
-7 0 -8 21.03 10.54
-8 0 -8 65.76 17.33
-8 0 -8 52.36 14.51
-8 0 -8 31.3 11.65
-9 0 -8 33.72 14.54
-9 0 -8 27.78 17.82
-10 0 -8 2.21 19.38
-11 0 -8 39.2 23.46
-12 0 -8 19.04 24.55
-16 -1 8 58.83 27.25
-16 1 8 44.02 24.96
-15 -1 8 -16.57 23.37
-15 1 8 -4.51 22.24
-14 -1 8 13.09 21.54
-14 1 8 -10.31 19.09
-13 -1 8 47.83 19.27
-13 -1 8 34.01 19.86
-13 1 8 39.4 19.7
-12 -1 8 35.08 15.88
-12 1 8 43.44 16.22
-12 -1 8 3.64 18.13
-12 1 8 59.36 18.43
-11 -1 8 4.75 13.32
-11 1 8 20.6 14.3
-11 -1 8 6.56 16.05
-11 1 8 7.59 15.48
-10 -1 8 73.11 15.35
-10 1 8 22.43 13.73
-10 -1 8 49.39 15.56
-10 1 8 29.33 14.4
-9 -1 8 16.84 12.4
-9 1 8 35.19 13.04
-9 1 8 -1.57 13.08
-9 -1 8 -7.55 12.94
-9 1 8 -2.29 12.35
-8 -1 8 7.95 11.63
-8 1 8 31.85 12.17
-8 1 8 11.52 12.72
8 1 -8 22.9 11.07
-8 -1 8 -3.16 11.56
-8 1 8 -12.21 10.5
-7 -1 8 20.9 11.63
-7 -1 8 9.63 11.81
-7 1 8 3.96 11.57
-7 -1 8 5.04 9.59
7 1 -8 14.76 9.74
-7 1 8 8.5 8.54
-7 -1 8 16.37 11.25
-7 1 8 20.21 11.36
-6 -1 8 100.62 13.76
-6 1 8 100.08 13.41
-6 -1 8 90.8 14.51
-6 1 8 101.94 14.01
-6 1 8 83.81 12.4
6 1 -8 82.91 11.79
-6 -1 8 104.9 13.11
-6 1 8 78.55 13.2
-6 -1 8 61.05 12.09
-5 -1 8 39.82 11.11
-5 1 8 36.89 10.34
-5 -1 8 39.81 10.63
-5 1 8 27.7 10.19
5 1 -8 34.79 9.16
5 -1 -8 34.73 8.51
-5 -1 8 29.4 10.98
-5 1 8 28.28 10.62
-5 -1 8 42.25 10.68
-5 1 8 46.1 10.79
-4 -1 8 2.14 9.21
-4 1 8 19.61 9.1
-4 -1 8 17.59 9.62
-4 1 8 12.12 9.36
4 1 -8 6.55 7.35
4 -1 -8 14.03 7.24
-4 -1 8 25.03 10.24
-4 1 8 10.5 10.1
-3 1 8 193.59 15.04
-3 1 8 188.6 10.17
-3 -1 8 184.86 11.68
3 1 -8 173.91 13.61
3 -1 -8 190.53 13
-3 -1 8 163.92 15.42
-3 1 8 181.91 16.11
-3 -1 8 163.75 15.92
-3 1 8 188.34 16.42
3 1 -8 160.06 14.48
3 -1 -8 240.23 15.93
-2 -1 8 394.03 18.87
2 1 -8 353.31 20.25
2 -1 -8 333.21 19.16
-2 -1 8 389.35 23.2
-2 1 8 374.01 23.45
2 1 -8 403.79 23.1
2 -1 -8 358.4 22.38
1 -1 -8 274.25 18.78
1 1 -8 274.81 15.72
1 -1 -8 243.9 14.18
-1 -1 8 250.9 18.67
-1 1 8 278.82 19.11
1 1 -8 236.38 12.96
1 1 -8 236.24 18.02
1 -1 -8 300.06 18.76
1 1 -8 255.76 18.49
0 1 -8 223.95 13.68
0 1 -8 227.9 14.11
0 1 -8 215.79 16.14
0 -1 -8 257.61 16.65
0 -1 -8 205.4 12.04
0 1 -8 233.13 16.83
0 -1 -8 203.41 16.52
0 -1 -8 191.07 10.87
0 1 -8 246.65 17.37
0 -1 -8 206.74 16.75
-1 1 -8 405.91 19.9
-1 1 -8 373.41 20.2
-1 -1 -8 394.88 19.84
-1 -1 -8 376.44 18
-1 -1 -8 402.95 24.06
-1 1 -8 379.58 23.61
-1 -1 -8 422.42 24.22
-1 -1 -8 365.96 19.02
-1 1 -8 362.99 22.95
-1 -1 -8 350.7 22.56
-2 1 -8 216.05 13.08
-2 1 -8 215.31 13.69
-2 -1 -8 201.66 12.82
-2 -1 -8 204.8 10.59
-2 1 -8 249.74 17.78
-2 -1 -8 226.35 17.02
-2 1 -8 235.9 17.49
-2 -1 -8 192.35 16.07
-2 1 -8 196.6 17.24
-2 -1 -8 249.8 18.31
-2 -1 -8 205.47 13.71
-3 1 -8 125.62 9.35
-3 -1 -8 114.81 9.16
-3 1 -8 115.34 10.12
-3 1 -8 121.52 11.61
-3 -1 -8 92.8 5.87
-3 1 -8 128.28 13.92
-3 -1 -8 105.41 10.42
-3 -1 -8 114.91 13.49
-3 1 -8 101.03 13.18
-3 -1 -8 86.52 12.29
-3 1 -8 114.81 14.17
-3 -1 -8 108.65 14.35
-3 -1 -8 90.02 11.02
-4 1 -8 150.02 10.52
-4 -1 -8 163.57 10.89
-4 1 -8 158.57 11.69
-4 -1 -8 137.65 12.5
-4 1 -8 162.08 13.91
-4 1 -8 135.62 15.7
-4 -1 -8 162.29 15.93
-4 1 -8 153.94 15.36
-4 -1 -8 146.27 14.54
-4 -1 -8 156.4 15.14
-4 -1 -8 148.42 15.99
-4 1 -8 158.82 16.05
-5 -1 -8 47.16 7.08
-5 1 -8 53.45 8.51
-5 -1 -8 59.16 10.32
-5 1 -8 51.71 11.07
-5 -1 -8 45.69 11.46
-5 1 -8 65.83 11.76
-5 -1 -8 36.89 10.65
-5 -1 -8 45.35 12.39
-5 1 -8 48.71 12.8
-5 1 -8 43.66 12.1
-5 -1 -8 56.33 12.61
-6 -1 -8 20.6 9.54
-6 1 -8 30.82 10.52
-6 1 -8 39.44 13.11
-6 -1 -8 24.77 12.2
-6 1 -8 15.44 9.97
-6 -1 -8 15.48 9.57
-6 1 -8 16.41 12.49
-6 -1 -8 19.35 11.28
-6 -1 -8 44.33 14.2
-7 -1 -8 68.47 15.26
-7 1 -8 130.17 15.94
-7 1 -8 118.06 14.91
-7 -1 -8 112.21 17.94
-7 1 -8 94.25 12.2
-7 -1 -8 74.3 12.31
-8 -1 -8 39.73 14.27
-8 1 -8 63.99 14.92
-8 1 -8 77.57 14.03
-8 1 -8 93.62 12.55
-8 -1 -8 74.95 12.95
-8 -1 -8 58.88 17.68
-9 1 -8 31.9 17.87
-9 -1 -8 31.48 15.26
-9 1 -8 5.02 12.91
-9 -1 -8 8.02 17.6
-10 -1 -8 33.5 20.81
-10 1 -8 46.4 21.04
-11 -1 -8 -12.42 22.41
-11 1 -8 -4.87 22.57
-12 -1 -8 43.69 26.78
-16 -2 8 5.24 25.54
-16 2 8 -23.93 25.92
-15 -2 8 17.03 23.94
-15 2 8 8.8 21.6
-14 -2 8 2.25 21.35
-14 2 8 8.05 20.08
-13 -2 8 17.63 18.44
-13 -2 8 35.14 20.55
-13 2 8 41.97 18.25
-12 -2 8 10.31 17.01
-12 -2 8 -5.02 14.4
-12 2 8 15.05 15.33
-12 -2 8 3.77 17.46
-12 2 8 3.28 16.23
-11 -2 8 28.52 14.75
-11 2 8 22.21 14.96
-11 -2 8 32.3 17.41
-11 2 8 16.06 14.76
-10 -2 8 31.33 13.73
-10 2 8 13.49 13.7
-10 -2 8 30.26 15.8
-10 2 8 35.81 13.73
-9 -2 8 -9.82 12.61
-9 2 8 12.7 12.59
-9 2 8 13.82 13.52
9 2 -8 22.73 11.31
-9 -2 8 -18.56 13.59
-9 2 8 14.23 11.69
-8 -2 8 15.9 12.23
-8 2 8 -2.66 11.42
-8 2 8 -1.41 12.47
8 2 -8 8.2 10.38
-8 -2 8 6.74 12.26
-8 2 8 4.47 9.61
-7 -2 8 2.64 9.86
-7 -2 8 1.41 11.84
-7 2 8 23.25 11.84
7 2 -8 1.09 9.37
-7 -2 8 2.75 9.87
-7 2 8 10.56 8.45
-7 -2 8 -11.35 11.52
-7 2 8 -5.07 10.54
-6 -2 8 79.07 12.91
-6 2 8 100.47 13.42
-6 -2 8 114.2 14.93
-6 2 8 100.97 13.45
-6 -2 8 98.43 13.03
6 2 -8 81.55 12.04
-6 2 8 79.47 12.42
-6 -2 8 80.9 13.15
-6 2 8 86.04 13.16
-5 -2 8 32.96 11.84
-5 2 8 33.85 10.28
-5 -2 8 42.05 10.43
-5 2 8 34.42 10.53
5 2 -8 26.29 9.43
-5 -2 8 37.65 11.04
-5 2 8 27.17 10.37
-5 -2 8 36.65 11.28
-5 2 8 23.43 10.46
-4 -2 8 5.57 9.74
-4 2 8 26.43 9.02
-4 -2 8 16.52 9.52
-4 2 8 -2.21 8.35
4 2 -8 0.87 7.88
-4 -2 8 16.88 9.41
-4 2 8 -11.56 9.73
-3 2 8 6.73 7.89
3 2 -8 1.07 7.7
3 -2 -8 -4.32 6.42
3 2 -8 0.81 8.05
-3 -2 8 5.43 6.39
-3 -2 8 -1.11 9.02
-3 2 8 3.33 8.83
-3 -2 8 11.91 9.67
-3 2 8 -11.44 9.89
3 2 -8 4.45 4.18
-2 2 8 51.84 9.19
2 2 -8 72.71 10.62
2 -2 -8 68.94 9.72
-2 -2 8 89.7 12.29
-2 2 8 81.49 11.92
-2 -2 8 75.31 8.01
2 2 -8 55.87 9.08
2 2 -8 79.58 6.88
2 -2 -8 76.45 7.86
1 2 -8 32.52 9.4
1 2 -8 31.37 7.92
1 2 -8 24.59 6.52
1 -2 -8 38.01 5.85
-1 -2 8 32.11 10.62
-1 2 8 13.42 10.05
1 2 -8 36.64 9.09
1 -2 -8 23.58 7.84
0 2 -8 128.42 10.82
0 2 -8 124.52 11.03
0 2 -8 126.66 12.48
0 -2 -8 141.63 12.24
0 -2 -8 114.54 12.56
0 -2 -8 121.48 8.08
0 2 -8 145.52 13.63
0 2 -8 115.72 12.6
0 -2 -8 118.04 12.21
0 -2 -8 133.5 13.32
-1 2 -8 1.24 6.61
-1 2 -8 4.46 6.57
-1 -2 -8 6.53 5.4
-1 -2 -8 6.74 8.76
-1 2 -8 -2.13 8.06
-1 -2 -8 16.08 7.4
-1 -2 -8 -5.03 5.7
-1 2 -8 14.02 9.11
-1 -2 -8 6.74 8.4
-2 2 -8 13.47 9.19
-2 -2 -8 14.64 8.3
-2 2 -8 1.18 6.5
-2 2 -8 11.41 7.78
-2 -2 -8 10.48 5.49
-2 -2 -8 28.65 9.67
-2 -2 -8 6.88 5.38
-2 2 -8 3.63 9.14
-2 -2 -8 4.64 8.69
-2 -2 -8 1.97 6.92
-3 2 -8 5.32 6.33
-3 -2 -8 0.42 5.33
-3 2 -8 5.7 7.25
-3 -2 -8 -3.06 6.65
-3 2 -8 11.52 10.77
-3 -2 -8 -0.85 9.22
-3 -2 -8 10.87 9.84
-3 2 -8 3.18 8.46
-3 2 -8 -10.83 9.97
-3 -2 -8 -9.62 9.12
-3 2 -8 -15.29 10.51
-3 -2 -8 -12.22 9.84
-4 -2 -8 4.83 5.16
-4 2 -8 12.31 7.29
-4 2 -8 23.12 11.08
-4 2 -8 5.17 10.49
-4 -2 -8 5.79 7.69
-4 -2 -8 15.41 9.89
-4 2 -8 12.27 9.86
-4 2 -8 -8.09 9.62
-4 -2 -8 -6.43 9.8
-4 -2 -8 12.01 10.78
-4 -2 -8 16.53 10.68
-5 -2 -8 1.38 9.31
-5 2 -8 6.56 7.61
-5 -2 -8 16.27 8.71
-5 2 -8 7.91 9.98
-5 2 -8 -7.5 9.3
-5 -2 -8 6.33 9.77
-5 -2 -8 -2.44 11.48
-5 -2 -8 -12.75 12.29
-5 2 -8 6.97 10.52
-5 2 -8 -1.24 10.65
-6 2 -8 13.93 10.48
-6 2 -8 -7.24 10.06
-6 -2 -8 -1.04 9.59
-6 2 -8 4.48 11.28
-6 -2 -8 1.49 10.07
-6 -2 -8 -15.05 13.39
-6 -2 -8 -5.65 13.41
-6 2 -8 -20.98 11.95
-7 -2 -8 18.92 13.78
-7 2 -8 28.69 12.69
-7 2 -8 -3.45 11.62
-7 2 -8 -3.96 10.1
-7 -2 -8 -2.13 10.06
-7 -2 -8 -3.23 14.46
-8 -2 -8 19.66 13.41
-8 2 -8 -8.61 12.54
-8 2 -8 15.93 12.5
-8 2 -8 -13.34 10.02
-8 -2 -8 8.41 10.14
-8 -2 -8 -3.65 16.18
-9 -2 -8 25.63 15.36
-9 2 -8 -9.08 12.95
-9 -2 -8 10.22 18.06
-10 2 -8 -6.69 19.35
-10 2 -8 -17.92 14.15
-10 -2 -8 -18.14 21.47
-11 2 -8 4.9 21.27
-11 -2 -8 -5 22.62
-16 -3 8 29.47 28.13
-16 3 8 21.16 23.74
-15 -3 8 27.45 24.16
-15 3 8 23.65 21.77
14 -3 -8 26.75 12.2
-14 -3 8 18.5 22.66
-14 3 8 43.07 20.47
-13 -3 8 2.24 18.53
-13 -3 8 -2.13 20.47
-13 3 8 17.68 17.4
-12 -3 8 16.75 17.65
-12 -3 8 31.87 16.11
-12 3 8 41.84 15.68
-12 -3 8 15.58 18.97
-12 3 8 15.85 16.37
-11 -3 8 107.86 17.47
-11 3 8 106.56 17.48
-11 -3 8 111.17 19.9
-11 3 8 88.63 16.99
-10 -3 8 97.13 16.19
-10 3 8 82.65 15.61
-10 3 8 113.73 17.58
10 3 -8 89.88 15.15
-10 -3 8 82.32 17.59
-10 3 8 70.05 14.6
-9 -3 8 15.46 12.94
-9 3 8 12.74 13.24
-9 3 8 23.99 13.15
9 3 -8 -6.45 11.8
-9 -3 8 8.37 14.63
-9 3 8 7.32 11.22
-8 -3 8 75.69 13.9
-8 3 8 68.22 13.64
-8 3 8 55.09 13.14
8 3 -8 57.92 12.03
-8 -3 8 62.33 13.72
-8 3 8 74.88 11.97
-7 -3 8 24.03 11.92
-7 3 8 18.94 11.44
7 3 -8 8.98 9.96
-7 3 8 6.87 7.96
-7 -3 8 22.73 11.12
-7 3 8 -5.09 11.08
-6 -3 8 80.09 13.37
-6 -3 8 101.13 14.69
-6 3 8 126.5 13.81
-6 3 8 104.71 13.28
6 3 -8 108.6 12.89
-6 3 8 79.84 7.63
-6 -3 8 90.79 13.16
-6 3 8 93.66 13.5
-6 -3 8 103.35 13.6
-5 -3 8 269.88 20.57
-5 3 8 294.94 19.34
-5 -3 8 238.49 18.62
-5 3 8 256.27 18.99
5 3 -8 265.72 18.83
-5 3 8 269.05 19.95
-5 -3 8 279.28 20.38
-4 3 8 56.24 4.35
-4 3 8 72.65 10.84
-4 -3 8 72.74 11.54
-4 3 8 84.37 11.85
4 3 -8 73.99 10.94
-4 -3 8 51.22 11.31
4 3 -8 63 7.37
-3 3 8 53.76 9.14
3 3 -8 43.96 9.55
3 -3 -8 40.97 9.6
3 3 -8 61.26 10.24
-3 -3 8 75.3 11.52
-3 3 8 53.63 11.53
-3 -3 8 74.63 12.16
3 3 -8 77.12 7.49
-2 3 8 444.16 23.83
-2 -3 8 442.61 23.3
2 3 -8 436.46 24.52
2 -3 -8 507.95 26.89
-2 -3 8 470.5 26.87
-2 3 8 494.32 27.14
2 3 -8 421.97 22.51
2 3 -8 456.04 26.32
2 -3 -8 480.19 26.41
-1 -3 8 545.49 28.2
1 3 -8 574.86 29.19
1 3 -8 558.52 28.92
1 -3 -8 564.35 31.25
-1 -3 8 614.9 31.88
-1 3 8 553.95 31.36
1 3 -8 570.57 28.11
1 3 -8 630.19 31.94
1 -3 -8 590.6 31.52
1 3 -8 617.03 31.68
0 3 -8 555.79 27.16
0 3 -8 552.79 26.81
0 3 -8 546.21 28.99
0 -3 -8 525.42 28.77
0 -3 -8 549.25 29.26
0 3 -8 471.69 28.94
0 -3 -8 507.75 29.33
0 3 -8 518.47 29.37
0 -3 -8 482.21 28.91
-1 3 -8 496.44 25.86
-1 3 -8 481.81 25.49
-1 -3 -8 539.14 24.08
-1 -3 -8 510.98 28.44
-1 -3 -8 457.89 23.58
-1 3 -8 573.49 29.83
-1 -3 -8 492.31 28.38
-1 3 -8 518.76 28.27
-1 -3 -8 516.57 28.15
-2 -3 -8 321.06 17.04
-2 3 -8 347.27 19.33
-2 -3 -8 337.2 16.95
-2 3 -8 341.66 19.5
-2 -3 -8 333.17 21.37
-2 3 -8 366.41 22.65
-2 -3 -8 315.25 21.74
-2 -3 -8 327.49 18.99
-2 3 -8 323.84 22.51
-2 -3 -8 323.69 21.94
-3 3 -8 416.19 22.67
-3 -3 -8 424.41 20.12
-3 -3 -8 408.56 21.55
-3 3 -8 406.04 22.55
-3 -3 -8 450.42 25.54
-3 3 -8 442.93 26.4
-3 -3 -8 407.22 25.63
-3 3 -8 429.24 26.64
-3 -3 -8 423.91 26.37
-3 -3 -8 458.89 24.16
-4 -3 -8 187.88 10.84
-4 3 -8 185.44 13.98
-4 -3 -8 233.16 14.36
-4 3 -8 226.91 16.9
-4 3 -8 206.25 17.39
-4 -3 -8 188.58 16.01
-4 3 -8 191.07 17.62
-4 -3 -8 207.4 17.4
-4 3 -8 210.19 17.5
-4 -3 -8 171.28 16.39
-4 -3 -8 187.04 18.71
-5 3 -8 149.2 13.1
-5 3 -8 192.79 16.49
-5 -3 -8 189.63 18.8
-5 3 -8 166.47 15.7
-5 -3 -8 160.82 15.21
-5 -3 -8 176.12 16.7
-5 3 -8 196.73 17.43
-5 -3 -8 183.11 17.46
-5 3 -8 150.32 17.48
-6 3 -8 249.66 16.3
-6 3 -8 224.19 18.65
-6 3 -8 179.5 16.99
-6 -3 -8 239.77 18.14
-6 3 -8 252.73 21.46
-6 -3 -8 229.69 19.92
-6 -3 -8 209.56 21.14
-6 -3 -8 243.66 21.73
-6 3 -8 238.85 19.78
-7 3 -8 86.98 14.41
-7 3 -8 101.76 14.46
-7 3 -8 85.14 12.87
-7 -3 -8 115.44 13.88
-7 -3 -8 101.44 15.81
-7 -3 -8 78.93 17.74
-7 -3 -8 118.82 17.73
-8 -3 -8 40.5 15.78
-8 3 -8 29.04 13.12
-8 3 -8 28.03 13.43
-8 -3 -8 33.37 17.38
-9 -3 -8 7.04 15.55
-9 3 -8 21.57 13.87
-9 -3 -8 12.41 17.82
-10 3 -8 -2.85 13.95
10 -3 8 12.33 8.91
-10 -3 -8 34.4 21.52
-11 3 -8 39.7 22.61
11 -3 8 8.92 9.03
-11 -3 -8 7.59 22.44
-16 -4 8 19.16 27.4
-16 4 8 16.12 23.37
-15 -4 8 74.12 26.72
-15 4 8 12.59 20.46
14 -4 -8 26.26 10.99
-14 -4 8 49.86 24.25
-14 4 8 43.82 19.73
-13 -4 8 25.05 19.86
13 -4 -8 32.1 11.87
-13 -4 8 32.92 20.62
-13 4 8 30.93 17.1
-12 -4 8 61.78 19.28
-12 -4 8 72.37 17.5
-12 4 8 70.53 17.24
12 -4 -8 44.18 12.59
-12 -4 8 58.57 20.78
-12 4 8 50.61 16.77
-11 -4 8 109.71 20.61
-11 -4 8 119.28 18.17
-11 4 8 148.36 19.81
-11 4 8 149.41 20.39
11 4 -8 174.72 18.36
-11 -4 8 136.22 21.18
-11 4 8 124.6 18.17
-10 -4 8 97.35 16.48
-10 4 8 104.05 17.07
-10 4 8 79.26 16.62
10 4 -8 83.2 14.99
-10 -4 8 115.94 18.88
-10 4 8 78.71 14.79
-9 -4 8 171.92 18.58
-9 4 8 167.64 18.2
-9 4 8 190.03 18.58
9 4 -8 165.52 17.32
-9 -4 8 179.39 19.77
-9 4 8 179.19 16.52
-8 4 8 250.41 20.03
8 4 -8 227.14 19.41
-8 -4 8 257.15 21.03
-8 4 8 236.7 17.14
-8 -4 8 263.38 20.7
-8 4 8 221.49 20.09
-7 4 8 208.07 17.71
7 4 -8 183.37 17.31
-7 4 8 186.36 13.65
-7 -4 8 255.65 19.22
-7 4 8 192.9 17.74
-7 -4 8 218.73 18.6
-6 -4 8 228.08 20.62
-6 4 8 272.35 19.05
6 4 -8 235.39 18.95
-6 -4 8 241.6 18.81
-6 4 8 295.39 19.61
-6 4 8 237.9 12.79
-6 -4 8 269.3 19.79
-6 4 8 252.9 19.98
-6 -4 8 268.96 20.35
-5 -4 8 363.48 22.75
-5 4 8 339.29 22.5
-5 4 8 318.22 21.23
5 4 -8 314.37 21.77
-5 4 8 405.59 23.94
-5 -4 8 379.54 24.01
5 4 -8 335.06 18.97
-4 4 8 319.12 20.73
4 4 -8 324.8 21.37
-4 -4 8 374.95 23.08
-4 4 8 376.54 23.14
-4 -4 8 376.92 23.76
4 4 -8 347.89 19.08
-3 4 8 597.32 27.88
3 4 -8 523.87 28.29
3 -4 -8 493.55 28.95
-3 -4 8 521.95 29.45
-3 4 8 523.92 29.36
3 4 -8 477.69 25.83
-3 -4 8 585.48 30.88
3 4 -8 513.95 28.69
3 -4 -8 509.69 28.66
2 4 -8 108.06 11.94
-2 4 8 108.3 10
2 -4 -8 79.03 11.11
-2 -4 8 87.36 12.36
-2 4 8 85.5 12.83
2 4 -8 111.57 11.79
2 -4 -8 70.9 11.04
-2 -4 8 105.35 10.43
2 4 -8 80.68 10.19
1 4 -8 77.69 11.69
-1 -4 8 72.65 9.93
1 4 -8 80.54 10.87
1 4 -8 94.03 10.49
1 -4 -8 77.69 10.41
1 4 -8 94.26 10.62
-1 -4 8 72.69 11.99
-1 4 8 55.08 11.33
1 4 -8 68.53 10.69
1 -4 -8 68.7 11.32
0 4 -8 167.93 13.97
0 4 -8 179.67 13.31
0 4 -8 183.2 15.23
0 -4 -8 164.25 14.86
0 -4 -8 173.65 14.61
0 4 -8 159.08 15
0 -4 -8 174.82 15.65
0 4 -8 199.13 15.97
0 -4 -8 175.67 15.24
-1 4 -8 110.39 11.68
-1 -4 -8 106.59 8.35
-1 4 -8 121.08 11.44
-1 -4 -8 104.89 12.15
-1 -4 -8 87.09 8.59
-1 4 -8 128.93 12.9
-1 -4 -8 96.63 12.56
-1 4 -8 128.69 13.26
-1 -4 -8 118.79 13.91
-2 4 -8 8.96 9.24
-2 4 -8 -4.69 8.46
-2 -4 -8 2.25 9.43
-2 4 -8 6.51 8.69
-2 -4 -8 4.07 4.75
-2 -4 -8 4.03 5.09
-2 -4 -8 8.76 8.47
-2 -4 -8 -7.65 7.61
-2 4 -8 11.11 9.72
-2 -4 -8 21.59 10.32
-3 -4 -8 4.02 4.36
-3 4 -8 3.67 8.06
-3 -4 -8 4.86 5.95
-3 -4 -8 10.84 8.5
-3 4 -8 10.83 10.6
-3 -4 -8 3.59 9.67
-3 4 -8 10.41 9.74
-3 -4 -8 22.69 11.45
-3 -4 -8 12.53 9.01
-4 -4 -8 -0.24 3.62
-4 4 -8 -2.28 8
-4 4 -8 -3.87 10.99
-4 -4 -8 -1.28 10.48
-4 -4 -8 1.07 8.41
-4 4 -8 24.95 10.15
-4 -4 -8 19.58 11.84
-4 -4 -8 -5.66 12.41
-4 4 -8 -12.84 10.1
-5 4 -8 -2.78 10.55
-5 -4 -8 30.22 12.48
-5 4 -8 8.56 8.68
-5 4 -8 9.15 10.9
-5 4 -8 2.22 10.33
-5 4 -8 15.26 11.06
-5 -4 -8 -8.55 9.13
-5 -4 -8 15.33 12.46
-5 -4 -8 -1.5 12.68
-6 4 -8 19.24 12.12
-6 4 -8 12.05 9.48
-6 4 -8 40.94 12.36
-6 4 -8 17.8 10.65
-6 -4 -8 30.97 10.91
-6 4 -8 46.33 13.66
-6 -4 -8 28.05 12.9
-6 -4 -8 42.75 15.15
-6 -4 -8 35.13 14.78
-7 4 -8 57.04 12.98
-7 4 -8 38.7 13.31
-7 4 -8 13.88 10.15
-7 -4 -8 44.09 10.96
-7 -4 -8 65.44 15.03
-7 -4 -8 50.31 17.24
-7 -4 -8 73.82 17.02
-8 -4 -8 38.18 16.16
-8 4 -8 25.11 13.49
-8 -4 -8 16.98 16.4
-9 -4 -8 52.52 18.11
-9 4 -8 9.79 13.6
9 -4 8 31.08 9.28
-9 -4 -8 25.27 18.76
-10 4 -8 23.58 14.86
10 -4 8 47.87 10.4
-10 -4 -8 83.99 23.8
11 -4 8 51.47 11.25
-11 -4 -8 43.78 24.32
-15 -5 8 -5.25 26.06
-15 5 8 16.5 21.54
14 -5 -8 -1.89 10.09
-14 -5 8 4.9 22.17
-14 5 8 1.87 18.74
-13 -5 8 6.99 18.67
13 -5 -8 -14.11 10.89
-13 -5 8 -20.45 22.11
-13 5 8 -1.67 16.57
-12 -5 8 -32.88 18.66
-12 -5 8 -3.37 14.52
12 -5 -8 -5.31 10.4
-12 -5 8 -2.1 19.42
-12 5 8 -1.48 15.1
-11 -5 8 16.41 17.14
-11 -5 8 27.14 15.16
-11 5 8 -3.37 14.25
11 -5 -8 20.87 10.81
11 5 -8 -1.53 12.84
-11 -5 8 3.83 16.66
-11 5 8 1.31 14.1
-10 -5 8 -21.03 16.4
-10 -5 8 -1.5 14.04
10 -5 -8 10.1 10.42
-10 5 8 4.67 12.95
10 5 -8 -2.89 12.44
-10 -5 8 -1.73 16.01
-10 5 8 1.13 12.39
-9 -5 8 7.06 12.3
9 -5 -8 -15.91 10.46
-9 5 8 1.43 11.96
9 5 -8 5.43 11.91
-9 -5 8 12.39 16.46
-9 5 8 4.78 10.6
-8 -5 8 12.02 11.94
8 -5 -8 18.34 10.14
-8 5 8 10.53 11.14
8 5 -8 19.27 11.72
-8 -5 8 14.94 12.43
-8 5 8 18.66 9.31
-7 -5 8 8.21 10.87
7 -5 -8 4.61 9.5
-7 5 8 8.42 10.28
7 5 -8 14.58 11.03
-7 5 8 -4.06 7.21
-7 -5 8 -5.08 10.52
-6 5 8 55.29 11.9
-6 5 8 92.84 12.46
6 -5 -8 92.37 12.14
6 5 -8 79.66 12.53
-6 5 8 52.85 6.44
-6 -5 8 90.1 13.55
-6 -5 8 67.56 12.08
-6 -5 8 74.39 13.12
6 5 -8 87.03 11.01
-5 -5 8 43.5 11.09
-5 5 8 41.6 10.86
-5 5 8 68.84 11.48
5 5 -8 49.83 10.03
5 5 -8 28.21 10.3
-5 -5 8 40.6 11.74
-4 -5 8 22.19 9.67
-4 5 8 10.1 9.56
-4 5 8 6.13 8.27
4 5 -8 3.11 9.66
-4 -5 8 1.25 10.17
4 5 -8 8.97 8.26
-3 5 8 21.23 7.78
3 5 -8 23.86 9.45
3 5 -8 13.89 8.53
3 -5 -8 24.77 9.07
3 -5 -8 5.69 8.42
-3 -5 8 30.09 10.35
-3 5 8 23.69 10.07
3 5 -8 41.32 8.89
-3 -5 8 6.15 10.1
-2 -5 8 -3.32 9.19
2 5 -8 -4.32 8.3
2 -5 -8 4.38 8.47
-2 5 8 3.39 9.58
-2 5 8 1.26 6.63
2 5 -8 -2.87 9.17
2 5 -8 -7.73 8.57
2 -5 -8 -9 7.85
-2 -5 8 -1.52 7.43
2 5 -8 9.58 8.29
1 -5 -8 -2.25 8.12
1 5 -8 -6.92 9
-1 5 8 -3.48 5.57
1 5 -8 0.91 8.47
-1 -5 8 -0.77 7.69
1 5 -8 8.97 8
1 -5 -8 4.48 7.85
-1 -5 8 -3.3 8.8
-1 5 8 6.75 9.32
1 5 -8 8.82 7.91
0 -5 -8 15.91 10.27
0 5 -8 30.83 9.24
0 -5 -8 27.22 10.31
0 5 -8 31.67 8.42
0 -5 -8 15.56 8.32
0 5 -8 23.66 8.76
0 -5 -8 17.29 9.4
0 5 -8 18.69 9.03
-1 -5 -8 1.08 9.1
-1 5 -8 11.38 8.86
-1 5 -8 5.3 7.62
-1 -5 -8 2.21 7.58
-1 -5 -8 2.43 5.81
-1 5 -8 8.41 8.99
-1 -5 -8 -1.09 9.26
-2 5 -8 34.54 9.43
-2 -5 -8 40.55 10.66
-2 5 -8 49.01 9.56
-2 -5 -8 44.43 5.7
-2 -5 -8 44.05 5.86
-2 -5 -8 33.92 10.17
-2 -5 -8 23.92 8.34
-2 5 -8 48.65 11.14
-2 -5 -8 48.36 11.41
-3 -5 -8 8.53 3.85
-3 5 -8 -3.92 8.69
-3 -5 -8 -3.04 5.96
-3 -5 -8 -6.51 8.54
-3 -5 -8 3.57 9.99
-3 5 -8 -15.79 11.16
-3 -5 -8 11.8 10.9
-3 -5 -8 12.11 10.11
-3 5 -8 -23.1 10.79
-4 5 -8 -8.17 8.68
-4 -5 -8 -8.73 13.4
-4 -5 -8 -10.16 12.32
-4 -5 -8 -10.8 9.3
-4 5 -8 -3.14 10.23
-4 -5 -8 24.89 11.78
-4 5 -8 6.17 10.09
-5 -5 -8 4.11 11.75
-5 5 -8 5.02 8.73
-5 5 -8 16.93 11.08
-5 5 -8 16.02 11.89
-5 -5 -8 14.39 8.99
-5 -5 -8 13.24 12.66
-5 -5 -8 10.79 13.67
-5 5 -8 -5.48 10.52
-6 5 -8 -4.6 11.31
-6 5 -8 -17.34 10.05
-6 5 -8 1.06 10.02
-6 5 -8 28.16 12.01
-6 -5 -8 -1.12 9.99
-6 -5 -8 28.95 14.95
-6 -5 -8 1.47 13.23
-6 -5 -8 14.75 14.32
-7 5 -8 21.88 13.01
-7 5 -8 -1.3 12.06
-7 5 -8 -5.97 9.65
-7 -5 -8 9.05 10.38
-7 -5 -8 3.11 13.75
-7 -5 -8 -13.86 15.89
-7 -5 -8 5.19 15
-8 -5 -8 -14.27 16.41
8 -5 8 -8.24 8.8
-8 5 -8 9.63 13.11
-8 -5 -8 -7.77 17.94
-9 -5 -8 -1.86 16.95
-9 5 -8 14.46 14.02
9 -5 8 -0.85 8.57
-9 -5 -8 23.8 20.36
-10 5 -8 16.75 15.85
10 -5 8 -4.33 9.82
-10 -5 -8 -14.37 21.38
11 -5 8 2.67 10.09
-15 -6 8 -2.7 26.82
-15 6 8 -4.05 19.98
14 -6 -8 13.32 10.29
-14 -6 8 5.05 23.24
-14 6 8 21.89 18.76
-13 -6 8 28.71 19.64
13 -6 -8 58.57 11.5
-13 -6 8 37.55 23.73
-13 6 8 11.45 16.12
-12 -6 8 62.73 19.41
-12 -6 8 79.59 17.84
-12 6 8 106.09 18.77
12 -6 -8 72.87 11.94
-12 -6 8 73.72 21.58
-12 6 8 94.3 18.18
-11 -6 8 94.35 19.41
-11 -6 8 71.99 16.48
-11 6 8 94.68 16.95
11 -6 -8 68.18 12.13
11 6 -8 62.58 14.63
-11 -6 8 67.76 20.35
-11 6 8 94.09 16.07
-10 -6 8 265.26 25.45
-10 6 8 241.89 21.71
10 -6 -8 229.24 18.38
10 6 -8 223.58 21.09
-10 -6 8 266.76 25.22
-10 -6 8 265.2 23.35
-10 6 8 244.95 19.74
-9 -6 8 190.19 19.71
9 -6 -8 196.19 16.69
9 6 -8 221.35 19.49
-9 6 8 210.9 19.1
-9 -6 8 196.2 21.85
-9 6 8 171.9 16.02
-8 -6 8 100.61 15.54
8 -6 -8 88.64 12.31
-8 6 8 86.44 13.75
8 6 -8 93.04 14.35
-8 6 8 66.66 10.76
-7 6 8 331.67 22.47
-7 6 8 270.45 20.44
7 6 -8 330.07 22.18
7 -6 -8 277.48 19.76
-7 -6 8 258.33 21.17
-7 6 8 253.54 16.11
-7 -6 8 299.11 22.13
7 6 -8 296.42 19.98
-6 6 8 137.46 15.36
6 -6 -8 123.76 13.72
-6 6 8 148.75 14.88
6 6 -8 139 15.95
-6 -6 8 150.75 15.16
-6 6 8 135.45 9.39
6 6 -8 166.42 14.69
-6 -6 8 151.49 16.14
-6 -6 8 145.64 15.66
-5 6 8 201.09 15.79
5 6 -8 179.48 16.8
5 6 -8 187.82 15.71
-5 -6 8 216.1 18.03
-5 6 8 196.84 17.24
-5 -6 8 200.19 16.76
4 6 -8 383.34 24
-4 6 8 367.59 21.7
-4 -6 8 393.09 24.15
4 6 -8 359.81 22.46
-4 -6 8 368.34 24.73
-4 6 8 384.52 23.87
3 6 -8 232.64 17.87
-3 6 8 238.72 15.6
3 -6 -8 214.46 17.1
3 -6 -8 233.19 17.38
-3 -6 8 245.92 18.36
3 6 -8 197.17 16.56
-3 -6 8 211.28 18.15
-3 6 8 222.89 17.64
-2 -6 8 68.33 11.52
2 -6 -8 44.92 10.67
-2 6 8 61.59 8.36
2 6 -8 40.93 10.97
2 6 -8 53.64 10.22
2 -6 -8 43.91 9.48
-2 -6 8 59.64 9.76
2 6 -8 75.1 12.03
-1 6 8 82.61 8.11
1 6 -8 109.02 12.85
1 6 -8 115.4 11.88
-1 -6 8 72.62 10.51
1 -6 -8 86.51 12.43
1 -6 -8 116.37 11.87
0 6 -8 12.97 9.71
0 -6 -8 45.07 11.27
0 6 -8 36.77 10.36
0 -6 8 26.81 10.05
0 6 -8 26.64 8.22
0 -6 -8 38.62 10.56
0 -6 -8 24.49 9.07
0 -6 -8 17.28 10.41
-1 6 -8 5.75 9.39
-1 -6 -8 -1.08 9.7
-1 6 -8 0.8 7.89
-1 -6 -8 16.57 9.01
-1 -6 -8 14.76 6.58
-1 6 -8 8.5 9.57
-1 -6 -8 11.82 10.57
-2 6 -8 5.69 8.72
-2 -6 -8 12.39 10.77
-2 -6 -8 11.35 4.55
-2 -6 -8 4.31 4.89
-2 -6 -8 -1.1 9.52
-2 -6 -8 22 8.55
-2 6 -8 1.26 10.16
-2 -6 -8 10.02 10.18
-3 -6 -8 18.6 3.55
-3 6 -8 14.19 8.7
-3 -6 -8 38.21 9.68
-3 -6 -8 26.23 10.83
-3 -6 -8 18.99 11.48
-3 6 -8 61.18 12.39
-3 -6 -8 25.63 11.1
-3 6 -8 19.24 9.89
-4 6 -8 17.44 9.76
-4 -6 -8 29.11 12.53
-4 -6 -8 3.33 8.69
-4 6 -8 8.45 10.74
-4 -6 -8 8.65 11.26
-4 -6 -8 2.35 11.25
-4 -6 -8 -4.49 12.84
-4 6 -8 10.8 9.56
-5 6 -8 26.97 10.72
-5 -6 -8 19.1 12.68
-5 6 -8 48.99 12.9
-5 -6 -8 26.13 10.21
-5 -6 -8 53.79 15.51
-5 -6 -8 49.5 14.83
-5 6 -8 53.33 12.22
-6 6 -8 71.52 13.03
-6 6 -8 84.39 12.57
-6 6 -8 52.75 12.22
-6 6 -8 94.82 15.18
-6 -6 -8 78.93 12.75
-6 -6 -8 82.17 17.16
-6 -6 -8 93.75 15.98
-6 -6 -8 74 17.39
-7 6 -8 70.9 14.01
-7 6 -8 70.61 15.15
-7 6 -8 65.12 12.12
-7 -6 -8 76.27 16.5
-7 -6 -8 60.65 17.58
-7 -6 -8 85.14 18.02
-8 -6 -8 25.61 16.9
8 -6 8 15.15 9.23
-8 6 -8 35.8 14.97
-8 -6 -8 -7.99 18.22
-9 -6 -8 26.72 17.89
9 -6 8 22.82 10.03
-9 6 -8 43.61 15.38
-9 -6 -8 35.42 21.12
-10 -6 -8 51.44 19.65
10 -6 8 43.95 11.53
-10 6 -8 45.62 16.22
-10 -6 -8 9.8 22.61
11 -6 8 40.32 12.04
-15 -7 8 13.88 27.65
-15 7 8 37.88 19.82
-14 -7 8 44.21 25.88
-14 7 8 50.33 20.28
-13 -7 8 51.25 21.67
-13 7 8 36.6 17.01
13 -7 -8 26.48 10.12
-13 -7 8 21.83 22.07
-13 7 8 45.09 17.57
-12 -7 8 77.89 21.08
-12 -7 8 44.17 16.52
-12 7 8 53.32 16.34
12 -7 -8 34.02 11.2
-12 -7 8 87.89 24.24
-12 7 8 22.85 14.79
-11 -7 8 12.84 17.82
-11 -7 8 32.09 15.49
-11 7 8 14.52 14.53
-11 7 8 13.1 14.54
11 -7 -8 21.4 10.2
11 7 -8 27.28 14.2
-11 -7 8 27 20.63
-11 7 8 22.56 13.21
-10 -7 8 46.06 17.53
-10 -7 8 48.36 15.81
-10 7 8 51.89 15.52
10 -7 -8 13.68 9.86
-10 7 8 16.61 13.09
10 7 -8 19.7 13.38
-10 -7 8 32.3 18.02
-10 7 8 16.24 11.63
-9 -7 8 4.27 12.76
-9 -7 8 13.12 15.71
9 -7 -8 18.33 9.63
-9 7 8 1.39 11.64
9 7 -8 -1.45 12.56
-9 -7 8 8.59 15.17
-9 7 8 -7.29 10.19
-8 -7 8 7.4 12.16
8 -7 -8 -1.1 8.9
-8 7 8 -8.9 11.31
8 7 -8 11.05 11.84
-8 7 8 0.74 8.84
-8 -7 8 16.17 12.52
-7 -7 8 81.14 14.32
-7 7 8 61.77 13.78
7 -7 -8 58.93 11.11
-7 7 8 30.16 11.38
7 7 -8 75.06 14
-7 -7 8 69 13.05
-7 7 8 65.56 8.88
7 7 -8 51.01 12.24
-6 7 8 53.71 11.91
-6 -7 8 66.96 12.63
-6 7 8 54.27 5.89
6 -7 -8 54.92 10.76
6 7 -8 60.06 12.74
-6 7 8 46.18 11.33
-6 -7 8 45.45 13
-6 7 8 45.8 6.54
6 7 -8 69.01 11.73
-6 -7 8 53.68 12.85
5 7 -8 24.08 10.88
5 -7 -8 5.64 8.94
-5 7 8 23.61 9.58
-5 -7 8 16.81 10.27
5 7 -8 16.38 11.05
-5 -7 8 30.05 12
-5 7 8 9.05 10.08
-4 -7 8 118.17 13.74
4 7 -8 85.04 13.87
-4 7 8 102.33 11.39
4 7 -8 108.82 13.97
-4 -7 8 102.12 13.79
-4 7 8 80.92 13.31
3 7 -8 197.43 16.53
-3 7 8 190.65 13.65
3 7 -8 179.99 15.24
3 -7 -8 191.69 15.61
-3 -7 8 173.24 16.36
3 7 -8 130.4 15.52
-3 -7 8 155.57 15.95
-3 7 8 163.71 15.78
2 7 -8 233.8 18.28
-2 7 8 253.11 14.65
-2 -7 8 228.4 16.95
2 7 -8 230.35 17.09
2 -7 -8 246.33 17.83
-2 -7 8 256.27 18.51
2 7 -8 191.15 17.78
2 -7 -8 187 17.26
1 7 -8 269.73 20.11
-1 7 8 270.64 15.26
-1 -7 8 279.99 18.65
1 7 -8 278.78 18.83
1 -7 -8 311.28 19.88
1 -7 -8 307.1 20.32
0 7 -8 598.51 31.41
0 -7 8 532.31 29.71
0 7 -8 548.74 29.07
0 -7 -8 561.26 30.78
0 -7 -8 553.67 31.57
0 7 -8 619.21 32.04
0 -7 -8 543.28 30.55
-1 7 -8 409.2 24.66
-1 -7 -8 389.43 24.39
-1 7 -8 419.73 22.85
-1 -7 -8 381.13 23.84
-1 -7 -8 415.07 25.51
-1 7 -8 360.67 24.49
-1 -7 -8 362.98 24.33
-2 -7 -8 308.09 16.05
-2 7 -8 407.66 21.43
-2 -7 -8 322.2 15.63
-2 -7 -8 394.51 22.61
-2 -7 -8 355.54 20.5
-2 -7 -8 405.15 23.89
-2 7 -8 348.31 23.86
-2 -7 -8 339.58 22.68
-3 7 -8 270.9 18.62
-3 -7 -8 287.86 19.74
-3 -7 -8 252.39 19.48
-3 -7 -8 240.99 20.64
-3 7 -8 270.19 20.77
-3 -7 -8 317.13 21.12
-3 7 -8 269.01 18.16
-4 7 -8 271.58 18.71
-4 -7 -8 289.53 19.79
-4 -7 -8 266.3 21.76
-4 -7 -8 274.09 21.27
-4 7 -8 254.32 21.59
-4 -7 -8 296.83 21.33
-4 -7 -8 236.27 21.97
-4 7 -8 285.41 19.12
-5 7 -8 487.37 27.44
-5 7 -8 485.79 29.18
-5 -7 -8 463.07 27.67
-5 -7 -8 506.12 30.39
-5 -7 -8 516.77 31.34
-5 -7 -8 510.98 32.39
-5 7 -8 427.95 26.83
-6 7 -8 457.88 25.59
-6 7 -8 468.12 28.39
-6 7 -8 381.02 25.03
-6 7 -8 421.84 29.19
-6 -7 -8 418.3 28.82
-6 -7 -8 387.88 25.43
-6 -7 -8 399.61 29.58
-6 -7 -8 375.77 29.49
-6 7 -8 430.75 25.7
7 -7 8 148.09 13.89
-7 7 -8 132.09 14.79
-7 7 -8 141.86 18.42
-7 7 -8 154.94 19.11
-7 -7 -8 132.39 19.68
-7 -7 -8 148.74 21.37
-7 -7 -8 147.07 20.75
-8 -7 -8 69.39 18.06
8 -7 8 43.02 11.05
-8 7 -8 53.66 15.45
-8 -7 -8 83.2 18.02
-8 -7 -8 63.74 21.04
-9 -7 -8 74.26 19.67
9 -7 8 58.71 12.21
-9 7 -8 51.5 15.91
-9 -7 -8 95.73 23.93
-10 -7 -8 38.48 20.24
10 -7 8 25.1 11.11
11 -7 8 1.03 11.65
-15 -8 8 -8.56 27.6
-15 8 8 -1.97 19.64
-14 -8 8 -2.68 24.76
-14 8 8 -3.56 18.06
-13 8 8 9.56 16.46
13 -8 -8 -2.6 9.6
-13 -8 8 20.08 23.98
-13 8 8 -7.99 17.18
-12 -8 8 30.16 20.07
-12 8 8 15.56 13.7
-12 8 8 40.54 15.75
12 -8 -8 14.01 9.8
-12 -8 8 9.34 21.51
-11 -8 8 26.13 17.45
-11 -8 8 16.11 14.97
-11 8 8 3.24 15.18
-11 8 8 -16.29 15.03
11 -8 -8 -1.97 9.85
11 8 -8 6.56 14.28
-11 -8 8 34.58 21.51
-11 8 8 1.23 12.35
-10 -8 8 6.11 16.69
-10 -8 8 21.25 14.47
-10 8 8 1.53 14.53
10 -8 -8 17.45 10.03
-10 8 8 45.09 14.55
10 8 -8 29.69 13.47
-10 -8 8 1.99 17.83
-10 8 8 10.6 11.5
-9 -8 8 71.56 15.65
-9 8 8 65.19 14.89
9 -8 -8 57.09 11.3
-9 8 8 49.8 13.59
9 8 -8 52.23 13.89
-9 8 8 64.93 11.37
8 8 -8 58.91 13.24
-8 -8 8 41.94 14.35
-8 8 8 30.81 8.62
8 -8 -8 45.42 10.63
-8 8 8 35.52 11.54
8 8 -8 20.08 12.26
-8 -8 8 46.05 13.15
-8 8 8 29.79 9.11
-8 8 8 57.62 13.89
-7 -8 8 131.7 16.45
-7 8 8 121.59 15.13
-7 8 8 89.62 9.06
-7 -8 8 95.19 14.17
7 -8 -8 92.37 12.38
7 8 -8 107.73 15.28
-7 8 8 113.24 14.17
7 8 -8 116.4 15.41
-7 -8 8 79.55 14.87
-7 8 8 88.46 14.4
-7 8 8 83.83 9.71
6 8 -8 149.81 16.47
6 -8 -8 113.54 13.13
-6 8 8 126.62 14
-6 -8 8 109.78 15.83
-6 -8 8 127.5 14.77
-6 8 8 120.51 9.11
-6 8 8 141.04 16.02
-6 -8 8 136.13 16.46
6 8 -8 113.83 15.37
-6 8 8 147.43 15.37
-6 8 8 126.52 14.67
5 8 -8 179.99 16.78
-5 8 8 163.94 13.95
5 -8 -8 139.2 13.6
-5 8 8 104.21 6.75
-5 -8 8 142.22 14.63
-5 8 8 116.2 6.62
5 8 -8 146.46 15.99
-5 -8 8 108.77 14.95
-5 8 8 165.48 15.63
-5 8 8 138.02 14.6
-4 8 8 139.64 15.4
-4 8 8 146.9 12.6
4 8 -8 127.52 15.26
4 8 -8 106.66 14.64
-4 -8 8 113.97 15.37
-4 8 8 154.78 14.71
-4 -8 8 130.89 14.54
3 8 -8 -1.2 10.91
3 8 -8 -7.04 9.4
-3 8 8 10.72 7.7
-3 -8 8 -6.66 10.24
-3 8 8 -1.15 11.09
3 8 -8 6.94 11.35
-3 -8 8 6.33 10.41
-3 8 8 7.56 9.64
-2 8 8 58.33 12.43
2 8 -8 63.67 12.9
2 8 -8 54.81 10.44
2 -8 -8 47.9 11.41
2 8 -8 69.07 11.33
-2 8 8 72.06 8.62
2 -8 -8 45.06 10.59
-2 -8 8 69.79 11.49
2 8 -8 79.5 13.89
-2 -8 8 59.41 12.2
1 8 -8 78.67 12.01
-1 8 8 88.45 8.38
1 -8 -8 104.95 13.64
1 8 -8 126.56 14.64
1 8 -8 99.47 12.1
-1 -8 8 77.71 11.97
1 -8 -8 68.48 11.25
0 -8 -8 72.04 12.06
0 8 -8 57.94 12.9
0 -8 8 75.06 11.59
0 8 -8 67.53 10.67
0 -8 -8 58.17 10.57
0 8 -8 79.5 12.16
0 -8 -8 34.51 11.25
-1 8 -8 1.12 10.77
-1 8 -8 8.94 8.73
-1 -8 -8 13.52 10.09
-1 8 -8 5.26 9.4
-1 -8 -8 5.57 8.49
-1 -8 -8 7.53 10.28
-1 -8 -8 -4.73 11.02
-2 8 -8 -1.81 9.11
-2 -8 -8 8.35 3.7
-2 8 -8 35.63 11.12
-2 -8 -8 22.34 9.66
-2 -8 -8 14.53 10.33
-2 -8 -8 -2.58 10.18
-2 -8 -8 17.31 10.35
-3 8 -8 14.08 9.42
-3 -8 -8 -3.47 9.61
-3 -8 -8 -1.06 11
-3 8 -8 -5.95 10.24
-3 -8 -8 21.5 11.07
-3 -8 -8 12.95 11.78
-3 8 -8 -0.83 8.56
-4 8 -8 -4.91 9.88
-4 8 -8 -2.56 10.67
-4 -8 -8 22.13 10.37
-4 -8 -8 7.55 11.51
-4 -8 -8 12.6 12.92
-4 -8 -8 1.2 10.94
-4 -8 -8 12.59 12.23
-4 8 -8 15.94 10.12
-5 8 -8 3.73 9.44
-5 8 -8 12.2 10.51
-5 8 -8 33.18 13.29
-5 -8 -8 8.09 12
-5 -8 -8 5.91 9.15
-5 -8 -8 -8.82 14.26
-5 -8 -8 6.65 13.6
-6 8 -8 10.89 10.42
-6 -8 -8 17.38 13.29
-6 8 -8 1.05 11.6
-6 8 -8 8.86 11.15
-6 8 -8 8.35 13.53
-6 -8 -8 1.68 15.68
-6 8 -8 8.87 12.84
-6 -8 -8 14.12 14.69
7 -8 8 20.96 10.23
-7 8 -8 31.05 15.22
-7 8 -8 1.56 14.15
-7 -8 -8 13.23 16.16
-7 -8 -8 1.56 14.42
-7 -8 -8 40.86 16.25
-8 -8 -8 5.75 16.58
8 -8 8 8.17 9.92
-8 8 -8 21.76 15.12
-8 -8 -8 9.83 15.22
-8 -8 -8 29.54 20.35
-9 -8 -8 6 17.12
9 -8 8 39.73 12
-9 8 -8 3.25 14.57
-9 -8 -8 14.02 20.36
-10 -8 -8 -31.05 19.6
10 -8 8 11.77 11.96
11 -8 8 -3.29 12.42
12 -8 8 23.6 13.25
-14 -9 8 8.3 24.71
-14 9 8 15.98 18.31
13 -9 -8 2.47 8.75
-13 -9 8 2.59 23.32
-13 9 8 17.37 16.9
-12 -9 8 25.87 19.49
-12 9 8 21.18 15.94
12 -9 -8 11.66 9.69
-12 -9 8 14.53 21.24
-12 9 8 22.35 14.96
-11 -9 8 33.09 18.42
-11 -9 8 -3.23 15.49
-11 9 8 11.37 14.99
-11 9 8 -4.9 14.37
11 -9 -8 -1.91 9.64
11 9 -8 -10.08 14.3
-11 -9 8 27.04 20.93
-11 9 8 6.1 12.27
-10 -9 8 1.52 14.51
-10 9 8 -1.54 14.92
10 -9 -8 -1 9.68
-10 9 8 9.02 12.5
10 9 -8 -9.66 14.07
-10 -9 8 10.34 18.2
-10 9 8 5.28 10.99
-9 9 8 17.93 10.14
-9 -9 8 1.44 12.92
9 9 -8 -4.29 13.25
-9 9 8 4.37 13.65
9 -9 -8 1.04 9.92
-9 9 8 1.38 11.99
9 9 -8 3.1 13.06
-8 -9 8 71.23 15.07
-8 9 8 47.34 9.01
8 -9 -8 45.91 10.57
8 9 -8 35.63 13.73
-8 9 8 47.89 12.64
-8 -9 8 38.07 13.39
-8 9 8 44.13 13.3
8 9 -8 32.45 13.35
-7 9 8 32.99 11.76
-7 9 8 41.6 7.44
-7 9 8 43.94 12.82
7 9 -8 32.72 12.81
7 -9 -8 34.89 10.39
-7 9 8 29.87 10.97
-7 -9 8 46.09 12.67
-7 -9 8 77.39 14.13
-7 9 8 44.41 13.28
7 9 -8 47.51 14.46
-7 -9 8 35.88 13.6
6 9 -8 17.89 12.48
-6 -9 8 11.65 10.89
6 -9 -8 9.96 9.6
-6 9 8 11.44 9.91
-6 9 8 22.36 10.99
-6 9 8 16.32 11.34
6 9 -8 29.65 13.41
-6 -9 8 37.25 13.12
-6 9 8 20.77 10.75
5 9 -8 84.62 14.83
-5 -9 8 69.36 12.43
5 -9 -8 55.94 10.73
-5 9 8 71.93 11.32
-5 9 8 72.69 12.66
-5 9 8 50.08 6.78
5 9 -8 69.6 14.25
-5 -9 8 60.51 13.25
-5 9 8 76.92 12.22
4 9 -8 53.54 13.03
4 9 -8 38.86 11.55
-4 9 8 77.19 12.33
-4 9 8 37.19 9.34
4 9 -8 65.62 14.45
-4 -9 8 38.14 11.33
-4 -9 8 49.8 13.33
-4 9 8 42.51 11.19
3 9 -8 20.24 11.86
3 9 -8 42.61 11.25
-3 -9 8 28.84 11.02
-3 9 8 34.19 7.97
-3 9 8 23.09 11.62
3 9 -8 46.13 13.37
-3 -9 8 12.79 11.83
-3 9 8 39.48 11.01
2 9 -8 124.2 15.34
-2 9 8 135.57 11.23
2 -9 -8 140.78 14.6
2 9 -8 149.24 14.11
2 -9 -8 170.6 14.67
-2 -9 8 147.58 14.75
2 9 -8 174.85 18.03
2 9 -8 166.27 14.35
-2 -9 8 141.77 15
-2 9 8 142.23 15.65
1 9 -8 119.77 13.36
1 -9 -8 135.54 14.33
-1 9 8 110.85 9.26
1 9 -8 134.36 15.38
1 9 -8 108.09 13.27
1 -9 -8 155.64 14.25
-1 -9 8 121.82 14.02
0 9 -8 31.54 12.24
0 9 8 28.41 4.65
0 9 -8 45.6 10.55
0 -9 8 41.59 11.49
0 -9 -8 32.63 9.88
0 9 -8 25.69 9.63
0 -9 -8 37.86 11.8
-1 -9 -8 37.78 11.15
-1 9 -8 13.12 9.43
-1 -9 -8 18.06 8.32
-1 9 -8 20.94 10.17
-1 9 -8 24.32 10.23
-1 -9 -8 32.99 11.6
-1 -9 -8 23.61 10.36
-2 -9 -8 67.99 4.85
-2 -9 -8 68.6 4.72
-2 9 -8 80.98 11.78
-2 9 -8 74.2 11.88
-2 -9 -8 76.78 11.28
-2 -9 -8 86.63 12.77
-2 -9 -8 82.74 12.87
-2 9 -8 69.14 10.24
-3 -9 -8 16.4 11.49
-3 9 -8 20.79 10.57
-3 -9 -8 23.53 10.56
-3 -9 -8 20.07 11.58
-3 -9 -8 5.55 10.64
-3 9 -8 16.59 10.71
-3 9 -8 24.1 9.06
-4 9 -8 -3.31 9.02
-4 9 -8 -11.39 10.81
-4 9 -8 -7.68 11.85
-4 -9 -8 17.86 9.9
-4 -9 -8 -7.53 12.25
-4 -9 -8 -1.31 12.98
-4 -9 -8 -10.64 12.06
-4 -9 -8 11.29 12.81
-5 9 -8 35.89 10.53
-5 9 -8 24.71 11.13
-5 9 -8 31.68 13.11
-5 -9 -8 22.17 14.64
-5 -9 -8 52.2 14.01
-5 -9 -8 48.5 15.48
-6 9 -8 56.78 13.52
-6 -9 -8 44.78 15.24
6 -9 8 42.38 11.39
-6 9 -8 40.28 14.6
-6 -9 -8 55.39 17.43
-6 -9 -8 56.01 16.47
-6 9 -8 48.49 14.63
7 -9 8 27.59 10.85
-7 9 -8 1.53 13.93
-7 -9 -8 5.83 17.23
-7 9 -8 -9.36 14.59
-7 -9 -8 -7.77 14.84
-7 -9 -8 -3.8 15.87
-8 -9 -8 -5.88 16.64
8 -9 8 -6.5 10.64
-8 9 -8 3.24 15.04
-8 9 -8 -24.35 16.65
-8 -9 -8 -16.45 16.87
-8 -9 -8 4.33 19.18
-9 -9 -8 -2.04 18.18
9 -9 8 -1.11 11.07
-9 9 -8 10.14 16.04
10 -9 8 2.27 12
11 -9 8 12.8 13.08
12 -9 8 1.19 13.71
-14 10 8 28.2 19.45
-14 -10 8 48.48 27.45
13 -10 -8 69.71 11.3
-13 -10 8 50.95 27.47
-13 10 8 53.44 17.49
-12 10 8 59.92 13.85
-12 10 8 97.62 18.49
12 -10 -8 71.05 11.06
-12 -10 8 57.81 23.88
-12 10 8 47.34 15.73
-11 10 8 107.99 16.04
-11 -10 8 94.03 18.66
-11 10 8 148.16 19.99
-11 10 8 89.32 13.72
-11 10 8 116.11 18.66
11 -10 -8 117.7 13.05
-11 -10 8 121.5 24.24
-10 -10 8 206.44 21.51
-10 10 8 178.87 15.74
-10 10 8 205.28 20.66
-10 10 8 220.25 20.35
10 -10 -8 143.78 15.21
10 10 -8 169.4 19.63
9 10 -8 112.5 17.72
-9 10 8 137.32 17.9
-9 -10 8 166.86 18.98
9 -10 -8 131.35 13.65
9 10 -8 89.91 16.83
-9 10 8 147.05 17.11
-9 -10 8 114.19 17.5
-8 10 8 194.71 14.53
8 10 -8 251.86 21.91
-8 10 8 250.24 19.94
8 -10 -8 250.25 18.07
-8 -10 8 296.99 22.1
-8 10 8 243.7 20.98
-8 -10 8 264.66 22.13
8 10 -8 228.78 21.36
7 10 -8 529.92 31.8
-7 10 8 498.17 28.67
-7 -10 8 508.87 29.35
7 -10 -8 495.28 27.97
-7 10 8 457.44 29.11
-7 -10 8 526.89 30.51
-7 10 8 490.95 30.04
-7 -10 8 491.44 31.14
7 10 -8 482.53 31.44
-7 10 8 437.41 28.99
-6 10 8 449.07 27.32
6 10 -8 411.62 28.43
-6 10 8 401.68 25.26
6 -10 -8 469.58 26.72
-6 -10 8 489.13 27.95
-6 10 8 441.9 27.83
6 10 -8 452.53 29.43
-6 -10 8 454.46 29.03
-6 10 8 468.91 27.42
-5 -10 8 115.38 14.66
5 10 -8 134.45 16.83
5 10 -8 150.9 15.4
-5 10 8 142.21 15.56
5 -10 -8 111.5 13.5
-5 10 8 110.97 12.85
-5 10 8 144.43 10.67
-5 10 8 174.14 15.77
5 10 -8 179.75 19.51
-5 -10 8 112.74 16.16
4 10 -8 274.06 21.83
4 10 -8 341.33 21.25
-4 10 8 259.04 17.62
-4 -10 8 311.84 20.98
4 10 -8 282.22 23.23
-4 10 8 239.18 14.07
-4 10 8 258.95 19.97
-4 -10 8 294.07 21.68
-4 10 8 270.53 19.72
3 10 -8 406.9 25.97
3 10 -8 411 24.29
-3 10 8 411.18 21.49
-3 -10 8 431.41 25.05
-3 10 8 400.16 24.99
3 10 -8 414.6 27.96
-3 10 8 351.42 17.57
2 10 -8 270.89 20.49
-2 -10 8 227.51 18.09
2 10 -8 222.23 17.4
-2 10 8 198.82 13.76
2 -10 -8 222.09 17.22
-2 -10 8 219.11 18.3
-2 10 8 218.08 18.38
2 10 -8 201.68 20.64
2 10 -8 224.97 17.23
2 -10 -8 217.93 17.66
1 10 -8 133.56 13.95
1 10 -8 138.49 15.69
1 -10 -8 119.17 14.62
-1 10 8 141.95 9.87
1 10 -8 129.68 13.77
-1 -10 8 96.63 13.82
1 -10 -8 129.61 13.66
0 10 -8 58.23 13.73
0 10 8 61.12 5.68
0 10 -8 61.59 11.07
0 -10 8 41.89 11.86
0 -10 -8 42.77 10.32
0 10 -8 60.26 11.22
0 -10 -8 58.28 12.27
-1 -10 -8 48.08 11.2
-1 10 -8 40.73 10.7
1 -10 8 36.17 11.84
-1 10 -8 10.79 9.57
-1 -10 -8 34.25 10.59
-1 -10 -8 42.84 11.73
-1 10 -8 31.17 10.1
-1 -10 -8 26.98 11.32
-2 10 -8 60.06 11.95
-2 -10 -8 126.02 13.32
-2 10 -8 94.64 12.76
-2 -10 -8 68.59 12.4
-2 -10 -8 83.32 12.87
-2 10 -8 72.22 9.95
-3 10 -8 24.78 11.2
-3 -10 -8 19.83 11.8
-3 10 -8 14.6 10.83
-3 -10 -8 31.19 10.96
-3 -10 -8 18.85 11.35
-3 -10 -8 26.23 12.3
-3 10 -8 7.23 8.25
-4 10 -8 5.32 8.58
-4 10 -8 18.55 11.48
-4 -10 -8 17.14 10.46
-4 10 -8 5.11 11.1
-4 -10 -8 2.73 13.1
-4 -10 -8 -7.45 11.69
-4 -10 -8 10.47 11.48
-4 -10 -8 13.22 13.07
-5 10 -8 32.83 12.5
-5 10 -8 9.59 12.54
-5 -10 -8 22.61 12.61
-5 -10 -8 -4.71 14.64
-5 -10 -8 3.74 12.33
-5 -10 -8 27.91 14.52
-6 10 -8 11.69 13.14
-6 10 -8 4.7 11.89
-6 -10 -8 -7.19 13.32
6 -10 8 12.05 10.66
-6 -10 -8 -1.77 16.28
-6 -10 -8 20.33 15.8
7 -10 8 37.05 11.84
-7 10 -8 41.23 15.33
-7 -10 -8 25.95 18.82
-7 10 -8 32.59 14.61
-7 -10 -8 32.49 16.07
-7 -10 -8 3.88 16.25
-8 -10 -8 -10.01 17.63
8 -10 8 20.64 11.68
-8 10 -8 -8.38 16.46
-8 10 -8 24.26 15.41
-8 -10 -8 26.47 15.62
9 -10 8 4.7 12.11
-9 -10 -8 16.68 18.68
10 -10 8 9.6 12.97
11 -10 8 17.21 13.73
12 -10 8 15.12 14.69
-14 -11 8 -11.76 27.93
-14 11 8 14.05 18.38
-13 11 8 1.26 13.66
-13 -11 8 -24.97 27.61
-13 11 8 -9.44 16.68
-12 11 8 19.82 13.33
-12 11 8 7.03 14.65
-12 11 8 -1.78 15.67
12 -11 -8 13.98 9.85
-12 -11 8 23.38 23.75
-11 -11 8 71.51 18.14
-11 11 8 44.06 17.68
-11 11 8 61.3 12.94
-11 11 8 13.11 14.68
11 -11 -8 37.73 10.39
-10 -11 8 21.5 15.08
-10 11 8 34.07 15.76
-10 11 8 4.65 9.85
10 11 -8 13.76 14.03
10 -11 -8 7.68 9.52
-10 11 8 17.97 13.24
-9 11 8 4.4 13.83
-9 -11 8 14.71 14.64
9 11 -8 -1.66 13.19
9 -11 -8 5.02 9.53
-9 11 8 -1.37 11.98
-9 -11 8 15.94 14.35
9 11 -8 -3.24 15.61
-8 -11 8 4.62 13.27
8 11 -8 6.39 13.54
-8 11 8 -1.89 7.78
8 -11 -8 6.23 9.43
-8 11 8 -10 11.2
-8 -11 8 -17.75 13.55
-8 11 8 2.77 13.38
8 11 -8 7.96 15.07
-7 11 8 25.19 12.44
-7 -11 8 30.59 12.69
7 11 -8 10.87 13.58
7 -11 -8 7.49 9.38
-7 11 8 11.37 11.02
-7 11 8 18.5 11.91
-7 -11 8 9.09 12.69
-7 11 8 17.13 12.38
7 11 -8 27.94 14.53
-7 -11 8 20.61 13.74
-6 11 8 22.64 11.63
6 11 -8 -4.56 13.29
6 -11 -8 15.32 9.67
-6 11 8 15.43 10.16
6 11 -8 -20.06 16.24
-6 -11 8 26.93 11.85
-6 -11 8 -8.5 12.53
-6 11 8 19.33 11.45
-5 -11 8 36.62 11.82
5 11 -8 20.82 13.35
-5 11 8 32.94 12.46
5 11 -8 48.97 12.39
5 -11 -8 34.5 10.37
-5 11 8 36.04 9.78
-5 11 8 26.75 8.61
5 11 -8 52.48 15.43
-5 -11 8 45.2 13.24
-5 11 8 37.43 12.04
4 11 -8 108.69 15.78
4 11 -8 107.55 14.1
4 -11 -8 95.8 12.34
-4 11 8 61.6 10.32
-4 -11 8 94.89 13.57
-4 11 8 70.31 14.15
-4 11 8 97.8 9.62
4 11 -8 115.03 17.64
-4 -11 8 95 14.91
-4 11 8 85.63 13.51
3 11 -8 177.31 18.79
3 11 -8 220.22 17.73
-3 11 8 189.88 14.04
-3 -11 8 212.16 17.49
-3 11 8 186.91 17.46
-3 11 8 198.07 12.68
3 11 -8 220.16 21.79
2 11 -8 146.29 17.59
-2 -11 8 194.92 16.98
-2 11 8 154.45 11.87
2 11 -8 167.69 15.52
2 -11 -8 154.33 15.4
2 -11 -8 196.09 16.28
2 11 -8 184.88 19.79
-2 -11 8 154.65 15.73
2 11 -8 161.25 15.27
-2 11 8 141.15 10.82
-2 11 8 178.64 16.68
1 11 -8 246.64 21.44
-1 -11 8 248.1 19.69
1 11 -8 252.78 18.71
-1 11 8 264.74 14.63
1 -11 -8 278.08 19.69
1 11 -8 277.17 23.46
1 11 -8 250.69 18.66
1 -11 -8 270.3 19.66
0 11 -8 196.49 19.37
0 -11 8 200.03 17.89
0 11 8 186.72 10.97
0 11 -8 214.18 16.86
0 -11 -8 259.35 18.04
0 11 -8 202.54 16.9
0 -11 -8 221.81 18.1
0 11 -8 206.89 18.05
-1 -11 -8 122.56 13.91
-1 -11 -8 102.99 7.75
1 -11 8 100.86 14.55
-1 11 -8 112.06 13.29
-1 -11 -8 110.54 14.14
-1 -11 -8 119.16 13.49
-1 11 -8 136.33 13.64
-1 11 -8 94.3 13.21
-1 -11 -8 137.61 14.79
-1 11 -8 103.37 14.49
-2 -11 -8 129.08 15.23
-2 11 -8 155.52 14.93
-2 -11 -8 162.51 15.24
-2 11 -8 122.3 14.42
-2 11 -8 110.45 15.54
-2 11 -8 123.28 11.39
-2 -11 -8 124.25 14.35
-3 11 -8 147.84 15.35
-3 11 -8 116.31 14.46
-3 -11 -8 111.36 15.49
-3 -11 -8 143.17 15.07
-3 -11 -8 145.19 17.05
-3 11 -8 171.33 17.46
-3 11 -8 134.43 12.04
-3 -11 -8 131.19 15.09
-4 11 -8 71.06 13.32
-4 -11 -8 74.47 15.86
-4 -11 -8 64.34 15.83
-4 11 -8 47.04 13.08
-4 11 -8 99.07 15.94
-4 -11 -8 60.44 12.79
-4 -11 -8 68.83 14.13
-5 11 -8 78.31 13.94
-5 11 -8 65.38 14.53
-5 -11 -8 59.54 14.66
-5 -11 -8 47.15 17.09
-5 11 -8 54.49 15.49
-5 -11 -8 58.79 13.61
-5 -11 -8 89.35 18.02
-6 11 -8 95.13 15.11
-6 11 -8 51.03 15.44
-6 -11 -8 84.24 16.32
6 -11 8 97.23 14.18
-6 -11 -8 77.04 19.06
-6 -11 -8 98.29 19.52
-7 -11 -8 50.77 17.31
7 -11 8 52.12 13.07
-7 11 -8 35.46 15.37
-7 -11 -8 95.37 19.84
-8 -11 -8 32.68 17.87
8 -11 8 35.09 13.1
-8 11 -8 55.42 18.35
-8 11 -8 48.42 16.6
-8 -11 -8 54.67 17.9
-9 -11 -8 31.89 19.78
9 -11 8 24.74 12.73
10 -11 8 3.79 13.56
11 -11 8 14.24 14
12 -11 8 18.58 15.72
-13 12 8 -15.91 16.69
-13 12 8 11.68 13.38
-13 -12 8 -14.27 27.52
-12 12 8 1.19 13.16
-12 12 8 -3.57 15.59
12 -12 -8 -1.7 9.5
-11 -12 8 6.51 16.78
-11 12 8 -19.62 17.41
-11 12 8 1.07 10.84
-11 12 8 4.93 14.35
11 -12 -8 12.93 10.08
-10 12 8 -3.1 14.82
-10 -12 8 5.23 15.3
-10 12 8 -0.94 10.51
10 -12 -8 0.98 9.69
-10 12 8 -9.02 12.5
-10 -12 8 3.08 14.7
-9 -12 8 -14.83 14.5
9 12 -8 12 15.03
9 -12 -8 -2.04 9.02
-9 12 8 4.13 11.95
-9 -12 8 18.85 15.6
9 12 -8 8.66 16.08
-9 12 8 -1.47 14.67
-8 12 8 17.79 12.83
-8 -12 8 50.18 13.84
8 12 -8 26.66 13.54
8 -12 -8 31.49 10.25
-8 12 8 60.35 13.43
-8 -12 8 39.7 14.72
-8 12 8 15.28 14.05
8 12 -8 32.31 16.31
-8 -12 8 54.52 15.91
-7 12 8 40.3 12.41
7 12 -8 48.71 15.52
7 -12 -8 24.77 10.09
-7 12 8 33.11 10.92
-7 -12 8 26.95 12.43
-7 -12 8 44.19 13.14
-7 12 8 27.77 12.78
7 12 -8 28.44 16.32
-7 -12 8 50.6 13.84
-7 12 8 8.65 11.74
6 12 -8 41.47 14.95
6 12 -8 35.43 13.58
6 -12 -8 12.15 9.54
-6 12 8 12.4 9.66
-6 -12 8 25.86 12.26
6 12 -8 28.39 15.3
-6 12 8 34.69 11.99
-6 -12 8 41.65 14.05
-6 12 8 34.9 11.5
-5 12 8 30.81 12.63
5 12 -8 29.61 14.68
5 12 -8 40.63 12.73
5 -12 -8 32.69 10.53
-5 12 8 32.5 10.19
-5 12 8 46.73 10.34
5 12 -8 33.27 15.47
-5 -12 8 13.87 12.79
-5 12 8 38.04 11.9
-5 -12 8 30.94 11.76
4 12 -8 19.72 13.55
4 12 -8 19.09 11.41
-4 -12 8 -13.49 11.45
4 -12 -8 21.99 9.9
-4 12 8 20.62 8.76
-4 12 8 7.13 11.2
-4 12 8 26.18 8.7
4 12 -8 3.31 15.7
-4 -12 8 -4.04 11.65
-4 12 8 6.33 10.97
-3 12 8 1.17 11.75
3 12 -8 -2.97 12.63
3 12 -8 13.76 11.15
-3 12 8 -0.72 7.36
3 12 -8 -1.63 14.83
-3 12 8 1.17 7.45
-3 -12 8 -4.4 10.72
2 12 -8 56.06 14.53
2 12 -8 60.56 11.98
2 12 -8 28.69 10.29
-2 -12 8 67.72 13.79
-2 12 8 53.61 8.3
2 12 -8 70.02 16.73
-2 12 8 59.09 12.47
-2 12 8 35.65 8.42
1 12 -8 80.85 15.6
1 12 -8 66.8 11.43
1 -12 -8 85.77 12.8
1 12 -8 64.62 12.27
-1 -12 8 40.06 12.57
-1 12 8 52.75 7.26
-1 12 8 44.12 9.25
1 -12 -8 64.21 11.32
1 12 -8 47.51 16.24
0 12 8 46.67 9.76
0 -12 -8 30.24 11.56
0 12 -8 49.1 12.07
0 -12 -8 16.59 6.36
0 12 -8 34.88 14.52
0 12 -8 37.71 10.95
0 12 -8 49.81 11.19
0 -12 8 45.55 12.63
0 12 8 32.58 5.59
0 -12 -8 26.73 10.47
-1 12 -8 -5.38 10.57
1 -12 8 -9.09 11.67
-1 -12 -8 12.29 8.67
-1 12 -8 3.44 10.01
-1 -12 -8 -3.47 11.13
-1 12 -8 6.18 9.3
-1 12 -8 2.67 6.69
-1 12 -8 2.58 11.41
-2 12 -8 8.7 10.14
-2 12 -8 5.51 10.27
-2 -12 -8 3.29 10.95
-2 -12 -8 -1.25 10.04
-2 -12 -8 2.4 10.9
-2 12 -8 4.02 11.2
-2 -12 -8 1.98 10.18
-3 12 -8 -3.46 11.01
-3 12 -8 3.5 10.85
-3 -12 -8 8.04 11.23
-3 12 -8 -8.45 12.17
-3 -12 -8 13.62 10.4
-4 12 -8 -8.4 11.63
-4 -12 -8 5.99 14.75
-4 -12 -8 1.73 13.76
-4 12 -8 2.52 11.96
-4 12 -8 5.96 12.54
-4 -12 -8 5.58 11.44
-4 -12 -8 8.54 12.3
-5 12 -8 23.63 13.22
-5 12 -8 -6.78 12.73
-5 -12 -8 -2.64 13.19
-5 -12 -8 30.41 17.28
-5 12 -8 -1.57 13.48
-5 -12 -8 20.45 12.08
-5 -12 -8 23.78 15.93
-6 12 -8 2.59 13.56
-6 12 -8 -2.9 13.34
6 -12 8 6.08 11.05
-6 -12 -8 -7.08 14.52
-6 -12 -8 1.93 16.38
-7 12 -8 -13.77 15.36
-7 -12 -8 18.44 15.2
7 -12 8 -12.46 12.5
-7 -12 -8 20.27 17.06
-8 -12 -8 20.84 18.67
8 -12 8 -1.27 12.97
-8 12 -8 -22.49 15.54
-8 -12 -8 -19.86 17.67
9 -12 8 -13 13.37
10 -12 8 14.6 14.42
11 -12 8 -23.11 15.69
-12 13 8 43.79 14.12
-12 13 8 26.94 16.96
-11 -13 8 13.05 16.68
-11 13 8 13.1 16.62
-11 13 8 13.14 11.64
-11 13 8 1.65 14.6
11 -13 -8 5.49 9.75
-10 13 8 1.55 15.71
-10 -13 8 8.77 16.2
-10 13 8 16.29 11.41
10 -13 -8 0.97 9.48
-10 13 8 4.55 13.67
-10 -13 8 6.17 15.17
-9 -13 8 9.92 14.77
9 13 -8 9.23 16.77
-9 13 8 10.3 14.03
9 13 -8 -7.09 14.8
9 -13 -8 33.82 10.82
-9 13 8 13.9 12.97
-9 -13 8 -5.79 13.88
-8 13 8 1.26 12.48
8 13 -8 -10.4 14.58
-8 13 8 -1.29 11.76
8 -13 -8 9.63 10.04
-8 13 8 7.6 11.84
-8 -13 8 -9.57 13.34
-8 -13 8 15.51 12.54
-8 13 8 11.11 13.19
8 13 -8 3.63 17.74
-8 -13 8 12.58 14.51
-7 -13 8 9.81 12.18
7 13 -8 4 12.11
7 13 -8 -6.81 13.7
7 -13 -8 17.75 10.12
-7 13 8 14.89 12.22
-7 13 8 8.08 10.94
-7 13 8 19.9 13.68
7 13 -8 10.79 16.66
-7 -13 8 13.52 13.56
-7 13 8 14.06 12.11
6 13 -8 45.18 15.89
6 13 -8 49.5 13.08
-6 -13 8 42.52 12.33
6 -13 -8 36.59 11.32
-6 13 8 36.7 11.2
-6 13 8 41.02 13
6 13 -8 55.71 17.82
-6 -13 8 57.99 15.46
-6 13 8 40.11 12.16
5 13 -8 192.82 20.73
5 13 -8 195.36 18.15
-5 13 8 164.51 15.05
5 -13 -8 181.02 16.23
-5 13 8 185.15 18.16
-5 13 8 112.39 14.04
-5 -13 8 166.32 16.75
5 13 -8 153.42 21.18
-5 -13 8 203.18 19.55
-5 13 8 173.58 16.25
4 13 -8 114.67 17.27
4 13 -8 91.02 13.95
-4 -13 8 64.87 13.02
-4 13 8 86.95 14.29
4 -13 -8 77.24 12.94
-4 13 8 68.25 10.13
-4 13 8 74.33 11.75
4 13 -8 95.35 19.17
-4 -13 8 98.91 15.36
-4 13 8 72.6 12.43
-3 13 8 61.19 13.24
3 13 -8 71.87 15.46
3 13 -8 78.9 12.93
-3 13 8 50.98 9.32
3 13 -8 57.65 18.15
-3 13 8 57.61 10.44
-3 -13 8 93.19 13.8
2 13 -8 235.47 21.74
-2 -13 8 225.78 20.01
2 13 -8 246.19 19.02
-2 13 8 229.75 14.96
2 13 -8 266.9 24.96
-2 13 8 226.8 16.41
1 13 -8 521.48 32.3
-1 -13 8 496.29 30.51
1 13 -8 487.14 28.69
-1 13 8 480.84 24.19
1 -13 -8 502.67 29.41
1 13 -8 556.58 35.23
1 13 -8 509.84 28.57
1 -13 -8 468.39 28.38
-1 13 8 522.71 26.54
0 -13 8 360.16 24.75
0 13 -8 388.39 23.51
0 13 8 334.24 17.18
0 -13 -8 397.17 23.95
0 13 -8 321.54 22.36
0 -13 -8 354.26 23.18
0 13 8 322.46 20.56
-1 13 -8 166.23 17.26
-1 13 -8 182.54 16.61
1 -13 8 172.23 18.31
-1 13 -8 161.59 16.32
-1 -13 -8 175.95 16.81
-2 13 -8 189.38 16.81
-2 13 -8 182.5 16
-2 -13 -8 170.74 17.06
-2 -13 -8 177.26 15.9
-2 -13 -8 118.86 16.21
-2 13 -8 179.69 18
-3 13 -8 204.96 18.3
-3 -13 -8 120.06 15.9
-3 -13 -8 183.55 16.39
-3 13 -8 190.67 17.2
-3 13 -8 180.75 18.43
-4 -13 -8 185.98 18.11
-4 13 -8 165.65 18.35
-4 13 -8 140.87 18.46
-4 -13 -8 175.26 17.28
-4 13 -8 149.63 17.33
-4 -13 -8 187.84 21.33
-5 13 -8 140.46 17.44
-5 13 -8 175.47 18.17
-5 -13 -8 84.49 16.29
-5 13 -8 147.26 19.27
-5 -13 -8 151.7 21.24
-6 13 -8 161.41 18.68
-6 13 -8 82.04 16.56
6 -13 8 121.29 15.48
-6 -13 -8 102.52 17.58
-6 13 -8 127.96 19.63
-6 -13 -8 140.13 20.65
-7 13 -8 39.6 16.21
-7 -13 -8 32.07 17.06
7 -13 8 44.39 13.74
-7 -13 -8 22.67 17.6
-8 -13 -8 44.53 19.89
-8 -13 -8 46.26 18.09
8 -13 8 47.98 14.75
-8 13 -8 19.14 16
10 -13 8 1.39 14.95
-11 14 8 88.4 18.47
-11 -14 8 115.39 20.74
-11 14 8 75.68 13.68
-11 14 8 55.02 17.44
-10 -14 8 139.12 20.81
-10 14 8 106.45 14.17
-10 14 8 98 17.28
-10 14 8 62.19 17.27
9 -14 -8 111.06 13.37
-9 14 8 137.85 16.9
-9 -14 8 125.39 17.68
-9 -14 8 108.38 18.9
-9 14 8 92.55 17.47
9 14 -8 102.46 21.3
-9 -14 8 88.16 18.14
-8 14 8 85.38 15.16
8 14 -8 100.57 16.98
8 14 -8 128.07 18.86
-8 14 8 107.82 15.74
8 -14 -8 137.31 13.88
-8 14 8 122.48 15.89
-8 -14 8 152.99 18.15
-8 14 8 87.65 16.34
8 14 -8 82.9 19.93
-8 -14 8 132.75 16.34
-8 -14 8 98.23 18.18
7 14 -8 223.05 19.96
7 14 -8 159.69 21.18
-7 14 8 176.79 17.33
7 -14 -8 213.05 17.23
-7 -14 8 178.26 18.35
7 14 -8 215.46 25.76
-7 -14 8 211.16 20.89
-7 14 8 182.73 17.69
-7 14 8 235.78 19.06
6 14 -8 459.43 31.53
6 14 -8 443.56 28.69
-6 14 8 423.83 26.06
6 -14 -8 441.31 26.6
-6 -14 8 434.42 27.3
6 14 -8 429.64 32.82
-6 -14 8 434.57 29.54
-6 14 8 448.1 27.92
-6 14 8 451.11 27.39
5 14 -8 387.51 28.86
5 14 -8 424.7 26.87
-5 14 8 361 23.28
5 -14 -8 398.47 25.05
-5 14 8 360.93 23.69
-5 -14 8 406.76 25.82
5 14 -8 422.36 32.15
-5 14 8 433.4 26.28
-5 -14 8 439.23 27.86
-5 14 8 382.52 24.63
4 14 -8 317 25.91
4 14 -8 342.67 23.82
-4 14 8 322.16 20.15
4 -14 -8 370.83 23.1
-4 -14 8 337.77 22.65
-4 14 8 323.39 23.01
-4 14 8 294.89 20.62
4 14 -8 270.65 27.63
3 14 -8 347.32 26.48
3 14 -8 322.31 22.84
-3 14 8 343.03 19.43
-3 -14 8 340.07 22.44
3 -14 -8 323.31 22.54
-3 14 8 301.5 22.24
3 14 -8 320.43 28.36
-3 14 8 271.4 20.03
2 14 -8 85.55 16.37
2 14 -8 72.63 13.47
-2 -14 8 61.71 14.35
-2 14 8 86.9 9.7
2 14 -8 39.04 18.58
-2 14 8 70.94 11.5
1 -14 -8 30.25 8.15
1 14 -8 14.69 14.94
1 14 -8 9.42 11.74
1 14 -8 11.7 9.72
1 -14 -8 20.03 10.66
-1 -14 8 12.56 12.95
1 -14 -8 32.87 12.07
-1 14 8 16.82 7.21
1 14 -8 1.87 17.04
-1 14 8 19.45 10.15
0 14 -8 33.74 10.42
0 -14 -8 58.92 11.67
0 14 -8 36.2 11.83
0 -14 8 36.49 12.9
0 14 8 24.73 6.43
-1 14 -8 7.86 11.79
-1 14 -8 -9.42 11.26
1 -14 8 2.87 12.78
1 14 8 17.03 4.34
-1 14 -8 25.98 11.1
-1 -14 -8 12.49 10.7
-2 -14 -8 6.55 10.29
-2 14 -8 18.16 10.09
-2 14 -8 13.33 11.55
-2 14 -8 -4.74 10.41
-2 -14 -8 18.32 11.49
-2 -14 -8 15.3 11.69
-2 14 -8 24.49 13.12
-3 -14 -8 16.89 11.45
-3 14 -8 22.69 13.42
-3 14 -8 29.6 11.61
-3 14 -8 8.59 13.5
-4 14 -8 -4.93 11.31
-4 14 -8 18.35 13.62
-4 -14 -8 -8.38 12.04
-4 -14 -8 7.25 15.31
-4 14 -8 -12.04 14.12
-5 14 -8 33.93 14.39
-5 14 -8 14.72 13.36
-5 14 -8 14.36 14.2
-5 -14 -8 -3.85 13.32
-5 -14 -8 -5.75 16.13
-6 14 -8 -14.16 14.74
6 -14 8 2.67 12.24
-6 14 -8 12.85 14.21
-6 -14 -8 -1.4 13.7
-6 14 -8 -3.35 14.83
-6 -14 -8 -16.1 17.26
-7 14 -8 1.51 14.81
7 -14 8 10.92 13.55
-7 -14 -8 4.54 16.57
-7 -14 -8 -2.1 17.41
-8 14 -8 12.66 15.92
8 -14 8 1.39 14.05
9 -14 8 34.15 15.58
10 -14 8 -8.71 16.09
-11 -15 8 -1.87 17.44
-11 15 8 3.34 12.02
-11 15 8 -1.69 15.25
-10 -15 8 -8.8 16.25
-10 15 8 -7.78 14.59
-10 15 8 32.6 16.74
-9 15 8 7.87 13.51
-9 15 8 16.32 13.59
-9 15 8 22.93 13.71
-9 15 8 11.72 14.52
9 15 -8 8.32 18.72
-9 -15 8 51.87 17.44
-9 -15 8 16.33 13.83
-8 15 8 8.5 12.45
-8 -15 8 12.84 13.27
8 15 -8 -11.27 15.43
-8 15 8 14.46 12.52
-8 15 8 -4.17 14.45
-8 15 8 1.3 12.29
8 15 -8 -14.31 19.29
-8 -15 8 -6.38 14.52
7 15 -8 15.45 13.75
7 15 -8 -7.39 15.18
-7 -15 8 1.22 11.9
7 -15 -8 14.72 10.59
-7 15 8 1.2 10.79
-7 15 8 -1.25 11.64
7 15 -8 -8.16 18.72
-7 -15 8 7.65 13.76
-7 15 8 5.7 11.7
-6 15 8 -6.14 12.2
6 15 -8 7.28 15.19
6 15 -8 4.13 12.41
6 -15 -8 5.84 10.11
-6 15 8 8.72 10.45
-6 -15 8 11.75 12.02
6 15 -8 14.24 19.44
-6 -15 8 8.82 13.87
-6 15 8 7.61 11.35
5 15 -8 -5.34 14.99
5 15 -8 16.08 13.15
-5 -15 8 -2.28 11.62
5 -15 -8 15.62 11.13
-5 15 8 -2.95 9.7
-5 15 8 6.08 12.82
-5 -15 8 11.34 13.17
5 15 -8 -4.03 18
-5 15 8 1.04 10.72
-4 -15 8 3.3 10.68
4 15 -8 -12.2 15.5
-4 15 8 -2.4 12.52
4 15 -8 1.3 12.08
4 -15 -8 -2.46 10.56
-4 15 8 8.81 8.67
4 15 -8 5.98 18.17
3 -15 -8 12.76 9.34
3 15 -8 -8.62 15.28
3 15 -8 5.06 11.41
-3 15 8 -2.34 7.9
3 15 -8 -3.96 18.79
-3 15 8 4.72 11.71
2 -15 -8 2.94 8.13
2 15 -8 -12.09 15.36
2 15 -8 6.21 11.93
-2 -15 8 14.77 13.32
-2 15 8 -9.48 8.01
2 15 -8 9.89 18.26
1 15 -8 24 15.09
1 15 -8 -8.61 11.2
1 15 -8 7.38 9.24
-1 -15 8 1.47 12.4
1 15 -8 5.99 16.94
-1 15 8 -2.85 6.65
0 15 -8 32.27 10.58
0 -15 -8 24.71 11.01
0 15 -8 24.38 11.78
0 -15 8 7.37 12.48
0 15 8 13.94 5.99
-1 -15 -8 36.87 12.44
-1 15 -8 23.82 12.12
-1 15 -8 17.23 11.72
1 -15 8 36.13 13.46
1 15 8 18.72 5.05
-1 15 -8 6.72 9.82
2 15 8 21.68 11.17
-2 15 -8 17.93 10.65
-2 15 -8 25.36 12.91
-2 15 -8 1.17 10.32
-2 -15 -8 9.3 11.35
-2 15 -8 1.37 12.3
-3 15 -8 24.72 11.43
-3 15 -8 34.21 13.83
3 15 8 22.73 14.57
-3 -15 -8 13.38 12.25
-3 -15 -8 9.72 12.48
-3 15 -8 22.96 13.23
-4 15 -8 20.5 14.03
-4 15 -8 17.07 12.65
4 15 8 25.05 16.45
-4 -15 -8 12.98 12.27
-4 15 -8 15.14 14.62
-5 -15 -8 30.36 14.41
-5 15 -8 9.91 14.41
-5 15 -8 1.32 13.52
-5 15 -8 24.03 15.69
-6 15 -8 28.06 15.51
6 -15 8 13.93 13.33
-6 15 -8 19.85 14.2
-6 15 -8 8.42 15.36
-6 -15 -8 12.31 18.26
-7 -15 -8 40.59 20.17
7 -15 8 14.24 14.22
-7 15 -8 -19.32 17.63
-8 15 -8 7.88 16.07
8 -15 8 1.45 14.32
9 -15 8 16.31 15.45
-11 -16 8 26.06 18.16
-11 16 8 -3.43 15.58
-10 16 8 71.42 16.72
-10 16 8 17.02 16.47
-10 -16 8 60.01 18.76
-9 16 8 86.26 15.77
-9 16 8 118.8 17.28
-9 16 8 89.82 16.72
-9 16 8 71.7 16.33
9 16 -8 113.86 24.43
-9 -16 8 73.92 17.87
-8 16 8 70.3 15.28
-8 16 8 59.14 13.54
-8 16 8 72.46 16.32
8 16 -8 54.01 21.83
-8 -16 8 70.55 16.8
-8 16 8 53.67 13.89
7 16 -8 33.07 15.08
7 16 -8 61.63 18.21
-7 16 8 28.9 13.36
-7 16 8 47.85 12.86
-7 -16 8 39.89 14.98
7 16 -8 41 20.88
-7 16 8 57.16 13.71
-6 16 8 25.96 12.39
6 16 -8 20.85 15.59
6 16 -8 28.2 13.37
-6 16 8 8.72 12.65
-6 16 8 17.89 11.27
-6 -16 8 21.06 12.24
-6 -16 8 19.21 13.88
6 16 -8 45.08 20.02
-6 16 8 4.25 11.15
5 16 -8 53.67 17.28
5 16 -8 106.83 15.96
-5 -16 8 36.1 12.68
-5 16 8 78.35 14.83
-5 16 8 52.71 11.3
-5 -16 8 73.92 15.54
-5 16 8 72.86 12.79
5 16 -8 55.43 20.16
4 -16 -8 102.21 13.55
-4 16 8 137.94 16.18
4 16 -8 132.59 20.54
4 16 -8 159.46 17.42
-4 16 8 103.87 12.48
4 16 -8 94.76 20.96
-4 -16 8 110.29 14.68
3 -16 -8 46.73 10.68
3 16 -8 59.85 17.91
3 16 -8 52.41 13.8
-3 -16 8 35.72 14.16
-3 16 8 46.98 9.71
3 16 -8 56.56 19.69
-3 16 8 72.42 14.13
2 16 -8 47.05 16.07
2 16 -8 34.88 13
-2 -16 8 35.75 14.45
2 16 -8 58.68 20.45
-2 16 8 43.23 8.79
1 16 -8 7.19 15.59
1 16 -8 -10.19 12.24
1 16 -8 24.98 9.89
-1 -16 8 -3.08 13.03
1 16 -8 4.24 18.38
-1 16 8 4.21 6.8
0 16 -8 10.62 9.42
0 16 -8 2.54 11.63
0 -16 -8 -1.05 10.13
0 -16 8 1.55 13.47
0 16 8 -1.46 6.01
-1 16 -8 1.33 11.8
-1 -16 -8 18.62 11.67
-1 16 -8 -6.43 11.84
1 -16 8 9.45 14.4
1 16 8 6.2 5.4
1 16 8 8.04 11.18
-1 16 -8 -9.93 10.21
-2 16 -8 7.95 12.93
2 16 8 -6.56 14.54
-2 16 -8 -5.78 10
-2 -16 -8 5.73 11.09
-2 16 -8 5.49 12.79
2 16 8 14.61 11.56
-3 16 -8 1.37 13.3
3 16 8 -11.79 15.49
-3 16 -8 -5.53 11.14
-3 -16 -8 13.16 11.84
-3 16 -8 2.88 12.75
-4 16 -8 -7.11 13.83
4 16 8 -15.57 16.07
-4 16 -8 -13.14 12.42
-4 16 -8 1.52 13.37
-5 16 -8 7.38 14.18
-5 16 -8 -8.03 14.58
-5 16 -8 -9.08 12.58
6 -16 8 -11.61 14.44
-6 16 -8 7.04 14.39
-6 16 -8 16.94 16.53
7 -16 8 -4.45 14.75
-7 16 -8 11.9 15.29
8 -16 8 -10.57 15.41
-10 17 8 -1.36 14.39
-10 17 8 1.62 14.92
-10 17 8 28.47 15.78
-10 17 8 20 17.25
-9 17 8 1.25 12.7
-9 17 8 14.94 14.41
-9 17 8 18.97 15.32
-9 17 8 12.21 15.15
-9 -17 8 8.41 16.7
-8 17 8 -4.12 13.4
-8 -17 8 43.48 17.36
8 17 -8 6.83 20.89
-8 17 8 11.72 13.5
-8 17 8 3.51 12.15
7 -17 -8 13.42 13.05
-7 17 8 13.95 13.21
-7 17 8 -2.52 11.48
-7 -17 8 18.45 15.69
7 17 -8 -15.91 21.91
-7 17 8 5.51 11.94
6 -17 -8 12.32 12.56
6 17 -8 17.7 17.01
6 17 -8 11.49 13.53
-6 17 8 21.58 14.35
-6 17 8 32.25 12.11
-6 -17 8 4.45 14.31
-6 17 8 22.39 13.39
-6 17 8 19.78 12.14
6 17 -8 13.57 19.27
5 -17 -8 40.23 12.55
5 17 -8 36.59 16.5
5 17 -8 25.36 13.43
-5 17 8 17.11 12.74
-5 17 8 36.68 11.46
-5 17 8 25.15 13.04
5 17 -8 2.25 19.74
4 -17 -8 9.98 10.42
4 17 -8 34.04 17.53
4 17 -8 31.81 13.97
4 17 -8 35.54 20.91
-4 17 8 5.96 12.63
3 17 -8 24.64 16.59
3 17 -8 31.29 13.19
-3 -17 8 8.17 14.66
3 17 -8 22.1 18.55
2 17 -8 155.38 21.68
2 17 -8 105.11 16.03
-2 -17 8 122.38 18.71
2 17 -8 101.86 23.14
1 17 -8 143.06 21.23
1 17 -8 135.37 17.16
-1 -17 8 161.58 19.84
1 17 -8 165.75 26.2
-1 17 8 158.27 16.66
0 17 -8 120.67 16.71
0 -17 8 155.49 19.44
0 17 -8 158.14 15.39
0 17 8 146.34 16.14
-1 17 -8 162.74 18.35
1 -17 8 164.74 20.69
1 17 8 168.04 19.93
1 17 8 150.8 10.44
-1 17 -8 188.19 16.31
1 17 8 186.58 18.13
-2 17 -8 166.44 18.23
2 17 8 115.09 7.6
-2 17 -8 131.66 16.95
2 17 8 111.27 7.05
2 17 8 136.25 20.03
-2 17 -8 127.36 14.98
2 17 8 128.53 17.2
3 17 8 59.74 15.16
-3 17 -8 111.51 17.11
-3 17 -8 87.85 13.94
3 17 8 64.53 17.32
-3 17 -8 54.37 13.32
-3 -17 -8 83.51 19.06
-3 17 -8 66.26 15.62
-4 17 -8 108.11 17.74
-4 17 -8 89.77 15.08
-4 17 -8 105.22 17.59
-5 17 -8 90.51 16.64
-5 17 -8 139.86 19.65
6 -17 8 100.83 17.82
-6 17 -8 111.45 17.84
-6 17 -8 90.11 19.4
7 -17 8 92.38 18.54
-7 17 -8 70.73 17.74
-10 18 8 26.56 15.52
-10 18 8 21.35 15.44
-10 18 8 29.85 15.82
-10 18 8 15.34 16.6
9 -18 -8 23.86 16.5
-9 18 8 52.99 15.6
-9 18 8 48.91 15.82
-9 18 8 17.5 15.48
-9 18 8 37.98 14.77
8 -18 -8 47.41 15.53
-8 18 8 31.34 15.42
-8 18 8 22.54 14.4
8 18 -8 16.74 23.21
-8 18 8 2.29 12.78
-7 18 8 65.03 14.91
7 -18 -8 52.08 15.55
-7 18 8 42.82 14.12
-7 -18 8 44.71 16.49
-7 18 8 40.75 12.76
7 18 -8 35.84 22.77
6 -18 -8 41.27 13.38
-6 18 8 17.42 14.96
-6 18 8 47.78 15.02
-6 18 8 36.93 12.38
-6 -18 8 47.3 15.27
-6 18 8 45.38 12.7
6 18 -8 33.26 21.85
5 -18 -8 30.64 12.36
-5 18 8 39.08 14.16
5 18 -8 54.02 17.49
5 18 -8 40.62 14.52
-5 18 8 30.04 13.71
5 18 -8 59 22.67
4 18 -8 33.46 18.04
4 18 -8 38.6 14.1
-4 18 8 43.02 13.78
4 18 -8 42.07 21.05
-4 18 8 21.35 12.83
3 18 -8 23.75 16.95
3 18 -8 28.29 13.48
-3 -18 8 12.01 15.5
3 18 -8 46.61 22.69
-3 18 8 31.85 13.38
2 18 -8 25.71 17.56
2 18 -8 13.92 13.09
-2 -18 8 15.38 16.36
2 18 -8 39.7 22.34
-2 18 8 34.07 13.11
1 18 -8 110.08 21.26
1 18 -8 88.38 16.08
-1 -18 8 86.28 18.12
1 18 -8 75.58 23.42
-1 18 8 73.41 14.41
0 18 -8 113.33 16.82
0 18 -8 118.09 13.62
0 -18 8 113.49 19.25
0 18 8 97.71 15.38
-1 18 -8 72 12.63
-1 18 -8 77.41 16.58
1 -18 8 60.19 17.2
1 18 8 41.45 16.39
1 18 8 54.68 14.39
-2 18 -8 17.98 12.63
-2 18 -8 41.91 14.85
2 18 8 29.32 6.62
2 18 8 35.29 16.21
2 18 8 22.02 5.37
-2 18 -8 4.46 10.55
2 18 8 30.41 13.83
3 18 8 11.67 13.69
-3 18 -8 21.11 11.22
-3 18 -8 8.27 11.5
-3 -18 -8 5.69 16.22
-3 18 -8 -14.4 13.85
-4 18 -8 -3.42 11.98
-4 -18 -8 -5.96 18.03
-5 18 -8 -2.49 13.34
-5 18 -8 -3.23 15.92
-5 -18 -8 2.08 18.96
6 -18 8 7.81 14.46
-6 18 -8 5.1 16.77
-6 18 -8 -6.75 15.26
-7 18 -8 7.28 16.24
-11 19 8 7.45 16.4
-10 19 8 24.44 14.64
-10 19 8 1.42 15.53
-10 19 8 -3.06 17.72
9 -19 -8 -9.69 16.56
-9 19 8 -7.85 15.35
-9 19 8 20.31 15.37
-9 19 8 11.94 13.73
8 -19 -8 -10.52 15.25
-8 19 8 -5.26 14.58
-8 19 8 -1.45 14.02
-8 19 8 14.5 13.38
7 -19 -8 4.17 14.1
-7 19 8 -23.03 18.51
-7 19 8 1.34 12.84
-7 19 8 16.64 12.71
-7 19 8 23.01 14.08
7 19 -8 25.05 22.97
6 -19 -8 -1.27 12.74
-6 19 8 -13.73 13.46
-6 19 8 4.67 15.91
6 19 -8 -2.49 21.93
-5 19 8 19.37 13.48
-5 19 8 28.02 15.31
5 19 -8 24.75 21.49
-4 19 8 24.05 15.2
4 19 -8 12.28 21
3 19 -8 10.28 18.16
-3 -19 8 5.39 15.43
3 19 -8 -7.35 22.54
-3 19 8 11.06 13.72
2 19 -8 12.36 18.2
-2 -19 8 19.63 15.83
2 19 -8 19.67 21.49
-2 19 8 9.58 13.59
1 19 -8 24.62 18.72
1 19 -8 31.61 13.9
-1 -19 8 30.06 16.14
1 19 -8 52.13 22.26
-1 19 8 12.27 14.02
0 -19 8 56.62 17.3
0 19 8 17.53 15.85
0 19 -8 79.14 12.42
0 19 -8 100.7 26.04
0 19 8 34.52 14.9
-1 19 -8 21.71 10.81
1 -19 8 35.86 16.47
1 19 8 24.13 14.28
-2 19 -8 18.43 11.66
-2 19 -8 9.69 13.81
2 19 8 -3.95 7.32
2 19 8 24.98 14.25
-3 19 -8 -7.18 14.45
-3 19 -8 1.15 11.27
-3 -19 -8 5.81 17.04
3 19 8 1.53 14.67
-4 -19 -8 -8.13 18.14
-4 19 -8 -4.96 13.14
-4 19 -8 -9.08 15.32
-4 19 -8 -3.32 12.21
-5 19 -8 1.2 13.17
-5 19 -8 1.61 16.63
-5 -19 -8 38.26 20.13
-6 19 -8 11.87 15.27
-7 19 -8 9.95 16.55
-10 20 8 35.36 17.15
-9 20 8 51.65 16.42
-9 20 8 83.65 18.49
-8 20 8 97.39 17.28
8 -20 -8 85.51 18.16
-8 20 8 107.67 17.45
-8 20 8 93.52 15.64
-7 20 8 119.11 21.61
-7 20 8 78.36 16.87
-7 20 8 99.74 16.61
-7 20 8 82.49 14.48
-6 20 8 121.48 17.21
-6 20 8 122.89 20.42
6 20 -8 111.94 28.08
-5 20 8 115.57 19.95
5 20 -8 129.46 27.64
-5 20 8 113.25 16.69
-4 20 8 48.76 16.94
4 20 -8 30.89 24.21
-3 -20 8 67.75 18.95
3 20 -8 64.26 24.98
-3 20 8 56.7 16.28
-2 -20 8 59.63 18.08
2 20 -8 77.45 26.55
-2 20 8 75.03 17.11
-1 -20 8 60.88 18.32
1 20 -8 65.26 25.8
-1 20 8 58.6 16.42
0 -20 8 70.15 18.76
0 20 -8 71.56 26.36
0 20 8 94.34 17.44
1 -20 8 52.26 19.35
-1 20 -8 57.3 12.37
1 20 8 43.72 15.52
-2 20 -8 -4.2 10.67
2 20 8 2.09 8.01
-2 -20 -8 -3.81 18.08
2 20 8 -1.56 15.14
-3 20 -8 -5.73 14.8
-3 20 -8 8.95 11.26
-3 -20 -8 -1.98 18.41
3 20 8 -17.63 16.17
4 20 8 -6.76 16.45
-4 20 -8 3.2 11.68
-4 20 -8 -4.8 12.88
-4 20 -8 30.1 16.26
-4 -20 -8 -8.3 19.47
-5 20 -8 1.16 12.37
-5 20 -8 -3.19 15.83
-6 20 -8 15.3 14.36
-9 21 8 -2.72 15.36
-8 21 8 -4.62 15.45
-8 21 8 -5.25 15.51
-7 21 8 -1.27 14.07
-7 21 8 16.67 19.29
-6 21 8 12.19 14.06
-6 21 8 8.82 18.19
-5 21 8 -1.15 13.08
-5 21 8 -6.77 15.69
-4 -21 8 13.85 18.04
-4 21 8 9.82 15.94
4 21 -8 59.31 26.61
-3 -21 8 13.76 17.24
3 21 -8 43.08 25.81
-3 21 8 -1.6 15.99
-2 -21 8 27.19 18.82
2 21 -8 35.17 25.4
-2 21 8 31.52 15.69
-1 -21 8 11.54 16.44
1 21 -8 -2.74 25.35
-1 21 8 4.71 14.9
0 -21 8 88.47 20.27
0 21 -8 130.72 29.49
0 21 8 108.35 19.23
1 -21 8 71.83 18.95
-1 21 -8 92.74 13.02
1 21 8 70.11 17.73
-2 21 -8 71.72 13.31
-2 -21 -8 126.13 23.04
2 21 8 119.74 20.25
-3 21 -8 78.42 13.64
-3 21 -8 89.83 17.61
-3 -21 -8 111.01 21.57
3 21 8 45.37 17.38
4 21 8 59.76 19.1
-4 21 -8 53.2 13.62
-4 21 -8 41.72 16.61
-5 21 -8 28.91 14.04
-5 21 -8 26.87 17.48
-8 22 8 -1.59 15.93
-6 22 8 -13.04 14.12
-5 22 8 3.6 17.57
-4 22 8 3.49 17.18
-3 -22 8 -12.29 17.97
-3 22 8 -6.84 16.58
-2 -22 8 -14.14 18.71
-2 22 8 5.04 16.45
-1 -22 8 6.01 17.52
-1 22 8 5.02 15.94
0 -22 8 -4.01 16.87
0 22 8 15.02 16.75
1 22 8 16.81 17.2
-2 22 -8 0.97 10.58
2 22 8 1.73 17.31
-2 -22 -8 -25.7 20.16
-3 22 -8 14.33 11.38
-3 -22 -8 -2.06 19.03
3 22 8 14.1 17.05
4 22 8 10.95 18.32
-4 22 -8 1.48 15.59
-4 23 8 1.86 18.53
-3 23 8 32.7 18.38
-2 23 8 60.82 19.07
-1 23 8 58.58 19.33
0 23 8 8.84 17.1
1 23 8 19.49 18.94
-1 -23 -8 19.42 19.51
2 23 8 34.44 18.18
-2 -23 -8 24.08 20.5
3 23 8 47.89 19.9
-15 0 9 -26.51 23.95
-14 0 9 -20.31 20.62
-13 0 9 3.71 18.34
-12 0 9 2.1 17.59
-12 0 9 1.67 17.64
-11 0 9 8.5 14.7
-11 0 9 -13.72 16.94
-11 0 9 13.29 16.1
-10 0 9 9.68 14.15
-10 0 9 7.3 15.54
-10 0 9 -8.92 14.12
-9 0 9 6.79 13.99
-9 0 9 -4.2 11.87
-9 0 9 -9.19 13.48
-8 0 9 -8.97 12.63
-8 0 9 15.72 12.92
-8 0 9 12.85 10.56
-8 0 9 10.2 13.09
-7 0 9 -8.52 11.91
-7 0 9 -11.82 11.68
-7 0 9 -4.34 12.81
7 0 -9 -5.46 10.09
-7 0 9 -4.18 11.97
-6 0 9 6.71 12.59
-6 0 9 2.55 10.74
6 0 -9 12 10.04
-6 0 9 -2.75 11.08
-5 0 9 8.65 11.77
-5 0 9 -1.26 10.05
5 0 -9 10.98 9.18
-5 0 9 1.35 11.34
-4 0 9 -7.84 10.83
-4 0 9 3.41 5.38
4 0 -9 3.33 8.34
-4 0 9 14.68 11.58
-4 0 9 -6.31 11.27
-3 0 9 3.81 5.35
3 0 -9 -3.68 8.36
-3 0 9 -13.96 10.81
3 0 -9 -0.75 7.76
-3 0 9 -2.64 10.84
-2 0 9 1.27 10.18
2 0 -9 -8.69 9.37
2 0 -9 2.01 7.2
1 0 -9 6.53 6.75
-1 0 9 11.37 10.76
1 0 -9 6.33 8.93
0 0 -9 13.84 10.71
0 0 -9 2.11 7.83
0 0 -9 -7.78 6.39
0 0 -9 3.49 8.91
0 0 -9 -10.3 8.83
0 0 -9 4.45 4.46
-1 0 -9 19.16 10
-1 0 -9 -3.84 7.17
-1 0 -9 -1.34 10.47
-1 0 -9 1.33 5.58
-1 0 -9 2.57 10.12
-1 0 -9 -0.51 6.31
-2 0 -9 7.94 6.95
-2 0 -9 8.76 10.16
-2 0 -9 -6.58 9.44
-2 0 -9 -3.68 4.88
-2 0 -9 -9.35 11.11
-2 0 -9 -6.39 6.95
-3 0 -9 -18.08 9.89
-3 0 -9 1.77 6.77
-3 0 -9 -1.27 9.86
-3 0 -9 4.19 11.14
-3 0 -9 3.98 10.01
-4 0 -9 13.15 11.26
-4 0 -9 18.6 7.04
-4 0 -9 -6.19 10.86
-4 0 -9 11.9 9.26
-4 0 -9 -7.13 10.83
-4 0 -9 -13.33 12.85
-4 0 -9 5.52 10.96
-5 0 -9 1.29 11.97
-5 0 -9 -13.75 13.25
-5 0 -9 5.67 9.12
-5 0 -9 -6.03 10.88
-5 0 -9 16.05 12.61
-6 0 -9 1.63 12.67
-6 0 -9 -5.16 10.1
-6 0 -9 -2.34 10.64
-6 0 -9 -10.76 12.99
-6 0 -9 2.98 13.79
-7 0 -9 12.78 13.02
-7 0 -9 -5.65 11.02
-7 0 -9 -1.69 14.89
-7 0 -9 12.03 14.64
-8 0 -9 3.32 14.08
-8 0 -9 -5.34 15.4
-8 0 -9 19.08 18.34
-9 0 -9 34.43 15.27
-15 -1 9 29.42 24.48
-14 -1 9 -8.35 21.79
-14 1 9 9.87 20.87
-13 -1 9 1.91 18.73
-13 1 9 -10.77 18.5
-12 1 9 20.68 18.2
-12 -1 9 -1.73 17.11
-12 1 9 -11.29 17
-11 -1 9 3.4 14.81
-11 1 9 -3.41 14.5
-11 -1 9 2 17.2
-11 1 9 15.45 17
-11 -1 9 -4.62 15.75
-11 1 9 -1.42 15.65
-10 -1 9 -1.61 14.1
-10 1 9 -6.46 13.75
-10 -1 9 -7.44 16.08
-10 1 9 3.6 15.21
-10 -1 9 12.02 14.22
-10 1 9 -4.86 13.79
-9 -1 9 20.74 15.59
-9 1 9 5.01 13.55
-9 -1 9 6.7 11.92
-9 1 9 -7.92 11.46
-9 -1 9 -1.53 13.1
-9 1 9 4.6 12.97
-8 -1 9 16.6 13.14
-8 1 9 -7.42 11.84
-8 -1 9 -4.82 13.35
-8 1 9 3.08 13.28
-8 1 9 2.93 9.15
8 1 -9 2.41 10.89
-8 -1 9 4.37 12.49
-8 1 9 14.59 12.57
-7 -1 9 101.84 15.47
-7 -1 9 85.33 13.83
-7 1 9 80.37 14.33
-7 1 9 101.18 14.81
-7 -1 9 62.79 14.73
-7 1 9 102.07 16.12
7 1 -9 111.48 13.49
-7 -1 9 76.66 14.77
-7 1 9 79.63 14.91
-6 -1 9 323.29 23.66
-6 1 9 329.27 23.13
-6 -1 9 329.17 22.35
-6 1 9 287.55 22.03
6 1 -9 260.5 19.86
-6 -1 9 304.38 23.05
-6 1 9 339.71 23.24
-5 -1 9 205.4 18.89
-5 1 9 231.63 18.95
5 1 -9 190.98 16.13
5 -1 -9 235.63 16.23
-5 1 9 153.87 16.94
-5 -1 9 202.13 18.71
-5 1 9 227.99 19.02
-5 -1 9 233.32 18.78
-4 1 9 20.65 10.5
-4 1 9 29.51 5.16
-4 -1 9 23.47 6.58
4 1 -9 20.1 8.69
4 -1 -9 33.37 9.22
-4 -1 9 24.26 11.48
-4 1 9 27.77 11.18
-4 -1 9 20.19 11.03
-4 1 9 29.09 11.53
-3 -1 9 76.47 7.99
3 1 -9 42.81 10.79
3 -1 -9 72.36 11.74
-3 -1 9 57.04 13.16
-3 1 9 82.68 13.51
3 1 -9 87.84 10.85
3 -1 -9 73.25 9.83
-3 -1 9 97.2 13.83
-3 1 9 79.74 13.59
-2 -1 9 132.6 15.14
-2 1 9 109.08 14.99
2 1 -9 136.22 15.02
2 -1 -9 115.71 13.59
2 -1 -9 132.08 10.88
2 1 -9 122.39 11.81
1 1 -9 146.1 12.03
1 -1 -9 152.59 10.93
-1 1 9 125.33 15.63
1 1 -9 151.4 15.89
1 -1 -9 140.91 14.73
0 1 -9 157.19 15.52
0 -1 -9 139.87 15.75
0 1 -9 141.1 11.58
0 1 -9 159.18 12.75
0 -1 -9 141.71 12.28
0 -1 -9 131 15.56
0 -1 -9 179.73 10.64
0 -1 -9 175.02 15.37
0 1 -9 145.02 14.44
0 1 -9 127.1 15.25
0 -1 -9 121.21 14.6
-1 -1 -9 200.25 15.75
-1 1 -9 163.83 11.7
-1 1 -9 161.45 12.28
-1 1 -9 126.7 14.56
-1 -1 -9 142.19 11.41
-1 -1 -9 150.78 9.35
-1 -1 -9 165.71 15.7
-1 -1 -9 152.24 10.78
-1 1 -9 154.41 16.34
-1 -1 -9 153.09 16.13
-2 1 -9 265.56 14.22
-2 1 -9 249.11 15.25
-2 -1 -9 239.18 14.36
-2 1 -9 245.82 19.71
-2 -1 -9 269.17 19.56
-2 -1 -9 224.53 11.34
-2 1 -9 238.85 18.99
-2 -1 -9 204.17 18.12
-2 1 -9 233.13 19.37
-2 -1 -9 236.64 19.44
-2 -1 -9 205.46 14.71
-3 1 -9 259.9 14.31
-3 -1 -9 214.94 14.46
-3 1 -9 248.72 15.65
-3 -1 -9 282.65 16.12
-3 1 -9 236.91 19.56
-3 -1 -9 285.95 20.19
-3 1 -9 256.02 20.08
-3 -1 -9 222.51 18.96
-3 1 -9 299.29 21.6
-3 -1 -9 235.05 20.36
-3 -1 -9 231.37 17.2
-4 1 -9 131.74 11.42
-4 1 -9 151.78 15.78
-4 -1 -9 107.43 12.02
-4 -1 -9 143.49 15.27
-4 1 -9 122.05 13.46
-4 1 -9 109.98 15.54
-4 -1 -9 168.11 16.82
-4 1 -9 113.66 15.6
-4 -1 -9 148.07 17.7
-4 -1 -9 143.91 16.52
-4 1 -9 149.42 16.82
-4 -1 -9 98.9 13.86
-5 1 -9 134.63 16.91
-5 -1 -9 93.01 15.58
-5 -1 -9 122.81 13.32
-5 1 -9 117.35 13.58
-5 1 -9 85.04 13.95
-5 -1 -9 101.68 14.24
-5 -1 -9 106.86 16.23
-5 -1 -9 99.13 15.67
-5 1 -9 118.7 15.95
-6 1 -9 127.4 18.43
-6 -1 -9 117.23 16.88
-6 -1 -9 82.3 13.23
-6 1 -9 91.75 14.14
-6 1 -9 133.51 14.93
-6 -1 -9 102.51 14.26
-6 -1 -9 103.13 17.43
-6 -1 -9 135.11 17.65
-6 1 -9 120.32 16.79
-7 -1 -9 96.04 16.62
-7 1 -9 112.85 19.1
-7 1 -9 99.24 14.66
-7 1 -9 130.72 15.43
-7 -1 -9 80.85 13.61
-7 1 -9 84.66 16.34
-7 1 -9 55.09 16.02
-7 -1 -9 85.82 17.06
-7 -1 -9 93.91 19.41
-8 1 -9 67.09 19.13
-8 -1 -9 3.43 13.91
-8 1 -9 62.61 16.35
-8 -1 -9 44.92 13.21
-8 -1 -9 19.57 14.81
-9 -1 -9 64.04 17.5
-9 1 -9 6.67 15.08
-15 -2 9 37.14 25.48
-14 -2 9 40.82 23.02
-14 2 9 51.78 20.26
-13 2 9 78.32 20.35
-13 -2 9 47.41 19.52
-13 2 9 50.41 20.21
-12 2 9 109.77 20.5
-12 -2 9 77.19 20.86
-12 2 9 129.31 21.16
-11 -2 9 131.02 19.53
-11 2 9 129.58 19.77
-11 2 9 106.31 19.83
-11 -2 9 144.43 21.05
-11 2 9 105.59 17.97
-10 2 9 191.05 21.28
-10 -2 9 215.55 23.19
-10 2 9 191.18 22.11
-10 2 9 221.73 19.88
-10 -2 9 191.05 20.96
-10 -2 9 251.75 22.76
-9 -2 9 154.34 20.45
-9 2 9 190.59 20.28
-9 -2 9 160.75 18.15
9 2 -9 172.23 17.19
-9 2 9 140.07 14.67
-9 -2 9 151.74 18.64
-9 2 9 179.96 19.63
-8 -2 9 293.03 24.53
-8 2 9 300.6 23.43
8 2 -9 336.25 22.15
-8 2 9 284.23 17.77
-8 -2 9 242.98 22.46
-8 2 9 288.3 23.18
-8 -2 9 275.81 23.33
-7 -2 9 524.27 32.05
-7 2 9 490.57 30.66
-7 -2 9 470.56 29.39
-7 2 9 464.96 29.83
7 2 -9 484.35 28.8
-7 -2 9 507.81 30.63
-7 2 9 518.28 30.83
-7 -2 9 501.31 31
-6 -2 9 341.69 25.32
-6 2 9 352.34 24.65
-6 -2 9 357.5 23.92
-6 2 9 349.74 23.93
6 2 -9 378.97 23.21
-6 -2 9 359.57 24.82
-5 -2 9 336.25 23.69
-5 2 9 379.53 23.35
5 2 -9 330.39 21.4
-5 -2 9 285.8 22.89
-5 -2 9 294.01 22.36
-5 2 9 357.18 23.11
-4 2 9 233.98 17.97
-4 2 9 243.17 11.58
4 2 -9 237.54 17.38
-4 -2 9 214.63 19.05
-4 2 9 233.3 19.23
-4 -2 9 280.46 20.89
-3 2 9 197.59 15.83
-3 -2 9 206.19 13.37
3 2 -9 188.35 14.91
-3 -2 9 164.58 17.2
-3 2 9 182.36 17.4
-3 -2 9 205.34 18.46
3 2 -9 180.72 16.69
3 -2 -9 232.27 17.37
-2 -2 9 126.19 15.08
-2 2 9 123.37 15.3
-2 -2 9 129.36 10.34
2 2 -9 102.52 13.75
2 -2 -9 106.01 13.11
2 2 -9 144.39 12.5
2 2 -9 96.34 6.56
1 2 -9 179.92 13.45
1 2 -9 177.21 13.91
1 -2 -9 216.84 17.39
1 2 -9 145.35 10.89
1 -2 -9 171.69 16.14
1 2 -9 145.96 16.11
0 2 -9 228.64 14.85
0 2 -9 231.98 15.65
0 -2 -9 222.44 14.44
0 -2 -9 175.01 17
0 2 -9 232.61 17.73
0 -2 -9 196.23 16.66
0 2 -9 181.89 17.26
0 -2 -9 215.96 17.7
0 2 -9 239.08 18.69
0 -2 -9 210.9 18.14
-1 2 -9 53.65 11.51
-1 2 -9 64.26 9.5
-1 -2 -9 33.66 9.64
-1 -2 -9 31.02 7.34
-1 2 -9 52.66 8.99
-1 -2 -9 57.59 12.18
-1 -2 -9 53.79 6.86
-1 2 -9 61.51 12.21
-1 -2 -9 79.65 12.43
-2 2 -9 17.64 8.05
-2 -2 -9 7.8 5.71
-2 2 -9 12.53 7.39
-2 2 -9 3.75 9.85
-2 -2 -9 20.19 10.2
-2 -2 -9 1.25 9
-2 -2 -9 -1.35 7.43
-2 2 -9 8.16 10.42
-2 -2 -9 19.63 10.22
-3 -2 -9 15.38 6.03
-3 2 -9 -3.47 7.27
-3 2 -9 -7.77 7.39
-3 2 -9 10.68 11.5
-3 -2 -9 -3.72 10.27
-3 -2 -9 10.82 6.73
-3 2 -9 -1.42 10.16
-3 -2 -9 -8.2 10.96
-3 2 -9 9.28 9.96
-3 -2 -9 -7.11 8.69
-3 -2 -9 9.27 9.24
-4 2 -9 16.16 8.25
-4 -2 -9 0.76 8.27
-4 2 -9 -1.27 10.81
-4 -2 -9 15.83 10.09
-4 2 -9 13.2 9.88
-4 2 -9 18.58 11.7
-4 -2 -9 15.66 11.01
-4 2 -9 -3.02 11.95
-4 -2 -9 -8.71 11.43
-4 -2 -9 29.64 12.06
-4 -2 -9 -8.81 11.62
-4 2 -9 6.43 11.16
-5 -2 -9 34.39 10.13
-5 2 -9 58.15 13.98
-5 -2 -9 28.9 12.64
-5 2 -9 36.84 12.12
-5 2 -9 47.07 11.38
-5 -2 -9 44.1 12.13
-5 -2 -9 31.34 13.69
-5 -2 -9 26.35 13.08
-5 2 -9 43.6 12.95
-6 2 -9 55.59 15.62
-6 -2 -9 94.22 15.85
-6 2 -9 62.06 13.41
-6 2 -9 66.07 13.21
-6 -2 -9 59.6 12.62
-6 -2 -9 66.8 16.43
-6 -2 -9 59.07 14.99
-6 2 -9 80.32 14.72
-7 2 -9 93.43 15.72
-7 2 -9 62.57 14.03
-7 2 -9 60.79 13.32
-7 -2 -9 34.41 12.61
-7 2 -9 62.04 16.8
-7 -2 -9 61.69 15.39
-7 -2 -9 79.65 18.74
-7 -2 -9 65.03 16.15
-8 -2 -9 19.42 15.47
-8 2 -9 15.49 14.8
-8 -2 -9 41.02 12.6
-8 -2 -9 33.78 15.06
-9 -2 -9 55.02 17.5
-15 -3 9 -14.34 24.19
14 -3 -9 -8.69 13.29
-14 -3 9 22.19 23.05
-14 3 9 29.9 20.43
-13 3 9 -4.28 18.02
-13 -3 9 -6.14 20.44
-13 3 9 -18.56 18.02
-12 3 9 4 16.91
-12 -3 9 13.04 18.85
-12 3 9 -1.51 15.21
-11 -3 9 5.11 14.84
-11 3 9 5.13 14.89
-11 3 9 26.16 16.27
-11 -3 9 11.74 17.28
-11 3 9 3.96 14.32
-10 -3 9 4.85 13.98
-10 3 9 17.87 14.71
-10 -3 9 -19.45 17.78
-10 3 9 19.12 15.14
-10 -3 9 2.96 15.86
10 3 -9 31.8 13.98
-10 3 9 7.87 12.98
-9 -3 9 -3.25 13.18
-9 -3 9 -7.27 14.75
-9 3 9 12.9 13.88
-9 -3 9 8.86 13.42
9 3 -9 -9.45 11.92
-9 3 9 13.43 10.53
-9 -3 9 -16.9 13.37
-9 3 9 7.73 13.51
-8 -3 9 7.69 12.6
-8 -3 9 6.82 14.02
-8 3 9 16.39 13.09
8 3 -9 33.02 12.9
-8 3 9 17.48 8.45
-8 -3 9 21.86 13.16
-8 3 9 5.87 11.98
-7 -3 9 31.73 13.95
-7 3 9 31.52 13.39
7 3 -9 37.93 12.02
-7 -3 9 65.84 13.99
-7 -3 9 51.71 13.89
-7 3 9 59 14.19
-7 3 9 46.31 13.31
-7 -3 9 67.39 13.58
-6 -3 9 4.41 12.37
-6 -3 9 29.41 11.89
-6 3 9 6.24 10.92
-6 3 9 17.99 10.91
6 3 -9 15.58 10.77
-6 -3 9 2.84 10.99
-5 3 9 -3.37 10.84
-5 -3 9 -3.8 10.65
-5 3 9 10.17 10.31
5 3 -9 5.23 9.69
-5 -3 9 4.19 10.9
-4 3 9 88.45 12.31
4 3 -9 68.06 11.59
-4 -3 9 46.81 12.94
-4 -3 9 72 12.92
-4 3 9 72.49 12.79
-3 3 9 17.86 9.41
3 3 -9 26.78 10.43
3 -3 -9 28.29 9.32
3 -3 -9 17.32 10.09
-3 -3 9 11.39 10.6
-3 -3 9 16.74 8.14
-3 3 9 31.94 11.51
3 3 -9 28.53 9.77
-3 -3 9 6.78 11.22
3 3 -9 19.44 5.89
-2 3 9 -8.93 11.11
2 3 -9 11.08 9.95
2 -3 -9 -2.5 8.21
-2 -3 9 -5.12 7.44
2 -3 -9 -9.27 10
2 3 -9 4.33 9.04
2 3 -9 5.69 6.01
-2 -3 9 -1.26 10.97
1 -3 -9 63.77 11.19
1 3 -9 56.67 10.5
1 3 -9 54.28 10.25
1 -3 -9 72.05 12.24
1 3 -9 46.86 8.81
1 3 -9 66.53 11.78
0 -3 -9 169.87 16.99
0 3 -9 199.53 14.78
0 3 -9 186.19 14.36
0 -3 -9 190.8 17.07
0 3 -9 202.84 16.84
0 3 -9 164.77 16.82
0 -3 -9 182.66 16.76
0 3 -9 186.88 17.55
0 -3 -9 202.67 16.4
-1 3 -9 55.57 9.09
-1 3 -9 33.9 8.95
-1 3 -9 46.45 11.38
-1 -3 -9 61.06 7.65
-1 -3 -9 53.01 11.26
-1 -3 -9 69.6 12.58
-1 -3 -9 30.66 6.35
-1 -3 -9 23.86 10.11
-1 3 -9 44.88 10.86
-1 -3 -9 38.81 11.16
-2 3 -9 10.09 7.59
-2 3 -9 6.73 8.13
-2 -3 -9 2.85 5.55
-2 3 -9 23.71 11
-2 -3 -9 14.98 10.39
-2 -3 -9 22.53 9.82
-2 -3 -9 12.14 7.21
-2 3 -9 10.98 10.57
-2 -3 -9 33.68 10.83
-3 3 -9 17.69 8.37
-3 -3 -9 19.45 5.3
-3 3 -9 14.17 8.34
-3 3 -9 13.56 12.41
-3 -3 -9 12.32 9.79
-3 -3 -9 7.69 6.23
-3 3 -9 11.5 11.02
-3 -3 -9 6.76 10.7
-3 -3 -9 6.3 8.82
-3 3 -9 15.91 11.21
-3 -3 -9 2.64 9.74
-4 3 -9 19.02 8.8
-4 -3 -9 27.21 8.15
-4 3 -9 34.07 12.49
-4 -3 -9 1.21 10.4
-4 3 -9 9.89 9.83
-4 3 -9 2.86 11.42
-4 -3 -9 14.2 11.2
-4 3 -9 6.1 12.03
-4 -3 -9 8.6 11.89
-4 -3 -9 3.33 11.49
-4 -3 -9 7.56 12.63
-4 3 -9 37.1 12.86
-5 3 -9 11.45 8.67
-5 -3 -9 -1.59 13.63
-5 3 -9 13.78 12.85
-5 -3 -9 18.17 12.35
-5 3 -9 24.86 12.14
-5 3 -9 12.06 10.46
-5 -3 -9 23.8 11.07
-5 -3 -9 10.55 12.88
-5 3 -9 28.9 12.83
-6 3 -9 -1.63 14.07
-6 -3 -9 -21.07 12.93
-6 3 -9 9.43 11.7
-6 3 -9 13.06 11.72
-6 -3 -9 18.99 11.13
-6 -3 -9 1.53 14.69
-6 -3 -9 -1.69 13.4
-6 3 -9 4.15 12.92
-7 3 -9 -12.87 13.79
-7 3 -9 1.25 12.5
-7 3 -9 2.26 10.65
-7 -3 -9 21.69 12.03
-7 3 -9 -6.89 14.95
-7 -3 -9 13.67 13.57
-7 -3 -9 30.04 15.88
-8 -3 -9 34.57 16.84
-8 3 -9 7.47 13.56
-8 3 -9 22.5 13.72
-8 -3 -9 51.42 12.85
-9 -3 -9 34.05 17.91
-15 -4 9 14.77 24.51
14 -4 -9 -1.18 12.64
-14 -4 9 34.34 24.32
-14 4 9 -5.45 19.03
-13 4 9 52.75 18.98
13 -4 -9 3.72 13.18
-13 -4 9 27.5 20.58
-13 4 9 1.64 16.76
-12 4 9 35.42 17.78
12 -4 -9 21.7 13.04
-12 -4 9 34.89 19.49
-12 4 9 27.68 15.71
-11 -4 9 29.03 15.77
-11 4 9 42.87 16.78
-11 4 9 53.05 17.52
11 -4 -9 39.01 13.77
-11 -4 9 80.61 20.23
11 4 -9 47.08 15.59
-11 4 9 43.28 15.05
-10 -4 9 53.44 15.95
-10 4 9 92.97 17.84
-10 4 9 52.74 16.69
-10 -4 9 85.58 18.33
10 4 -9 70.52 14.76
-10 4 9 67.03 14.2
-9 -4 9 72.14 16.07
-9 -4 9 89.77 18.63
-9 4 9 86.97 15.87
9 4 -9 70.73 14.14
-9 4 9 65.6 11.9
-9 -4 9 72.3 15.91
-9 4 9 57.4 15.28
-8 -4 9 60.6 14.91
-8 -4 9 38.41 15.14
-8 4 9 39.47 13.87
8 4 -9 53.42 13.02
-8 4 9 34.24 9.23
-8 -4 9 56.97 14.65
-8 4 9 48.63 14.41
-7 -4 9 150.98 18.78
-7 4 9 138.62 17.41
-7 -4 9 144.08 16.79
7 4 -9 130.26 15.82
-7 4 9 152.81 17.21
-7 -4 9 155.56 17.98
-7 4 9 162.32 17.97
-7 -4 9 173.58 18.06
-6 -4 9 114.14 14.45
-6 4 9 70.91 13.23
-6 4 9 82.02 13.8
6 4 -9 73.2 13.51
-6 -4 9 83.42 14.23
-5 4 9 -2.2 10.26
-5 -4 9 5.08 10.48
-5 4 9 5.11 10.83
5 4 -9 7.71 10.77
-5 -4 9 -4.24 11.84
-4 4 9 41.91 10.52
4 -4 -9 71.69 12.82
4 4 -9 22.77 10.98
-4 -4 9 36.72 12.13
-4 -4 9 69.53 13.21
-4 4 9 58.74 12.63
4 4 -9 39.77 7.75
-3 4 9 55.6 10.27
3 4 -9 57.16 11.61
3 -4 -9 55.3 10.83
-3 -4 9 73.35 13.53
3 -4 -9 81.77 12.42
3 4 -9 72.49 11.71
-3 4 9 74.38 13.72
-3 -4 9 65.86 9.74
-3 -4 9 79.39 13.42
3 4 -9 62.56 8.66
-2 4 9 0.72 7.55
2 4 -9 9.83 9.93
2 -4 -9 6.26 9.32
-2 -4 9 8.58 8.07
2 4 -9 -5.57 9.39
2 4 -9 7.49 9.58
2 -4 -9 7.81 9.53
2 4 -9 4.93 7.5
-2 4 9 -5.12 10.86
-2 -4 9 1.26 10.31
1 4 -9 12.51 9.94
1 -4 -9 12.76 9.45
1 4 -9 9.62 9.24
1 4 -9 13.51 8.8
1 -4 -9 2.56 9.03
1 4 -9 15.71 8.79
0 4 -9 24.7 10.82
0 -4 -9 25.61 10.75
0 4 -9 23.01 10.21
0 -4 -9 -8.22 10.31
0 4 -9 18.2 9.45
0 4 -9 4.93 8.83
0 -4 -9 21.55 10.39
0 4 -9 14.03 10.41
0 -4 -9 9.09 9.77
-1 4 -9 26.61 9.63
-1 4 -9 40.44 9.17
-1 -4 -9 24.86 6.29
-1 4 -9 22.6 10.52
-1 -4 -9 15.04 10.22
-1 -4 -9 37.4 11.15
-1 -4 -9 20.83 5.7
-1 -4 -9 37.16 11.39
-1 4 -9 11.99 9.81
-1 -4 -9 21.09 11.23
-2 4 -9 16.25 8.99
-2 4 -9 21.34 8.84
-2 -4 -9 4.28 5.66
-2 -4 -9 1.24 10.73
-2 4 -9 12.46 10.28
-2 -4 -9 1.25 9.76
-2 -4 -9 -10.12 8.03
-2 4 -9 8.31 10.65
-2 -4 -9 -6.41 10.83
-3 -4 -9 -6.59 11.23
-3 4 -9 -2.44 8.64
-3 4 -9 0.8 8.59
-3 -4 -9 -5.47 6.2
-3 -4 -9 9.79 9.59
-3 -4 -9 -12.79 10.93
-3 4 -9 36.28 12.5
-3 -4 -9 4.01 10.47
-3 4 -9 1.32 10.82
-4 4 -9 -0.82 8.76
-4 4 -9 8.03 11.78
-4 -4 -9 -8.46 10.63
-4 4 -9 -1.43 11.99
-4 -4 -9 7.09 11.6
-4 4 -9 9.23 12.33
-4 -4 -9 32.62 12.61
-4 -4 -9 14.74 11.72
-4 -4 -9 -6.21 13.57
-4 4 -9 3.57 10.86
-5 4 -9 0.83 9.14
-5 4 -9 25.97 13.78
-5 -4 -9 7.54 12.13
-5 4 -9 -5.06 11.79
-5 -4 -9 -4.78 10.67
-5 4 -9 5.73 11.14
-5 -4 -9 4.53 12.25
-5 4 -9 -3.27 12.91
-5 -4 -9 -5.41 13.01
-5 -4 -9 -26.19 15.49
-5 4 -9 -10.12 11.94
-6 4 -9 7.93 12.28
-6 4 -9 -19.61 13.91
-6 -4 -9 11.3 13.16
-6 4 -9 17.99 12.14
-6 4 -9 -4.94 11.69
-6 -4 -9 17.15 12.02
-6 -4 -9 -9.42 16.6
-6 -4 -9 -19.07 15.69
-7 4 -9 6.89 13.6
-7 4 -9 9.15 12.93
-7 4 -9 -1.13 10.82
-7 -4 -9 15.89 11.82
-7 4 -9 -6.89 15.27
-7 -4 -9 12.75 15.87
-7 -4 -9 6.81 12.79
-8 -4 -9 65.5 18.8
-8 4 -9 40.23 14.98
-8 4 -9 27.47 14.79
-9 -4 -9 19.46 18.04
-15 -5 9 15.18 25.67
14 -5 -9 12.27 11.47
-14 -5 9 80.36 26.51
-14 5 9 28.5 19.04
13 -5 -9 9.37 12.31
-13 -5 9 2.19 21.58
-13 5 9 33.51 18.13
-12 5 9 23.17 17.41
12 -5 -9 7.36 11.8
-12 -5 9 2.02 19.09
-12 5 9 -1.41 14.8
-11 -5 9 1.71 15.24
-11 5 9 -19.76 15.87
11 -5 -9 10.12 12.06
-11 -5 9 10.98 17.85
11 5 -9 35.07 14.91
-11 5 9 4.94 13.31
-10 -5 9 38.97 15.48
-10 5 9 46.77 15.03
10 -5 -9 27.06 12.2
-10 -5 9 32.73 16.97
10 5 -9 34.66 14.64
-10 5 9 33.38 13.01
-9 -5 9 29.83 13.79
-9 -5 9 5.73 16.26
-9 5 9 12.38 13.77
9 -5 -9 2.62 11.48
9 5 -9 34.12 13.63
-9 5 9 -0.83 10.79
-9 -5 9 15.44 13.74
-8 -5 9 10.99 12.86
-8 5 9 21.77 12.84
-8 -5 9 30.26 15.74
-8 5 9 28.56 13.07
8 -5 -9 1.32 11.26
8 5 -9 21.43 12.01
-8 5 9 22.89 8.58
-8 -5 9 4.39 12.49
-7 5 9 63.24 13.82
-7 -5 9 46.37 13.3
-7 5 9 84.02 15.07
7 -5 -9 54.11 12.38
7 5 -9 73.96 13.96
-7 -5 9 42.2 14.01
-7 -5 9 66.11 14.21
-6 -5 9 41.15 12.7
-6 5 9 58.99 13.35
6 -5 -9 77.81 13.41
6 5 -9 61.95 12.33
-6 -5 9 77.2 13.99
-6 5 9 71.69 13.64
-5 -5 9 -3.83 10.91
-5 5 9 8.65 10.14
-5 5 9 1.28 10.92
5 5 -9 -6.88 10.96
-5 -5 9 4.28 11.19
-5 5 9 6.52 11.39
5 5 -9 -1.38 8.14
-4 5 9 27.72 9.99
4 5 -9 31.58 10.95
-4 -5 9 62.21 13.32
-4 -5 9 19.68 11.77
-4 5 9 46.18 12.62
-4 5 9 38.54 13.03
4 5 -9 27.59 8.57
-3 5 9 254.62 16.79
-3 -5 9 266.68 17.53
3 5 -9 247.14 18.85
3 -5 -9 250.8 19.44
-3 -5 9 260.77 20.07
-3 5 9 220.2 19.9
3 5 -9 221 16.41
-3 -5 9 268.22 20.55
-3 5 9 255.29 20.33
3 -5 -9 246.95 19.22
-2 5 9 169.69 13.42
-2 -5 9 191.53 14.98
2 5 -9 277.64 17.87
2 5 -9 226.11 16.61
2 -5 -9 222.52 17.98
-2 -5 9 214.27 18.43
2 5 -9 191.59 15.07
2 -5 -9 185.31 17.26
-2 5 9 163.41 17.61
1 5 -9 204.54 16.54
-1 -5 9 193.07 15.1
1 5 -9 211.72 15.99
1 -5 -9 212.24 17.36
1 5 -9 176.95 15.93
1 -5 -9 183.79 17.49
0 5 -9 444.19 24.3
0 5 -9 381.75 22.91
0 -5 -9 396.15 25.13
0 -5 -9 412.16 26.25
0 5 -9 431.81 26.57
0 -5 -9 390.31 25.84
-1 5 -9 433.33 25.8
-1 5 -9 463.19 25.41
-1 -5 -9 484.68 28.14
-1 -5 -9 485.97 22.57
-1 -5 -9 472.84 27.7
-1 -5 -9 433.38 28.31
-1 5 -9 441.14 27.99
-1 -5 -9 458.4 28.37
-2 5 -9 335.8 20.94
-2 5 -9 327.58 20.61
-2 -5 -9 319.45 16.56
-2 -5 -9 314.68 22.46
-2 -5 -9 338.09 19.05
-2 5 -9 332.68 23.73
-2 -5 -9 328.82 23.19
-2 -5 -9 360.45 23.66
-3 5 -9 292.76 19.65
-3 5 -9 309.58 19.33
-3 -5 -9 316.34 21.21
-3 -5 -9 254.79 19.68
-3 -5 -9 277.66 21.95
-3 5 -9 319.08 23.18
-3 -5 -9 271.5 21.85
-3 5 -9 300.16 21.03
-4 5 -9 227.58 17.54
-4 -5 -9 245.33 18.76
-4 -5 -9 281.66 21.87
-4 -5 -9 266.93 20.4
-4 5 -9 268.54 21.92
-4 -5 -9 224.1 20.47
-4 5 -9 235.34 19.35
-4 -5 -9 218.43 22.59
-5 5 -9 235.14 17.05
-5 5 -9 208.47 19.03
-5 5 -9 194.19 18.94
-5 -5 -9 220.8 18.31
-5 -5 -9 247.77 21.58
-5 -5 -9 183 21.43
-5 -5 -9 235.54 20.24
-5 5 -9 212.17 21.1
-5 -5 -9 192.88 20.83
-5 5 -9 200.2 18.75
-6 5 -9 154.14 17.54
-6 -5 -9 143.21 19.4
-6 5 -9 142.92 16.61
-6 5 -9 133.97 17.1
-6 -5 -9 150.49 16.67
-6 -5 -9 229.42 22.64
-7 -5 -9 117.09 19.3
-7 5 -9 131.1 17.44
-7 5 -9 116.01 16.57
-7 -5 -9 82.16 14.4
-7 -5 -9 106.41 20.59
-8 -5 -9 86.55 20.66
-8 5 -9 82.85 16.91
-9 -5 -9 69.99 21.22
-15 -6 9 28.69 27.11
-14 -6 9 14.65 24.13
-14 6 9 39.91 18.74
13 -6 -9 56.36 13.19
-13 -6 9 38.61 22.29
-13 6 9 27.9 16.92
-12 6 9 -1.9 16.11
12 -6 -9 25.87 12.32
-12 -6 9 60.79 21.63
-12 6 9 30.17 15.44
-11 -6 9 67.08 17.8
-11 6 9 38.71 16.68
11 -6 -9 66.61 13.55
-11 -6 9 26.82 19.17
11 6 -9 52.03 15.49
-11 6 9 46.54 14.41
-10 -6 9 78.28 17.59
-10 6 9 73.54 15.52
10 -6 -9 72.19 13.74
10 6 -9 91.14 17.04
-10 6 9 88.85 13.92
-9 -6 9 102.28 17.18
-9 6 9 112.03 16.61
9 -6 -9 78.57 13.78
9 6 -9 106.37 16.09
-9 6 9 72.82 12.02
-9 -6 9 66.6 16.22
-8 -6 9 55.52 15
-8 6 9 82.3 15.96
-8 -6 9 65 14.15
-8 6 9 82.61 14.66
8 -6 -9 67.87 13.79
8 6 -9 79.14 14.54
-8 6 9 73.08 9.75
-8 -6 9 45.6 14.41
-7 6 9 96.45 15.09
7 -6 -9 119.9 14.72
7 6 -9 145.73 16.35
-7 -6 9 142.75 17.75
-7 -6 9 107.7 15.64
-7 -6 9 137.09 16.87
-7 6 9 139.53 16.42
-6 6 9 152.83 16.44
6 -6 -9 180.6 16.79
6 6 -9 135.13 16.05
-6 -6 9 131.56 16.32
-6 -6 9 163.76 17.69
-6 6 9 149.21 16.68
6 6 -9 151.54 14.27
-5 6 9 220.7 17.53
5 6 -9 180.6 17.48
-5 -6 9 211.1 18.62
-5 6 9 214.85 19.04
5 6 -9 245.28 16.48
-5 -6 9 177.58 18.6
-4 6 9 278.23 18.37
4 6 -9 249.47 19.32
-4 -6 9 305.33 21.35
4 6 -9 251.04 17.68
-4 -6 9 230.19 20.76
-4 6 9 245.78 20.87
-3 6 9 4.02 8.41
-3 -6 9 -1.27 11.42
3 6 -9 -1.03 9.76
3 6 -9 8.92 10.62
3 -6 -9 -3.68 10.57
3 -6 -9 2.56 9.37
-3 -6 9 2.62 8.87
3 6 -9 10.35 9.67
-2 6 9 -1.99 7.1
2 -6 -9 2.5 10.12
2 6 -9 -1.08 9.44
2 6 -9 4.93 9.66
-2 -6 9 10.37 9.34
2 -6 -9 16.55 10.33
2 6 -9 3.64 10.12
-2 -6 9 2.52 11.32
1 -6 -9 33.19 11.61
-1 -6 9 30.02 9.6
1 6 -9 41.75 11.35
1 6 -9 32.76 10.11
1 -6 -9 47.98 10.86
1 6 -9 45.59 11.53
0 6 -9 11.93 10.98
0 -6 -9 13.12 11.15
0 6 -9 3.04 10.13
0 6 -9 12.46 9.39
0 -6 -9 -7.53 9.84
0 -6 -9 -1.3 11.21
-1 6 -9 -3 9.98
-1 6 -9 7.91 9.27
-1 -6 -9 -4.89 5.59
-1 -6 -9 -11.18 9.87
-1 -6 -9 -3.99 10.87
-1 -6 -9 9.65 11.5
-1 6 -9 13.57 11.24
-1 -6 -9 27.86 12.29
-2 6 -9 18.03 10.9
-2 6 -9 -6.17 9.46
-2 -6 -9 4.93 10.04
-2 -6 -9 14.75 8.39
-2 -6 -9 -1.25 10.96
-2 6 -9 4.24 10.86
-2 -6 -9 4.99 12.08
-3 6 -9 -2.98 10.35
-3 -6 -9 -10.49 12.45
-3 6 -9 -1.8 9.76
-3 -6 -9 -1.22 9.53
-3 -6 -9 -6.64 10.84
-3 6 -9 5.9 11.35
-3 -6 -9 41.67 12.55
-3 6 -9 6.23 10.54
-4 6 -9 15.83 10.15
-4 -6 -9 -6.1 9.35
-4 -6 -9 23.79 13.26
-4 -6 -9 30.85 12.8
-4 6 -9 15.66 12.56
-4 -6 -9 23.5 13.14
-4 -6 -9 -6.54 14.13
-4 6 -9 30.83 11.71
-5 6 -9 -8.59 10.21
-5 6 -9 5.27 12.4
-5 -6 -9 -2.99 13.72
-5 -6 -9 -10.09 10.32
-5 6 -9 -8.28 13.38
-5 -6 -9 25 14.18
-5 -6 -9 32.72 16.15
-5 6 -9 6.98 11.71
-6 6 -9 30.2 12.96
-6 -6 -9 24.03 15.54
-6 6 -9 -6.12 12.05
-6 6 -9 1.34 12.52
-6 -6 -9 -13.88 11.26
-6 -6 -9 -12.77 16
-7 6 -9 5.07 12.82
-7 -6 -9 -13.58 16.07
-7 6 -9 4.26 14.3
-7 -6 -9 13.4 16.73
-8 -6 -9 37.52 19.33
-8 6 -9 41.68 16.09
-9 -6 -9 32.8 20.19
-9 6 -9 17.07 15.9
-15 -7 9 13.43 26.67
-14 -7 9 40.36 26.12
13 -7 -9 11.87 11.88
-13 -7 9 4.71 23.22
-13 7 9 -10.63 16.57
-12 7 9 41.13 18.29
12 -7 -9 1.13 11.57
-12 -7 9 -28.39 21.55
-12 7 9 -9.37 15.03
-11 -7 9 6.9 16.03
-11 7 9 -1.74 15
11 -7 -9 -2.36 11.19
-11 -7 9 -5.99 18.42
-11 7 9 -10.44 13.25
-10 7 9 1.65 14.09
-10 -7 9 5.37 15.48
-10 7 9 19.29 14.35
10 -7 -9 14.54 11.55
10 7 -9 7.89 14.04
-10 7 9 6.87 11.12
-10 -7 9 11.48 14.95
-9 -7 9 5.09 13.64
-9 7 9 11.9 12.81
9 -7 -9 22.23 11.36
9 7 -9 -27.07 13.88
-9 7 9 5.51 10.11
-9 -7 9 -17.09 15.2
-9 7 9 7.87 13.9
-8 -7 9 -9.64 12.98
-8 7 9 -4.31 12.87
-8 -7 9 9.74 12.24
-8 7 9 24.69 13.26
8 -7 -9 3.76 10.29
8 7 -9 -2.87 12.6
-8 7 9 1.71 7.88
-8 -7 9 -20.71 14.59
-8 7 9 2.99 13.51
-7 7 9 -0.89 5.12
-7 7 9 3.78 11.43
7 -7 -9 -11.39 10.9
7 7 -9 17.93 12.86
-7 7 9 -1.38 3.87
-7 -7 9 -8.01 12.41
-7 -7 9 -1.42 12.54
-7 -7 9 -7.72 12.31
-7 7 9 -5.44 11.98
-6 7 9 14.97 10.94
6 -7 -9 -2.54 10.07
6 7 -9 7.85 11.72
-6 -7 9 11.67 11.82
-6 -7 9 10.49 11.96
-6 7 9 5.25 11.27
6 7 -9 16.67 11.04
-5 -7 9 -2.57 12.4
-5 7 9 2.09 10.06
5 7 -9 2.52 11.29
5 -7 -9 16.6 11.36
-5 -7 9 -1.46 11.07
-5 7 9 -3.85 11.57
5 7 -9 12.44 10.36
-4 7 9 5.54 9.17
4 7 -9 27.96 11.8
-4 -7 9 17.96 11.96
-4 -7 9 21.55 12
-4 7 9 -2.53 12.16
4 7 -9 4.88 10.54
-3 -7 9 10.13 11.66
-3 7 9 4.75 9.05
3 7 -9 1.18 10.52
3 7 -9 8.55 10.48
3 -7 -9 15.26 10.41
-3 -7 9 7.55 9.68
3 7 -9 -2.01 9.94
-2 7 9 5.74 7.18
2 -7 -9 16.26 10.78
2 7 -9 5.73 10.78
2 7 -9 -3.05 9.43
-2 -7 9 8.44 9.21
2 -7 -9 3.8 10.12
2 7 -9 28.15 11.84
-2 -7 9 10.05 11.53
-1 7 9 0.92 6.13
1 -7 -9 3.83 10.69
1 7 -9 -1.11 10.33
-1 -7 9 6.67 9.46
1 7 -9 -4.82 9.27
1 -7 -9 -8.82 10
1 7 -9 4.36 10.7
0 7 -9 -2.68 11.06
0 7 -9 25.07 11.28
0 7 -9 20.46 9.8
0 -7 -9 15 9.99
0 -7 -9 26.06 12.01
-1 -7 -9 -2.39 11.14
-1 7 -9 17.47 10.66
-1 -7 -9 -1.21 11.4
-1 7 -9 8.3 9.24
-1 -7 -9 19.88 6.25
-1 -7 -9 11.18 9.39
-1 -7 -9 3.98 11.31
-1 7 -9 15.07 11.49
-2 7 -9 -7.61 11
-2 7 -9 0.93 9.37
-2 -7 -9 8.61 10.19
-2 -7 -9 2.48 11.76
-2 7 -9 -1.43 11.56
-2 -7 -9 1.23 11.49
-3 7 -9 7.91 11.73
-3 7 -9 19 10.17
-3 -7 -9 6.55 12.47
-3 -7 -9 7.38 10.19
-3 7 -9 23.81 12.86
-3 -7 -9 -16.73 11.57
-3 7 -9 -9.89 11.1
-4 7 -9 -11.84 10.17
-4 -7 -9 3.79 9.98
-4 7 -9 32.59 14.02
-4 -7 -9 -23.6 13.82
-4 7 -9 -14.21 13.89
-4 -7 -9 2.72 12.69
-4 -7 -9 -11.72 14.9
-4 7 -9 6.31 10.85
-5 7 -9 -4.42 11.28
-5 7 -9 30.44 11.72
-5 7 -9 4.55 13.69
-5 -7 -9 -16.39 15.36
-5 -7 -9 8.9 10.23
-5 7 -9 13.35 14.37
-5 -7 -9 14.5 13.73
-5 -7 -9 -8.82 15.24
-6 7 -9 4.62 12.11
-6 7 -9 8.11 14.58
-6 -7 -9 22.29 15.36
-6 7 -9 27.52 13.04
-6 -7 -9 32.14 12.11
-6 7 -9 -11.09 13.1
-6 -7 -9 18.68 16.8
-7 7 -9 -1.71 15.33
-7 -7 -9 6.78 15.84
-7 7 -9 -2.95 14.19
-7 -7 -9 21.56 17.8
-8 -7 -9 14.16 17.94
-8 7 -9 21.7 15.82
-9 -7 -9 10.5 19.69
-9 7 -9 1.61 15.96
-15 -8 9 69.16 29.45
-14 -8 9 65.1 28.26
13 -8 -9 49.6 12.69
-13 -8 9 87.91 25.78
-13 8 9 44.57 17.43
-12 -8 9 92.34 23.27
-12 8 9 92.72 19.39
12 -8 -9 75.59 13.93
-12 -8 9 79.32 23.96
-12 8 9 45.68 16.13
-11 -8 9 88.44 19.22
-11 8 9 85.68 17.68
11 -8 -9 88.14 14.24
-11 8 9 101.82 15.88
-10 8 9 91.36 17.97
-10 -8 9 75.92 18.33
-10 8 9 109.33 17.18
10 -8 -9 85.12 14.3
10 8 -9 121.48 18.19
-10 8 9 109.73 14.26
-10 -8 9 102.14 18.2
-9 -8 9 94.25 17.86
-9 8 9 103.14 16.3
-9 8 9 102.62 15.71
9 -8 -9 72.65 13.11
9 8 -9 86.81 16.56
-9 8 9 102.72 12.16
-9 -8 9 63.91 16.49
-9 8 9 113.73 18.39
-8 8 9 140.06 17.77
-8 8 9 122.53 10.22
-8 -8 9 125.98 16.99
-8 8 9 105.38 15.63
8 -8 -9 102.41 14.56
8 8 -9 137.46 17.24
-8 8 9 137.93 16.85
-8 -8 9 135.04 17.59
-8 8 9 103.62 16.89
-8 8 9 105.57 11.32
-8 -8 9 130.11 18.14
-7 -8 9 211.06 19.22
-7 8 9 167.46 16.65
7 -8 -9 160.05 16.26
7 8 -9 206.63 19.01
-7 8 9 150.66 9.82
-7 8 9 146.06 17.22
-7 8 9 174.41 18.28
-7 -8 9 207.89 19.76
-7 8 9 188.44 18.7
-6 8 9 215.3 17.84
6 8 -9 206.07 19.36
6 -8 -9 211.81 18.01
-6 -8 9 232.52 20.74
-6 8 9 195.82 18.53
6 8 -9 190.78 17.83
-6 -8 9 202.31 19.06
-6 8 9 228.43 19.69
-5 -8 9 48.96 13.3
-5 8 9 53.59 13.06
-5 8 9 64.3 11.76
5 8 -9 68.63 14.24
5 -8 -9 63.38 11.66
-5 -8 9 44.37 13.35
-5 8 9 43.27 12.55
5 8 -9 66.02 13.39
4 8 -9 118.32 15.59
4 8 -9 145.8 15.51
-4 8 9 124.42 13.02
-4 -8 9 123.08 15.9
-4 8 9 131.25 16.12
-4 -8 9 123.38 16.22
-4 8 9 116.5 15.32
4 8 -9 118.47 15.52
3 8 -9 190.5 17.17
-3 8 9 142.51 13.17
-3 -8 9 145.57 16.96
3 8 -9 166.98 15.68
3 8 -9 146.18 15.6
3 -8 -9 111.74 15.09
-3 8 9 177.97 17.49
-3 -8 9 141.1 14.82
3 8 -9 155.4 16.59
2 8 -9 62.2 11.7
-2 8 9 68.12 9.29
2 8 -9 120.46 14.96
2 -8 -9 77.21 13.48
2 8 -9 73.5 12.61
-2 -8 9 68.65 12.01
2 -8 -9 85.89 12.83
2 8 -9 61.89 14.04
-2 -8 9 43.82 12.52
-2 8 9 80.82 14.05
1 8 -9 110.15 13.98
1 -8 -9 102.92 14.82
-1 8 9 88.73 8.57
1 8 -9 99.46 14.1
1 8 -9 100.59 13.01
-1 -8 9 98.14 13.13
1 -8 -9 105.7 13.6
1 8 -9 78.41 14.54
0 8 -9 62.26 13.98
0 8 -9 72.87 13.16
0 -8 9 54.57 11.93
0 8 -9 93.07 12.37
0 -8 -9 80.01 12.49
0 8 -9 82.4 13.44
0 -8 -9 75.55 14.26
-1 -8 -9 5.89 11.05
-1 8 -9 7.09 12.09
-1 8 -9 20.09 10.74
-1 8 -9 12.64 9.55
-1 -8 -9 22.36 10.98
-1 -8 -9 9.66 11.37
-1 8 -9 2.61 10.24
-1 -8 -9 17.24 12.33
-1 8 -9 8.3 11.51
-2 -8 -9 17.39 12.18
-2 8 -9 16.41 11.13
-2 8 -9 19.5 10.12
-2 -8 -9 27.28 10.79
-2 8 -9 22.16 11.25
-2 8 -9 18.67 12.98
-2 -8 -9 32.8 12.29
-3 8 -9 10.04 10.18
-3 8 -9 -10.53 11.46
-3 -8 -9 3.91 12.31
-3 -8 -9 1.27 10.38
-3 8 -9 15.03 13.6
-3 -8 -9 1.27 11.74
-3 8 -9 1.88 9.53
-4 8 -9 6.26 11.48
-4 -8 -9 16.72 10.74
-4 8 -9 11.29 12.38
-4 -8 -9 -2.68 12.67
-4 -8 -9 -9.66 13.27
-4 -8 -9 -18.86 15.09
-4 8 -9 -10.01 10.37
-5 8 -9 20.85 11.62
-5 8 -9 27.94 12.37
-5 8 -9 13.63 14.03
-5 -8 -9 47.87 12.01
-5 -8 -9 46.05 16.33
-5 -8 -9 25.75 13.56
-5 -8 -9 39.7 16.71
-6 8 -9 80.36 14.37
-6 8 -9 61.29 16.65
-6 -8 -9 39.6 16.57
-6 8 -9 80.03 15.21
-6 -8 -9 93.64 19.02
-7 8 -9 27.21 15.52
-7 -8 -9 21.99 16.81
-7 8 -9 27.49 15.65
-7 -8 -9 16.03 17.41
-8 -8 -9 10.36 18.87
-8 8 -9 4.82 15.77
-14 -9 9 -26.93 28.42
13 -9 -9 3.96 10.59
-13 9 9 -13.19 16.27
-12 9 9 16.55 16.19
12 -9 -9 8.47 11.17
-12 9 9 16.76 14.77
-11 9 9 23.2 10.84
-11 9 9 23.77 15.51
11 -9 -9 34.43 11.27
-11 9 9 33.48 13.61
-10 -9 9 -3.65 15.78
-10 9 9 -4.71 13.41
10 -9 -9 -2.31 11.12
10 9 -9 8.34 14.93
-10 9 9 11.32 11.21
-10 -9 9 6.62 15.85
-10 9 9 -1.67 14.85
-9 -9 9 10.37 15.11
-9 9 9 19.59 14.31
-9 9 9 15.92 12.88
9 -9 -9 10.7 10.9
9 9 -9 8.03 14.09
-9 -9 9 -10.95 14.68
-9 9 9 6.34 14.82
-9 9 9 -4.61 9.59
-8 9 9 12.76 13.38
-8 9 9 3.54 6.49
-8 9 9 4 11.22
8 -9 -9 7.3 11.24
8 9 -9 3.1 13.93
-8 -9 9 12.68 13.46
-8 -9 9 8.94 14.2
-8 9 9 13.58 13.7
-8 9 9 9.31 8.24
-8 9 9 14.16 12.95
-8 -9 9 -1.65 13.66
-7 -9 9 9.45 12.19
-7 9 9 13.61 12.49
-7 9 9 1.22 11.18
7 9 -9 19.16 13.44
7 -9 -9 6.19 10.67
-7 9 9 14.48 13.33
-7 9 9 17.54 6.54
-7 -9 9 9.5 13.24
-7 9 9 26.95 13.15
6 9 -9 60.1 14.52
-6 9 9 66.86 12.52
-6 -9 9 76.29 14.65
6 -9 -9 55.1 12.5
-6 9 9 68.97 14.6
-6 -9 9 61.61 14.73
6 9 -9 67.65 14.5
-6 9 9 68.87 13.89
-5 9 9 171.16 17.96
-5 9 9 186.88 16
5 9 -9 200.14 18.89
5 -9 -9 190.28 17.45
-5 -9 9 173.8 19.3
-5 9 9 164.13 17.8
5 9 -9 170.78 18.33
-5 -9 9 177.14 18.13
4 9 -9 205.17 19.02
-4 9 9 160.88 14.54
4 9 -9 193.22 17.74
-4 -9 9 171.51 17.55
-4 9 9 163.99 18.17
-4 -9 9 222.51 19.64
-4 9 9 168.74 17.25
4 9 -9 163.4 17.95
-3 -9 9 116.13 16.1
-3 9 9 165.49 13.31
-3 9 9 155.04 17.26
3 9 -9 175.92 17.99
3 9 -9 141.58 15.56
-3 -9 9 143.51 15.76
3 9 -9 161.43 17.82
-2 9 9 131.83 11.17
2 9 -9 114.41 16.11
2 9 -9 137.61 15.24
2 -9 -9 116.57 15.51
2 9 -9 113.65 14.07
-2 -9 9 112.62 14.3
2 -9 -9 121.37 14.32
2 9 -9 130.33 16.89
-2 -9 9 158.34 16.68
-2 9 9 119.09 15.72
-1 9 9 247.63 14.83
1 9 -9 307.37 21.73
-1 -9 9 266.03 20.35
1 9 -9 283.4 19.78
1 -9 -9 265.6 20.3
1 9 -9 308.02 23.64
1 9 -9 298.67 21.08
1 -9 -9 303.94 22.26
0 9 -9 449.78 27.63
0 -9 9 414.14 26.26
0 9 -9 451.55 25.8
0 -9 -9 460.73 26.86
0 9 -9 411.39 26.68
0 -9 -9 389.4 27.1
-1 9 -9 258.96 20.4
-1 9 -9 239.76 18.33
-1 9 -9 253.4 19.51
-1 -9 -9 238.23 20.14
-1 -9 -9 204.05 18.33
-1 9 -9 257.9 20.21
-1 -9 -9 250.26 20.92
-1 -9 -9 228.11 19.52
-2 9 -9 151.38 17.06
-2 -9 -9 146.26 16.41
-2 9 -9 154.41 14.95
-2 -9 -9 176.64 16.23
-2 9 -9 150.36 13.96
-2 -9 -9 162.7 16.65
-3 9 -9 161.44 15.54
-3 9 -9 119.49 16.49
-3 -9 -9 136.05 16.21
-3 -9 -9 150.61 16.21
-3 -9 -9 132.55 16.07
-3 9 -9 135.33 13.82
-4 9 -9 60.36 13.09
-4 -9 -9 83.59 12.69
-4 -9 -9 43.5 14.32
-4 9 -9 51.9 14.06
-4 -9 -9 49.1 16.11
-4 -9 -9 74.04 15.4
-5 9 -9 128.12 16.33
-5 9 -9 110.23 17.64
-5 -9 -9 145.64 15.47
-5 -9 -9 140.41 19
-5 -9 -9 109.97 17.63
-5 -9 -9 121.75 19.25
-6 9 -9 266.39 21.63
-6 9 -9 247.19 23.6
-6 -9 -9 267.71 24.19
-6 -9 -9 230.93 23.13
-6 -9 -9 283.13 26.03
-7 9 -9 98.24 19.68
-7 -9 -9 84.33 18.57
-7 -9 -9 120.8 21.96
-8 -9 -9 21.15 19.03
-8 9 -9 21.59 17.05
-14 -10 9 30.5 26.76
-12 10 9 1.06 11.6
12 -10 -9 -8.17 11.19
-12 10 9 -10.28 13.89
-11 -10 9 -5.83 16.85
-11 10 9 12.16 10.73
-11 10 9 15.22 15.35
11 -10 -9 4.32 11.37
-11 10 9 -3.34 12.4
-10 -10 9 16.59 16.57
-10 10 9 17.2 14.57
10 -10 -9 -4.51 10.97
-10 -10 9 -11.61 15.45
-10 10 9 0.94 11.11
-10 10 9 5.03 15.71
-9 -10 9 10.47 15.9
-9 10 9 6 14.28
-9 -10 9 13.31 13.83
-9 10 9 -5.77 12.7
9 -10 -9 1.17 10.49
9 10 -9 3.33 14.18
-9 -10 9 3.14 14.65
-9 10 9 -14.29 15.26
-9 10 9 -5.4 9.84
-8 10 9 7.03 12.68
-8 -10 9 -11.3 13.37
-8 10 9 25.57 14.1
-8 10 9 3.99 11.95
8 10 -9 -4.79 13.95
8 -10 -9 21.55 11.44
-8 -10 9 -11.98 14.4
-8 10 9 -10.59 14.72
-8 10 9 19.78 8.45
-8 -10 9 -6.67 14.95
-7 10 9 16.41 12.62
7 10 -9 36.88 14.64
-7 10 9 1.22 11.42
7 -10 -9 -6.11 11.14
-7 -10 9 -3.21 13.39
-7 10 9 9.11 6.81
-7 10 9 22.77 12.76
-7 -10 9 10.84 12.76
-6 -10 9 -9.26 12.64
6 10 -9 16.42 13.51
-6 10 9 -6.64 10.64
-6 10 9 -1.34 11.83
6 -10 -9 4.96 10.52
-6 -10 9 6.22 13.08
6 10 -9 -4.09 13.04
-6 10 9 -1.29 11.9
5 10 -9 -6.26 11.28
5 10 -9 17.54 13.45
-5 10 9 -1 9.88
5 -10 -9 -10.03 11.94
-5 -10 9 2.6 12.44
-5 -10 9 6.06 12.95
-5 10 9 -1.26 12.24
5 10 -9 27.53 14.66
-5 10 9 -6.62 12.46
4 10 -9 14.29 12.85
4 10 -9 14.54 11.93
-4 -10 9 3.83 11.65
-4 10 9 25.63 10.11
-4 10 9 3.98 11.51
-4 -10 9 -4.43 13.13
-4 10 9 3.68 11.58
4 10 -9 5.55 13.75
-3 10 9 100.28 15.09
3 10 -9 116.92 15.74
3 10 -9 81.68 13.64
-3 10 9 90.14 10.71
-3 -10 9 73.02 12.91
3 10 -9 61.36 15.59
-3 -10 9 108.32 14.72
2 10 -9 2.72 11.97
2 10 -9 8.51 9.99
2 10 -9 10 10.4
-2 10 9 11.9 7.43
2 -10 -9 17.22 11.4
-2 -10 9 9.24 11.04
2 -10 -9 5.06 10.35
2 10 -9 21.15 14.27
-2 10 9 3.93 11.89
1 10 -9 8.61 10.39
1 -10 -9 10.08 11.29
1 10 -9 6.72 12.13
-1 10 9 -4.41 6.03
1 10 -9 5.37 10.32
-1 -10 9 19.72 11.77
1 -10 -9 -6.32 10.08
1 10 -9 1.44 14.07
0 -10 -9 2.58 11.24
0 10 -9 -10.84 13.26
0 -10 9 -4.75 10.99
0 10 -9 9.53 10.54
0 -10 -9 -2.53 10.25
0 10 -9 10.1 10.21
-1 -10 -9 16 11.67
-1 10 -9 25.64 13.06
-1 10 -9 16.88 10.8
-1 10 -9 21.12 10.77
-1 -10 -9 20.7 11.03
-1 -10 -9 22.73 12.22
-1 10 -9 3.9 10.3
-1 -10 -9 -2.64 11.54
-2 10 -9 31.93 12.06
-2 10 -9 24.63 11.11
-2 -10 -9 3.71 11.6
-2 -10 -9 36.78 11.4
-2 -10 -9 10.85 12.76
-2 10 -9 25.45 9.18
-2 -10 -9 43.45 12.43
-3 10 -9 -8.88 11.28
-3 10 -9 -14.37 11.86
-3 -10 -9 15.79 10.58
-3 -10 -9 3.86 12.06
-3 -10 -9 9.82 12.25
-4 -10 -9 13.64 13.38
-4 10 -9 3.46 12.19
-4 -10 -9 -1.33 11.29
-4 -10 -9 -6.46 12.5
-4 -10 -9 10.77 14.31
-4 10 -9 2.79 12.77
-5 10 -9 -4.76 11.91
-5 10 -9 12.06 14.05
-5 -10 -9 21.91 14.87
-5 -10 -9 22.19 14.41
-5 -10 -9 17 16.21
-6 10 -9 9.81 13.72
-6 10 -9 7.97 14.95
-6 -10 -9 17.25 14.89
-6 -10 -9 -2.97 14.9
-6 -10 -9 -5.98 16.45
-7 10 -9 -5.05 16.53
-7 -10 -9 13.43 17.3
-7 -10 -9 -8.36 17.8
-8 -10 -9 -2.16 18.73
10 -10 9 -5.99 13.16
-12 11 9 -27.43 18.2
12 -11 -9 20.2 11.5
-12 11 9 12.77 13.79
-11 -11 9 -13.7 17.65
-11 11 9 -12.1 10.82
-11 11 9 8.48 14.87
11 -11 -9 20.06 11.68
-11 11 9 4.42 12.89
-10 -11 9 20.43 16.46
-10 11 9 -9.42 13.91
10 -11 -9 7.73 11.11
-10 -11 9 14.94 16.2
-10 11 9 1.68 16.32
-10 11 9 -15.99 12.06
-9 11 9 -2.97 13.82
-9 -11 9 -1.49 14.02
-9 11 9 27.53 13.5
9 11 -9 13.78 16.26
-9 11 9 13.37 14.28
9 -11 -9 -1.15 10.58
-9 -11 9 -15.75 15.9
-9 11 9 12.72 15.74
-9 11 9 2.34 9.61
-9 -11 9 12.34 15.58
8 11 -9 6.6 14.97
-8 11 9 -13.31 12.09
8 -11 -9 21.3 11.71
-8 -11 9 11.33 12.78
-8 -11 9 1.5 14.01
-8 11 9 10.63 14.85
-8 11 9 -5.69 13.01
-8 -11 9 16.88 15.63
-8 11 9 10.58 8.22
-8 11 9 -1.4 13.18
7 11 -9 17.65 15.16
-7 11 9 6.09 11.48
7 -11 -9 19.37 10.91
-7 -11 9 -1.36 13.29
-7 -11 9 21.15 14.89
-7 11 9 33.22 13.39
-7 11 9 30.21 13.42
-7 11 9 21.21 7.39
-6 -11 9 5.31 12.68
-6 11 9 17.54 13.05
6 11 -9 -1.32 12.04
6 11 -9 9.38 13.96
-6 11 9 7.75 10.68
6 -11 -9 22.19 11.12
-6 11 9 -2.43 6.54
-6 -11 9 10.98 13.86
6 11 -9 13.5 15.54
-6 11 9 12.84 12.67
-6 11 9 12.2 5.36
5 11 -9 19.96 13.99
5 11 -9 34.79 13.33
-5 11 9 9.99 10.33
5 -11 -9 33.7 11.98
-5 -11 9 45.72 13.3
-5 -11 9 22.98 14.32
-5 11 9 52.28 12.85
5 11 -9 25.65 15.27
-5 11 9 20.02 13.11
4 11 -9 53.94 15.53
-4 -11 9 78.05 14.49
4 11 -9 44.91 12.62
-4 11 9 67.9 13.66
-4 11 9 57.38 11.16
4 -11 -9 44.07 11.92
4 11 -9 59.19 16.94
-3 11 9 23.79 12.7
3 11 -9 24.87 13.27
3 11 -9 33.66 12.23
-3 11 9 21.31 8.54
-3 -11 9 3.7 11.91
3 11 -9 39.45 15.29
-3 -11 9 17.61 13.13
2 11 -9 10.04 12.89
2 11 -9 13.77 11.34
2 11 -9 36.28 11.81
-2 11 9 30.09 8.45
2 -11 -9 43.9 12.35
-2 -11 9 4.91 12.13
2 -11 -9 29.26 11.64
2 11 -9 58.07 16.59
-1 11 9 142.36 10.28
1 11 -9 134.85 15.29
1 11 -9 114.73 16.75
1 -11 -9 135.12 16.03
1 11 -9 123.88 15.14
-1 -11 9 125.67 15.89
1 -11 -9 149.83 15.63
1 11 -9 160.11 19.54
0 11 -9 232.16 21.06
0 -11 -9 194.97 19.36
0 -11 9 218.99 20.11
0 11 -9 262.2 19.13
0 -11 -9 267.6 20.06
0 11 -9 232.84 19.61
0 11 -9 232.55 20.61
-1 11 -9 201.75 19.34
-1 11 -9 199.63 19.57
-1 11 -9 177.56 17.38
-1 -11 -9 215.91 18.72
-1 11 -9 179.06 18.07
-1 11 -9 212.53 17.65
-1 -11 -9 177.37 18.62
-2 11 -9 179.29 16.17
-2 11 -9 166.41 16.87
-2 -11 -9 123.53 15.06
-2 11 -9 120.39 16.04
-2 -11 -9 163.28 18.02
-2 -11 -9 132.75 16.41
-2 11 -9 113.47 16.73
-2 -11 -9 159.95 16.21
-3 11 -9 39.55 13.21
-3 -11 -9 67.09 13.58
-3 11 -9 72.65 14.37
-3 -11 -9 62.47 14.06
-3 11 -9 60.34 14.96
-3 -11 -9 44.46 12.97
-4 11 -9 102.76 16.46
-4 11 -9 115.89 16.08
-4 -11 -9 130.07 16.91
-4 11 -9 81.16 16.5
-4 -11 -9 85.19 15.12
-4 -11 -9 78.87 17.87
-5 11 -9 93.58 16.52
-5 11 -9 113.64 18.29
-5 11 -9 115.02 18.57
-5 -11 -9 130.64 18.25
-5 -11 -9 102.69 17.73
-5 -11 -9 127.35 20.29
-6 11 -9 48.98 15.5
-6 11 -9 90.37 17.86
-6 -11 -9 62.47 17.37
-6 11 -9 52.08 18.42
-6 -11 -9 89.3 17.33
-6 -11 -9 73.27 19.52
-7 11 -9 5.02 16.61
-7 -11 -9 -1.67 17.43
-7 -11 -9 34.11 18.63
10 -11 9 2.53 14.3
12 -12 -9 44.34 12.29
-11 -12 9 65.06 20.18
-11 12 9 65.75 13.01
-11 12 9 64.9 17.1
11 -12 -9 59.89 12.71
-11 12 9 33.4 13.75
-10 12 9 111.2 14.91
-10 -12 9 162.59 21.83
-10 12 9 169.33 20.43
-10 12 9 108.59 17.93
10 -12 -9 142.7 15.45
-10 -12 9 131.31 21
-10 12 9 120.77 20.69
-9 12 9 172.26 20.22
-9 12 9 198.21 20.69
-9 12 9 165.42 18.76
9 -12 -9 142.04 15.83
-9 -12 9 164.29 19.72
-9 -12 9 153.08 20.35
-9 12 9 151.39 20.8
-9 -12 9 156.85 21.04
-8 -12 9 142.19 18.21
8 12 -9 135.36 19.17
-8 12 9 136.73 16.43
8 -12 -9 134.84 15.27
-8 12 9 128.35 18.05
-8 12 9 86.87 17.4
-8 -12 9 126.15 19.78
-8 12 9 128.67 16.84
7 12 -9 282.59 25.21
7 12 -9 317.4 23.65
-7 12 9 261.43 21.12
7 -12 -9 316.62 21.85
-7 12 9 263.19 18.3
-7 -12 9 278.05 24.65
-7 12 9 321.21 22.99
-7 -12 9 309.08 23.11
-7 12 9 304 23.41
6 12 -9 205.41 19.7
-6 12 9 202.49 17.85
6 12 -9 201.86 21.91
6 -12 -9 236.09 18.71
-6 12 9 203.76 13.96
-6 -12 9 234.05 20.45
-6 12 9 243.07 20.98
-6 12 9 253.63 20.34
-6 -12 9 222.18 21.85
6 12 -9 164.39 21.39
5 12 -9 245.14 23.07
5 12 -9 303.87 21.78
-5 12 9 234.86 17.82
5 -12 -9 245.02 19.3
-5 -12 9 220.73 19.88
-5 12 9 267.04 21.05
-5 12 9 203.73 12.47
5 12 -9 262.14 24.5
-5 12 9 237.89 20.04
-5 -12 9 183.68 20.61
4 12 -9 251.67 23.57
4 12 -9 320.04 22.16
-4 12 9 237.97 18.15
4 -12 -9 291.2 21.07
-4 -12 9 303.75 22.37
-4 12 9 290.33 22.65
4 12 -9 241.31 24.56
-3 -12 9 219.67 19.5
3 12 -9 195.84 18.38
3 12 -9 193.93 20.81
-3 12 9 187.32 14.46
-3 -12 9 218.04 18.85
3 12 -9 191.55 22.87
-3 12 9 186.37 19.59
2 12 -9 81.99 16.31
-2 12 9 109.35 10.68
2 12 -9 103.56 14.68
2 12 -9 85.49 13.32
-2 -12 9 81.9 14.56
2 12 -9 95.4 18.47
1 12 -9 56.24 14.78
1 12 -9 69.55 12.85
1 -12 -9 71.96 13.79
1 12 -9 58.05 12.79
-1 12 9 60.08 7.77
-1 -12 9 46.93 13.14
1 -12 -9 88.21 14.31
1 12 -9 38.44 17.27
0 12 -9 21.25 10.79
0 -12 -9 22.89 12.46
0 12 -9 10.67 14
0 12 9 15.05 3.68
0 12 -9 28.88 11.62
0 -12 9 34.53 13.31
0 -12 -9 26.78 11.16
-1 12 -9 24.35 12.98
-1 12 -9 1.52 14.39
-1 12 -9 25.32 11.73
-1 -12 -9 29.59 12.15
-1 12 -9 11.62 11.47
-1 -12 -9 13.08 11.9
-2 -12 -9 29.29 12.08
-2 12 -9 2.34 11.88
-2 -12 -9 37.97 13.04
-2 -12 -9 5.42 10.99
-2 12 -9 17.53 11.69
-2 -12 -9 22.81 13.04
-2 12 -9 26.74 12.06
-2 12 -9 40.13 13.61
-3 12 -9 2.44 12.76
-3 12 -9 1.28 11.83
-3 12 -9 4.68 13.02
-3 -12 -9 11.76 11.94
-3 -12 -9 8.89 12.86
-4 12 -9 2.53 13.05
-4 12 -9 1.38 12.78
-4 -12 -9 -2.68 13.72
-4 12 -9 -8.17 14.79
-4 -12 -9 7.48 12.62
-4 -12 -9 -20.62 15.9
-5 12 -9 19.53 13.87
-5 12 -9 41.35 15.68
-5 12 -9 13.81 15.39
-5 -12 -9 29.57 17.07
-5 -12 -9 27.18 14.55
-6 12 -9 9.45 14.2
-6 12 -9 -1.58 15.45
-6 -12 -9 13.93 15.41
-6 12 -9 16.27 16.63
-6 -12 -9 -2.08 17
-7 12 -9 -13.28 17.34
-7 -12 -9 23.27 17.05
-7 -12 -9 -21.73 20.12
9 -12 9 22.33 14.65
10 -12 9 -6.67 15.42
12 -13 -9 8.92 10.87
-11 13 9 10.24 12.89
-11 -13 9 -7.91 17.84
-11 13 9 6.86 16.19
11 -13 -9 -7.4 11.31
-10 13 9 -6.2 15.56
-10 13 9 1.58 14.78
10 -13 -9 8.95 11.35
-10 13 9 9.36 14.95
-10 -13 9 1.66 17.11
-10 -13 9 -7.85 15.62
-10 13 9 -3.35 16.91
-10 -13 9 13.18 17.09
-9 13 9 37.73 15.38
-9 13 9 -10.45 15.06
-9 13 9 4.35 13.39
9 -13 -9 5.84 11.44
-9 -13 9 -3.16 16.16
-9 13 9 1.59 15.42
-9 -13 9 19.39 15.73
-9 -13 9 -5.39 15.87
-8 13 9 1.43 14.01
8 13 -9 23.14 16.33
-8 13 9 -7.98 12.08
8 -13 -9 8.4 11.61
-8 13 9 -9.15 15.18
-8 -13 9 -10.33 15.68
-8 13 9 9.58 13.36
-8 -13 9 25.58 14.26
7 13 -9 1.43 13.83
-7 -13 9 23.36 14.2
7 13 -9 -1.74 14.54
-7 13 9 1.21 11.39
7 -13 -9 28.4 12.08
-7 13 9 13.86 13.56
-7 13 9 2.35 10.57
-7 -13 9 4.97 13.79
-7 13 9 -13.03 12.3
-6 13 9 8.19 13.21
6 13 -9 15.4 13.17
6 13 -9 -3.43 14.65
-6 13 9 -1.1 11.3
6 -13 -9 -12.61 11.29
-6 13 9 -0.62 8.73
-6 -13 9 -9.62 14.52
-6 -13 9 7.98 13.28
-6 13 9 5 12.62
5 13 -9 -10.09 15.12
5 13 -9 1.36 12.55
-5 -13 9 -2.6 12.19
-5 13 9 4.99 9.88
5 -13 -9 -10.31 11.18
-5 13 9 -2.73 12.79
-5 -13 9 24.85 14.38
-5 13 9 -1.99 8.21
-5 13 9 -6.08 11.3
5 13 -9 15.87 16.17
-4 -13 9 16.48 12.7
-4 13 9 8.08 12.03
4 13 -9 36.31 15.87
4 13 -9 -1.32 12.25
-4 13 9 -0.89 9.37
4 -13 -9 19.7 11.48
4 13 -9 -3.53 16.08
-4 13 9 12.43 7.18
3 13 -9 35.51 15.27
3 13 -9 96.41 14.62
-3 13 9 69.33 10.84
-3 -13 9 84.34 15.14
-3 -13 9 49.67 13.24
3 13 -9 66.72 18.92
-3 13 9 85.47 15.52
-3 13 9 74.39 7.93
2 13 -9 86.61 17.03
2 13 -9 83.84 13.97
2 13 -9 124.67 14.54
-2 -13 9 82.58 15.13
-2 13 9 66.52 9.78
2 13 -9 65.17 18.59
1 13 -9 72.41 16.04
1 13 -9 80.23 13.91
1 13 -9 63.01 13.36
1 -13 -9 73.59 13.94
-1 -13 9 74.28 14.4
-1 13 9 79.17 8.4
1 -13 -9 86.42 13.78
1 13 -9 73.3 19.83
0 13 9 84.74 6.43
0 13 -9 94.4 14.12
0 13 -9 70.93 17.4
0 -13 -9 93.18 14.73
0 13 -9 86.19 14.32
0 -13 9 85.26 15.78
0 -13 -9 108.86 14.43
-1 13 -9 92.74 15.92
-1 13 -9 90.09 18.02
-1 13 -9 82.88 14.42
-1 -13 -9 98.8 14.67
-1 13 -9 115.74 15.28
-1 -13 -9 79.11 14.79
-2 -13 -9 51.79 13.41
-2 13 -9 62.48 13.65
-2 -13 -9 64.39 14.24
-2 13 -9 65.34 13.6
-2 13 -9 52.28 13.54
-2 -13 -9 46.61 13.95
-2 13 -9 55.42 14.75
-3 13 -9 19.09 13.06
-3 -13 -9 44.21 14.35
-3 -13 -9 42.79 14.33
-3 13 -9 31.3 14.22
-3 13 -9 79.13 14.43
-4 13 -9 39.55 13.77
-4 13 -9 24.65 13.97
-4 -13 -9 45.18 14.5
-4 13 -9 49.45 17.18
-4 -13 -9 23 16.75
-5 -13 -9 24.13 15.3
-5 13 -9 51.71 15.12
-5 13 -9 26.01 17
-5 13 -9 33.67 15.28
-5 -13 -9 -8.07 17.84
-6 13 -9 -5.65 14.52
-6 13 -9 4.71 15.73
-6 -13 -9 16.82 16.49
-7 -13 -9 1.66 18.11
9 -13 9 5.52 14.47
-11 -14 9 49.61 20.62
-11 14 9 -6.91 15.97
11 -14 -9 23.2 11.6
-10 14 9 16.85 15.75
-10 14 9 -4.68 16.36
-10 14 9 -6.34 15.11
10 -14 -9 22.21 12.37
-10 -14 9 12.57 15.95
-10 14 9 8.36 17.33
-10 -14 9 15.16 17.44
-9 14 9 10.02 14.23
-9 -14 9 23.85 15.74
-9 14 9 16.07 14.23
9 -14 -9 46.45 12.69
-9 14 9 6.38 15.49
-9 14 9 14.9 14.85
-9 -14 9 18.1 16.84
-8 14 9 25.42 12.93
8 -14 -9 39.77 12.52
-8 -14 9 28.38 14.72
-8 -14 9 60.87 17.21
-8 14 9 17.58 13.3
-8 14 9 31.52 14.86
-7 -14 9 43.89 14.85
7 14 -9 30.82 14.43
7 14 -9 45.55 17.06
-7 14 9 11.18 13.22
-7 14 9 23.25 12.28
7 -14 -9 26.15 11.89
-7 14 9 4.42 10.89
-7 -14 9 26.68 15.42
-7 14 9 16.78 13.23
6 14 -9 63.28 15.83
6 14 -9 57.34 17.44
-6 14 9 39.98 11.92
6 -14 -9 37.16 12.59
-6 14 9 28.89 11.2
-6 -14 9 31.98 14.51
-6 -14 9 27.48 14.75
-6 14 9 30.96 13.59
-6 14 9 32.99 13.61
5 14 -9 33.37 16.99
5 14 -9 53.3 14.28
-5 -14 9 7.77 12.61
-5 14 9 1.37 13.29
-5 14 9 6.01 10.32
5 -14 -9 18.27 11.66
-5 -14 9 -4.68 14.04
-5 14 9 3.58 11.96
-5 14 9 19.13 9.35
5 14 -9 18.88 17.32
-4 14 9 29.72 13.66
4 14 -9 17.23 15.08
4 14 -9 41.9 14.14
-4 14 9 30.49 10.37
4 -14 -9 27.87 12.48
4 14 -9 35.77 18.33
-4 14 9 5.67 8.64
-4 -14 9 15.14 12.19
3 14 -9 42.28 16.11
3 14 -9 14.44 12.64
-3 14 9 38.43 9.97
-3 -14 9 36.5 14
3 -14 -9 26.9 12.63
3 14 -9 29.94 18.35
-3 14 9 21.35 13.26
-3 14 9 31.14 8.63
2 14 -9 37.22 16.79
2 14 -9 2.56 11.38
-2 -14 9 1.45 12.98
-2 14 9 2.66 7.81
2 14 -9 18.78 17.5
-2 14 9 0.56 7.81
1 14 -9 -1.7 15.08
1 14 -9 1.26 11.93
1 14 -9 9.66 11.22
1 -14 -9 3.63 10.94
-1 -14 9 1.45 13.11
-1 14 9 6.09 6.72
1 -14 -9 4.13 11.02
1 14 -9 3.81 18.04
0 14 -9 43.09 12.42
0 14 -9 32.27 16.13
0 -14 -9 19.91 12.38
0 14 -9 36.16 13.11
0 -14 9 24.98 13.88
0 14 9 34.74 5.61
0 -14 -9 13.91 11.82
-1 -14 -9 44.87 14.05
-1 14 -9 43.88 15.06
1 -14 9 10.45 13.8
-1 14 -9 30.05 12.68
-1 14 -9 46 12.62
-2 14 -9 -15.38 12.61
-2 14 -9 11.97 11.71
-2 14 -9 30.61 13.24
-2 -14 -9 -1.32 12.43
-2 14 -9 7.53 13.87
-3 14 -9 -1.33 13.29
-3 14 -9 7.6 12.28
-3 -14 -9 1.25 12.62
-3 -14 -9 -2.74 13.03
-3 14 -9 -4.72 14.19
-4 14 -9 -4.12 14.17
-4 14 -9 -2.7 12.56
-4 -14 -9 -1.31 13.21
-4 14 -9 4.98 15.43
-4 -14 -9 9.78 16.71
-5 14 -9 11.6 14.51
-5 14 -9 -8.51 14.54
-5 -14 -9 -5.62 14.09
-5 14 -9 15.65 16.97
-5 -14 -9 -12.37 18.08
-6 14 -9 -25.01 16.43
-6 14 -9 -1.55 15.26
-6 -14 -9 -6.49 18.77
9 -14 9 11.55 15.12
-11 15 9 -9.64 17.56
-11 15 9 14.66 17.81
-10 15 9 -4.51 15.35
-10 15 9 14.03 16.77
-10 15 9 3.21 14.6
-10 -15 9 -20.95 18.41
-9 15 9 17.9 15.89
-9 15 9 -10.32 14.01
9 -15 -9 4.68 11.13
-9 15 9 -7.98 16.66
-9 -15 9 -9.1 16.96
-9 15 9 -1.41 14.07
-8 -15 9 -11.37 14.88
-8 15 9 4.05 13.23
8 -15 -9 13.35 12.02
-8 15 9 27.29 14.69
-8 -15 9 7 16.78
-8 15 9 35.98 14.54
-7 15 9 25.31 14.54
-7 15 9 3.71 12.07
7 -15 -9 17.54 11.84
-7 -15 9 10.08 15.46
-7 15 9 11.43 12.65
-7 -15 9 23.25 13.88
6 15 -9 35.42 14.55
6 15 -9 22.43 16.8
6 -15 -9 43.86 13.06
-6 15 9 22.49 11.31
-6 -15 9 34.57 14.05
-6 15 9 30.8 11.56
-6 15 9 48.47 14.71
-6 -15 9 42.21 16.79
-6 15 9 36.6 13.38
-5 -15 9 75.94 14.55
5 15 -9 58.62 17.84
5 15 -9 83.15 15.06
-5 15 9 53.34 15.23
5 -15 -9 55.5 13.13
-5 15 9 69.08 12.51
-5 15 9 38.27 10.73
5 15 -9 118.34 22.02
-4 15 9 83.8 15.36
4 15 -9 21.52 16.98
4 15 -9 64 14.71
-4 15 9 45.32 10.67
4 -15 -9 35.02 12.81
4 15 -9 35.99 19.48
-4 -15 9 65.19 14.8
-4 15 9 27.61 10.41
3 15 -9 61.98 17.3
3 15 -9 50.19 13.72
-3 -15 9 72.26 16.4
-3 15 9 55.71 10.63
3 -15 -9 94.59 14.12
3 15 -9 77.61 21.59
-3 15 9 46.84 10.31
2 15 -9 122.51 19.63
2 15 -9 161.12 17.58
-2 -15 9 97.53 17.01
-2 15 9 116.42 11.08
-2 15 9 103.1 12.18
2 15 -9 73.8 20.95
1 15 -9 189.4 22.39
1 15 -9 195.43 18.81
-1 15 9 148.83 11.53
1 15 -9 125.51 15.37
-1 -15 9 152.17 18.84
1 -15 -9 172.67 17.04
1 15 -9 153.86 24.05
-1 15 9 144.38 13.79
0 15 -9 80.36 18.7
0 15 -9 118.37 15.27
0 15 9 109.59 8.35
0 15 -9 109.02 15.87
0 -15 -9 121.66 15.53
0 -15 9 120.23 18.2
-1 15 -9 94.24 16.76
-1 -15 -9 89.81 14.92
1 -15 9 81.29 16.68
-1 15 -9 90.05 15.37
-1 15 -9 78.27 13.4
-2 15 -9 107.46 17.64
-2 15 -9 119.08 16.39
-2 15 -9 89.57 15.51
-2 -15 -9 96.86 15.36
-3 15 -9 69.17 16.04
-3 -15 -9 93.09 15.71
-3 15 -9 75.05 14.98
-3 15 -9 68.72 14.68
-3 -15 -9 54.15 14.22
-3 15 -9 50.62 15.04
-4 15 -9 38.62 15.19
-4 15 -9 43.88 13.69
-4 15 -9 86.62 17.95
-4 -15 -9 49.93 18.79
-5 15 -9 48.69 16.57
-5 15 -9 69.85 18.82
-5 -15 -9 46.29 19.42
-6 15 -9 25.98 16.27
-12 16 9 48.63 19.66
-11 16 9 37.88 17.79
-11 16 9 74.79 18.95
-10 16 9 32.45 15.81
-10 16 9 32.5 16.05
-10 16 9 38.82 17.07
-10 -16 9 34.36 20.03
-9 16 9 26.83 15.94
-9 16 9 43.26 15.84
-9 -16 9 32.98 18.24
-9 16 9 44.4 15.52
-8 16 9 49.04 16.09
-8 16 9 73.88 15.07
-8 -16 9 35.02 17.79
-8 16 9 45.92 15.11
-7 16 9 59.29 15.78
-7 16 9 65.12 13.92
-7 -16 9 55.74 18.25
-7 16 9 68.46 14.86
6 16 -9 128.42 21.54
-6 16 9 109.55 14.93
-6 16 9 172.23 18.55
-6 -16 9 151.2 20.19
-6 16 9 141.2 16.81
-5 16 9 133.23 17.91
5 16 -9 120.27 20.73
-5 16 9 107.24 14.04
4 16 -9 95.56 19.25
4 16 -9 147.91 17.99
-4 16 9 85.77 12.9
-4 -16 9 100.01 15.75
4 16 -9 71.94 22.25
-4 16 9 104.12 13.59
-4 16 9 112.45 16.88
3 16 -9 116.5 20
3 16 -9 95.48 15.91
-3 -16 9 108.27 18.36
-3 16 9 73.93 11.24
3 16 -9 75.86 21.71
-3 16 9 78.42 11.94
2 16 -9 31.63 16.8
2 16 -9 29.06 13.94
-2 -16 9 54.42 15.88
-2 16 9 42.45 9.34
2 16 -9 40.15 20.25
1 16 -9 -1.88 16.88
1 16 -9 2.72 12.92
-1 -16 9 30.34 15.65
1 16 -9 34.26 11.66
-1 16 9 24.13 7.96
1 16 -9 34.3 20.13
0 16 -9 41.25 17.62
0 16 -9 25.32 11.36
0 16 -9 40.54 14.39
0 -16 -9 43.47 12.84
0 -16 9 12.91 13.93
0 16 9 19.95 6.5
-1 16 -9 9.96 11.4
-1 -16 -9 27.4 13.28
-1 16 -9 17.69 13.29
1 -16 9 8.16 15.57
-2 16 -9 4.57 13.92
-2 16 -9 -7.81 11.5
-2 -16 -9 3.87 12.96
-3 16 -9 -1.44 13.91
-3 16 -9 -3.7 12.48
-3 16 -9 1.37 12.96
-3 16 -9 7.94 14.71
-4 16 -9 5.26 13.15
-4 16 -9 -11.66 16.11
-5 16 -9 24.02 15.44
-6 16 -9 -1.51 15.51
-12 17 9 6.59 19.37
-11 17 9 38.62 17.87
-11 17 9 14.59 17.92
-10 17 9 1.55 16.46
-10 17 9 6.58 16.46
-10 17 9 2.89 15.22
-9 17 9 12.13 15.38
-9 17 9 -20.81 16.25
-9 -17 9 22.02 17.48
-9 17 9 5.44 15.75
-8 17 9 14.52 15.81
-8 17 9 8.36 13.83
-8 17 9 5.24 14.09
-8 -17 9 7.03 17.19
-8 17 9 15.48 14.52
-7 17 9 -1.28 12.5
-7 17 9 -8.3 13.35
-7 -17 9 -1.69 16.53
-7 17 9 -3.67 13.51
-7 17 9 18.43 15.32
-6 17 9 -11.19 14.89
-6 17 9 -2.33 12.02
-6 17 9 -13.97 13.62
-5 17 9 2.75 13.84
-5 17 9 10.57 11.85
4 17 -9 -5.85 17.77
-4 -17 9 5.11 15.48
-4 17 9 -0.95 9.65
4 17 -9 -2.23 20.94
-4 17 9 -21.59 13.73
3 17 -9 -25.11 17.6
-3 -17 9 16.95 15.85
-3 17 9 4.18 9.12
3 17 -9 17.78 21.49
2 17 -9 -15.58 16.46
2 17 -9 4.31 13.01
-2 -17 9 8.38 15.72
-2 17 9 8.61 8.36
2 17 -9 4.46 20.54
1 17 -9 11.77 17.64
1 17 -9 -5.64 13.07
-1 -17 9 13.38 14.4
-1 17 9 2.35 7.01
1 17 -9 -2.26 20.05
0 17 -9 -5.89 17.48
0 17 -9 2.81 13.1
0 17 -9 -11.9 12.11
0 -17 9 5.06 14.03
0 17 9 6.33 6.42
0 17 -9 16.1 21.1
0 17 9 -3.03 10.44
-1 17 -9 7.35 12.46
1 -17 9 5.11 14.46
-2 17 -9 3.06 14.29
-2 17 -9 14.13 12.46
-3 17 -9 -10.88 12.53
-3 17 -9 1.35 12.69
-3 17 -9 -6.36 15.18
-4 17 -9 -6.45 13.5
-4 17 -9 -11.68 17.16
-5 17 -9 6.91 15.04
-6 17 -9 10.41 15.85
-11 18 9 33.87 18.79
-10 18 9 38.23 16.41
-10 18 9 4.64 16.7
9 -18 -9 17.69 17.23
-9 18 9 86.64 18.66
-9 18 9 55.62 16.6
-9 18 9 61.29 15.89
-8 18 9 52.37 16.91
8 -18 -9 71.99 17.56
-8 18 9 85.49 16.47
-8 18 9 40.19 14.77
-7 18 9 65.47 14.86
-7 18 9 47.63 15.44
-7 18 9 68.64 17.23
-7 18 9 87.09 15.66
-6 18 9 61.46 17.39
-6 18 9 52.54 13.55
-6 18 9 48.63 14.06
-5 18 9 27.06 11.7
-5 18 9 31.47 14.76
-4 -18 9 50.1 17.33
-4 18 9 54.53 12.09
-3 -18 9 63.95 18.13
-3 18 9 64.63 11.08
3 18 -9 28.1 22.64
2 18 -9 34.62 19.48
-2 -18 9 21.04 15.78
-2 18 9 21.67 9.48
2 18 -9 -7.06 21.02
1 18 -9 18.45 18.37
-1 -18 9 19.24 16.57
-1 18 9 17.89 8.03
1 18 -9 2.39 22.02
-1 18 9 5.33 11.57
0 18 -9 45.21 19.16
0 -18 9 -10.58 16.49
0 18 -9 24.52 11.62
0 18 9 6.91 6.84
0 18 -9 2.43 21
0 18 9 -6.64 11.12
1 18 9 2.35 12.5
1 18 9 1.3 4.4
-1 18 -9 8.41 11.79
1 -18 9 -17.77 16.67
1 18 9 2.86 3.84
-2 18 -9 7.54 12.6
-2 18 -9 -3.07 14.66
-3 18 -9 1.59 15.59
-3 18 -9 6.63 13.34
-3 -18 -9 18.42 18.4
-4 18 -9 36.68 14.88
-4 18 -9 14.11 13.97
-4 18 -9 -5 16.51
-4 -18 -9 -4.27 19.57
-5 18 -9 1.35 14.85
-6 18 -9 -7.3 15.88
-10 19 9 30.87 17.98
-9 19 9 7.5 16.82
-9 19 9 -1.58 15.84
-8 19 9 10.23 14.5
-8 19 9 -13.47 14.34
-8 19 9 -1.46 16.04
-7 19 9 10.02 15.54
-7 19 9 12.07 13.35
-7 19 9 -2.3 13.04
-6 19 9 33.5 16.15
-6 19 9 20.83 12.57
-5 19 9 12.24 11.93
-5 19 9 9.79 13.15
-5 19 9 39.49 15.67
-4 -19 9 86.2 20.36
-4 19 9 29.02 11.63
-4 19 9 38.86 13.3
-3 -19 9 74.27 19.08
-3 19 9 70.24 12.09
-3 19 9 83.03 14.26
-2 -19 9 87.9 19.05
-2 19 9 70.45 10.91
2 19 -9 61.86 24.21
-2 19 9 44.6 13.27
-1 -19 9 83.93 18.84
-1 19 9 78.57 10.25
1 19 -9 52.67 23.96
-1 19 9 91.94 15.65
0 -19 9 136.02 21.28
0 19 -9 152.84 16.5
0 19 9 108.41 10.38
0 19 -9 179.22 29.22
0 19 9 146.85 17.37
1 -19 9 111.06 20.46
-1 19 -9 123.37 15.17
1 19 9 86.65 15.66
-2 19 -9 110.21 16.23
-3 19 -9 68.36 17.92
-3 19 -9 57.08 14.83
-3 -19 -9 70.95 20.75
-4 19 -9 83.54 16.72
-4 19 -9 66.15 16.06
-5 19 -9 52.81 16.19
-6 19 -9 44 17.21
-9 20 9 -7.49 17.7
-8 20 9 2.99 14.88
-8 20 9 5.86 16.17
-7 20 9 1.42 15.73
-7 20 9 11 14.17
-6 20 9 15.09 12.52
-6 20 9 9.67 15.39
-5 20 9 -11.42 12.6
-5 20 9 1.34 14.86
-4 -20 9 3.92 17.75
-4 20 9 8.26 11.11
-4 20 9 7.71 12.9
-3 -20 9 -7.75 18.01
-3 20 9 -9.19 10.16
-3 20 9 -3.78 12.82
-2 -20 9 -1.91 17.11
-2 20 9 2.41 9.16
-2 20 9 18.74 13.27
-1 -20 9 -1.9 17.77
-1 20 9 -4.08 8.38
-1 20 9 5.03 13.07
0 -20 9 11.49 16.8
0 20 9 2.15 7.48
0 20 -9 -10.74 25.27
0 20 9 28.55 13.89
1 -20 9 13.47 17.78
-1 20 -9 20.6 12.5
1 20 9 12.05 13.45
2 20 9 2.83 13.71
-2 20 -9 8.33 12.67
-2 -20 -9 8.24 19.63
-3 20 -9 28.6 17.47
-3 20 -9 15.1 13.62
-4 20 -9 -9.38 13.82
-5 20 -9 -7.18 15.19
-8 21 9 16.83 15.83
-7 21 9 1.41 16.31
-7 21 9 18.32 15.27
-6 21 9 -5.17 13.79
-6 21 9 17.76 16.04
-5 21 9 5.9 12.83
-4 21 9 7.46 12.1
-3 21 9 8.59 10.46
-2 -21 9 17.91 17.56
-2 21 9 39.37 11.12
-1 -21 9 19.8 19.19
-1 21 9 37.92 14.69
-1 21 -9 30.93 12.44
-2 21 -9 40.25 13.43
-3 21 -9 20.62 13.47
-4 21 -9 42.85 15.52
-7 22 9 82.59 17.59
-6 22 9 66.53 16.36
-5 22 9 76.61 15.71
-4 22 9 57.42 13.87
-3 22 9 23.76 11.66
-7 23 9 1.49 15.14
-6 23 9 13.69 15.15
-5 23 9 7.54 13.8
-13 0 10 97.03 20.86
-12 0 10 123.29 22.55
-12 0 10 63.2 18.76
-11 0 10 165.42 23.36
-11 0 10 126.13 19.01
-10 0 10 208.74 22.69
-10 0 10 207.43 23.4
-10 0 10 143.04 17.36
-10 0 10 178.31 21.13
-9 0 10 155.06 19.86
-9 0 10 186.33 20.25
-9 0 10 161.16 20.98
-9 0 10 138.13 19.09
-8 0 10 54.21 14.81
-8 0 10 69.28 16.69
-8 0 10 70.24 15.84
-8 0 10 102.58 16.86
-7 0 10 217.19 21.46
-7 0 10 174.46 19.78
-7 0 10 210.01 19.97
-6 0 10 147.45 17.57
-6 0 10 101.82 15.92
6 0 -10 145.8 14.76
-6 0 10 132.24 17.17
-5 0 10 416.32 25.87
-5 0 10 340.14 18.31
5 0 -10 372.6 22.53
-5 0 10 364.95 25.92
-5 0 10 327.47 25.64
-4 0 10 489.8 23.03
4 0 -10 503.46 27.08
-4 0 10 482.3 30.86
-4 0 10 464.15 30.63
-3 0 10 14.32 12.34
3 0 -10 22.04 11
3 0 -10 8.86 8.36
2 0 -10 30.66 11.24
2 0 -10 16.54 7.88
-2 0 10 10.02 11.98
1 0 -10 39.56 11.71
1 0 -10 61.03 11.24
1 0 -10 68.69 8.97
0 0 -10 56.39 13.34
0 0 -10 38.57 9.29
0 0 -10 39.04 13.41
0 0 -10 43.05 11.72
-1 0 -10 83.59 13.11
-1 0 -10 89.81 10.23
-1 0 -10 58.4 14.31
-1 0 -10 89.45 13.9
-1 0 -10 88.6 14.57
-2 0 -10 21.05 8.23
-2 0 -10 26.74 12.33
-2 0 -10 17.86 11.18
-2 0 -10 16.22 12
-3 0 -10 21.89 12.48
-3 0 -10 17.33 12.4
-3 0 -10 -1.55 13.17
-4 0 -10 18.24 12.63
-4 0 -10 49.08 15.1
-4 0 -10 23.29 13.13
-4 0 -10 40.88 14.03
-5 0 -10 33.96 13.72
-5 0 -10 70.35 16.22
-5 0 -10 50.41 15.9
-5 0 -10 85.96 16.1
-6 0 -10 60.24 16.89
-6 0 -10 55.06 14.2
-6 0 -10 60.54 17.8
-6 0 -10 65.01 15.82
-7 0 -10 29.34 15.57
-7 0 -10 60.64 14.37
-8 0 -10 8.89 15.6
-9 0 -10 18.35 16.23
-13 -1 10 -1.77 18.82
-13 1 10 21.38 18.27
-12 -1 10 2.24 19.07
-12 1 10 -15.2 19.72
-12 -1 10 -9.43 18.37
-12 1 10 -4.33 16.43
-11 -1 10 2.11 17.6
-11 1 10 22.38 18.66
-11 -1 10 10.84 14.96
-11 1 10 7.34 15.23
-10 -1 10 16.31 15.73
-10 1 10 8.93 16.27
-10 -1 10 9.91 18.18
-10 1 10 13.36 17.27
-10 1 10 -4.86 12.64
-10 -1 10 8.74 15.49
-10 1 10 -3.5 15.36
-9 -1 10 1.72 14.4
-9 1 10 -11.86 14.76
-9 -1 10 7.42 15.73
-9 1 10 8.89 15.81
-9 -1 10 -3.13 13.38
-9 -1 10 -4.99 13.9
-9 1 10 -6.67 14.35
-9 1 10 17.25 14.05
-8 -1 10 -1.5 12.56
-8 1 10 12.06 13.46
-8 -1 10 13.92 13.94
-8 1 10 -4.93 14.26
-8 -1 10 -9.57 13.84
-8 1 10 -1.6 13.66
-8 -1 10 1.64 12.99
-8 1 10 -9.7 14.27
-7 -1 10 10.21 12.05
-7 1 10 26.29 13.14
-7 -1 10 4.86 14.01
-7 1 10 1.53 13.51
7 1 -10 27.2 12.21
-7 -1 10 34.89 14.32
-7 1 10 15.59 13.34
-6 -1 10 7.45 12.96
-6 1 10 17 12.5
-6 -1 10 38.71 12.96
-6 1 10 28.72 12.85
6 1 -10 17.52 10.75
-6 -1 10 23.27 13.09
-6 1 10 19.83 13.01
-5 1 10 14.23 12.02
-5 1 10 5.88 5.26
-5 -1 10 12.06 7.23
5 1 -10 11.17 10.74
-5 -1 10 16.75 12.97
-5 1 10 5.99 12.45
-5 -1 10 1.43 12.25
-5 1 10 -4.28 12.57
-4 -1 10 97.82 9.52
-4 -1 10 101.82 15.64
-4 1 10 90.58 16
4 1 -10 112.38 12.61
-4 -1 10 120.48 16.06
-4 1 10 94.8 15.74
-3 -1 10 157.39 17.26
-3 1 10 137.73 17
3 1 -10 153.88 16.15
3 -1 -10 140.87 15.69
3 -1 -10 169.46 13.2
3 1 -10 135.25 13.35
2 1 -10 33.35 11.07
2 -1 -10 19.57 10.44
2 1 -10 61.81 9.9
2 -1 -10 50.8 8.74
-2 -1 10 61.4 14.16
-2 1 10 25.83 12.15
1 1 -10 33.81 11.68
1 -1 -10 32.6 11.17
1 1 -10 26.87 9.7
1 -1 -10 24.78 12.73
1 1 -10 29.15 8.34
1 -1 -10 26.87 7.3
0 1 -10 83.75 13.58
0 -1 -10 111.89 15.39
0 1 -10 102.96 10.03
0 1 -10 79.19 10.9
0 -1 -10 79.6 10.3
0 -1 -10 75.09 14.32
0 1 -10 68.72 12.52
0 -1 -10 74.81 12.8
-1 1 -10 112.59 14.66
-1 -1 -10 151.55 15.58
-1 1 -10 120.39 11.88
-1 -1 -10 94.35 10.86
-1 1 -10 155.46 17.36
-1 -1 -10 141.66 16.44
-1 1 -10 102.51 14.79
-1 -1 -10 92.53 14.54
-1 1 -10 96.57 14.85
-1 -1 -10 137.41 16.21
-2 1 -10 63.8 9.9
-2 -1 -10 66.81 8.69
-2 1 -10 61.37 13.8
-2 -1 -10 69.79 12.65
-2 1 -10 56.31 13.49
-2 -1 -10 59.13 12.95
-2 1 -10 38.71 13.22
-2 -1 -10 36.55 13.83
-3 1 -10 37.95 13.04
-3 -1 -10 75.74 13.67
-3 1 -10 60.38 14.03
-3 -1 -10 58.29 13.01
-3 1 -10 59.3 14.76
-3 -1 -10 41.39 13.72
-4 1 -10 48.43 13.44
-4 -1 -10 59.63 14
-4 1 -10 33.04 14.43
-4 -1 -10 72.83 15.98
-4 1 -10 49.73 14.64
-4 -1 -10 52.72 14.14
-4 -1 -10 63.99 14.7
-4 1 -10 45.43 14.12
-5 1 -10 28.86 13.31
-5 -1 -10 51.18 13.69
-5 1 -10 65.36 15.89
-5 -1 -10 55.13 15.19
-5 1 -10 36.86 15.29
-5 -1 -10 60.24 16.36
-5 -1 -10 47.55 16.02
-5 1 -10 49.39 15.22
-6 1 -10 40.78 16.18
-6 -1 -10 15.91 14.91
-6 1 -10 36.91 13.73
-6 -1 -10 33.95 13.28
-6 1 -10 22.2 15.78
-6 -1 -10 1.82 15.45
-6 -1 -10 24.08 14.4
-6 1 -10 16.12 14.27
-7 -1 -10 7.15 15.42
-7 1 -10 44.87 16.61
-7 1 -10 10.09 12.59
-7 -1 -10 39.89 14
-8 -1 -10 -3.67 16.27
-8 1 -10 -15.49 15.9
-9 -1 -10 -1.9 16.21
-9 1 -10 -12.42 16.17
-13 -2 10 -1.84 18.78
-12 -2 10 -4.59 19.77
-12 2 10 32.09 19.04
-12 -2 10 13.13 17.74
-12 2 10 -1.39 15.7
-11 -2 10 6.48 18.41
-11 2 10 44.09 18.59
-11 -2 10 35.76 16.69
-11 2 10 26.81 14.06
-10 -2 10 18.29 16.1
-10 -2 10 10.16 18.27
-10 2 10 24.35 16.19
-10 2 10 3.64 11.95
-10 -2 10 22.72 16.75
-10 2 10 -10.53 16.32
-9 -2 10 6.93 14.52
-9 -2 10 13.36 15.94
-9 2 10 5.23 14.91
-9 -2 10 -1.57 13.34
-9 2 10 25.13 14.27
9 2 -10 1.39 12.38
-9 -2 10 5 15.12
-9 2 10 31.74 15.57
-8 -2 10 25.59 13.37
-8 2 10 21.15 13.88
-8 -2 10 33.86 16.42
-8 2 10 19.44 13.98
8 2 -10 16.88 12.05
-8 -2 10 6.39 14.08
-8 2 10 17.62 14.72
-8 -2 10 24.87 14.4
-7 -2 10 81.72 15.34
-7 2 10 83.39 14.94
-7 -2 10 114.11 18.15
-7 2 10 102.97 16.47
7 2 -10 106.93 14.82
-7 -2 10 116.83 16.6
-6 -2 10 169.18 18.99
-6 2 10 137.53 16.64
-6 -2 10 123.55 16.44
-6 2 10 166.97 18.03
6 2 -10 129.4 15.39
-6 -2 10 142.63 18.03
-5 2 10 44.11 13.12
-5 2 10 33.09 4.51
5 2 -10 53.84 11.69
-5 -2 10 20 12.8
-5 -2 10 19.98 12.36
-5 2 10 7.17 12.13
-4 2 10 21.36 11.25
-4 -2 10 11.18 7.57
-4 -2 10 2.86 12.56
4 2 -10 0.99 9.78
-4 2 10 15.84 12.12
-4 -2 10 -7.59 11.84
-3 -2 10 15.72 12.29
-3 2 10 14.38 12.6
-3 -2 10 18.06 7.21
3 2 -10 34.27 11.39
3 -2 -10 37.32 11.11
3 2 -10 20.2 10.03
2 2 -10 4.16 10.26
2 -2 -10 9.81 9.78
2 -2 -10 -3.07 12.31
2 2 -10 6.85 9.03
-2 -2 10 14.25 12.59
-2 2 10 -1.44 11.57
1 2 -10 -7.02 11.11
1 -2 -10 -4.26 9.51
1 2 -10 6.43 9.54
1 -2 -10 -4.56 11.74
1 2 -10 3.17 8.27
0 2 -10 34.31 12.17
0 -2 -10 44.41 12.43
0 2 -10 36.4 9.97
0 -2 -10 35.03 8.88
0 -2 -10 22.35 12.03
0 2 -10 36.45 8.85
0 2 -10 50 12.11
0 -2 -10 40.39 11.1
-1 2 -10 15.87 11
-1 -2 -10 6.66 9.91
-1 2 -10 5.54 8.51
-1 -2 -10 -6.37 7.22
-1 -2 -10 -14.54 12.43
-1 2 -10 21.94 11.46
-1 -2 -10 4.41 9.85
-1 2 -10 -1.45 11.39
-1 -2 -10 -1.41 11.12
-2 2 -10 10.76 8.6
-2 2 -10 9.42 12.47
-2 -2 -10 -8.59 10.21
-2 2 -10 10.98 11.69
-2 2 -10 7.51 12.14
-2 -2 -10 11.59 11.25
-2 -2 -10 4.13 10.08
-3 2 -10 -0.75 8.44
-3 2 -10 8.76 12.29
-3 -2 -10 1.46 10.83
-3 2 -10 -9.1 13.44
-3 -2 -10 9.81 10.89
-3 2 -10 6.3 11.6
-3 -2 -10 3.04 11.79
-4 2 -10 -1.45 12.13
-4 -2 -10 27.41 12.19
-4 2 -10 -10 12.88
-4 -2 -10 9.61 12.72
-4 2 -10 6.22 13.24
-4 -2 -10 3.1 11.63
-4 -2 -10 1.61 12.82
-4 2 -10 -5.66 12.32
-5 2 -10 -5.56 13.07
-5 -2 -10 1.34 11.69
-5 2 -10 13.42 13.72
-5 -2 -10 -6.67 12.52
-5 2 -10 -1.77 15.19
-5 -2 -10 -10.22 14.22
-5 -2 -10 -5.06 13.62
-5 2 -10 8.94 13.43
-6 2 -10 -1.77 14.52
-6 -2 -10 -19.39 14.3
-6 2 -10 -2.66 12.92
-6 -2 -10 45.69 13.35
-6 2 -10 -5.6 16
-6 -2 -10 -5.4 14.66
-6 -2 -10 5.32 14.7
-6 2 -10 -1.56 13.6
-7 2 -10 1.6 14.08
-7 -2 -10 1.31 12.37
-7 -2 -10 -18.47 16.31
-8 -2 -10 -28.38 17.72
-8 2 -10 -24.93 16.67
-9 -2 -10 21.52 18.41
-9 2 -10 -24.04 17.74
14 -3 -10 31.04 15.44
13 -3 -10 1.46 15.17
-13 -3 10 -19.09 19.62
-12 -3 10 -2.35 19.7
-12 3 10 -12.62 18.58
-12 -3 10 -8.59 18.44
-12 3 10 9.35 15.42
-11 -3 10 13.6 16.73
-11 -3 10 4.42 18.45
-11 3 10 -5.91 17.1
-11 -3 10 6.02 16.22
-11 3 10 7.82 13.65
-10 -3 10 12.91 15.89
-10 -3 10 -8.31 18.23
-10 3 10 25.83 16.75
-10 3 10 5.13 11.09
10 3 -10 13.59 13.43
-10 -3 10 -12.24 16.09
-9 -3 10 20.96 15.49
-9 -3 10 -1.95 16.81
-9 3 10 12.06 15.64
-9 3 10 -1.58 13.57
9 3 -10 12.73 12.98
-9 -3 10 23.35 15.2
-9 3 10 16.78 16.09
-9 -3 10 -1.57 13.78
-8 -3 10 7.27 15
-8 3 10 19.1 14.69
8 3 -10 2.66 12.35
-8 -3 10 6.4 13.52
-8 3 10 -20.9 14.94
-8 -3 10 -1.51 12.24
-8 -3 10 13.4 13.47
-8 3 10 4.54 12.65
-7 3 10 69 15.15
-7 -3 10 123.2 18.25
-7 3 10 57.21 14.62
7 3 -10 73.91 14.12
-7 -3 10 92.26 15.97
-7 -3 10 74.49 15.07
-6 3 10 156.47 17.39
-6 -3 10 106.49 16.22
-6 3 10 141.72 17.13
6 3 -10 133.55 15.2
-6 -3 10 126.57 18.06
-5 3 10 237.06 19.03
5 3 -10 198.04 17.63
-5 3 10 219.96 20.2
-5 -3 10 167.84 18.9
-5 -3 10 198.8 19.22
-4 3 10 179.54 16.21
-4 -3 10 157.89 13.39
4 3 -10 173.92 15.68
4 -3 -10 168.41 18.42
-4 -3 10 164.61 18.24
-4 3 10 150.03 17.98
-4 -3 10 133.36 18.37
-3 -3 10 95.66 15.41
-3 3 10 116.89 16.29
-3 -3 10 101.87 11.02
3 3 -10 90.21 14.28
3 -3 -10 120.52 14.23
3 -3 -10 138.44 16.22
3 3 -10 123.07 13.78
2 3 -10 218.18 16.98
2 3 -10 241.05 18.15
2 -3 -10 222.79 19.92
-2 -3 10 200.4 19.7
-2 3 10 230.65 20.55
2 3 -10 200.28 18.93
2 -3 -10 248.59 19.09
1 3 -10 445.18 24.18
1 3 -10 490.78 25.31
1 -3 -10 396.21 26.96
1 3 -10 329.42 26.06
1 -3 -10 384.81 26.38
0 3 -10 390.06 21.92
0 3 -10 386.96 22.46
0 -3 -10 354.57 20.64
0 -3 -10 364.25 25.34
0 3 -10 326.58 25.3
0 -3 -10 381.71 25.49
0 3 -10 345.68 24.9
0 -3 -10 408.67 25.86
-1 3 -10 209.75 15.01
-1 -3 -10 157 11.8
-1 3 -10 219.46 18.21
-1 -3 -10 140.24 15.71
-1 -3 -10 166.23 17.45
-1 3 -10 157.81 18.36
-1 -3 -10 145.8 16.68
-1 3 -10 167.01 18.08
-1 -3 -10 157.38 17.34
-2 3 -10 212.56 16.22
-2 -3 -10 198.83 19.1
-2 3 -10 250.03 21.08
-2 -3 -10 205.05 19.81
-2 3 -10 242.81 20.57
-2 -3 -10 225.91 18.95
-3 3 -10 275.05 18.24
-3 3 -10 297.28 23.82
-3 -3 -10 271.74 20.91
-3 3 -10 272.44 22.47
-3 -3 -10 260.13 21.36
-3 3 -10 297.69 23.37
-3 -3 -10 226.82 21.63
-4 3 -10 156.57 18.86
-4 -3 -10 167.13 17.52
-4 3 -10 250.41 21.86
-4 -3 -10 180.3 19.01
-4 3 -10 180.3 20.04
-4 -3 -10 176.51 19.9
-4 3 -10 178.84 18.88
-4 -3 -10 160.27 17.98
-5 3 -10 116.99 17.28
-5 -3 -10 117.08 15.81
-5 3 -10 112.4 18.44
-5 -3 -10 140.79 17.54
-5 3 -10 121.25 18.78
-5 -3 -10 143.16 18.59
-5 -3 -10 83.1 17.53
-5 3 -10 140.88 18.45
-6 3 -10 51.42 16.96
-6 3 -10 68.38 14.68
-6 -3 -10 31.65 14.11
-6 -3 -10 77.85 14.62
-6 3 -10 78.85 18.47
-6 -3 -10 69.43 17.12
-6 -3 -10 69.3 18.15
-6 3 -10 36.15 15.62
-7 3 -10 24.69 15.22
-7 -3 -10 24.03 13.41
-7 -3 -10 36.21 17.16
-8 -3 -10 60.42 19.31
-8 3 -10 30.44 16.69
13 -4 -10 70.4 16.62
-13 -4 10 47.64 22.34
-12 -4 10 60.09 22.33
-12 4 10 47.74 19.45
12 -4 -10 79.93 17.45
-12 -4 10 82.68 20.91
-12 4 10 47.91 16.03
-11 -4 10 105.79 20.47
-11 -4 10 77.11 21.05
-11 4 10 77.76 19.31
11 -4 -10 88.98 17.05
-11 4 10 98.53 16.21
-10 -4 10 80.08 18.82
-10 4 10 95 18.66
-10 -4 10 104 22.05
-10 4 10 87.14 19.14
10 -4 -10 84.07 15.91
10 4 -10 93.64 17.19
-10 4 10 84.11 13
-10 -4 10 85.85 18.63
-9 -4 10 114.77 18.83
-9 4 10 161.52 19.94
-9 -4 10 113.17 20.66
-9 4 10 118.65 18.73
9 -4 -10 148.43 18.76
-9 -4 10 113.38 18.07
9 4 -10 117.26 16.82
-9 4 10 107.68 18.32
-9 -4 10 117.06 18.07
-9 4 10 94.31 18.15
-8 -4 10 222.09 23.56
-8 4 10 214.51 20.31
-8 4 10 152.34 19.27
8 -4 -10 202.17 19.72
8 4 -10 197.08 19.08
-8 -4 10 197.42 21.03
-8 4 10 205.11 21.38
-8 -4 10 182.87 19.91
-8 -4 10 189.71 20.97
-8 4 10 179.7 20.59
-7 4 10 179.06 19.17
7 -4 -10 190.34 19.21
7 4 -10 204.32 18.25
-7 -4 10 168.27 18.58
-7 -4 10 224.2 21.18
-7 4 10 195.98 20.35
-7 4 10 164.97 18.39
-6 4 10 265.75 21.55
6 4 -10 271.95 20.78
6 -4 -10 225.2 20.97
-6 -4 10 271.77 22.02
-6 4 10 232.14 21.16
-6 -4 10 202.94 21.58
-6 4 10 207.94 20.75
-5 4 10 218.48 19.17
5 4 -10 236.5 19.26
-5 -4 10 259.37 21.66
-5 4 10 239.36 21.35
-5 -4 10 246.62 21.7
-5 4 10 219.9 21.13
-4 4 10 149.56 15.01
-4 -4 10 155.93 13.28
4 -4 -10 116.04 16.22
-4 -4 10 148.93 17.18
4 4 -10 145.19 15.33
-4 4 10 144.75 17.81
-4 -4 10 139.13 18.22
-4 4 10 158.95 17.85
-3 4 10 75.81 11.85
-3 -4 10 74.18 14.38
-3 4 10 59.31 14.34
-3 -4 10 69.2 10.11
3 4 -10 36.8 12
3 -4 -10 70.7 12.75
3 -4 -10 34.26 12.5
3 4 -10 39.41 11.39
-2 -4 10 38.33 9.4
2 4 -10 38.57 12.21
2 -4 -10 52.07 12.52
2 4 -10 50.86 11.8
2 -4 -10 32.27 11.84
2 4 -10 62.14 11.11
-2 -4 10 45.4 12.92
-2 4 10 41.89 13.33
1 4 -10 69.85 13.51
1 -4 -10 55.64 12.46
1 4 -10 48.56 10.87
1 4 -10 70.94 11.75
1 -4 -10 49.21 12.21
0 4 -10 1.45 11.02
0 -4 -10 24.54 11.52
0 4 -10 2.71 9.18
0 4 -10 21.88 10.36
0 -4 -10 -2.03 7.27
0 -4 -10 14.33 11.39
0 4 -10 17.08 11.26
0 -4 -10 7.25 10.52
-1 -4 -10 -8.27 10.86
-1 4 -10 5.24 9.52
-1 4 -10 -0.88 9.47
-1 4 -10 3.96 11.24
-1 -4 -10 2.83 11.8
-1 -4 -10 4.01 10.29
-1 4 -10 8.75 11.23
-1 -4 -10 -2.95 10.46
-1 4 -10 19.19 12.08
-2 -4 -10 13.78 11.69
-2 4 -10 -4.3 9.13
-2 -4 -10 4.19 11.93
-2 4 -10 1.53 11.6
-2 -4 -10 11.35 11.22
-2 4 -10 21.95 13.07
-3 4 -10 9.46 9.76
-3 4 -10 17.48 13.07
-3 4 -10 9.48 13.93
-3 -4 -10 40.56 12.91
-3 -4 -10 21.96 11.58
-3 4 -10 14.44 12.72
-3 -4 -10 32.65 13.18
-3 4 -10 27.81 12.61
-4 -4 -10 15.37 12.21
-4 4 -10 28.87 14.03
-4 -4 -10 1.35 10.49
-4 4 -10 -1.69 13.86
-4 -4 -10 4.69 12.57
-4 -4 -10 -22.01 15.58
-4 4 -10 -1.32 12.36
-4 4 -10 17.08 14.52
-5 4 -10 15.7 13.03
-5 -4 -10 14.64 11.99
-5 4 -10 21.78 15.54
-5 -4 -10 19.8 14.18
-5 4 -10 12.58 15.15
-5 -4 -10 23.29 13.8
-5 -4 -10 -1.78 15.08
-5 4 -10 56.91 15.37
-6 4 -10 76.34 16.01
-6 4 -10 68.97 14.88
-6 4 -10 63.8 18.41
-6 -4 -10 42.05 15.76
-6 -4 -10 40.59 13.07
-6 4 -10 32.12 16.68
-6 -4 -10 33.47 15.24
-6 -4 -10 31.8 17.04
-7 4 -10 53.54 16.01
-7 -4 -10 32.28 13.67
-7 -4 -10 5.86 17.49
-8 -4 -10 34.07 19.94
13 -5 -10 -12.05 14.17
-13 -5 10 -12.4 22.38
-12 5 10 -16.35 18.37
12 -5 -10 -5.56 14.24
-12 -5 10 -11.22 20.11
-12 5 10 -3.77 15.24
-11 -5 10 -7.91 16.96
-11 -5 10 2.3 18.81
-11 5 10 -7.66 16.11
11 -5 -10 -2.87 13.62
-11 5 10 42.52 14.35
-10 -5 10 15.05 15.83
-10 5 10 8.76 14.97
-10 -5 10 8.62 17.71
-10 5 10 7.15 16.45
10 -5 -10 -17.53 13.83
10 5 -10 -1.56 13.77
-10 5 10 -0.77 10.53
-9 5 10 8.29 14.34
-9 -5 10 14.12 17.05
-9 -5 10 14.23 14.03
-9 5 10 21.63 15.51
9 -5 -10 32.54 13.62
9 5 -10 13.35 13.61
-9 5 10 7.48 7.66
-9 -5 10 5.03 14.18
-9 -5 10 14.28 14.74
-8 5 10 -7.71 14.06
8 -5 -10 1.49 12.53
8 5 -10 1.4 13.31
-8 -5 10 -7.59 13.4
-8 -5 10 -1.61 14.82
-8 -5 10 5.14 13.25
-8 5 10 18.98 14.55
-7 5 10 1.84 3.83
-7 5 10 15.64 13.67
7 -5 -10 10.46 12.42
7 5 -10 -1.33 11.83
-7 -5 10 -1.47 12.49
-7 -5 10 4.97 14.04
-7 5 10 3.05 12.92
-6 -5 10 14.51 12.82
-6 5 10 -9.05 13.26
6 -5 -10 5.97 12.21
6 5 -10 16.49 12.2
-6 -5 10 1.62 13.33
-6 5 10 8.92 12.8
-5 5 10 1.16 10.63
5 5 -10 8.49 11.87
-5 -5 10 10.06 12.57
-5 -5 10 9.52 13.1
-5 5 10 17.49 13.15
-4 5 10 11.27 10.75
-4 -5 10 -15.76 13.18
4 5 -10 -8.03 11.52
-4 -5 10 -0.84 8.86
-4 -5 10 6.24 13.53
-4 5 10 -2.87 12.63
-3 -5 10 4.27 11.89
-3 5 10 10.65 9.25
3 5 -10 15.64 11.55
-3 -5 10 19.62 9.11
3 -5 -10 6.93 10.37
3 -5 -10 1.45 10.64
3 5 -10 12.08 10.53
2 -5 -10 -9.86 10.48
-2 -5 10 2.46 8.59
2 5 -10 -2.12 10.97
2 5 -10 5.29 10.93
2 -5 -10 -5.77 11.3
-2 -5 10 -4.24 12.18
1 -5 -10 -2.86 10.57
1 5 -10 8.99 10.51
1 5 -10 -14.35 10.94
1 -5 -10 4.29 11.51
0 5 -10 8.78 12.13
0 5 -10 -1.88 9.44
0 5 -10 13.93 10.41
0 -5 -10 -5.66 11.34
0 -5 -10 1.45 11.18
-1 -5 -10 2.73 11.83
-1 5 -10 -2.9 10.43
-1 5 -10 2.75 9.44
-1 -5 -10 12.61 11.7
-1 -5 -10 30.98 12.8
-1 -5 -10 -9.36 11.94
-1 5 -10 2.98 12.08
-2 -5 -10 -5.51 11.86
-2 5 -10 0.91 9.16
-2 -5 -10 -1.38 11.21
-2 5 -10 1.54 12.71
-2 -5 -10 8.42 12.62
-3 5 -10 4.56 9.66
-3 -5 -10 8.18 10.69
-3 -5 -10 5.78 12.53
-3 5 -10 -14.58 13.2
-3 -5 -10 -8.8 12.54
-3 5 -10 -8.51 12.82
-4 -5 -10 -29.09 14.54
-4 5 -10 -7.73 13.27
-4 -5 -10 12.12 11.29
-4 5 -10 -5.12 14.01
-4 -5 -10 4.62 13.76
-4 -5 -10 -19.07 14.82
-4 5 -10 7.63 12.96
-5 5 -10 -4.37 13.59
-5 -5 -10 2.71 10.82
-5 -5 -10 -21.3 15.32
-5 5 -10 -30.75 16.7
-5 -5 -10 11.5 15.21
-5 -5 -10 -10.91 16.4
-5 5 -10 -4 12.74
-6 5 -10 16.53 14.24
-6 5 -10 25.97 14.02
-6 -5 -10 -6.98 15.59
-6 -5 -10 -4.12 12.35
-6 -5 -10 10.45 14.95
-6 -5 -10 1.92 17.54
-7 -5 -10 12.28 13.28
-7 -5 -10 -8.02 18.75
-8 -5 -10 30.92 20.32
13 -6 -10 7.76 13.61
-13 -6 10 30 23.37
-12 6 10 68.39 19.78
12 -6 -10 37.53 14.61
-11 -6 10 -3.99 17.21
-11 -6 10 2.33 19.17
-11 6 10 45.03 18.15
11 -6 -10 15.15 13.3
-11 6 10 18.13 12.24
-10 -6 10 51.19 18.44
-10 6 10 69.73 17.53
-10 -6 10 61.19 20.52
-10 6 10 80.83 18.37
10 -6 -10 67.45 14.92
10 6 -10 70.54 16.49
-10 6 10 46.49 11.87
-9 6 10 61.02 16.45
-9 6 10 55.53 16.56
9 -6 -10 71.39 14.7
9 6 -10 45.49 14.63
-9 6 10 40.09 7.98
-9 -6 10 55.56 16.64
-9 -6 10 54.03 15.32
-9 -6 10 52.44 16.71
-8 6 10 58.03 7.44
-8 6 10 69.9 14.72
8 -6 -10 93.63 15.61
-8 -6 10 53.4 15.08
8 6 -10 72.18 14.97
-8 -6 10 50.1 15.95
-8 -6 10 86.74 17.61
-8 6 10 91.4 16.38
-7 6 10 96.66 16.65
7 -6 -10 130.35 16.58
7 6 -10 132.44 16.61
-7 -6 10 124.03 16.95
-7 -6 10 144.59 19.22
-7 6 10 128.95 17.48
-6 -6 10 113.65 16.47
-6 6 10 107 15.9
6 -6 -10 136.16 16.48
6 6 -10 123.07 16.2
-6 -6 10 112.62 17.26
-6 6 10 109.45 16.73
-5 6 10 59.42 13.04
5 6 -10 27.68 12.11
-5 -6 10 43.41 14.42
-5 -6 10 62.61 14.9
-5 6 10 62.29 14.75
-4 6 10 2.99 9.98
-4 -6 10 -14.33 13.94
4 6 -10 -2.41 11.11
-4 -6 10 0.91 9.61
-4 -6 10 -4.73 13.05
-4 6 10 2.85 12.12
-3 -6 10 7.12 12.31
-3 6 10 23.2 9.75
3 6 -10 30.93 11.94
3 6 -10 4.64 10.8
-3 -6 10 11.62 9.54
3 -6 -10 24.92 11.39
3 -6 -10 -1.44 11.34
2 -6 -10 97.26 13.91
-2 -6 10 64.61 11.73
2 6 -10 50.04 12.01
2 6 -10 46.42 12.5
2 -6 -10 67.11 12.74
-2 -6 10 67.8 14.78
1 -6 -10 65.73 14.02
1 6 -10 53.31 11.81
1 6 -10 35.3 12.02
1 -6 -10 60.92 13.58
0 6 -10 8.86 11.57
0 6 -10 -2.14 10.24
0 6 -10 15.66 10.37
0 -6 -10 -5.62 11.35
0 -6 -10 1.45 11.9
-1 -6 -10 -1.35 12.24
-1 -6 -10 -2.68 11.82
-1 6 -10 15.63 10.93
-1 6 -10 9.61 9.54
-1 -6 -10 5.56 11.18
-1 -6 -10 7.38 12.42
-1 6 -10 -7.51 12.69
-2 6 -10 5.72 9.97
-2 -6 -10 13.78 12.94
-2 -6 -10 12.37 11.8
-2 -6 -10 39.39 13.95
-2 6 -10 12.44 12.9
-2 -6 -10 15.27 12.79
-3 6 -10 5.79 9.98
-3 -6 -10 6.8 10.85
-3 -6 -10 -2.88 12.7
-3 6 -10 -11.43 13.64
-3 -6 -10 17.38 13.33
-3 6 -10 15.14 11.91
-4 -6 -10 6.1 14.35
-4 6 -10 -10.88 10.96
-4 -6 -10 8.11 10.69
-4 6 -10 3.43 14.28
-4 -6 -10 35 14.28
-4 -6 -10 1.77 15.22
-4 6 -10 25.69 13.19
-5 6 -10 26.77 14.91
-5 -6 -10 22.2 11.94
-5 -6 -10 17.91 15.11
-5 6 -10 10.92 14.43
-5 -6 -10 51.84 16.42
-5 -6 -10 31.64 17.21
-5 6 -10 17.9 13.07
-6 6 -10 11.03 13.64
-6 -6 -10 -8.31 12.36
-6 -6 -10 1.74 16.02
-6 -6 -10 13.78 16.1
-6 -6 -10 1.97 17.54
-7 -6 -10 1.39 13.5
-7 -6 -10 1.81 16.48
-7 -6 -10 10.27 19.38
-8 -6 -10 16.92 20.23
13 -7 -10 17.41 13.48
-12 7 10 3.96 17.57
12 -7 -10 7.78 13.54
-11 -7 10 14.13 17.76
-11 7 10 14.65 16.96
-11 7 10 1.85 15.92
11 -7 -10 2.68 12.97
-11 7 10 -10.79 12.34
-10 -7 10 -3.83 16.67
-10 7 10 -5.21 15.83
-10 -7 10 1.67 15.13
-10 7 10 6.9 14.74
10 -7 -10 -10.99 13.36
-10 7 10 15.47 10.92
-9 7 10 9.85 14.95
-9 7 10 -1.51 7.78
-9 7 10 25.65 15.64
-9 -7 10 19.17 15.12
9 -7 -10 5.59 12.99
9 7 -10 -9.35 14.47
-9 7 10 8.03 15.3
-9 7 10 7.99 7.08
-9 -7 10 1.69 15.57
-9 7 10 17.06 15.49
-9 -7 10 7.32 15.58
-8 -7 10 35.26 15.14
-8 7 10 37.23 14.11
-8 7 10 31.47 5.75
8 -7 -10 32.53 13.16
-8 7 10 18.53 14.31
8 7 -10 23.84 13.54
-8 7 10 29.49 15.47
-8 -7 10 42.16 16.21
-8 7 10 32.95 15.04
-7 7 10 79.74 15.17
7 -7 -10 108.34 15.58
7 7 -10 87.42 16.02
-7 -7 10 90.6 16.04
-7 -7 10 139.58 18.72
-7 7 10 122.22 17.44
-6 -7 10 76.12 15.1
-6 7 10 71.65 14.08
6 -7 -10 58.72 13.88
6 7 -10 72.69 15.14
-6 -7 10 56.14 15.73
-6 7 10 76.29 15.29
-5 7 10 146.73 16.48
5 -7 -10 157.75 17.42
5 7 -10 164.9 18.05
-5 -7 10 175.89 19.3
-5 -7 10 157.45 18.65
-5 7 10 165.55 18.8
-4 7 10 304.45 20.08
-4 -7 10 271.49 20.16
4 7 -10 313.1 22.5
4 7 -10 298.6 21.89
-4 -7 10 252.76 22.95
-4 -7 10 303.87 23.73
-4 7 10 296.82 22.75
-3 7 10 236.1 16.81
-3 -7 10 215.78 17.88
3 7 -10 211.63 18.97
3 7 -10 248.33 19.35
3 -7 -10 239.17 20.5
-3 -7 10 224.81 21.58
-2 7 10 136.3 11.77
2 -7 -10 144.85 17.24
-2 -7 10 122.42 14.4
2 7 -10 156.32 15.52
2 7 -10 154.11 16.56
2 -7 -10 127.51 16.16
1 7 -10 292.96 21.57
-1 -7 10 313 21.25
1 7 -10 308.71 21.21
1 -7 -10 319.52 23.29
1 -7 -10 305.22 23.63
0 7 -10 323.47 22.28
0 7 -10 329.26 21.5
0 -7 -10 266.5 22.3
0 -7 -10 341.66 25.14
0 7 -10 282.87 23.45
-1 7 -10 183.57 17.47
-1 7 -10 187.85 16.49
-1 7 -10 165.58 17.87
-1 -7 -10 224.49 19.64
-1 -7 -10 135.39 16.7
-1 -7 -10 218.44 19.41
-1 -7 -10 163.82 19.94
-1 7 -10 184.66 19.62
-2 7 -10 213.54 19.92
-2 7 -10 228.3 17.6
-2 -7 -10 211.89 20.01
-2 -7 -10 238.42 19.46
-2 -7 -10 195.21 20.35
-2 -7 -10 212.39 20.09
-2 7 -10 181.95 20.14
-3 7 -10 163.96 16.02
-3 -7 -10 181.1 17.9
-3 7 -10 135.76 18.04
-3 -7 -10 149.96 18.21
-3 7 -10 184.32 20.22
-3 -7 -10 153.84 18.74
-3 7 -10 143.35 16.16
-4 7 -10 87.96 16.16
-4 7 -10 89.95 14.25
-4 -7 -10 103.18 17.36
-4 -7 -10 95.92 14.17
-4 7 -10 82.93 17.28
-4 -7 -10 75.07 16.56
-4 -7 -10 137.91 20.52
-4 7 -10 105.21 15.44
-5 7 -10 28.59 15
-5 -7 -10 32.2 12.44
-5 7 -10 67.67 16.76
-5 7 -10 43.94 16.9
-5 -7 -10 23.96 15.96
-5 -7 -10 24.22 15.21
-5 -7 -10 32.37 18.3
-6 7 -10 24.63 15.98
-6 -7 -10 39.33 13.53
-6 -7 -10 64.2 18.21
-6 -7 -10 3.4 15.81
-6 -7 -10 56.25 19.93
-7 -7 -10 43.08 17.67
-7 -7 -10 54.61 20.16
13 -8 -10 -4.78 12.8
-12 8 10 11.72 18.26
12 -8 -10 -3.77 13.13
-11 -8 10 59.06 20.91
-11 8 10 67.41 19.11
-11 8 10 31.43 10.71
-11 8 10 40.12 17.74
11 -8 -10 41.7 14.41
-11 8 10 68.27 14.16
-10 -8 10 1.94 17.18
-10 -8 10 26.83 15.99
-10 8 10 24.21 16.33
-10 8 10 13.44 15.92
-10 8 10 18.63 15.8
10 -8 -10 20.09 12.74
-10 8 10 16.78 10.48
-9 8 10 1.63 15.19
-9 -8 10 14.42 14.6
-9 8 10 -12.9 14.09
-9 8 10 4.43 7.08
-9 8 10 -4.74 15.19
9 -8 -10 19.16 13.31
9 8 -10 1.61 15.02
-9 8 10 -5.58 7.56
-9 -8 10 3.4 15.99
-9 8 10 -3.43 16.02
-9 -8 10 9.26 15.76
-8 -8 10 12.32 14.47
-8 8 10 34.13 15.34
-8 8 10 11.73 13.52
8 -8 -10 22.24 12.61
8 8 -10 33.97 14
-8 -8 10 21.33 16.27
-8 8 10 21.86 14.58
-7 8 10 6.75 13.3
7 -8 -10 7.02 12.11
7 8 -10 10.4 13.86
-7 -8 10 22.47 14.06
-7 8 10 9.03 13.72
-7 -8 10 13.8 14.07
-7 8 10 45.1 14.55
-6 -8 10 8.81 13.26
-6 8 10 17.79 13.11
-6 8 10 23.5 11.73
6 8 -10 2.84 12.85
6 -8 -10 16.96 12.68
-6 -8 10 25.11 15.01
-6 8 10 18.94 12.56
-5 8 10 45.64 12.25
5 8 -10 72.62 14.76
5 -8 -10 56.74 13.69
-5 -8 10 40.88 14.25
-5 8 10 79.76 15.65
-5 -8 10 44.32 15.31
-5 8 10 48.6 13.83
-4 -8 10 10.07 13.09
-4 8 10 17.5 10.79
4 8 -10 17.48 12.28
-4 8 10 23.53 13.65
4 8 -10 33.29 13.25
-4 -8 10 30.75 11.73
-3 8 10 16.24 9.26
3 8 -10 12.01 11.7
3 8 -10 27.33 12.6
3 8 -10 13.53 11.4
-3 -8 10 16.75 10.86
3 -8 -10 22.66 12.43
-3 -8 10 -5.7 12.23
-3 8 10 14.66 14.19
-2 8 10 -8.33 8.26
2 8 -10 5.47 10.9
2 -8 -10 -12.64 12.31
2 8 -10 3.82 11.24
2 8 -10 19.48 12.12
-2 -8 10 1.04 10.64
2 -8 -10 5.63 11.33
1 8 -10 2.77 11.27
1 -8 -10 11.39 12.62
-1 -8 10 -5.3 10.61
1 8 -10 11.21 11.9
1 8 -10 -1.09 10.45
1 -8 -10 -5.6 10.82
0 8 -10 -1.5 12.59
0 8 -10 -10.97 11.68
0 8 -10 -1.06 10.58
0 -8 -10 -22.24 12.41
0 8 -10 -12.76 12.03
0 -8 -10 27.54 12.9
-1 8 -10 33.6 14.11
-1 -8 -10 6.62 12.12
-1 8 -10 16.95 12.66
-1 8 -10 27.47 12.59
-1 -8 -10 25.33 13.51
-1 8 -10 9.44 10.61
-1 -8 -10 9.66 11.17
-1 8 -10 16 12.02
-1 -8 -10 20.62 12.65
-2 8 -10 5.24 10.69
-2 -8 -10 26.06 12.65
-2 8 -10 35.52 14.07
-2 8 -10 9.06 12.89
-2 -8 -10 24.68 13.71
-2 -8 -10 19.63 13.31
-2 8 -10 9.5 13.5
-2 -8 -10 40.52 14.02
-3 8 -10 -4.28 11.07
-3 -8 -10 -9.76 11.18
-3 8 -10 -2.88 13.32
-3 -8 -10 7.1 13.03
-3 8 -10 26.55 15.32
-3 -8 -10 -5.62 13.62
-4 8 -10 18.74 12.18
-4 8 -10 59.9 17.56
-4 -8 -10 13.6 15.22
-4 -8 -10 24.05 12.2
-4 8 -10 15.68 15.78
-4 -8 -10 7.41 14.14
-4 -8 -10 -7.42 16.17
-5 -8 -10 -5.67 11.2
-5 8 -10 29.53 15.63
-5 -8 -10 -18.87 15.48
-5 -8 -10 6.42 15.3
-5 -8 -10 13.62 17
-6 -8 -10 -4.3 12.2
-6 -8 -10 -3.44 16.45
-6 -8 -10 -18.45 16.6
-6 -8 -10 -4.1 18.76
-7 -8 -10 -23.06 18.72
-7 -8 -10 -12.88 19.9
12 -9 -10 6.08 12.49
-11 9 10 7.25 16.68
-11 9 10 14.36 17.35
11 -9 -10 -15.21 13.33
-10 9 10 10.32 16.23
-10 -9 10 -13.48 15.6
-10 9 10 8.36 14.55
10 -9 -10 2.62 12.55
-10 9 10 1.69 16.02
-10 9 10 1.46 10.46
-10 -9 10 -3.91 16.73
-9 9 10 4.66 13.76
-9 9 10 -0.38 6.52
9 -9 -10 18.8 12.51
9 9 -10 -8.28 15.28
-9 -9 10 5.12 16.26
-9 9 10 -0.87 8.12
-9 -9 10 11.26 16.01
-9 9 10 8.6 16.54
-9 9 10 24.26 15.07
-9 -9 10 18.74 16.55
-9 9 10 11.39 15.55
-8 9 10 3.12 14.24
-8 9 10 -8.63 13.58
8 -9 -10 10.95 12.48
8 9 -10 27.2 15.2
-8 -9 10 9 15.22
-8 9 10 9.32 14.57
-8 -9 10 13.92 14.82
-7 9 10 1.33 12.79
-7 -9 10 39.16 14.95
7 -9 -10 2.78 12.48
7 9 -10 3.07 14.02
-7 9 10 9.09 14.26
-7 -9 10 -1.74 14.63
-7 9 10 43.4 16.25
-6 9 10 28.37 13.97
-6 9 10 13.38 12.32
6 9 -10 13.27 13.71
6 -9 -10 9.8 12.29
-6 -9 10 15.26 14.5
-6 9 10 26.03 13.75
-6 -9 10 1.48 13.28
-5 9 10 48.16 12.56
5 9 -10 43.37 13.61
5 9 -10 31.55 13.92
5 -9 -10 37.97 13.21
-5 -9 10 43.82 14.59
-5 9 10 31.36 13.75
-5 -9 10 38.07 15.32
-5 9 10 55.33 14.37
-4 -9 10 80.59 15.79
-4 9 10 85.66 13.37
-4 9 10 96.18 17.19
4 9 -10 81.86 14.67
4 9 -10 101.16 16.03
-4 -9 10 122.46 14.97
-3 9 10 53.9 10.74
3 9 -10 33.02 14.03
3 9 -10 68.95 14.39
-3 -9 10 43.83 12.25
-3 -9 10 55.48 13.86
-3 9 10 45.74 14.11
-2 9 10 9.32 7.74
2 9 -10 17.73 11.71
2 9 -10 12.1 12.5
2 9 -10 -1.17 11.61
2 -9 -10 37.7 13.19
-2 -9 10 10.05 10.88
2 -9 -10 30.87 12.05
1 9 -10 70.39 14.12
1 -9 -10 35.52 13.07
1 9 -10 67.14 14.47
-1 -9 10 37.48 12.63
1 9 -10 22.54 11.51
1 -9 -10 53.01 13.05
0 -9 -10 49.12 13.89
0 9 -10 24.64 13.03
0 9 -10 39.63 11.94
0 -9 -10 41.61 12.34
0 9 -10 35.34 12.84
-1 -9 -10 31.29 12.9
-1 9 -10 22.2 13.46
-1 9 -10 57.81 12.67
-1 -9 -10 16.59 11.2
-1 9 -10 34.84 12.8
-1 -9 -10 44.14 14.37
-2 9 -10 81.2 13.75
-2 -9 -10 59.01 14.01
-2 9 -10 49.8 14.45
-2 9 -10 78.95 15.13
-2 -9 -10 66.22 15.51
-2 -9 -10 102.57 16.25
-2 -9 -10 77.11 14.76
-3 9 -10 70.84 13.39
-3 -9 -10 58.52 14.28
-3 9 -10 101.49 16.4
-3 -9 -10 48.38 14.95
-3 -9 -10 75.22 15.44
-4 9 -10 19.7 12.61
-4 9 -10 10.72 14.37
-4 -9 -10 8.99 14.23
-4 -9 -10 7.14 12.52
-4 -9 -10 -7.29 14.96
-4 -9 -10 -7.58 16.32
-5 -9 -10 22.31 15.45
-5 -9 -10 25.91 12.16
-5 -9 -10 21.63 15.38
-5 9 -10 -6.53 15.74
-5 -9 -10 -43.7 18.34
-6 -9 -10 8.27 16.33
-6 -9 -10 6.29 18.64
-7 -9 -10 3.51 17.77
-7 -9 -10 -4.38 20.29
12 -10 -10 51.8 13.92
-11 10 10 50.48 18.1
-11 10 10 69.48 18.85
11 -10 -10 30.83 13.28
-11 -10 10 69.01 20.57
-10 10 10 93.78 18.61
-10 10 10 84.53 18.14
10 -10 -10 57.6 14.54
-10 -10 10 67.8 17.89
-10 10 10 67.84 11.98
-10 10 10 74.51 18.44
-10 -10 10 77.17 19.52
-9 10 10 127.37 18.78
-9 -10 10 131 19.38
9 -10 -10 123.74 16.49
-9 10 10 139.46 19.13
-9 10 10 136.44 20.93
-9 10 10 110.25 11.23
-9 -10 10 157.27 21.5
-9 10 10 122.92 19.53
-8 10 10 125.11 16.52
8 -10 -10 130.55 16.11
8 10 -10 72.95 17.39
-8 -10 10 110.01 18.25
-8 -10 10 80.38 18.27
-8 10 10 111.09 18.14
-8 10 10 101.54 17.83
-7 -10 10 163.76 19.97
-7 10 10 128.21 16.32
-7 10 10 181.55 19.53
7 10 -10 166.43 19.84
7 -10 -10 156.04 17.13
-7 -10 10 123.27 20.13
-7 10 10 139.78 18.1
6 10 -10 181.69 18.74
-6 10 10 161.18 17.67
6 10 -10 197.46 20.57
6 -10 -10 159.34 17.84
-6 10 10 211.37 20.04
-6 -10 10 189.77 19.43
-6 -10 10 161.14 20.76
-6 10 10 160.49 19.37
-5 10 10 196.66 17.41
5 10 -10 230.91 19.75
5 10 -10 203.22 20.95
5 -10 -10 209.41 18.96
-5 -10 10 191.14 20.4
-5 10 10 176.9 20.36
-5 -10 10 200.18 21.51
-5 10 10 181.1 19.67
-4 -10 10 211.25 20.95
-4 10 10 203.05 16.97
-4 10 10 226.08 21.49
4 10 -10 243.99 20
4 10 -10 195.7 20.52
-4 -10 10 161.91 18.17
-3 10 10 144.96 13.38
3 10 -10 156.36 18.9
3 10 -10 130.13 16.56
-3 -10 10 138.9 17.4
-3 -10 10 106.09 16.78
-3 10 10 168.99 19.54
-2 10 10 73.8 9.51
2 10 -10 70.97 15.32
2 10 -10 79.41 14.43
2 10 -10 84.3 14.39
2 -10 -10 91.56 15.38
-2 -10 10 44.13 13.37
2 -10 -10 109.16 14.9
1 10 -10 22.02 12.77
1 -10 -10 19.8 12.73
1 10 -10 16.72 13.18
-1 -10 10 15.73 12.27
1 10 -10 27.97 11.88
1 -10 -10 15.34 11.62
0 10 -10 22.53 12.59
0 -10 -10 33.09 13.76
0 10 -10 38.73 14.64
0 10 -10 56.18 12.75
0 -10 -10 48.77 12.67
-1 10 -10 57.35 14.85
-1 10 -10 47.75 12.9
-1 -10 -10 52.44 13.4
-1 10 -10 50.7 14.95
-1 -10 -10 41.12 14.34
-2 -10 -10 14.39 13.03
-2 10 -10 8.16 12.89
-2 10 -10 24.05 12.21
-2 -10 -10 24.58 13.83
-2 -10 -10 33.17 12.34
-2 10 -10 15.06 13.18
-2 -10 -10 -7.5 13.4
-3 -10 -10 29.7 15.09
-3 10 -10 23.59 12.45
-3 -10 -10 31.66 13.06
-3 10 -10 14.28 13.84
-3 -10 -10 24.46 13.9
-4 10 -10 34.02 13.72
-4 10 -10 42.7 15.97
-4 -10 -10 43.11 15.26
-4 -10 -10 66.64 14.68
-4 -10 -10 48.7 16
-4 -10 -10 17.42 16.75
-5 -10 -10 36.44 17.02
-5 -10 -10 19.75 15.97
-5 -10 -10 26.39 18.46
-5 10 -10 11.34 15.56
-6 -10 -10 40.67 16.9
-6 -10 -10 14.96 18.78
12 -11 -10 5.74 12.49
-11 11 10 -12.52 17.45
-11 11 10 -10.61 17
11 -11 -10 1.2 12.7
-11 -11 10 7.11 17.53
-10 11 10 -11.83 15.44
-10 -11 10 -3.39 16.41
-10 11 10 16.39 15.66
-10 11 10 -3.39 16.11
10 -11 -10 8.76 12.39
-10 -11 10 -4 17.16
-9 -11 10 8.12 15.56
-9 11 10 16.27 16.24
-9 11 10 7.6 14.26
9 -11 -10 -1.29 12.22
-9 11 10 -10.39 17
-9 11 10 3.1 8.3
-9 -11 10 -1.91 16.3
-9 11 10 -6.42 14.92
-8 11 10 4.21 12.92
8 11 -10 1.71 15.7
8 -11 -10 1.33 12.18
-8 -11 10 23.4 15.78
-8 11 10 4.69 15.04
-8 -11 10 7.39 15.91
-8 11 10 18.38 15.33
-7 -11 10 13.67 14.34
-7 11 10 1.54 14
7 11 -10 4.32 13.79
-7 11 10 2.59 12.29
7 11 -10 11.52 14.64
7 -11 -10 5.41 12.41
-7 -11 10 8.89 14.72
-7 11 10 14.74 13.57
6 11 -10 48.23 14.49
6 11 -10 43.4 15.04
-6 11 10 31.97 12.8
6 -11 -10 13.74 11.77
-6 -11 10 40.22 15.41
-6 -11 10 41.57 16.5
-6 11 10 21.4 14.34
-6 11 10 39.26 15.29
5 11 -10 18.04 13.15
5 11 -10 17.38 14.74
-5 -11 10 29.17 14.93
-5 11 10 1.07 10.63
5 -11 -10 16.66 12.24
-5 11 10 21.03 14.97
-5 -11 10 21.88 14.83
-5 11 10 22.19 13.35
-4 -11 10 68.72 15.61
-4 11 10 44.8 15.04
4 11 -10 75.34 14.65
4 11 -10 57.41 16.12
-4 11 10 60.3 11.94
4 -11 -10 47.39 13.4
-4 -11 10 52.63 14.64
3 11 -10 71.48 16.82
3 11 -10 89.14 15.01
-3 11 10 66.41 11.08
-3 -11 10 84.01 14.68
-3 -11 10 107.02 16.74
-3 11 10 72.85 16.04
-2 11 10 65.92 9.5
2 11 -10 83.52 16.6
2 11 -10 101.84 15.13
2 11 -10 58.17 13.52
-2 -11 10 74.73 14.77
2 -11 -10 75.74 15.81
2 -11 -10 106.55 15.14
-1 11 10 107.98 8.8
1 11 -10 105.65 15.63
1 11 -10 107.45 17.2
1 -11 -10 94.25 16.82
1 11 -10 152.21 15.88
-1 -11 10 117.89 16.63
1 -11 -10 135.63 16.25
0 11 -10 137.59 17.52
0 -11 -10 124.56 18.24
0 11 -10 166.73 18.99
0 11 -10 171.28 16.98
0 -11 -10 160.78 17.35
-1 11 -10 215.84 22.16
-1 11 -10 239.92 22.55
-1 11 -10 232 20.07
-1 -11 -10 236.78 21.14
-1 11 -10 303.56 23.33
-1 -11 -10 250.28 21.96
-2 -11 -10 178.01 18.72
-2 11 -10 135.84 19.72
-2 -11 -10 190.27 19.84
-2 11 -10 206.97 18.52
-2 -11 -10 185.74 18.97
-2 11 -10 201.86 19.61
-2 11 -10 171.07 19.49
-2 -11 -10 146.31 19.12
-2 11 -10 202.89 21.12
-3 11 -10 46.96 15.29
-3 11 -10 52.99 14.46
-3 -11 -10 57.73 15.84
-3 -11 -10 81.81 14.48
-3 -11 -10 50.94 15.45
-3 11 -10 22.01 15.81
-3 -11 -10 36.02 14.69
-4 11 -10 24.17 13.44
-4 11 -10 13.62 15.11
-4 -11 -10 51.5 15.53
-4 11 -10 46.35 17.68
-4 -11 -10 18.22 14.83
-4 -11 -10 41.5 18.16
-5 11 -10 66.06 17.68
-5 -11 -10 56.6 18.07
-5 -11 -10 93.22 20.52
-6 -11 -10 65.36 20.92
12 -12 -10 13.9 13.19
-11 12 10 -1.77 17.34
-11 12 10 5.3 16.29
11 -12 -10 1.2 12.22
-10 12 10 3.26 15.6
10 -12 -10 -16.05 13.12
-10 -12 10 1.7 16.04
-10 12 10 3.39 16.54
-10 -12 10 -4.03 18.38
-10 12 10 10.05 16
-9 12 10 17.93 17.02
-9 12 10 -9.08 14.63
9 -12 -10 -2.55 12.3
-9 12 10 8.84 8.87
-9 -12 10 -1.93 17.43
-9 12 10 -3.18 15.21
-9 -12 10 -1.63 16.4
-8 -12 10 3.14 15.34
-8 12 10 -4.19 13.1
8 -12 -10 -6.56 12.39
-8 12 10 -20.47 16.27
-8 12 10 -6.27 6.26
-8 12 10 -4.39 5.84
-8 -12 10 -14.92 16.77
-8 12 10 10.62 15.64
-7 12 10 9.24 14.45
7 12 -10 15.44 15.37
-7 12 10 -11.54 13.15
7 -12 -10 5.37 11.98
-7 -12 10 16.18 16.44
-7 12 10 17.49 14.01
-7 -12 10 -9.14 15.25
6 12 -10 18.93 14.9
6 12 -10 11.75 14.9
-6 12 10 25.79 12.19
6 -12 -10 17.75 12.98
-6 -12 10 4.49 14.49
-6 12 10 27.39 15.36
-6 -12 10 5.24 14.78
-6 12 10 8.48 13.26
-5 -12 10 20.42 14.49
5 12 -10 21.34 14.09
5 12 -10 13.21 15.59
-5 12 10 19.03 11.19
-5 12 10 9.04 13.92
5 -12 -10 5.53 11.97
-4 12 10 5.99 13.92
4 12 -10 -1.62 14.88
4 12 -10 -2.76 12.87
-4 12 10 28.97 11.02
4 -12 -10 5.59 11.9
-4 -12 10 5.44 13.07
-4 -12 10 7.15 13.95
3 12 -10 -9.56 14.47
3 12 -10 7.94 12.33
-3 12 10 14.32 9.43
-3 -12 10 1.35 12.04
-3 12 10 -14.86 14.37
2 12 -10 20.36 14.75
-2 12 10 8.64 7.96
2 12 -10 11.55 12.05
2 12 -10 26.95 13.27
-2 -12 10 10.72 12.51
-1 12 10 -1.43 5.82
1 12 -10 -9.36 14.9
1 12 -10 9.57 12.33
1 12 -10 -12.54 12.55
1 -12 -10 6.98 12.58
-1 -12 10 17.6 13.36
1 -12 -10 -20.4 12.78
0 12 -10 12.57 12.56
0 -12 -10 8.53 13.43
0 12 -10 9.45 15.77
0 -12 10 24.72 14.24
0 12 -10 27.21 12.99
0 -12 -10 7.33 12.95
-1 12 -10 36.58 15.04
-1 12 -10 26.95 15.08
-1 12 -10 23.41 12.8
-1 -12 -10 17.61 12.09
-1 12 -10 12.98 13.38
-1 -12 -10 18.91 14.05
-2 12 -10 22.21 15.35
-2 12 -10 2.5 13.1
-2 12 -10 12.12 13.41
-2 -12 -10 8.85 11.77
-2 -12 -10 5.39 13.65
-2 12 -10 -2.99 12.59
-2 -12 -10 23.76 14.2
-2 12 -10 26.15 15.76
-3 12 -10 19.35 13.16
-3 12 -10 5.67 13.78
-3 -12 -10 2.98 12.6
-3 -12 -10 20.95 14.25
-3 -12 -10 -9.2 14.34
-3 12 -10 6.82 15.43
-4 12 -10 3.98 13.76
-4 12 -10 34.48 15.46
-4 -12 -10 -5.84 14.53
-4 12 -10 8.96 15.67
-4 -12 -10 22.2 18.14
-5 12 -10 -16 15.52
-5 -12 -10 -3.11 16
-5 -12 -10 -16.92 18.76
-11 13 10 20.98 18.71
-11 13 10 -1.77 16.56
11 -13 -10 2.41 12.57
-10 -13 10 -1.7 16.76
-10 13 10 -3.28 15.66
10 -13 -10 2.52 13.01
-10 13 10 16.94 16.67
-10 13 10 16.57 16.68
-9 13 10 6.07 14.53
9 -13 -10 11.66 13.39
-9 -13 10 -9.76 16.14
-9 -13 10 -5.86 17.56
-9 13 10 7.87 15.13
-9 13 10 1.63 16.89
-8 -13 10 -1.58 15.51
-8 13 10 -6.34 15.85
-8 13 10 4.2 13.57
8 -13 -10 9.31 12.35
-8 13 10 8.2 8.62
-8 -13 10 22.53 17.16
-8 13 10 36.13 15.8
-8 13 10 -9.43 7.7
-7 13 10 52.65 16.53
7 13 -10 28.6 16.86
-7 13 10 21.84 12.98
7 -13 -10 27.24 12.91
-7 -13 10 25.43 16.43
-7 -13 10 22.88 15.44
-7 13 10 35.99 14.09
6 13 -10 5.26 15.34
-6 13 10 15.21 12.27
-6 -13 10 25.34 14.86
6 -13 -10 19.46 13.77
-6 13 10 26.07 15.41
-6 -13 10 19.36 15.89
-6 13 10 23.74 13.32
-5 -13 10 20.37 14.08
5 13 -10 -8.76 14.82
5 13 -10 27.64 16.46
-5 13 10 -12.12 14.83
-5 13 10 24.21 11.68
5 -13 -10 26.84 13.05
4 13 -10 49.28 16.63
4 13 -10 42.26 14.54
-4 13 10 54.06 11.86
4 -13 -10 58.84 13.48
-4 -13 10 56.05 15.72
-4 -13 10 71.27 16.06
-4 13 10 60.04 15.63
3 13 -10 75.23 17.63
3 13 -10 107.68 16.01
-3 13 10 73.9 11.03
-3 -13 10 75.45 16.01
2 13 -10 54.45 17.55
2 13 -10 27.85 13.67
-2 13 10 48.83 8.89
-2 -13 10 46.69 15.3
2 13 -10 68.35 14.06
-1 13 10 137.43 10.05
1 13 -10 186.43 21.16
1 13 -10 123.75 16.61
1 13 -10 190.12 18.24
-1 -13 10 169.79 19.15
1 -13 -10 107.65 17.08
1 -13 -10 138.6 17.75
0 13 -10 194.32 19.97
0 13 -10 216.03 23.17
0 13 -10 238.4 20.4
0 -13 -10 219.97 21.42
0 -13 10 202.15 20.99
0 -13 -10 238.34 20.59
-1 -13 -10 116.75 17.9
-1 13 -10 157.1 20.05
-1 13 -10 108.88 19.36
-1 13 -10 125.58 17.08
-1 -13 -10 126.58 17.1
-1 13 -10 100.46 16.81
-2 13 -10 85.62 17.95
-2 13 -10 65.57 18.49
-2 13 -10 93.72 15.67
-2 -13 -10 88.78 15.52
-2 13 -10 50.63 15.87
-2 -13 -10 93.08 17.46
-3 13 -10 79.29 15.6
-3 -13 -10 59.78 16.35
-3 13 -10 67.09 17.38
-3 13 -10 80.09 16.72
-3 -13 -10 95.91 17.3
-3 13 -10 82.38 18.41
-4 -13 -10 43.55 16.38
-4 13 -10 51.18 15.92
-4 13 -10 28.19 15.41
-4 -13 -10 32.96 18.52
-5 13 -10 48.23 16.54
-5 13 -10 11.11 15.71
-5 -13 -10 63.1 17.23
-5 -13 -10 66.95 20.96
-11 14 10 27.61 18.11
11 -14 -10 36.93 13.65
-10 14 10 33.92 18.14
-10 14 10 54.46 17.31
10 -14 -10 63.63 14.44
-10 14 10 50.76 18.43
-9 14 10 16.81 15.65
-9 -14 10 57.07 19.68
9 -14 -10 67.77 14.81
-9 14 10 39.15 17.68
-9 -14 10 39.41 18.4
-9 14 10 51.28 16.53
-8 -14 10 56.72 16.7
-8 14 10 87.55 18.75
-8 14 10 62.03 15.53
8 -14 -10 78.08 15.15
-8 -14 10 84.96 20.23
-8 14 10 32.71 15.97
-7 14 10 90.51 15.91
7 -14 -10 116.3 16.88
-7 -14 10 139.16 19.42
-7 14 10 76.69 8.24
-7 -14 10 120.71 19.96
-7 14 10 103.89 17.26
-7 14 10 129.05 19.66
-7 14 10 83.19 7.42
6 14 -10 93.45 19.86
-6 -14 10 81.54 17.79
-6 14 10 82.45 14.15
6 -14 -10 99.16 16.3
-6 14 10 64.72 17.62
-6 -14 10 113.03 19.21
-6 14 10 112.65 16.88
-5 -14 10 72.1 15.73
-5 14 10 45.63 16.14
5 14 -10 59.54 18.26
-5 14 10 51.86 12.4
5 -14 -10 70.55 15.07
4 14 -10 60.36 17.73
4 14 -10 67.9 15.53
-4 14 10 61.54 11.77
4 -14 -10 71.48 15.26
-4 -14 10 36.4 15.2
-4 -14 10 49.38 15.36
-4 14 10 70.93 16.48
3 14 -10 61.15 17.93
3 14 -10 57.71 15.58
-3 14 10 49.47 10.38
-3 -14 10 57.04 15.83
3 -14 -10 25.06 13.61
2 14 -10 39.81 17.11
2 14 -10 20.59 13.66
-2 14 10 17.77 8.27
-2 -14 10 38.74 15.15
1 14 -10 17.35 16.54
-1 14 10 28.19 6.81
1 14 -10 51.58 14.84
1 14 -10 60.83 14.64
-1 -14 10 37.45 15.14
1 -14 -10 38.15 14.15
1 -14 -10 35.84 13.4
0 14 -10 13.76 12.75
0 14 -10 14.07 16.19
0 -14 -10 5.58 12.73
0 -14 10 1.51 14.52
0 14 -10 15.98 12.88
0 -14 -10 22.6 12.49
-1 14 -10 -7.12 13.44
-1 -14 -10 15.71 13.1
-1 14 -10 16.15 14.76
-1 14 -10 1.77 17.33
-1 14 -10 -18.66 13.77
-2 14 -10 19.88 15.73
-2 14 -10 14.2 17.62
-2 14 -10 2.71 13.58
-2 14 -10 1.48 13.6
-2 -14 -10 -1.47 13.64
-3 14 -10 22.38 15.16
-3 14 -10 27.93 14.98
-3 14 -10 -1.55 13.88
-3 -14 -10 6.04 14.48
-3 -14 -10 4.14 13.99
-3 14 -10 1.73 15.89
-4 14 -10 1.47 14.59
-4 14 -10 -2.88 14.88
-4 -14 -10 -1.57 15.76
-4 -14 -10 -18.91 19.4
-5 14 -10 21.96 17.01
-11 15 10 -6.8 18.55
-10 15 10 -4.99 16.38
10 -15 -10 -14.98 13.72
-10 15 10 -9.68 17.65
-10 15 10 -3.38 17.3
-9 15 10 -3.08 15.39
-9 15 10 -1.64 16.61
9 -15 -10 -11.69 13.49
-9 -15 10 -1.98 18.94
-9 15 10 19.93 17.03
-8 15 10 -3.19 16.07
-8 15 10 8.5 13.65
8 -15 -10 -2.69 13.16
-8 -15 10 26.65 18.84
-8 15 10 -2.92 14.65
-7 15 10 5.2 13.51
7 -15 -10 22.16 13.48
-7 15 10 18.77 16.09
-7 -15 10 23.9 17.95
-7 15 10 -1.4 15.24
-6 -15 10 -1.48 14.81
-6 15 10 1.54 15.21
-6 15 10 -3.55 12.21
6 -15 -10 9.93 13.51
-6 15 10 -3.68 6.07
-5 15 10 13.73 14.53
5 15 -10 1.88 16.68
-5 15 10 -4.27 11.1
5 -15 -10 -8.69 12.93
-5 -15 10 12.92 14.87
4 15 -10 11.12 16.43
-4 15 10 2.83 10.44
-4 -15 10 11.18 14.74
4 -15 -10 -7.36 12.58
-4 15 10 3.02 15.04
3 15 -10 -5.48 16.26
-3 15 10 4.02 9.4
-3 -15 10 3.15 15.47
3 -15 -10 -8.95 12.5
2 15 -10 -5.43 16.17
2 15 -10 -11.4 14.18
-2 15 10 -3.87 8.21
-2 -15 10 17.22 14.91
1 15 -10 -1.83 16.12
1 15 -10 -9.79 13.28
-1 15 10 1.26 6.56
-1 -15 10 -3.15 14.84
1 15 -10 8.02 12.47
1 -15 -10 5.38 13.42
1 -15 -10 6.1 12.49
0 15 -10 -1.85 17.31
0 15 -10 10.92 12.69
0 15 -10 9.68 13.58
0 -15 10 12.71 14.95
0 -15 -10 4.14 13.62
-1 15 -10 1.41 12.87
-1 15 -10 -14.92 18.24
-1 -15 -10 1.41 13.52
-1 15 -10 -4.16 13.68
-2 15 -10 -13.38 16.08
-2 15 -10 -11.22 18.08
-2 15 -10 4.4 13.94
-2 -15 -10 4.35 14.4
-3 15 -10 9.21 14.45
-3 -15 -10 5.98 14.47
-3 -15 -10 2.07 18.12
-4 15 -10 -8.76 14.97
-11 16 10 40.16 19.23
-10 16 10 25.21 17.74
-10 16 10 23.58 18.61
-10 16 10 19.03 17.64
-9 16 10 46 18.19
-9 16 10 18.65 15.5
-9 16 10 15.1 16.38
-8 16 10 8.57 13.9
8 -16 -10 59.67 14.91
-8 -16 10 17.2 17.56
-8 16 10 30.1 15.93
-8 16 10 30.34 16.88
-7 16 10 32.66 13.86
7 -16 -10 26.54 13.55
-7 16 10 22.1 16.44
-7 -16 10 5.52 17.09
-7 16 10 49.56 16.42
-6 16 10 16.99 16.25
-6 16 10 44.02 13.56
6 -16 -10 24.39 14.01
-5 16 10 38.82 12.73
5 -16 -10 66.05 15.43
-5 16 10 24.33 8.02
-5 16 10 36.59 16.76
-4 16 10 51.6 11.8
-4 -16 10 50.3 16.84
4 -16 -10 41.9 14.63
-4 16 10 49.66 16.52
-4 16 10 43.15 7.65
3 16 -10 22.9 18.1
-3 -16 10 13.24 15.62
-3 16 10 40.18 10.91
3 -16 -10 28.9 13.77
2 16 -10 9.52 17.97
-2 -16 10 11.5 15.12
-2 16 10 11.86 8.24
1 16 -10 7.69 16.87
-1 -16 10 8.24 15.61
-1 16 10 1.34 6.74
1 16 -10 48.9 14.22
0 16 -10 -17.51 18.98
0 16 -10 -6.75 12.79
0 -16 10 18.28 15.34
-1 16 -10 -6.95 12.54
-1 16 -10 1.96 18.39
-2 16 -10 16.82 16.46
-2 16 -10 -11.61 14.08
-3 16 -10 1.52 14.64
-4 16 -10 19.23 15.12
-4 16 -10 37.41 15.91
-10 17 10 -1.56 16.7
-9 17 10 -4.92 17.32
-9 17 10 18.76 15.48
-9 17 10 28.07 17.03
-8 17 10 10.06 14.58
-8 -17 10 -13.4 18.29
-8 17 10 20.82 16.77
-8 17 10 1.41 14.74
-7 17 10 -3.15 16.32
-7 17 10 1.32 13.81
-7 -17 10 -5.52 17.8
-7 17 10 -16.12 15.28
-6 17 10 7.74 16.17
-6 17 10 40.75 13.65
-5 17 10 52.01 12.72
-5 -17 10 67.57 18.94
-5 17 10 55.02 17.79
-4 17 10 54.08 12.47
-4 -17 10 73.87 18.75
-3 -17 10 100.41 19.27
-3 17 10 88.72 12.26
-3 17 10 76.05 10.65
-2 -17 10 82.57 19.72
-2 17 10 72.48 10.62
1 17 -10 58.46 20.25
-1 -17 10 72.4 18.62
-1 17 10 81.71 9.06
0 17 -10 85.83 21.49
0 -17 10 66.01 19.19
0 17 -10 133.16 16.85
-1 17 -10 51.33 21.01
-1 17 -10 94.46 16.62
-2 17 -10 68.48 16.53
-3 17 -10 61.35 17.17
-4 17 -10 46.81 16.8
-4 17 -10 34.72 16.43
-9 18 10 9.49 16.32
-9 18 10 34.48 17.72
-8 18 10 -5.82 14.7
-8 18 10 29.02 18.03
-8 18 10 22 15.95
-7 18 10 20.44 17.14
-7 18 10 32 14.14
-6 18 10 10.83 16.91
-6 18 10 41.32 14.37
-5 18 10 20.83 12.03
-5 -18 10 50.33 19.19
-5 18 10 21.28 17.18
-4 -18 10 25.77 17.53
-4 18 10 32.28 11.84
-3 -18 10 -7.24 17.2
-3 18 10 17.02 10.64
-2 -18 10 -3.59 16.79
-2 18 10 -4.22 8.92
-1 -18 10 -1.8 16.46
0 -18 10 -1.81 17.32
0 18 -10 20.89 13.19
-1 18 -10 22.85 14.28
-2 18 -10 -8.39 14.27
-3 18 -10 -5.89 15.5
-4 18 -10 -13.98 16.14
-5 18 -10 -3.29 17.2
-9 19 10 -4.93 17.68
-8 19 10 -3.22 18.79
-8 19 10 8.87 15.2
-7 19 10 -7.87 18.06
-7 19 10 -10.83 14.91
-6 19 10 -8.63 13.35
-6 19 10 3.09 16.72
-5 19 10 4.46 12.47
-5 -19 10 -3.9 18.07
-4 -19 10 13.48 18.41
-4 19 10 18.9 11.7
-3 -19 10 -1.89 16.88
-3 19 10 -1.73 9.87
-2 -19 10 -5.63 17.43
-1 -19 10 9.39 17.73
0 -19 10 35.87 19.31
-1 19 -10 14.48 13.55
-2 19 -10 12.3 14.94
-3 19 -10 -1.44 15.19
-4 19 -10 19.75 16.16
-5 19 -10 -11.27 16.68
-8 20 10 8.01 17.48
-8 20 10 30.04 17.11
-7 20 10 21.92 17.99
-7 20 10 23.41 14.55
-6 20 10 70.27 15.97
-6 20 10 102.62 20.04
-5 20 10 55.59 14.4
-1 20 -10 -11.53 13.62
-2 20 -10 -1.33 13.74
-3 20 -10 -16.78 15.82
-4 20 -10 4.45 15.8
-8 21 10 -1.53 15.7
-1 21 -10 28.53 14.13
-11 0 11 2.2 19.59
-10 0 11 2.07 18.67
-10 0 11 1.78 16.3
-10 0 11 9.64 16.67
-9 0 11 -9.74 16.77
-9 0 11 -5.14 15.19
-9 0 11 16.65 16.4
-8 0 11 34.65 17.32
-8 0 11 6.6 14.06
-8 0 11 -3.56 14.58
-7 0 11 -15.14 14.96
-7 0 11 1.63 14.05
-7 0 11 17.35 14.83
-6 0 11 24.63 14.4
-6 0 11 8.95 6.97
-6 0 11 1.7 14.11
-6 0 11 -1.6 14.12
-5 0 11 12.36 6.08
-5 0 11 6.43 13.79
5 0 -11 -7.28 10.3
-5 0 11 13.36 13.94
-4 0 11 4.8 13.41
4 0 -11 -13.26 10.55
3 0 -11 -3.06 10.93
-3 0 11 1.6 12.73
2 0 -11 7.73 11.03
1 0 -11 -4.69 11.45
1 0 -11 -1.95 10.7
1 0 -11 -1.81 13.25
0 0 -11 -7.78 12.94
0 0 -11 0.87 9.16
0 0 -11 -10.7 14.29
0 0 -11 -1.59 11.02
-1 0 -11 12.59 13.8
-1 0 -11 -3.48 12.93
-1 0 -11 13.15 11.91
-1 0 -11 -6.47 11.8
-2 0 -11 -10.05 12.77
-2 0 -11 6.05 12.47
-2 0 -11 -11.7 12.87
-2 0 -11 -11.37 13.13
-3 0 -11 -9.78 13.51
-3 0 -11 1.58 12.66
-3 0 -11 -5.08 14.21
-4 0 -11 11.82 14.15
-4 0 -11 22.07 14.02
-4 0 -11 -23.3 16.28
-4 0 -11 21.47 15
-5 0 -11 -10.63 14.2
-5 0 -11 5.18 14.81
-6 0 -11 1.46 14.36
-6 0 -11 -12.57 16.08
-7 0 -11 1.85 16.16
-8 0 -11 -3.79 16.85
-11 -1 11 -20.24 21.11
-11 1 11 -15.06 20
-10 -1 11 -10.59 18.72
-10 1 11 2.02 18.66
-10 -1 11 39.22 17.6
-10 1 11 25 16.65
-10 -1 11 -15.55 16.67
-9 -1 11 5.97 18.2
-9 1 11 3.81 16.68
-9 -1 11 8.56 15.34
-9 1 11 -10.29 14.43
-9 -1 11 -13.04 16.16
-8 -1 11 5.56 16.2
-8 1 11 8.88 16.5
-8 -1 11 3.3 14.31
-8 1 11 9.92 13.86
-8 -1 11 -3.59 14.88
-7 -1 11 25.72 15.17
-7 1 11 21.5 14.78
-7 -1 11 40.63 15.03
-7 1 11 39.07 14.91
7 1 -11 43.83 13.16
-7 -1 11 52.46 16.16
-6 1 11 117.75 18.37
-6 1 11 93.3 8.28
-6 -1 11 97.91 10.31
6 1 -11 129.07 14.83
-6 -1 11 107.69 17.87
-6 -1 11 112.27 17.93
-6 1 11 106.04 17.88
-5 -1 11 138.14 10.9
-5 -1 11 125.14 17.81
-5 1 11 139.88 19.24
5 1 -11 127.17 14.87
-5 -1 11 148.07 19.63
-4 -1 11 175.77 18.63
-4 1 11 104.01 17.64
4 1 -11 124.4 14.01
3 1 -11 148.1 17.53
3 -1 -11 119.8 16.03
-3 -1 11 159.34 19.33
-3 1 11 163.07 19.14
2 1 -11 134.08 16.68
2 -1 -11 94.61 15.15
2 1 -11 128.47 15.34
2 -1 -11 128.69 18.76
1 1 -11 101.3 15.74
1 -1 -11 153.51 17.25
1 1 -11 134.79 15.08
1 -1 -11 153.5 14.73
1 -1 -11 190.73 20.43
0 1 -11 120.67 16.82
0 -1 -11 91.25 15.88
0 1 -11 85.98 12.09
0 1 -11 113.12 18.72
0 -1 -11 129.67 18.56
0 1 -11 64.99 14.87
0 -1 -11 103.49 15.88
-1 1 -11 31.72 13.28
-1 -1 -11 68.79 16.02
-1 1 -11 62.6 15.63
-1 -1 -11 50.29 15.44
-1 1 -11 29.12 13.05
-1 -1 -11 34.03 12.73
-1 1 -11 64.15 13.81
-1 -1 -11 57.03 13.72
-2 1 -11 13.79 13.25
-2 -1 -11 31.2 13.09
-2 1 -11 27.19 12.91
-2 -1 -11 39.32 13.64
-2 1 -11 25.08 13.39
-2 -1 -11 31.77 13.22
-2 1 -11 29.49 13.84
-2 -1 -11 33.8 14.46
-3 1 -11 58.1 16.19
-3 -1 -11 44.77 14.12
-3 1 -11 44.27 15.34
-3 -1 -11 20.52 12.97
-3 1 -11 63.29 16.23
-3 -1 -11 31.9 14.5
-4 1 -11 57.45 16.22
-4 -1 -11 85.98 16.71
-4 1 -11 83.19 16.68
-4 -1 -11 102.54 16.67
-4 1 -11 115.6 19.36
-4 -1 -11 53.25 16.9
-4 -1 -11 96.92 18
-4 1 -11 108.89 18.16
-5 1 -11 75.41 16.97
-5 -1 -11 81.12 16.31
-5 -1 -11 53.34 17.22
-5 1 -11 36.88 16.68
-6 1 -11 45.53 15.78
-6 -1 -11 24.66 14.46
-6 -1 -11 20.38 16.87
-6 1 -11 43.47 17.31
-7 1 -11 23.21 17.29
-7 -1 -11 21.05 17.63
-8 -1 -11 -9.78 17.15
-11 -2 11 98.91 23.71
-11 2 11 90.75 21.91
-10 -2 11 121.32 23.13
-10 2 11 120.69 21.84
-10 -2 11 148.03 20.65
-10 2 11 152.14 20.84
-10 -2 11 117.6 21.35
-9 -2 11 107.26 21.31
-9 2 11 146.72 20.86
-9 -2 11 80.57 17.7
-9 2 11 110.03 18.82
-9 -2 11 109.09 20.21
-8 -2 11 47.15 17.84
-8 2 11 60.68 17.9
8 2 -11 71.16 15.41
-8 -2 11 117.22 18.31
-8 2 11 84.51 17.27
-8 -2 11 79.7 17.83
-7 2 11 103.4 18.64
-7 -2 11 53.74 16.09
-7 2 11 58.75 15.52
7 2 -11 83.17 15.01
-7 -2 11 96.91 17.9
-6 2 11 111.08 17.96
6 2 -11 149.89 15.99
-6 -2 11 131.2 19.09
-6 -2 11 128.48 18.46
-6 2 11 177 20.16
-5 2 11 106.37 15.71
-5 -2 11 87.12 10.49
-5 -2 11 115.44 17.52
-5 2 11 123.95 18.5
5 2 -11 102.18 13.75
-5 -2 11 110.31 17.38
-4 -2 11 75.18 9.49
-4 -2 11 115.01 16.87
-4 2 11 75.39 15.49
4 -2 -11 113.69 17.97
4 2 -11 87.68 12.9
3 2 -11 73.09 13.92
3 -2 -11 44.58 12.68
3 -2 -11 49.38 15.69
3 2 -11 61.27 11.78
-3 -2 11 68.53 15.35
-3 2 11 43.26 14.63
2 2 -11 26.12 11.89
2 -2 -11 23.33 11.98
2 2 -11 3.35 11.41
2 -2 -11 1.74 13.1
1 2 -11 9.32 11.5
1 -2 -11 -6.28 10.77
1 2 -11 -8.18 10.83
1 -2 -11 4.66 10.21
1 -2 -11 6.86 11.97
0 2 -11 3.16 12.14
0 2 -11 10.2 9.92
0 -2 -11 -1.67 12.96
0 2 -11 3.16 11.83
0 -2 -11 11.17 11.39
-1 2 -11 -1.46 12.3
-1 2 -11 7.99 13.02
-1 -2 -11 20.17 12.7
-1 2 -11 0.87 9.28
-1 -2 -11 5.85 11.09
-1 2 -11 -12.8 14.9
-1 -2 -11 11.49 13.38
-1 2 -11 -1.61 12.24
-1 -2 -11 -14.6 11.13
-2 2 -11 14.24 13.76
-2 -2 -11 -1.61 13
-2 2 -11 30.18 13.38
-2 -2 -11 -7.56 11.52
-2 2 -11 -8.36 12.98
-2 -2 -11 1.67 12.13
-2 2 -11 -4.96 13.35
-2 -2 -11 1.59 12.15
-3 2 -11 8.46 14.52
-3 -2 -11 12.6 12.4
-3 2 -11 9.48 13.61
-3 -2 -11 -4.73 12.59
-3 2 -11 -5.18 14.3
-3 -2 -11 8.31 13.2
-4 2 -11 5.07 14.35
-4 -2 -11 23.56 14.34
-4 2 -11 16.28 14.65
-4 -2 -11 30.65 13.45
-4 2 -11 -3.65 14.82
-4 -2 -11 15.8 14.07
-4 -2 -11 8.73 14.41
-4 2 -11 12.38 14.35
-5 2 -11 46.71 16.47
-5 -2 -11 20.85 14.07
-5 -2 -11 -1.83 15.38
-5 2 -11 6.48 15.11
-6 2 -11 39.99 15.1
-6 -2 -11 76.71 16.92
-6 -2 -11 17.18 17.02
-6 2 -11 52.12 17.2
-7 2 -11 24.07 17.43
-7 -2 -11 29.64 17.79
13 -3 -11 -3.28 17.02
12 -3 -11 -8.43 16.82
-11 -3 11 4.68 20.06
-11 3 11 -2.08 18.99
11 -3 -11 -3.43 15.78
-10 -3 11 4.39 18.84
-10 3 11 -11.73 18.39
-10 -3 11 17.87 17.07
-10 3 11 21.52 16.67
-10 -3 11 1.98 16.85
-10 3 11 15.17 16.08
-9 -3 11 -2.06 18.09
-9 3 11 -1.82 16.61
-9 -3 11 1.72 15.06
-9 3 11 8.63 16.13
9 3 -11 1.48 14.08
-9 -3 11 7.59 16.28
-9 3 11 -9.09 15.88
-8 3 11 8.47 14.48
8 3 -11 -4.19 13.18
-8 -3 11 13.26 15.65
-8 3 11 23.26 14.89
-8 -3 11 -5.49 15.23
-8 3 11 29.75 15.89
-7 3 11 7.85 13.77
-7 -3 11 6.52 14.31
-7 3 11 3.27 14.03
-7 3 11 0.71 3.75
7 3 -11 3.95 12.76
-7 -3 11 1.78 14.13
-6 3 11 5.79 14.24
6 -3 -11 17.56 15.23
6 3 -11 4.97 11.58
-6 -3 11 3.49 14.2
-6 -3 11 -3.21 13.42
-6 3 11 3.23 14.26
-5 3 11 13 12.75
-5 -3 11 2.81 8.5
-5 -3 11 -4.81 13.17
5 3 -11 29.17 12.43
-5 3 11 8.07 14.61
-5 -3 11 -3.42 13.36
-4 -3 11 7.98 13.39
-4 3 11 11.26 14.01
-4 -3 11 20.47 8.38
4 -3 -11 38.25 14.87
4 3 -11 -5.5 10.98
3 3 -11 -6.06 11.05
3 -3 -11 26.21 11.3
3 -3 -11 17.2 14.25
3 3 -11 15.55 10.99
-3 -3 11 -19.11 14.12
-3 3 11 11.24 14.13
2 3 -11 15.33 12.59
2 -3 -11 45.25 12.55
2 3 -11 22.69 12.45
2 -3 -11 23.71 12.39
1 3 -11 18.6 12.89
1 -3 -11 26.78 11.42
1 3 -11 30.38 11.59
1 -3 -11 44.73 14.15
0 3 -11 7.95 12.51
0 3 -11 -5.77 10.49
0 -3 -11 18 12.54
0 3 -11 11.05 12.6
0 -3 -11 3.2 10.57
-1 3 -11 -4.83 13.61
-1 -3 -11 -20.03 12.96
-1 3 -11 9.14 10.06
-1 3 -11 33.4 13.88
-1 -3 -11 -16.11 13.87
-1 -3 -11 4.39 11.05
-1 3 -11 11.29 13.2
-1 -3 -11 -4.87 11.95
-2 3 -11 21.83 14.51
-2 -3 -11 22.16 13.17
-2 3 -11 49.78 15.03
-2 3 -11 31.74 14.65
-2 -3 -11 31.76 12.87
-2 -3 -11 37.8 12.18
-2 3 -11 28.31 14.35
-2 -3 -11 36.31 13.35
-3 3 -11 38.41 16.21
-3 -3 -11 29.45 12.75
-3 3 -11 22.13 13.56
-3 -3 -11 33.11 13.17
-3 3 -11 41.76 15.53
-3 -3 -11 21.38 13.57
-3 3 -11 36.28 14.65
-4 3 -11 38.86 16.49
-4 -3 -11 1.67 12.35
-4 3 -11 18.2 15.23
-4 -3 -11 18.19 13.02
-4 3 -11 11.04 15.92
-4 -3 -11 22.59 14.58
-4 -3 -11 -7.15 15.7
-4 3 -11 28.47 14.5
-5 3 -11 3.15 14.32
-5 -3 -11 4.43 13.1
-5 -3 -11 -14.65 15.41
-5 -3 -11 1.87 16.23
-5 3 -11 7.82 14.86
-6 3 -11 -19.44 15.43
-6 -3 -11 -13.22 14.26
-6 -3 -11 -11.76 17.98
-6 3 -11 -11.38 17.07
-7 -3 -11 13.23 14.51
-7 -3 -11 -8.15 17.88
13 -4 -11 -7.86 16.94
12 -4 -11 -1.63 16.78
-11 -4 11 -11.87 21.04
-11 4 11 20.5 18.36
11 -4 -11 -1.67 16.51
-10 -4 11 60.83 18.13
-10 -4 11 62.42 21.94
-10 4 11 79.16 19.7
-10 4 11 63.41 18.36
10 -4 -11 76.26 18.1
-10 -4 11 69.88 19.91
-10 4 11 88.66 19.85
-9 4 11 80.81 19.81
-9 -4 11 51.61 16.63
-9 4 11 41.57 16.99
9 -4 -11 66.75 17.41
9 4 -11 30.2 15.09
-9 -4 11 19.17 16.97
-9 4 11 38 17.64
-8 4 11 -6.68 14.69
8 -4 -11 1.72 14.98
8 4 -11 -2.86 14.37
-8 -4 11 -1.66 14.52
-8 4 11 6.69 14.72
-8 -4 11 -1.85 15.41
-8 4 11 -6.97 15.11
-7 4 11 62.91 15.91
-7 -4 11 11.44 14.84
-7 4 11 42.74 15.7
7 -4 -11 68.85 17.26
7 4 -11 37.94 13.59
-7 -4 11 57.49 16.24
-7 4 11 32.1 14.65
-6 4 11 111.11 16.92
6 -4 -11 80.64 16.69
6 4 -11 74.1 14.95
-6 -4 11 82.72 17.55
-6 4 11 112.36 17.93
-6 -4 11 96.8 17.15
-6 4 11 121.52 18
-5 4 11 122.07 15.78
-5 -4 11 102.88 11.91
-5 -4 11 70.65 17.16
5 4 -11 110.57 15.29
-5 4 11 140.86 18.27
-5 -4 11 129.56 17.92
-5 4 11 92.5 17.29
-4 4 11 -1.11 11.51
-4 -4 11 9.59 14.28
-4 4 11 -1.61 14.5
-4 -4 11 20.3 9.42
4 -4 -11 25.38 14.52
4 4 -11 16.18 11.48
-3 -4 11 6.62 9.01
3 4 -11 19.63 12.65
3 4 -11 6.05 12.23
3 -4 -11 1.54 10.77
3 -4 -11 3.33 12.81
3 4 -11 7.73 11.32
-3 -4 11 -1.59 13.85
-3 4 11 3.22 13.36
2 4 -11 1.53 12.09
2 -4 -11 10.95 11.34
2 4 -11 5.77 11.13
2 -4 -11 -3.29 12.47
1 4 -11 6.19 12.45
1 -4 -11 14.19 11.61
1 4 -11 4.29 10.56
1 -4 -11 8.13 13.53
0 4 -11 -1.6 12.89
0 4 -11 7.99 10.23
0 -4 -11 8.04 13.26
0 4 -11 -1.58 12.85
0 -4 -11 -12.8 12.08
-1 4 -11 8.7 13.17
-1 4 -11 -14.62 13.62
-1 -4 -11 7.64 12.46
-1 4 -11 4.79 10.15
-1 -4 -11 8.8 11.85
-1 -4 -11 -14.27 13.65
-1 4 -11 -8.06 12.63
-1 -4 -11 4.87 11.96
-2 -4 -11 10.92 13.48
-2 4 -11 -6.68 13.73
-2 -4 -11 -1.67 12.11
-2 -4 -11 12.09 12.21
-2 4 -11 -3.36 13.63
-2 -4 -11 6.25 13
-3 4 -11 19.66 16.17
-3 -4 -11 -13.79 12.38
-3 4 -11 10.53 14.88
-3 -4 -11 3.25 12.97
-3 4 -11 18.21 13.9
-3 -4 -11 9.44 12.11
-4 4 -11 -6.75 15.77
-4 -4 -11 -11.7 13.56
-4 -4 -11 -7.52 12.36
-4 4 -11 9.27 15.42
-4 -4 -11 -3.43 13.86
-4 -4 -11 -16.49 16.24
-4 4 -11 1.45 13.84
-5 4 -11 6.39 15.46
-5 -4 -11 -8.85 13.13
-5 -4 -11 -5.42 14.42
-5 -4 -11 -26.83 18.97
-5 4 -11 1.51 14.49
-6 -4 -11 38.82 14.78
-6 -4 -11 -26.11 19.14
-7 -4 -11 14.76 14.78
-7 -4 -11 6.27 18.52
13 -5 -11 -10.56 15.75
12 -5 -11 -7.78 15.4
-11 -5 11 -28.84 22.97
-11 5 11 -8.08 19.59
11 -5 -11 -3.2 14.92
-10 5 11 -20.85 18.43
10 -5 -11 -1.64 15.41
-10 -5 11 12.56 17.14
-10 -5 11 -4.04 17.51
-10 5 11 7.52 17.41
-9 -5 11 22.43 15.36
-9 5 11 35.44 17.35
9 -5 -11 4.96 14.98
9 5 -11 16.99 15.38
-9 -5 11 -11.62 17.42
-9 5 11 27.03 16.96
-8 5 11 11.5 15.08
8 -5 -11 8.33 14.47
8 5 -11 22.01 13.95
-8 -5 11 21.72 15.28
-8 -5 11 16.88 15.79
-8 5 11 5.21 15.01
-7 -5 11 36.05 15.54
-7 5 11 54.34 15.64
7 -5 -11 55.13 16.03
7 5 -11 34.73 13.84
-7 -5 11 54.45 16.87
-7 5 11 60.53 17.03
-6 5 11 27.37 13.66
6 -5 -11 31.64 14.94
6 5 -11 55.88 14.08
-6 -5 11 34.02 14.24
-6 -5 11 39.11 15.99
-6 5 11 36.13 15.43
-5 5 11 37.22 13.18
-5 -5 11 22.5 14.87
-5 -5 11 26.22 10.88
5 5 -11 67.39 14.8
-5 -5 11 45.33 16.22
-5 5 11 49.91 15.42
-4 5 11 144.05 15.51
-4 -5 11 137.44 18.92
-4 -5 11 104.81 12.84
4 5 -11 119.26 15.27
-3 -5 11 115.75 13.29
3 5 -11 153.29 17.09
3 -5 -11 131.25 17.14
3 -5 -11 174.45 18.89
3 5 -11 119.22 15.42
-3 -5 11 105.05 17.7
2 -5 -11 172.07 19.02
2 5 -11 177.57 17.82
2 -5 -11 226.49 20.58
2 5 -11 168.5 17.11
1 -5 -11 214.69 20.91
1 5 -11 233.06 18.37
1 -5 -11 196.78 20.36
0 5 -11 233.93 21
0 5 -11 180.09 16.4
0 -5 -11 174.12 19.44
0 -5 -11 142.4 18.43
-1 5 -11 147.5 19.53
-1 -5 -11 195.42 19.73
-1 5 -11 144.49 15.71
-1 -5 -11 206.51 19.73
-1 -5 -11 134.85 18.01
-2 -5 -11 188.77 19.73
-2 -5 -11 201.8 19.77
-2 -5 -11 183.38 20.11
-2 5 -11 181.07 20.83
-2 -5 -11 208.51 20.92
-3 -5 -11 130.53 18.57
-3 5 -11 179.31 21.77
-3 -5 -11 150.1 17.43
-3 5 -11 113.2 19.61
-3 -5 -11 186.29 19.78
-3 5 -11 114.53 17.27
-4 5 -11 81.18 19.17
-4 -5 -11 84.81 17.19
-4 -5 -11 65.76 14.14
-4 -5 -11 94.84 17.36
-4 -5 -11 46.85 18.05
-4 5 -11 128.68 18.26
-5 5 -11 51.71 17.05
-5 -5 -11 13.53 12.81
-5 -5 -11 62.55 17.07
-5 -5 -11 15.68 17.54
-6 -5 -11 34.74 15.02
-6 -5 -11 43.18 20.75
-7 -5 -11 -11.96 14.67
13 -6 -11 11.65 15.71
12 -6 -11 58.87 16.56
-11 6 11 51.83 19.66
11 -6 -11 49.59 16.23
-10 6 11 56.11 18.94
10 -6 -11 45.8 15.38
-10 -6 11 72.02 19.57
-10 6 11 43.07 18.39
-9 -6 11 64.08 18.04
-9 6 11 38.75 6.41
-9 6 11 54.11 17.99
9 -6 -11 56.04 16.48
9 6 -11 74.37 17.44
-9 -6 11 31.36 18.19
-9 6 11 50.26 18.25
-8 6 11 59.92 16.45
8 -6 -11 41.96 15.07
-8 -6 11 55.48 16.7
8 6 -11 49.49 15.7
-8 -6 11 62.62 17.88
-8 6 11 72.58 18.09
-7 -6 11 24.73 15.36
-7 6 11 19.35 14.22
7 -6 -11 22.71 14.17
7 6 -11 45.99 15.46
-7 -6 11 29.34 16.35
-7 6 11 30.1 15.68
-6 6 11 13.49 13.74
6 -6 -11 22.75 14.4
6 6 -11 24.79 13.29
-6 -6 11 32.55 15.46
-6 -6 11 46.76 17.02
-6 6 11 49.03 16.17
-5 6 11 90.54 15.02
-5 -6 11 83.68 17.64
5 6 -11 98.11 15.97
-5 -6 11 77.19 12.54
-5 -6 11 86.24 17.37
-5 6 11 83.23 16.9
-4 -6 11 39.93 14.88
-4 6 11 29.62 12.09
4 6 -11 43.48 14.01
-4 -6 11 20.28 10.61
4 6 -11 11.4 12.89
-3 -6 11 10.02 10.08
3 6 -11 -6.33 12.71
3 -6 -11 13.9 12.32
3 6 -11 9.71 11.95
3 -6 -11 11.25 13.42
-3 -6 11 15.88 14.57
2 -6 -11 32.86 13.52
2 6 -11 21.6 13.13
2 6 -11 27.08 12.43
2 -6 -11 25.48 12.91
1 -6 -11 -1.58 12.27
1 6 -11 7.85 11.62
1 -6 -11 -11.06 13.55
0 -6 -11 11.2 12.93
0 6 -11 20.37 12.16
0 -6 -11 4.69 12.38
-1 6 -11 1.65 13.3
-1 -6 -11 28.48 14.24
-1 6 -11 6.31 11.5
-1 -6 -11 -10.81 14.31
-1 -6 -11 32.5 14
-2 6 -11 2.06 11.11
-2 -6 -11 3.02 13.76
-2 -6 -11 -9.15 13.43
-2 -6 -11 -1.66 13.89
-2 6 -11 -11.95 14.36
-2 -6 -11 1.53 13.67
-3 -6 -11 14.12 14.87
-3 -6 -11 16.56 12.83
-3 6 -11 -8.91 15.25
-3 -6 -11 49.16 16.27
-4 6 -11 -5.26 16.35
-4 -6 -11 17.93 12.48
-4 -6 -11 -3.31 14.76
-4 -6 -11 28.4 15.92
-4 -6 -11 5.75 17.91
-5 6 -11 26.2 15.89
-5 -6 -11 -1.53 12.56
-5 -6 -11 26.45 16.85
-5 -6 -11 -2 18.55
-6 -6 -11 -3.03 14.14
-6 -6 -11 33.64 20.93
-7 -6 -11 25.79 15.26
13 -7 -11 -5.63 15.59
12 -7 -11 -20.45 16.21
-11 7 11 17.68 18.84
11 -7 -11 25.61 16.41
-10 7 11 40.5 18.53
10 -7 -11 3.08 14.51
-10 -7 11 23.54 17.67
-10 7 11 21.82 16.57
-10 7 11 -16.79 18.37
-9 7 11 -3.5 16.12
-9 7 11 -5.16 16.58
9 -7 -11 7.83 14.27
-9 -7 11 1.98 17.08
-9 -7 11 5.21 15.72
-9 7 11 -12.51 17.02
-8 7 11 1.6 14.89
8 -7 -11 19 14.33
-8 -7 11 15.22 15.31
8 7 -11 -1.54 14.22
-8 7 11 -5.1 15.91
-8 -7 11 -5.76 16.48
-8 7 11 29.28 16.76
-7 -7 11 -6.62 14.09
-7 7 11 34.95 16.19
-7 7 11 7.36 14.2
7 -7 -11 -4.78 14.47
7 7 -11 -4.46 13.62
-7 -7 11 7.43 15.94
-7 7 11 19.95 15.89
-6 7 11 11.96 13.3
6 -7 -11 19.17 14.41
6 7 -11 -14.35 14.36
-6 -7 11 9.82 14.2
-6 7 11 44.44 16.48
-6 -7 11 -1.82 15.83
-6 7 11 11.38 15.01
-5 7 11 16.52 12.24
5 7 -11 1.37 13.85
-5 -7 11 24.19 14.7
5 -7 -11 19.16 14.01
-5 7 11 -3.27 15.05
5 7 -11 27.47 14.28
-5 -7 11 16.48 11.22
-5 -7 11 8.89 15.03
-5 7 11 23.82 15.64
-4 -7 11 4.79 13.84
-4 7 11 1.63 15.19
-4 7 11 9.26 11.06
4 7 -11 -6.71 13.08
-4 -7 11 -7.02 10.91
4 7 -11 10.54 12.89
-3 7 11 -4.23 9.96
-3 -7 11 -0.99 10.73
3 7 -11 9.02 12.71
3 7 -11 25.62 12.57
3 7 -11 18.03 13.17
3 -7 -11 -11.1 13.18
-3 -7 11 14.24 14.51
-3 7 11 1.63 15.08
-2 -7 11 2.97 10.64
2 7 -11 -10.64 12.89
2 -7 -11 6.26 13.42
2 7 -11 -13.46 12.08
2 7 -11 18.79 13.15
2 -7 -11 -3.15 13.06
1 7 -11 3.07 12.26
1 -7 -11 -1.58 13.03
1 7 -11 -17.32 11.91
1 -7 -11 -10.94 12.85
0 -7 -11 14.39 13.4
0 7 -11 10.01 11.59
0 -7 -11 -3.1 13.13
0 7 -11 -1.57 13.14
-1 7 -11 23.37 15.11
-1 -7 -11 22.22 14.2
-1 7 -11 11.99 11.75
-1 -7 -11 -12.26 12.59
-1 7 -11 -12.85 14.14
-1 -7 -11 16.25 13.35
-2 -7 -11 -1.51 14.24
-2 7 -11 10.77 11.42
-2 7 -11 12.03 13.56
-2 -7 -11 16.67 13
-2 -7 -11 -12.07 14.25
-2 7 -11 -6.66 14.07
-2 -7 -11 9.97 13.54
-2 7 -11 6.88 14.59
-3 7 -11 11.03 14.56
-3 -7 -11 25.04 14.87
-3 -7 -11 6.02 12.43
-3 7 -11 23.34 15.35
-3 -7 -11 3.13 14.5
-4 7 -11 12.33 16.89
-4 -7 -11 16.88 12.25
-4 -7 -11 29.6 16.47
-4 -7 -11 1.95 17.34
-5 7 -11 26.66 17.39
-5 -7 -11 3.08 12.5
-5 -7 -11 -5.22 17.55
-5 -7 -11 -18.41 19.42
-6 -7 -11 -7.66 14.2
-6 -7 -11 40.81 21.02
12 -8 -11 93.49 17.59
-11 8 11 63.94 20.48
11 -8 -11 60.1 16.83
-10 8 11 54.58 18.53
-10 -8 11 29.12 17.98
10 -8 -11 55.58 16.4
-10 8 11 67.63 18.71
-10 8 11 55.74 18.71
-9 8 11 66.32 17.4
9 -8 -11 81.15 16.42
-9 -8 11 61.04 18.26
-9 -8 11 34.15 17.76
-9 8 11 56.2 17.67
-9 8 11 35.57 17.35
-8 8 11 55.25 17.04
-8 -8 11 49.41 17.07
8 -8 -11 85.37 16.69
-8 8 11 87.27 18.68
8 8 -11 74.91 17.44
-8 -8 11 114.62 20.08
-8 8 11 114.93 19.54
-7 8 11 77.07 17.61
-7 8 11 91.36 16.82
7 -8 -11 81.41 15.87
7 8 -11 63.19 16.21
-7 -8 11 118.5 19.34
-7 8 11 112.29 18.82
-7 -8 11 69.76 17.46
-6 8 11 96.15 16.42
6 -8 -11 100.76 17.21
6 8 -11 105.4 17.19
-6 -8 11 87.25 17.88
-6 8 11 76.19 17.77
-6 -8 11 102.95 19.49
-6 8 11 111.35 18.38
-5 8 11 53.56 13.37
-5 -8 11 58.19 16.83
5 8 -11 54.65 14.59
-5 8 11 44.29 16.22
5 8 -11 42.65 14.83
5 -8 -11 53.6 14.88
-5 -8 11 46.44 12.66
-4 8 11 60.51 16.58
-4 8 11 61.12 13.07
4 8 -11 46.38 15.62
4 8 -11 51.23 14.88
-4 -8 11 47.59 12.55
-4 -8 11 35.11 15.52
-3 8 11 77.81 11.89
3 8 -11 55.14 14.42
-3 -8 11 65.02 13.43
3 8 -11 80.98 15.02
3 -8 -11 50.23 14.06
-3 -8 11 47.37 15.26
-3 8 11 71.68 16.99
-2 -8 11 7.5 10.96
2 8 -11 60.59 14.43
2 8 -11 37.36 13.88
2 -8 -11 24.93 14.38
2 8 -11 38.35 13.78
2 -8 -11 18.72 13.33
1 8 -11 10.72 13.29
1 -8 -11 11.04 14.37
1 8 -11 11.91 11.96
1 -8 -11 1.55 12.09
0 8 -11 25.03 13.72
0 -8 -11 -4.79 13.6
0 8 -11 -5.77 11.87
0 -8 -11 -1.54 13.27
-1 8 -11 21.92 15.87
-1 8 -11 15.85 11.98
-1 -8 -11 10.66 12.87
-1 8 -11 17.66 13.31
-1 -8 -11 -3.25 13.94
-2 -8 -11 2.98 14.28
-2 8 -11 6.76 12.08
-2 -8 -11 10.59 12.89
-2 8 -11 12.01 13.73
-2 8 -11 19.95 15.25
-2 -8 -11 9.95 14.96
-2 8 -11 1.73 14.87
-2 -8 -11 -6.02 14.06
-3 8 -11 15.74 14.72
-3 -8 -11 12.47 15.25
-3 -8 -11 4.6 11.65
-3 -8 -11 1.71 14.49
-3 -8 -11 18.51 15.09
-4 -8 -11 20.18 13.29
-4 -8 -11 22.64 15.48
-4 -8 -11 17.96 18.62
-5 -8 -11 31.01 13.61
-5 -8 -11 42.95 18.68
-5 -8 -11 66.79 20.9
-6 -8 -11 4.67 13.76
12 -9 -11 -10.98 14.52
-11 9 11 3.82 18.3
11 -9 -11 1.42 14.76
-10 9 11 14.29 17.17
10 -9 -11 -5.87 15.24
-10 9 11 3.7 17.12
-9 9 11 8.35 17.26
9 -9 -11 -13.51 14.64
-9 -9 11 5.26 16.15
-9 9 11 17.62 16.88
-9 -9 11 8.14 17.59
-9 9 11 -14.16 17.01
-8 -9 11 20.56 17.02
-8 9 11 12.45 14.33
-8 9 11 39.63 17.26
8 -9 -11 9.15 14.05
8 9 -11 14.85 15.74
-8 -9 11 29.41 16.71
-8 9 11 10.24 15.3
-7 9 11 68.8 16.32
7 -9 -11 41.62 15.16
7 9 -11 31.92 15.5
-7 -9 11 49.54 17.5
-7 9 11 47.64 17.38
-7 -9 11 80.18 17.62
-7 9 11 72.34 18.05
-6 9 11 49.42 14.06
6 9 -11 20.3 14.59
6 9 -11 50.47 15.91
6 -9 -11 31.08 13.9
-6 -9 11 19.78 16.24
-6 9 11 18.41 15.47
-6 -9 11 46.34 17.45
-6 9 11 64.08 17
-5 -9 11 116.7 19
5 9 -11 135.71 18.57
-5 9 11 143.36 20.12
5 9 -11 120.23 18.18
5 -9 -11 143.3 18.59
-5 -9 11 134.62 16.72
-4 9 11 96.66 18.91
-4 9 11 123.07 14.31
4 9 -11 139.08 17.77
4 9 -11 146.23 18.54
-4 -9 11 90.52 15.17
-4 -9 11 143.87 19.67
-3 9 11 85.21 11.8
3 9 -11 95.15 15.91
-3 -9 11 56.05 14.34
3 9 -11 92.49 16.51
-3 9 11 109.35 18.17
-2 -9 11 80.61 15.21
2 9 -11 95.41 15.64
2 9 -11 126.95 17.44
2 9 -11 96.44 16.6
2 -9 -11 111.6 17.48
2 -9 -11 116.11 16.57
1 9 -11 93.3 17.39
1 -9 -11 121.15 18.15
1 9 -11 136.22 16.7
1 -9 -11 150.86 17.61
0 9 -11 79.64 16.95
0 -9 -11 137 18.86
0 9 -11 135.49 16.01
0 -9 -11 97.74 16.13
-1 9 -11 137.88 16.52
-1 -9 -11 152.24 17.43
-1 9 -11 130.03 19.09
-1 -9 -11 115.15 18.38
-2 -9 -11 203.37 21.27
-2 9 -11 170.43 17.92
-2 9 -11 143.82 19.66
-2 -9 -11 197.61 19.76
-2 -9 -11 172.31 20.46
-2 9 -11 124.47 19.57
-2 -9 -11 176.9 21.39
-3 9 -11 62.75 17.27
-3 -9 -11 101.72 16.62
-3 -9 -11 102.34 18.17
-3 9 -11 72.9 17.68
-3 -9 -11 70.05 17.64
-3 -9 -11 78.92 17.87
-4 -9 -11 60.76 15.31
-4 -9 -11 27.06 17.5
-4 -9 -11 46.78 18.93
-5 -9 -11 84.65 16.1
-5 -9 -11 59.13 19.97
-5 -9 -11 123.47 23.36
12 -10 -11 6.66 15.33
-11 10 11 -5.68 18.51
11 -10 -11 -1.39 14.85
-10 10 11 -12.38 17.35
10 -10 -11 1.43 14.62
-10 10 11 1.84 17.56
-9 10 11 8.25 15.81
9 -10 -11 -17.64 14.13
-9 -10 11 -7.07 17.35
-9 10 11 3.54 16.5
-9 -10 11 6.17 19.3
-9 10 11 -12.3 17.54
-8 -10 11 10.31 16.9
-8 10 11 1.73 16.13
-8 10 11 -3.06 14.88
8 -10 -11 3 14.62
-8 -10 11 -3.96 17.53
-8 10 11 -3.39 16.27
-7 10 11 -8.46 14.16
7 10 -11 -3.29 15.77
7 -10 -11 7.6 13.89
-7 -10 11 -6.73 15.87
-7 -10 11 -3.85 16.2
-7 10 11 -4.9 16.29
-7 10 11 10.15 16.83
-6 10 11 16.75 13.76
6 10 -11 4.76 14.83
-6 -10 11 -3.3 15.42
6 -10 -11 16.88 13.7
-6 10 11 -10.07 16.19
-6 -10 11 5.61 15.63
-6 10 11 11.11 15.07
-5 -10 11 11.36 15.13
-5 10 11 22.9 12.27
-5 10 11 11.6 15.46
5 10 -11 -1.46 14.38
5 10 -11 32.54 15.69
5 -10 -11 20.06 14.39
-5 -10 11 12.57 12.49
-4 10 11 15.6 11.04
4 10 -11 15.62 13.81
4 10 -11 -4.55 13.81
-4 -10 11 -2.47 12.73
-4 -10 11 -12.78 14.79
-4 10 11 -13.17 15.25
-3 10 11 21.2 9.8
3 10 -11 -5.45 13.43
3 10 -11 -1.5 14.73
-3 -10 11 13.44 12.06
-3 10 11 13.1 15.5
-2 -10 11 3.68 11.45
2 10 -11 10.47 12.74
2 10 -11 16.2 14.25
2 10 -11 22.54 13.56
2 -10 -11 10.8 13.55
2 -10 -11 27.73 14.42
1 10 -11 13.72 12.99
1 -10 -11 10.98 14.35
1 10 -11 11.62 14.9
1 10 -11 39.27 13.21
1 -10 -11 3.07 12.97
0 10 -11 -7.78 13.74
0 -10 -11 -9.52 14.41
0 10 -11 3.75 12.73
0 -10 -11 -3.06 12.32
-1 10 -11 7.35 12.91
-1 -10 -11 24.86 14.25
-1 10 -11 -8.02 13.86
-1 -10 -11 -14.55 15.07
-2 -10 -11 -13.06 13.99
-2 10 -11 2.98 13.8
-2 10 -11 19.62 13.62
-2 -10 -11 -23.68 13.85
-2 -10 -11 -5.97 14.76
-2 10 -11 -8.29 14.29
-2 -10 -11 -4.94 15.34
-3 -10 -11 14.13 13.77
-3 10 -11 -7.8 15.1
-3 10 -11 10.39 15.67
-3 -10 -11 1.7 14.84
-3 -10 -11 21.62 16.29
-3 -10 -11 8.95 14.39
-4 -10 -11 6.31 14.08
-4 -10 -11 10.38 18.21
12 -11 -11 -6.49 15.1
11 -11 -11 -20.3 15.29
-10 11 11 -6.98 16.73
10 -11 -11 -5.61 14.53
-10 11 11 5.47 18.39
-9 11 11 -6.5 15.95
-9 -11 11 7.12 17.05
9 -11 -11 -7.21 13.54
-9 11 11 -17.81 17.38
-9 11 11 -19.23 17.11
-8 -11 11 20.71 17.74
-8 11 11 10.41 16.11
-8 11 11 -6.06 14.48
8 -11 -11 1.47 13.79
-8 -11 11 -6 18.35
-8 11 11 -1.67 15.85
-7 11 11 26.53 14.97
7 -11 -11 22.5 14.28
-7 -11 11 13.53 15.99
-7 -11 11 25.29 18.33
-7 11 11 20.4 16.37
-7 11 11 35.61 16.84
-6 11 11 44.51 13.99
-6 -11 11 13.18 15.46
6 11 -11 49.53 16.48
6 -11 -11 48.59 14.65
-6 11 11 25.2 16.81
-6 -11 11 16.98 17.23
-6 11 11 20.39 15.4
-5 -11 11 -1.62 15.04
-5 11 11 -1.66 15.42
-5 11 11 -1.13 12.32
5 11 -11 -1.61 14.26
5 -11 -11 3.06 13.23
-5 -11 11 6.67 12.47
-4 11 11 27.19 11.41
4 11 -11 33.34 15.07
4 11 -11 44.65 16.05
-4 -11 11 32.84 14.25
4 -11 -11 27.63 13.8
-4 -11 11 28.67 16.07
-4 11 11 19.87 15.38
-3 11 11 80.05 11.75
3 11 -11 112.69 17.11
3 11 -11 88.11 18.53
-3 -11 11 93.43 15.51
-2 11 11 36.1 8.2
2 11 -11 160.18 21.18
2 11 -11 15.47 14.32
-2 -11 11 31.26 13.55
2 11 -11 58.46 14.87
2 -11 -11 73.65 16.37
2 -11 -11 49.2 14.04
-1 -11 11 51.21 13.8
1 11 -11 71.48 15.7
1 11 -11 30.56 15.61
1 -11 -11 71.69 16.74
1 11 -11 49.81 14.74
1 -11 -11 13.94 13.51
0 11 -11 -9.31 14.93
0 -11 -11 23.68 14.45
0 11 -11 23.18 13.12
0 -11 -11 39.26 14.08
-1 -11 -11 43.38 16.23
-1 11 -11 32.86 16.08
-1 11 -11 38.14 14.21
-1 -11 -11 66.82 14.71
-1 11 -11 51.17 15.39
-2 11 -11 53.68 14.88
-2 -11 -11 36.48 13.77
-2 11 -11 13.22 14.18
-2 -11 -11 27.89 15.92
-3 11 -11 76.22 17.88
-3 11 -11 36.67 14.92
-3 -11 -11 44.62 16.5
-3 -11 -11 36.49 15.29
-3 11 -11 20.72 15.76
-3 -11 -11 30.41 17.21
-4 -11 -11 32.06 15.15
-4 -11 -11 8.8 15.94
11 -12 -11 48.22 16.27
-10 12 11 43.23 18.27
10 -12 -11 53.8 15.81
-10 12 11 65.02 20.04
-9 -12 11 35.75 19.1
-9 12 11 49.85 17.4
-9 12 11 30.41 17.86
9 -12 -11 34.1 14.61
-9 12 11 36.37 17.68
-8 12 11 78.35 19.71
-8 12 11 64.15 16.97
8 -12 -11 49.47 15.16
-8 -12 11 74.86 21.11
-8 12 11 47.97 17.87
-8 -12 11 62.31 18.64
-7 12 11 89.54 16.51
7 -12 -11 109.86 17.5
-7 -12 11 69.52 18.66
-7 12 11 85.57 18.57
-7 -12 11 86.31 20.39
-7 12 11 56.11 17.02
-6 -12 11 44.53 17.05
-6 12 11 61.67 15.06
6 12 -11 68.87 17.91
-6 12 11 79.16 17.98
6 -12 -11 57.19 15.43
-6 -12 11 129.39 20.74
-6 12 11 65.15 17.26
-5 12 11 20.03 16.49
-5 12 11 54.01 13.21
5 12 -11 10.13 15.4
5 -12 -11 42.63 14.53
-5 -12 11 55.09 15.58
-5 -12 11 25.79 16.02
-4 12 11 9.66 11.75
4 12 -11 48.26 17.44
-4 -12 11 23.63 14.28
4 -12 -11 1.53 13.57
-4 -12 11 37.97 16.29
-4 12 11 28.25 15.8
-3 12 11 26.09 9.97
3 12 -11 42.81 15.12
3 12 -11 3.3 15.78
-3 -12 11 21.97 14.12
-2 12 11 12.55 7.89
2 12 -11 8.13 15.36
2 12 -11 15.23 14.29
-2 -12 11 13.77 12.89
2 12 -11 43.26 14.82
2 -12 -11 15.71 13.89
-1 -12 11 20.78 13.9
1 12 -11 9.63 15.42
1 12 -11 9.1 13.87
1 12 -11 -13.56 14.2
1 -12 -11 -1.55 13.62
1 -12 -11 -3.17 12.82
0 12 -11 -3.09 14.06
0 -12 -11 -7.85 14.87
0 12 -11 9.3 13.94
0 -12 -11 3.2 13.04
-1 -12 -11 14.37 15.08
-1 12 -11 1.32 13.4
-1 -12 -11 15.95 13.53
-1 12 -11 6.36 14.83
-2 12 -11 -7.99 13.69
-2 -12 -11 6.39 13.56
-2 12 -11 3.3 14.6
-2 -12 -11 13.07 14.53
-3 -12 -11 13.75 15.46
-3 12 -11 9.55 14.81
-3 -12 -11 4.84 14.75
-3 12 -11 10.86 16.07
-3 12 -11 10.31 15.34
-3 -12 -11 -10.08 16.29
-4 -12 -11 -3.5 16.14
11 -13 -11 -1.36 15.34
-10 13 11 12.06 17.98
10 -13 -11 -1.4 13.59
-10 13 11 3.57 17.77
-9 -13 11 10.74 18.45
-9 13 11 -16.15 18.15
-9 13 11 3.2 15.33
9 -13 -11 1.43 13.81
-9 13 11 -10.27 18.18
-8 13 11 5.93 14.83
8 -13 -11 10.26 13.87
-8 -13 11 -5.21 16.94
-8 13 11 11.47 15.37
-8 13 11 -17.46 17.52
-7 13 11 19.11 14.65
-7 -13 11 11.83 16.91
7 -13 -11 13.47 14.48
-7 13 11 -1.72 17.59
-7 -13 11 9.87 17.99
-7 13 11 20.55 16.42
-6 -13 11 24.71 16.68
-6 13 11 -1.69 16.29
-6 13 11 6.22 12.35
6 -13 -11 22.83 14.51
-5 13 11 10.02 16.34
-5 13 11 7.8 12.07
5 13 -11 -5.31 16.97
5 -13 -11 21.68 14.3
-5 -13 11 8.95 15.25
-5 -13 11 -1.61 15.76
-4 13 11 26.96 11.35
4 13 -11 31.44 16.99
-4 -13 11 19.08 14.53
4 -13 -11 45.54 16.06
-4 13 11 38.19 16.98
-3 13 11 16.89 9.71
3 13 -11 31.03 17.14
-3 -13 11 39.11 14.69
-2 13 11 1.54 7.23
2 13 -11 -13.66 16.85
-2 -13 11 1.45 14.23
-1 -13 11 -8.76 13.95
1 13 -11 3.39 16.37
1 13 -11 4.52 13.67
1 -13 -11 12.26 14.95
1 -13 -11 4.83 13.96
0 13 -11 24.56 14.6
0 -13 -11 38.95 15.95
0 13 -11 75.71 16.09
0 -13 -11 43.39 15.13
-1 13 -11 56.92 15.97
-1 -13 -11 45.98 16.73
-1 -13 -11 35.51 14.17
-2 -13 -11 16.26 14.33
-2 13 -11 26.26 14.87
-2 -13 -11 16.24 15.25
-3 13 -11 18.8 16.64
-3 -13 -11 25 15.85
-4 13 -11 -14.34 18.13
-4 -13 -11 8.67 17.96
11 -14 -11 -4 14.72
-10 14 11 8.6 16.69
10 -14 -11 11.12 14.34
-10 14 11 26.49 19.18
-9 14 11 6.38 15.49
9 -14 -11 31.75 15.04
-9 14 11 6.74 17.55
-8 14 11 35.39 16.28
8 -14 -11 11.9 14.13
-8 14 11 -14.55 17.6
-8 14 11 29.76 18.38
-7 14 11 10.85 14.24
7 -14 -11 33.56 14.85
-7 14 11 17.24 18.18
-7 -14 11 -11.89 18.94
-7 14 11 3.11 15.28
-6 -14 11 13.11 17.2
-6 14 11 1.69 17.29
-6 14 11 29.67 13.49
6 -14 -11 3.11 14.18
-5 14 11 4.42 11.79
5 -14 -11 17.35 15.02
-5 -14 11 -14.15 16.08
-5 -14 11 22.44 16.69
-5 14 11 -6.71 16.78
4 14 -11 1.83 16.48
-4 14 11 15.29 11.18
-4 -14 11 3.09 15.3
4 -14 -11 -1.59 14.27
-4 14 11 6.64 16.61
3 14 -11 -9.01 16.37
-3 14 11 5.4 10.01
-3 -14 11 1.52 15.3
3 -14 -11 20.9 14.45
-2 14 11 -13.84 8.04
2 14 -11 -3.57 17.03
-2 -14 11 6.1 15.1
1 14 -11 -10.66 17.68
-1 -14 11 -3.07 14.94
1 14 -11 7.47 14.62
1 -14 -11 25.74 14.94
1 -14 -11 16.22 14.38
0 14 -11 -12.2 14.92
0 -14 -11 3.09 15.52
0 -14 -11 26.09 13.73
-1 14 -11 3.14 15.1
-1 -14 -11 9.43 15.56
-1 -14 -11 16.43 14.05
-2 -14 -11 1.61 15.45
-2 14 -11 1.63 15.55
-3 14 -11 1.7 16.18
-3 -14 -11 -14.9 16.93
-4 14 -11 -23.15 18.66
10 -15 -11 -4.15 15.44
-10 15 11 8.7 18.98
-9 15 11 17.5 16.74
9 -15 -11 31.6 15.35
-9 15 11 44.68 18.79
-8 15 11 -1.47 15.38
8 -15 -11 -7.4 14.76
-8 15 11 21.09 18.53
-8 15 11 3.18 17.31
-7 15 11 2.7 13.51
-7 15 11 -8.61 18.15
7 -15 -11 6.08 14.25
-6 15 11 18.68 17.1
-6 15 11 8.61 12.4
6 -15 -11 26.4 15.72
-5 15 11 20.93 12.37
5 -15 -11 -1.58 14.86
-5 15 11 1.68 17.13
-4 15 11 29.63 11.58
-4 -15 11 6.49 15.96
4 -15 -11 41.64 16.06
-3 15 11 30.3 10.27
-3 -15 11 28.83 16.78
3 -15 -11 48.61 15.59
-2 15 11 54.74 8.92
2 15 -11 56 18.98
-2 -15 11 70.42 17.81
1 15 -11 70.72 20.23
-1 -15 11 56.39 17.42
1 15 -11 62.11 16.14
1 -15 -11 108.69 17.7
0 15 -11 111.86 19.02
-1 15 -11 68.36 17.36
-2 15 -11 67.9 17.47
-4 15 -11 42.32 18.02
-10 16 11 28.95 20.02
-9 16 11 12.77 16.53
9 -16 -11 47.5 15.99
-9 16 11 14.66 18.08
-8 16 11 23.56 15.71
8 -16 -11 26.71 15.71
-8 16 11 5.29 18.4
-8 16 11 31.19 18.76
-7 16 11 34.44 19.54
-7 16 11 48.58 16.85
7 -16 -11 38.13 16.6
-6 16 11 49.24 19.12
-6 16 11 39.29 14.79
6 -16 -11 51.56 15.87
-5 16 11 42.89 13.38
-5 -16 11 43.38 18.86
5 -16 -11 44.59 16.57
-5 16 11 16.81 17.75
-4 16 11 16.22 11.16
-4 -16 11 30.65 17.07
4 -16 -11 43.7 15.92
-3 16 11 18.71 10.01
-3 -16 11 40.32 18.39
3 -16 -11 32.85 15.73
-2 -16 11 3.36 15.74
-1 -16 11 28.69 16.62
1 16 -11 1.46 13.55
0 16 -11 26.91 14.67
-1 16 -11 -3.07 14.14
-2 16 -11 -7.98 15.16
-3 16 -11 16.68 17.11
-4 16 -11 12.22 17.81
-9 17 11 6.43 17.12
-8 17 11 -10.38 16.02
-8 17 11 -12.3 19.83
-8 17 11 -13.71 17.53
-7 17 11 -3.45 18.99
-7 17 11 -1.36 15.12
-6 17 11 -14.78 14.2
-6 -17 11 3.7 18.26
-6 17 11 -23.76 18.26
-5 17 11 -17.62 13.14
-5 -17 11 -10.92 18.31
-5 17 11 1.67 18.13
-4 -17 11 1.78 16.6
-3 -17 11 8.8 17.17
-2 -17 11 -1.76 16.56
-1 -17 11 21.17 18.15
0 17 -11 11.78 14.99
-1 17 -11 -4.54 14.64
-2 17 -11 9.43 15.68
-3 17 -11 1.65 17.38
-4 17 -11 -12.05 19.51
-8 18 11 1.5 16.03
-7 18 11 5.17 18.78
-6 18 11 45.87 19.54
-5 -18 11 13.32 18.52
-4 -18 11 26.07 18.03
-3 -18 11 7.36 17.69
-2 -18 11 33.01 17.89
-1 -18 11 -3.68 17.1
0 18 -11 40.49 16.36
-1 18 -11 2.98 15.71
-2 18 -11 16.96 16.11
-3 18 -11 -3.23 17.05
-4 18 -11 -8.47 19.04
-7 19 11 41.2 20.42
-6 19 11 43.77 19.8
-1 19 -11 89.01 18.09
-2 19 -11 27.18 17.14
-3 19 -11 56.86 18.82
-1 20 -11 15.61 16.54
-10 0 12 94.82 24.29
-9 0 12 67.93 21.61
-8 0 12 45.89 18.61
-8 0 12 58.5 18.47
-7 0 12 38.23 8.02
-7 0 12 41.26 17.06
-6 0 12 35.68 16.79
-5 0 12 127.35 19.52
-4 0 12 86.36 17.78
3 0 -12 40.37 14.55
-3 0 12 52.71 16.58
2 0 -12 1.7 13.01
2 0 -12 4.17 17.47
1 0 -12 -3.43 12.55
1 0 -12 -18.48 17.55
0 0 -12 -12.16 14.04
0 0 -12 2 17.29
-1 0 -12 34.7 16
-1 0 -12 15.46 15.45
-1 0 -12 31.94 14.2
-2 0 -12 15.03 14.79
-2 0 -12 9.14 15.03
-3 0 -12 18.19 14.95
-3 0 -12 -1.91 14.68
-4 0 -12 42.11 16.67
-4 0 -12 28.68 17.7
-5 0 -12 33.66 16.66
-5 0 -12 65.38 20.13
-6 0 -12 3.85 17.61
-10 -1 12 -2.24 20.17
-10 1 12 28.18 21.15
-9 -1 12 20.91 19.69
-9 1 12 18.32 19.99
-8 1 12 1.88 17.64
-8 -1 12 18.27 16.02
-8 1 12 21.97 16.29
-8 -1 12 -5.86 17.2
-7 1 12 22.49 16.11
-7 1 12 25.87 5.93
-7 -1 12 37.39 9.26
-7 -1 12 22.9 17.59
-7 -1 12 19.75 16.23
-7 1 12 28.74 16.29
-6 -1 12 53.58 8.35
-6 -1 12 39.23 16.82
-6 1 12 64.3 17.16
-6 -1 12 72.9 17.89
-5 -1 12 63.64 17.52
-5 1 12 76.16 17.55
-4 -1 12 58.11 17.05
-4 1 12 63.44 17.36
3 1 -12 45.28 15.56
3 -1 -12 24.61 17.8
3 -1 -12 57.38 15.3
-3 -1 12 26.33 15.85
-3 1 12 35.2 15.57
2 1 -12 32.19 15.52
2 -1 -12 30.68 14.49
2 1 -12 15.95 13.85
2 -1 -12 26.33 17.34
1 1 -12 41 14.84
1 -1 -12 41.15 14.85
1 1 -12 52.69 17.46
1 -1 -12 19.83 16.76
0 1 -12 86.73 17.38
0 -1 -12 66.12 16.29
0 1 -12 61.95 18.68
0 -1 -12 86.67 19.45
-1 1 -12 61.18 15.95
-1 -1 -12 46.45 16.11
-1 1 -12 32.06 16.72
-1 -1 -12 88.52 18.22
-1 1 -12 47.87 15.4
-1 -1 -12 39.09 14.86
-2 1 -12 13.44 15.97
-2 -1 -12 5.51 14.21
-2 1 -12 18.28 14.84
-2 -1 -12 1.83 14.27
-3 -1 -12 21.43 15.05
-3 1 -12 -1.91 15.77
-3 -1 -12 11.43 15.22
-4 1 -12 33.86 16.96
-4 -1 -12 41.44 16.19
-4 -1 -12 23.95 16.99
-4 1 -12 13.93 17.02
-5 1 -12 8.51 16.02
-5 -1 -12 6.66 15.42
-5 -1 -12 19.18 17.66
-5 1 -12 23.54 17.36
-6 -1 -12 -14.4 16.01
-6 -1 -12 25.81 18.85
-10 -2 12 15.88 21.27
-10 2 12 2.12 19.17
-9 -2 12 31.76 20.43
-9 2 12 9.96 19.33
-8 2 12 3.72 17.65
-8 -2 12 -21.93 16.65
-8 2 12 1.84 16.16
-8 2 12 -2.84 5.76
-8 -2 12 29.58 17.29
-7 2 12 -10.22 16.47
-7 -2 12 12.29 9.07
-7 -2 12 -17.33 17.07
-7 -2 12 7.19 15.18
-7 2 12 -19.81 16.94
-6 -2 12 -11.39 8.45
-6 -2 12 -12.49 15.31
-6 2 12 -16.11 16.95
-6 -2 12 -1.88 16.11
-5 -2 12 -3.21 7.81
-5 -2 12 8.85 15.47
-5 2 12 1.77 15.39
4 -2 -12 -2.01 16.81
-4 -2 12 36.96 16.92
-4 2 12 1.77 15.18
3 2 -12 28.37 15.19
3 2 -12 36.79 14.95
3 -2 -12 28.76 13.69
3 -2 -12 -7.96 15.34
-3 -2 12 12.26 14.94
-3 2 12 21.16 15.03
2 2 -12 -1.69 13.65
2 -2 -12 -6.84 12.52
2 2 -12 -18.66 14.55
2 -2 -12 9.79 15.76
1 2 -12 17.02 13.28
1 -2 -12 12.04 12.92
1 -2 -12 -3.82 15.43
0 2 -12 3.46 13.62
0 -2 -12 8.72 12.91
0 2 -12 -31.74 19.15
0 -2 -12 15.02 15.68
-1 2 -12 5.28 14.7
-1 -2 -12 22.19 15.18
-1 2 -12 -2.06 15.58
-1 -2 -12 -14.73 16.2
-1 2 -12 8.85 14.18
-1 -2 -12 12.44 13.68
-2 -2 -12 -6.97 14.9
-2 2 -12 5.93 15.56
-2 -2 -12 -23.4 16.72
-2 2 -12 -10.97 15.09
-2 -2 -12 -3.66 13.8
-3 2 -12 -1.89 16.4
-3 -2 -12 -15.79 13.94
-3 2 -12 -3.82 15.23
-3 -2 -12 -7.61 14.64
-3 2 -12 -3.3 15.21
-4 2 -12 -21.73 17.41
-4 -2 -12 5.11 14.33
-4 -2 -12 -15.12 16.1
-4 2 -12 -20.28 16.55
-5 2 -12 -1.73 16.29
-5 -2 -12 -1.65 14.96
-5 -2 -12 -5.91 17.33
-6 -2 -12 -3.2 15.59
-11 3 12 -13.12 21.22
11 -3 -12 -15.38 19.41
-10 3 12 -2.07 19.45
10 -3 -12 -3.91 18.72
-9 3 12 23.36 18.49
9 -3 -12 13.81 18.33
-9 3 12 -3.96 18.38
-8 -3 12 -14.65 17.23
-8 3 12 14.55 17.28
-8 3 12 3.68 16.13
8 -3 -12 -7.93 18.07
8 3 -12 4.41 14.63
-8 -3 12 9.93 16.97
-8 3 12 -13.35 17.72
-7 3 12 73.76 18.02
7 -3 -12 -1.99 16.57
-7 -3 12 20.17 10.09
-7 -3 12 43.2 17.49
-7 -3 12 33.01 17.84
-7 3 12 13.02 16.18
-7 3 12 37.97 17.15
-6 3 12 64.96 16.12
6 -3 -12 45.57 18.81
-6 -3 12 41.07 10.28
-6 -3 12 94.57 18.46
-6 3 12 87.91 18.32
-6 -3 12 60.77 17.76
-6 3 12 81.82 18.41
-5 -3 12 69.08 17.45
-5 3 12 64.01 17.06
-5 -3 12 22.84 8.99
4 -3 -12 11.7 15.52
-4 -3 12 29.96 17.02
-4 3 12 38.98 16.12
3 3 -12 110.41 17.59
3 3 -12 116.77 18.48
3 -3 -12 120.4 17.17
3 -3 -12 86.31 18.96
-3 -3 12 94.55 18.49
-3 3 12 130.79 19.02
2 3 -12 225.44 20.3
2 3 -12 181.9 21.53
2 -3 -12 175.16 21.92
2 -3 -12 222.54 21.38
1 3 -12 181.76 21.35
1 -3 -12 151.64 19.6
1 3 -12 180.16 17.84
1 -3 -12 182.38 20.97
0 3 -12 136.57 19.44
0 -3 -12 106.48 18.6
0 -3 -12 176.21 20.14
-1 -3 -12 94.77 17.08
-1 3 -12 101.16 20.11
-1 -3 -12 82.82 17.68
-1 3 -12 86.74 17.79
-1 -3 -12 62.29 15.58
-2 -3 -12 69.03 16.1
-2 3 -12 87.47 18.95
-2 -3 -12 63.61 17.34
-2 3 -12 71.26 17.34
-2 -3 -12 82.21 16.69
-3 3 -12 92.46 19.85
-3 -3 -12 72.44 16.27
-3 3 -12 70.64 18.07
-3 -3 -12 47.5 15.48
-3 3 -12 81.39 18.3
-4 3 -12 57.01 18.41
-4 -3 -12 78.96 16.33
-4 -3 -12 42.55 17.37
-5 3 -12 10.46 16.48
-5 -3 -12 39.24 15.83
-5 -3 -12 12.09 17.37
-6 -3 -12 6.5 15.14
12 -4 -12 14.42 18.74
-11 4 12 34.43 21.36
11 -4 -12 50.08 19.83
-10 4 12 48.66 20.54
10 -4 -12 69.89 20.45
-9 4 12 57.05 19.47
9 -4 -12 108.79 20.65
-9 4 12 84.7 20.57
-8 -4 12 23.9 17.05
-8 4 12 16.61 17.23
-8 4 12 55.14 17.98
8 -4 -12 51.87 18.76
8 4 -12 46.45 15.89
-8 -4 12 64.21 19.53
-8 4 12 43.67 18.87
-7 4 12 24.66 15.82
7 -4 -12 13.48 16.39
-7 -4 12 27.1 16.19
-7 4 12 61.67 18.11
-7 -4 12 58.83 17.92
-7 4 12 35.18 17.48
-6 4 12 43.03 15.81
6 -4 -12 49.89 17.32
-6 -4 12 35.56 10.82
-6 -4 12 28.58 15.69
-6 4 12 21.58 16.62
-6 -4 12 72.88 19.05
-6 4 12 45.2 17.03
-5 -4 12 1.77 15.49
-5 4 12 7.14 15.49
-5 -4 12 0.75 9.45
-4 -4 12 14.45 9.05
4 4 -12 1.44 14.6
4 -4 -12 11.26 16.16
-4 -4 12 -10.57 16
-4 4 12 12.44 15.53
3 4 -12 -1.37 13.73
3 -4 -12 5.1 12.52
3 -4 -12 24.16 14.7
-3 4 12 1.77 15.53
2 4 -12 18.49 14.76
2 -4 -12 32.6 13.64
2 4 -12 17.9 14.12
2 -4 -12 -5.52 13.98
1 4 -12 25.43 15.24
1 -4 -12 12.09 12.85
1 4 -12 2.34 12.82
1 -4 -12 7.28 15.62
0 4 -12 -1.72 14.05
0 -4 -12 -3.49 12.8
0 -4 -12 -1.79 15.33
-1 -4 -12 -6.71 13.61
-1 -4 -12 -14.16 15.9
-1 4 -12 17.69 15.06
-1 -4 -12 -12.46 13.04
-2 -4 -12 -8.55 15.22
-2 4 -12 18.67 17.46
-2 -4 -12 -19.08 16.27
-2 4 -12 -3.65 15.78
-2 -4 -12 5.48 12.89
-3 4 -12 21.78 18.04
-3 -4 -12 3.4 13.98
-3 4 -12 9.54 16.74
-3 -4 -12 18.96 14.66
-4 4 -12 18.62 17.08
-4 -4 -12 3.32 13.76
-4 -4 -12 -25.69 19.11
-5 4 -12 3.53 16.69
-5 -4 -12 -4.89 14.75
-5 -4 -12 -14.42 18.84
-6 -4 -12 19.77 16.14
12 -5 -12 -5.21 18.3
11 -5 -12 -7.11 17.69
-10 5 12 -9.97 18.88
10 -5 -12 10.87 17.78
-9 5 12 -13.08 18.9
9 -5 -12 11 17.14
-9 5 12 -1.96 17.69
-8 -5 12 -3.69 16.23
-8 5 12 1.74 16.8
8 -5 -12 5.54 16.82
8 5 -12 -4.6 14.25
-8 -5 12 -2.03 16.8
-8 5 12 5.66 16.67
-7 5 12 12.87 17.01
7 -5 -12 16.67 16.19
7 5 -12 2.92 14.68
-7 -5 12 18.15 16.92
-7 -5 12 3.96 17.2
-7 5 12 16.58 17.01
-6 5 12 4.38 14.96
6 -5 -12 5.54 15.55
-6 -5 12 -1.79 15.69
-6 -5 12 1.8 10.87
-6 -5 12 11.61 17.04
-6 5 12 -8.98 16.09
-5 5 12 21.77 13.87
-5 -5 12 -1.78 16.18
-5 -5 12 7.66 10.33
-4 -5 12 4.12 9.93
4 5 -12 -13.08 14.63
-4 -5 12 -21.16 16.38
3 5 -12 13.87 14.95
3 -5 -12 3.64 14.27
2 -5 -12 -1.72 12.78
2 5 -12 1.3 14.01
2 -5 -12 -16.22 15.23
1 -5 -12 -1.73 12.67
1 5 -12 -13.22 13.35
1 -5 -12 7.13 14.03
0 -5 -12 -7 13.28
0 -5 -12 -21.16 15.64
-1 -5 -12 -1.74 14.44
-1 -5 -12 -3.56 13.11
-2 -5 -12 -18.65 15.76
-2 5 -12 2.1 17.37
-2 -5 -12 -22.23 15.69
-2 -5 -12 -5.47 13.9
-3 5 -12 -4.02 18.08
-3 -5 -12 5.04 14.36
-3 -5 -12 5.67 14.26
-4 5 -12 11.35 18.13
-4 -5 -12 -11.55 13.4
-4 -5 -12 -34.29 20.25
-5 -5 -12 33.24 15.4
12 -6 -12 23.55 17.58
11 -6 -12 48.35 18.58
-10 6 12 59.05 20.12
10 -6 -12 12.33 16.98
-9 6 12 33.13 18.04
9 -6 -12 28.54 16.97
-9 6 12 13.68 18.19
-8 -6 12 81.47 19.87
-8 6 12 22.14 16.92
8 -6 -12 41.38 17.1
8 6 -12 34.53 16.66
-8 6 12 18.8 18.19
-7 6 12 29.86 16.91
7 -6 -12 63.26 17.52
7 6 -12 56.85 16.15
-7 -6 12 32.86 17.48
-7 -6 12 42.05 18.63
-7 6 12 42.13 17.54
-6 6 12 51.37 16.01
-6 -6 12 50.22 17.15
6 -6 -12 50.63 16.7
-6 -6 12 47.27 12.29
-6 -6 12 87.89 19.38
-6 6 12 24.98 16.38
-5 6 12 80.38 15.5
-5 -6 12 56.86 17.67
5 6 -12 89.88 17.79
-5 -6 12 81.71 13.46
-4 -6 12 45.81 12.07
4 6 -12 71.78 17.09
-4 -6 12 56.44 17.79
3 6 -12 32.23 15.13
3 -6 -12 33.89 15.92
2 -6 -12 -1.72 13.94
2 6 -12 -3.96 14.55
2 -6 -12 17.71 14.96
1 -6 -12 -1.73 14.15
1 6 -12 4.94 12.87
1 -6 -12 1.75 14.82
0 -6 -12 6.99 14.29
0 6 -12 -9.39 13.07
0 -6 -12 1.73 13.77
-1 -6 -12 -10.27 15.01
-1 -6 -12 10.68 14.44
-2 -6 -12 26.87 16.45
-2 -6 -12 15.2 15.16
-2 -6 -12 23.63 16.36
-3 6 -12 -2.03 18.49
-3 -6 -12 4.99 14.6
-3 -6 -12 20.7 16.09
-4 6 -12 1.92 17.9
-4 -6 -12 4.97 13.23
-4 -6 -12 8.23 19.59
11 -7 -12 1.68 17.05
-10 7 12 -5.84 19.2
10 -7 -12 -10.27 17.04
-9 7 12 19.98 18.92
9 -7 -12 -10.44 17.08
-9 7 12 -13.61 18.97
-8 7 12 52.41 18.97
-8 7 12 10.12 16.34
8 -7 -12 8.79 16.53
-8 7 12 65.5 19.62
-8 -7 12 18.61 17.16
-7 7 12 64.63 17.78
7 -7 -12 116.75 19.89
7 7 -12 66.33 17.11
-7 -7 12 113.98 20.69
-7 7 12 103.2 20.47
-7 -7 12 125.48 21.9
-7 7 12 107.48 20.51
-6 7 12 61.4 16.87
-6 -7 12 84.56 18.48
6 -7 -12 85.05 18.15
-6 7 12 54.47 17.11
-6 -7 12 69.34 14
6 7 -12 35.69 16.15
-6 -7 12 53.28 18.74
-6 7 12 67.36 18.21
-5 -7 12 44.46 16.97
-5 7 12 47.94 14.32
-5 7 12 52.3 18.32
5 7 -12 33.43 15.99
-5 -7 12 23.57 11.61
5 -7 -12 67.26 17.1
-4 7 12 100.88 15.09
-4 -7 12 99.18 15.03
4 7 -12 182.13 20.47
-4 -7 12 157.01 20.89
-4 7 12 125.81 20.05
-3 -7 12 151.6 16.33
3 7 -12 238.45 21.7
3 -7 -12 194.93 20.71
2 7 -12 108.37 18.58
2 7 -12 155 18.44
2 -7 -12 114.76 18.58
2 -7 -12 106.32 18.34
1 7 -12 102.83 17.61
1 -7 -12 121.09 19.15
1 7 -12 120.53 17.17
1 -7 -12 127.88 18.56
0 7 -12 115 18.84
0 -7 -12 94.3 18.71
0 7 -12 147.48 16.63
0 -7 -12 90.66 17.72
-1 -7 -12 121.77 19.08
-1 7 -12 114.8 19.21
-1 -7 -12 115.59 19.52
-2 -7 -12 96.26 19.59
-2 -7 -12 60.2 16.39
-2 7 -12 60.09 19
-2 -7 -12 85.23 18.59
-3 -7 -12 49.75 16
-3 7 -12 22.82 17.36
-3 -7 -12 65.59 18.79
-4 7 -12 61.93 20.18
-4 -7 -12 35.45 15.07
11 -8 -12 17.93 16.82
-10 8 12 -11.52 19.69
10 -8 -12 1.67 16.9
-9 8 12 17.96 17.74
9 -8 -12 23.8 16.89
-9 8 12 11.59 18.18
-8 8 12 64.78 17.76
8 -8 -12 22.37 16.22
-8 8 12 48.44 19.48
-8 -8 12 -7.48 18.37
-8 8 12 1.88 17.57
-7 8 12 3.04 15.31
7 -8 -12 17.35 15.88
7 8 -12 25.47 15.73
-7 -8 12 35 17.63
-7 8 12 29.77 18.44
-7 -8 12 20.44 18.46
-7 8 12 36.19 18.03
-6 8 12 -6.79 14.71
-6 -8 12 10.83 16.88
-6 8 12 9.11 16.98
6 -8 -12 -1.74 16.44
6 8 -12 -4.63 14.88
-6 -8 12 9.17 13.24
-5 -8 12 14.22 17.08
-5 8 12 -1.81 16.26
-5 8 12 -2.4 13.81
-5 -8 12 7.76 12
5 -8 -12 13.95 15.89
-4 8 12 27.18 11.99
-4 -8 12 33.59 12.38
4 8 -12 40.44 15.56
-4 -8 12 15.84 16.6
-4 8 12 18.04 15.8
-3 -8 12 22.61 12.41
3 8 -12 25.9 15.53
3 -8 -12 8.65 14.92
2 8 -12 1.36 14.65
2 8 -12 24.93 14.79
2 -8 -12 30.78 15.59
2 -8 -12 10.31 14.53
1 8 -12 42.05 15.66
1 -8 -12 27.65 15.46
1 8 -12 24.76 14.12
1 -8 -12 13.65 14.73
0 8 -12 -6.86 14.31
0 -8 -12 5.23 14.96
0 8 -12 -6.31 13.96
0 -8 -12 -10.15 13.27
-1 -8 -12 8.38 14.1
-1 8 -12 -7.06 14.96
-1 -8 -12 5.32 16.09
-2 -8 -12 -6.55 15.65
-2 -8 -12 1.67 14.35
-2 8 -12 12.73 15.77
-2 -8 -12 -23.53 16.82
-3 8 -12 -7.59 17.31
-3 -8 -12 3.73 16.15
-4 8 -12 -27.08 19.91
11 -9 -12 -9.51 17.48
-10 9 12 1.9 19.97
10 -9 -12 1.63 16.6
-9 9 12 1.78 17.96
9 -9 -12 -4.99 16.17
-9 9 12 7.67 18.04
-8 9 12 -1.64 16.89
8 -9 -12 -1.69 15.67
-8 9 12 -20.39 18.3
-7 9 12 6 15.57
7 -9 -12 -3.41 15.27
-7 -9 12 1.84 16.8
-7 9 12 -14.92 18.25
-7 9 12 7.18 17.73
-6 9 12 18.78 15.14
-6 -9 12 9.06 16.61
-6 9 12 23.78 17.59
6 -9 -12 5.14 15.7
6 9 -12 -6.39 16.34
-6 -9 12 -4.9 12.69
-5 9 12 23.58 17.45
-5 9 12 17.62 13.38
-5 -9 12 11.88 12.95
5 -9 -12 29.18 15.76
-5 -9 12 3.56 15.8
-4 9 12 17.78 11.53
-4 -9 12 1.16 12.33
-4 -9 12 22.84 16.69
-4 9 12 12.65 16.74
-3 -9 12 19.74 12.52
3 9 -12 26.18 15.33
2 9 -12 26.46 15.42
2 9 -12 36.46 16.27
2 -9 -12 40.91 16.68
2 -9 -12 27.24 14.33
1 9 -12 20.15 15
1 -9 -12 32.79 16.14
1 9 -12 45.6 14.82
1 -9 -12 32.14 14.19
0 9 -12 6.85 14.85
0 -9 -12 1.74 14.97
0 9 -12 7.85 13.66
0 -9 -12 5.03 13.79
-1 -9 -12 19.44 16.59
-1 -9 -12 23.41 13.76
-1 9 -12 15.84 15.45
-2 -9 -12 4.85 16.61
-2 -9 -12 -1.69 14.71
-2 9 -12 -3.63 15.94
-2 -9 -12 -28.89 17.67
-3 9 -12 -5.67 17.46
-3 -9 -12 -5.58 17.05
-10 10 12 28.15 20.28
10 -10 -12 42.91 17.68
-9 10 12 40.39 18.44
9 -10 -12 60.17 17.27
-9 10 12 45.65 20.26
-8 10 12 37.4 16.54
8 -10 -12 23.17 16.42
-8 10 12 31.25 18.79
-7 10 12 29.7 16.03
-7 -10 12 29.54 18.24
7 -10 -12 16.75 15.29
-7 10 12 16.82 17.83
-7 10 12 21.33 17.01
-6 -10 12 48.94 18.68
-6 10 12 22.53 14.55
-6 10 12 9.19 17.45
6 10 -12 47.77 17.59
6 -10 -12 57.41 17.72
-6 -10 12 23.47 14.47
-5 10 12 45.43 17.91
-5 10 12 48.33 13.87
-5 -10 12 57.07 14.84
5 -10 -12 55.93 16.68
-5 -10 12 73.16 18.95
-4 10 12 25.03 12.26
-4 -10 12 13.7 13.7
-4 10 12 16.27 17.81
-3 -10 12 26.07 13.36
2 10 -12 -4.95 14.68
2 -10 -12 6.79 15.97
2 -10 -12 -3.37 14.2
1 10 -12 -3.35 14.54
1 10 -12 -8.29 15
1 -10 -12 15.45 15.8
1 -10 -12 3.36 14.58
0 10 -12 -1.71 14.96
0 -10 -12 13.87 16.05
0 10 -12 -6.73 13.54
0 -10 -12 21.79 15.37
-1 10 -12 17.55 15.83
-1 -10 -12 8.8 15.43
-1 -10 -12 -5.12 14.37
-2 10 -12 12.7 16.53
-2 -10 -12 -25.19 16.5
-3 10 -12 -30.18 18.32
-3 -10 -12 -12.93 17.3
-10 11 12 3.72 19.36
-9 11 12 45.22 18.02
9 -11 -12 31.9 16.71
-9 11 12 24.49 20.31
-8 11 12 22.54 17.25
8 -11 -12 17.91 16.26
-8 11 12 20.03 17.26
-7 11 12 8.83 15.85
-7 -11 12 29.59 18.11
-7 11 12 13.09 18.05
7 -11 -12 52.86 17.22
-7 11 12 3.51 17.36
-6 -11 12 27.17 18.44
-6 11 12 55.33 19.37
-6 11 12 11.86 14.59
6 -11 -12 18.34 15.66
-6 -11 12 5.53 14.42
-5 11 12 14.8 12.4
5 11 -12 1.66 15.83
-5 -11 12 -8.09 14.41
5 -11 -12 46.95 16.46
-5 -11 12 8.92 17.25
-5 11 12 23.74 17.35
-4 11 12 51.82 12.24
-4 -11 12 39.7 15.9
4 -11 -12 70.64 17.31
-4 11 12 32.57 17.35
-3 11 12 24.97 9.69
-3 -11 12 44.86 15.26
-2 -11 12 -1.32 13.98
2 11 -12 27.94 15.63
2 -11 -12 31.97 14.77
1 11 -12 13.37 15.92
1 -11 -12 13.66 15.61
1 -11 -12 3.39 14.14
0 11 -12 32.32 16.03
0 -11 -12 29.34 17.44
0 -11 -12 12.01 14.13
-1 11 -12 34.96 17.45
-1 -11 -12 57.76 17.37
-2 11 -12 56.15 18.72
-2 -11 -12 60.9 18.42
-3 11 -12 11.29 17.21
-3 -11 -12 12.87 17.31
-10 12 12 35.03 20.3
-9 12 12 -10.32 17.97
-9 12 12 -11.2 19.2
-8 12 12 -6.37 17.49
8 -12 -12 -9.61 16.3
-8 12 12 3.6 18.64
-7 12 12 10.19 15.99
-7 -12 12 11.11 18.42
-7 12 12 1.87 17.89
7 -12 -12 1.63 15.19
-6 -12 12 10.82 18.59
-6 12 12 3.7 18.85
-6 12 12 -6.53 13.67
6 -12 -12 21.46 16.15
-6 -12 12 -8.77 15.18
-5 12 12 -12.4 12.66
-5 -12 12 5.71 14.59
5 -12 -12 1.66 15.12
-5 -12 12 -10.64 16.73
-5 12 12 3.66 17.81
-4 12 12 13.78 12.2
-4 -12 12 -11.22 14.11
4 -12 -12 5.03 15.47
-3 -12 12 6.98 14.66
-2 -12 12 -13.96 14.65
2 -12 -12 1.71 15.08
1 12 -12 3.33 15.16
1 -12 -12 5.08 15.27
0 12 -12 -5.08 15.64
0 -12 -12 24.03 17.23
-1 12 -12 -8.7 16.17
-1 -12 -12 12.18 16.11
-2 12 -12 14.44 17.91
-2 -12 -12 -3.56 16.69
-9 13 12 -18.7 18.94
-9 13 12 -1.84 19.63
-8 13 12 22.04 18.62
-8 13 12 35.47 19.01
-7 -13 12 3.7 18.51
-7 13 12 18.79 15.66
-6 13 12 27.73 19.57
-6 13 12 31.07 14.12
-6 -13 12 37.02 17.73
-6 -13 12 7.22 17.17
-5 13 12 24.68 13.07
-5 -13 12 19.57 16.26
-5 -13 12 22.9 18.7
-5 13 12 31.19 19.13
-4 -13 12 20.71 16.42
-3 -13 12 52.99 17.71
-2 -13 12 58.93 17.07
1 13 -12 84.26 19
1 -13 -12 100.76 19.74
0 13 -12 48.88 17.65
0 -13 -12 61.37 18.11
-1 13 -12 102.15 19.98
-1 -13 -12 53.59 18.97
-2 -13 -12 24.71 17.02
-2 13 -12 39.47 17.8
-9 14 12 25.33 18.32
-8 14 12 48.44 18.89
-8 14 12 55.73 20.91
-7 14 12 24.31 15.7
-6 -14 12 8.12 16.53
-6 14 12 42.5 20.13
-5 -14 12 14.27 16.17
-5 14 12 -18.31 19.22
-4 -14 12 -17.13 16.14
-3 -14 12 -7.74 14.84
-2 -14 12 -1.55 15.39
1 14 -12 1.64 16.13
0 14 -12 -3.35 16.85
-1 14 -12 1.72 16.11
-2 14 -12 1.78 17.21
-7 -15 12 27.91 19.23
-6 -15 12 -8.53 17.27
-6 15 12 -9.27 18.04
-5 -15 12 -1.66 17.14
-4 -15 12 40.89 18.08
-3 -15 12 -9.75 16.89
-2 -15 12 -4.89 16.22
1 15 -12 17.84 16.78
0 15 -12 9.96 15.76
-1 15 -12 -13.63 16.91
-6 -16 12 3.58 17.86
-5 -16 12 -8.72 17.56
-4 -16 12 15.43 18.1
-3 -16 12 10.22 17.61
-2 -16 12 25.59 18.29
0 16 -12 4.91 15.89
-1 16 -12 -8.42 17.45
-4 -17 12 35.91 18.9
-3 -17 12 16.04 18.09
-2 -17 12 44.57 18.93
0 17 -12 30.69 18.26
-1 17 -12 43.24 18.09
0 18 -12 -1.59 16.38
-5 0 13 1.93 17.13
4 0 -13 -12.05 20.12
-4 0 13 -9.64 18.09
3 0 -13 -30.98 19.82
3 0 -13 14.69 15.21
2 0 -13 -12.94 14.81
2 0 -13 11.74 18.89
1 0 -13 20.49 15.87
1 0 -13 -2.29 19.26
0 0 -13 -5.67 15.65
0 0 -13 -13.28 18.77
-1 0 -13 -27.98 19.35
-1 0 -13 1.94 15.59
-2 0 -13 27.16 17.69
-3 0 -13 74 20.08
-4 0 -13 17.49 18.81
-10 1 13 29.41 23.1
-9 1 13 -6.33 21.1
-5 1 13 116.11 20.75
-5 -1 13 21.25 17.41
4 -1 -13 128.53 24.45
-4 -1 13 82.8 19.6
-4 1 13 86.86 19.53
3 -1 -13 39.23 19.8
3 1 -13 80.53 17.87
2 1 -13 44.3 16.9
2 -1 -13 38.94 17.09
2 1 -13 74.91 22.34
2 -1 -13 76.94 20.73
1 1 -13 85.51 18.83
1 -1 -13 115.78 20.05
1 1 -13 132.72 24.86
1 -1 -13 101.14 21.93
0 1 -13 115.04 20.35
0 -1 -13 71.89 18.04
0 1 -13 117.27 22.82
0 -1 -13 86.06 21.69
-1 1 -13 72.76 21.07
-1 -1 -13 65.18 19.43
-1 1 -13 48.39 17.61
-1 -1 -13 52.32 17.69
-2 1 -13 29.87 17.53
-2 -1 -13 -14.29 17.31
-3 1 -13 20.5 17.55
-3 -1 -13 23.27 18.66
-3 1 -13 24.08 19.56
-10 2 13 2.23 21.59
-9 2 13 45.77 21.85
-8 2 13 44.1 18.95
-5 -2 13 42.56 18.47
-5 2 13 52.35 18.29
4 -2 -13 15.77 20.1
-4 -2 13 50.01 18.33
-4 2 13 42.54 18.42
3 -2 -13 -28.86 19.01
2 2 -13 1.84 14.48
2 -2 -13 20.45 16.07
2 -2 -13 -2.17 17.62
1 2 -13 3.71 14.93
1 -2 -13 14.97 15.06
1 2 -13 19.43 20.29
1 -2 -13 -4.27 18.44
0 2 -13 18.84 16.16
0 -2 -13 13.26 15.18
0 2 -13 7.1 19.67
0 -2 -13 -2.1 18.33
-1 2 -13 6.84 18.18
-1 -2 -13 -2.05 18.03
-2 2 -13 15.23 17.14
-3 2 -13 33.42 19.96
-3 -2 -13 45.49 18.15
-10 3 13 21.95 21.81
-9 3 13 4.11 20.14
-8 3 13 15.13 18.46
6 -3 -13 -11.03 19.36
-5 -3 13 1.94 17.22
-5 3 13 -9.71 17.4
4 3 -13 -21.13 18.26
4 -3 -13 -19.47 18.49
-4 -3 13 5.77 16.56
-4 3 13 1.94 17.05
3 -3 -13 21.31 18.51
2 3 -13 14.67 15.8
2 -3 -13 14.88 15.47
2 -3 -13 -10.53 17.1
1 3 -13 7.4 14.64
1 -3 -13 -1.87 14.08
1 -3 -13 12.47 17.5
0 3 -13 9.41 15.53
0 -3 -13 15.17 13.89
0 3 -13 -4.84 21.14
0 -3 -13 6.12 17.25
-1 3 -13 14.02 18.72
-1 -3 -13 2 17.83
-2 3 -13 24.46 19.45
-3 3 -13 -6.36 18.67
-10 4 13 10.78 20.91
-9 4 13 -8.08 21.03
-8 4 13 20.48 19.21
-7 4 13 -1.69 17.64
-6 -4 13 2.2 9.37
6 -4 -13 2.12 18.37
-5 -4 13 5.82 17.67
4 4 -13 14.62 17.8
4 -4 -13 2.09 17.05
-4 -4 13 -1.92 17.46
3 -4 -13 4.15 17.59
2 -4 -13 1.86 13.3
2 -4 -13 6.16 17.48
1 -4 -13 1.88 13.75
1 -4 -13 8.09 18.25
0 -4 -13 -1.9 14.24
0 -4 -13 2 17.62
-1 4 -13 -7.14 18.65
-2 4 -13 4.56 18.66
-3 4 -13 -6.44 19.68
-10 5 13 23.28 21.49
-9 5 13 27.76 20.04
-8 5 13 7.35 18.59
-7 5 13 41.55 17.65
-6 -5 13 37.81 11.16
-5 -5 13 28.71 10.95
-5 -5 13 52.46 18.79
-4 -5 13 21.15 17.42
3 5 -13 77 18.54
3 -5 -13 48.51 18.15
2 -5 -13 26.11 14.83
2 -5 -13 64.04 19.36
1 -5 -13 35.7 15.66
1 -5 -13 51.47 18.41
0 -5 -13 64.43 17.23
-1 5 -13 67.12 22.79
-2 5 -13 20.78 19.9
-10 6 13 16.6 21.06
-9 6 13 15.49 19.92
-8 6 13 7.19 18.08
-7 6 13 19.67 17.51
-7 -6 13 8.97 11.79
-6 6 13 28.91 15.98
-6 -6 13 25.43 11.81
-5 -6 13 2.72 11.61
3 -6 -13 11.86 17.27
2 6 -13 3.63 15.76
2 -6 -13 -13.04 15.12
1 6 -13 22.09 16.1
1 -6 -13 7.53 14.49
0 6 -13 -1.87 16.24
0 -6 -13 15.17 15.58
-2 6 -13 11.57 20.66
-10 7 13 -18.26 21.14
-9 7 13 -36.12 20.93
-8 7 13 3.53 18.74
-7 7 13 1.61 16.82
-7 -7 13 5.43 13.26
-6 7 13 15.62 15.84
-6 -7 13 4.14 12.11
-5 -7 13 -8.02 12.3
-4 7 13 -5.86 18.33
2 7 -13 1.81 15.08
2 -7 -13 -22.35 17.09
1 7 -13 27.58 16.71
1 -7 -13 15.03 15.83
0 7 -13 -1.87 16.03
-10 8 13 34.05 22.78
-9 8 13 44.83 20.31
-8 8 13 32.89 19.14
-7 8 13 17.35 17.05
-7 -8 13 7.04 13.19
-6 8 13 36.36 16.38
-6 -8 13 15.72 13.21
-5 -8 13 8.73 12.48
-4 -8 13 4.28 12.68
2 8 -13 -1.81 15.8
2 -8 -13 26.02 17.16
1 8 -13 38.57 18.69
1 -8 -13 -3.75 16.51
-9 9 13 25.84 19.54
-8 9 13 23.72 18.5
-7 9 13 18.49 16.81
-7 -9 13 6.29 14.31
-6 9 13 58.85 16.72
-6 -9 13 39.85 14.69
-5 -9 13 35.27 14.68
-4 -9 13 19.75 13.38
2 9 -13 46.85 18.82
2 -9 -13 50.03 18.7
1 9 -13 31.14 17.6
-9 10 13 12.77 19.38
-8 10 13 11.72 17.97
-7 -10 13 -12.05 14.58
-6 -10 13 5.16 14.41
-5 -10 13 8.81 14.51
-4 -10 13 -6.24 14.57
-7 -11 13 14.2 15.93
-6 -11 13 -5.49 15.49
-5 -11 13 12.07 14.84
-4 -11 13 61.18 16.5
-3 -11 13 31.69 15.43
-7 -12 13 7.51 16.8
-6 -12 13 18.89 16.94
-5 -12 13 41.27 17.28
-4 -12 13 -4.23 15.13
-3 -12 13 -15.42 15.19
-7 -13 13 38.01 18.2
-6 -13 13 3.07 17.07
-5 -13 13 4.51 16.46
-4 -13 13 -10.43 17.03
-3 -13 13 -1.48 16.54
-7 -14 13 -1.67 18.35
-6 -14 13 3.23 18.13
-5 -14 13 -12.66 17.86
-4 -14 13 39.2 19.05
-3 -14 13 7.79 17.7
-6 -15 13 25.44 19.36
-5 -15 13 8.31 18.47
-4 -15 13 13.17 18
-3 -15 13 55.68 19.47
-9 4 14 14.47 20.8
loop_
_smtbx_masks_void_nr
_smtbx_masks_void_average_x
_smtbx_masks_void_average_y
_smtbx_masks_void_average_z
_smtbx_masks_void_volume
_smtbx_masks_void_count_electrons
1 0.000 0.000 -0.228 158.7 45.8
2 0.000 0.500 0.790 158.7 45.8
