#------------------------------------------------------------------------------
#$Date: 2017-11-07 02:48:25 +0200 (Tue, 07 Nov 2017) $
#$Revision: 202706 $
#$URL: file:///home/coder/svn-repositories/cod/cif/4/03/28/4032875.cif $
#------------------------------------------------------------------------------
#
# This file is available in the Crystallography Open Database (COD),
# http://www.crystallography.net/
#
# All data on this site have been placed in the public domain by the
# contributors.
#
data_4032875
loop_
_publ_author_name
'Kawashima, Hiroyuki'
'Hiroto, Satoru'
'Shinokubo, Hiroshi'
_publ_section_title
;
 Acid-Mediated Migration of Bromide in an Antiaromatic Porphyrinoid:
 Preparation of Two Regioisomeric Ni(II) Bromonorcorroles.
;
_journal_issue                   19
_journal_name_full               'The Journal of organic chemistry'
_journal_page_first              10425
_journal_page_last               10432
_journal_paper_doi               10.1021/acs.joc.7b01899
_journal_volume                  82
_journal_year                    2017
_chemical_formula_moiety         'C36 H29 Br N4 Ni'
_chemical_formula_sum            'C36 H29 Br N4 Ni'
_chemical_formula_weight         656.25
_chemical_name_systematic
;
 ?
;
_space_group_crystal_system      monoclinic
_space_group_IT_number           14
_space_group_name_Hall           '-P 2ybc'
_space_group_name_H-M_alt        'P 1 21/c 1'
_symmetry_space_group_name_Hall  '-P 2ybc'
_symmetry_space_group_name_H-M   'P 1 21/c 1'
_atom_sites_solution_hydrogens   geom
_atom_sites_solution_primary     direct
_atom_sites_solution_secondary   difmap
_audit_creation_method           SHELXL-2014
_cell_angle_alpha                90
_cell_angle_beta                 101.230(5)
_cell_angle_gamma                90
_cell_formula_units_Z            2
_cell_length_a                   13.1619(8)
_cell_length_b                   13.8635(4)
_cell_length_c                   8.2762(3)
_cell_measurement_reflns_used    522
_cell_measurement_temperature    163(2)
_cell_measurement_theta_max      21.18
_cell_measurement_theta_min      2.51
_cell_volume                     1481.24(12)
_computing_cell_refinement       'CrysAlisPro 1.171.38.41 (Rigaku OD, 2015)'
_computing_data_collection       'CrystalClear (Rigaku Inc., 2008)'
_computing_data_reduction        'CrysAlisPro 1.171.38.41 (Rigaku OD, 2015)'
_computing_molecular_graphics    'CrystalStructure 4.2 (Rigaku, 2015)'
_computing_publication_material  'CrystalStructure 4.2 (Rigaku, 2015)'
_computing_structure_refinement  'SHELXL-2014/7 (Sheldrick, 2014)'
_computing_structure_solution    'SHELXT-2014/7 (Sheldrick, 2014)'
_diffrn_ambient_temperature      163(2)
_diffrn_detector_area_resol_mean 7.111
_diffrn_measured_fraction_theta_full 0.998
_diffrn_measured_fraction_theta_max 0.997
_diffrn_measurement_device_type  'Rigaku Saturn724'
_diffrn_measurement_method       \w
_diffrn_radiation_type           'Mo K\a'
_diffrn_radiation_wavelength     0.71075
_diffrn_reflns_av_R_equivalents  0.0272
_diffrn_reflns_av_unetI/netI     0.0178
_diffrn_reflns_Laue_measured_fraction_full 0.998
_diffrn_reflns_Laue_measured_fraction_max 0.997
_diffrn_reflns_limit_h_max       12
_diffrn_reflns_limit_h_min       -17
_diffrn_reflns_limit_k_max       18
_diffrn_reflns_limit_k_min       -18
_diffrn_reflns_limit_l_max       10
_diffrn_reflns_limit_l_min       -10
_diffrn_reflns_number            11657
_diffrn_reflns_point_group_measured_fraction_full 0.998
_diffrn_reflns_point_group_measured_fraction_max 0.997
_diffrn_reflns_theta_full        25.242
_diffrn_reflns_theta_max         27.492
_diffrn_reflns_theta_min         2.156
_exptl_absorpt_coefficient_mu    2.036
_exptl_absorpt_correction_T_max  0.938
_exptl_absorpt_correction_T_min  0.549
_exptl_absorpt_correction_type   multi-scan
_exptl_absorpt_process_details   'REQAB (Rigaku, 1998)'
_exptl_crystal_colour            green
_exptl_crystal_density_diffrn    1.471
_exptl_crystal_density_method    'not measured'
_exptl_crystal_description       block
_exptl_crystal_F_000             672
_exptl_crystal_size_max          0.240
_exptl_crystal_size_mid          0.110
_exptl_crystal_size_min          0.030
_refine_diff_density_max         0.470
_refine_diff_density_min         -0.876
_refine_diff_density_rms         0.050
_refine_ls_extinction_method     none
_refine_ls_goodness_of_fit_ref   1.087
_refine_ls_hydrogen_treatment    constr
_refine_ls_matrix_type           full
_refine_ls_number_parameters     209
_refine_ls_number_reflns         3390
_refine_ls_number_restraints     2
_refine_ls_restrained_S_all      1.215
_refine_ls_R_factor_all          0.0727
_refine_ls_R_factor_gt           0.0608
_refine_ls_shift/su_max          0.000
_refine_ls_shift/su_mean         0.000
_refine_ls_structure_factor_coef Fsqd
_refine_ls_weighting_details
'w=1/[\s^2^(Fo^2^)+(0.0644P)^2^+1.1716P] where P=(Fo^2^+2Fc^2^)/3'
_refine_ls_weighting_scheme      calc
_refine_ls_wR_factor_gt          0.1600
_refine_ls_wR_factor_ref         0.1702
_reflns_Friedel_coverage         0.000
_reflns_number_gt                2738
_reflns_number_total             3390
_reflns_threshold_expression     'I > 2\s(I)'
_cod_data_source_file            jo7b01899_si_002.cif
_cod_data_source_block           160318-3_a_compound_2a
_cod_depositor_comments
'Adding full bibliography for 4032875--4032877.cif.'
_cod_database_code               4032875
_shelx_space_group_comment
;
The symmetry employed for this shelxl refinement is uniquely defined
by the following loop, which should always be used as a source of
symmetry information in preference to the above space-group names.
They are only intended as comments.
;
_shelxl_version_number           2014-3
_shelx_res_file
;
TITL 160318-3_a.res
REM  Yadorkari-X generated
CELL 0.71073 13.1619 13.8635 8.2762 90.0000 101.2300 90.0000
ZERR 2.0 0.0008 0.0004 0.0003 0.0000 0.0050 0.0000
LATT 1
SYMM -X, 1/2+Y, 1/2-Z
REM  SPGR P21/c monoclinic
SFAC C H N Ni Br
UNIT 72 58 8 2 2
SIZE 0.03 0.11 0.24
TEMP -110.0
L.S. 20
FMAP 2
PLAN -20
ACTA
CONF
BOND$H
MERG 2
OMIT -10.000000 55.000000

DFIX 1.899 0.01 C3 Br1
DFIX 1.899 0.02 C7 Br2
SIMU 0.02 Br1 Br2
WGHT    0.064400    1.171600
FVAR       0.73563   0.57913
C1    1    0.377032    0.343291    0.454686    11.00000    0.13420    0.04773 =
         0.06278   -0.00511   -0.01354    0.00779
C2    1    0.289066    0.301039    0.498033    11.00000    0.13700    0.05259 =
         0.08072   -0.00695   -0.02210    0.00222
AFIX  43
H1    2    0.260665    0.238893    0.469838    11.00000   -1.20000
AFIX   0
C3    1    0.254700    0.369648    0.589000    11.00000    0.13093    0.06457 =
         0.07401    0.00071   -0.01828    0.00548
PART 3
AFIX  43
H14   2    0.195335    0.361123    0.636923    10.75000   -1.20000
PART 0
AFIX   0
C4    1    0.312443    0.453383    0.607245    11.00000    0.13791    0.05229 =
         0.06038   -0.00010   -0.00982    0.01055
C5    1    0.311314    0.545393    0.688052    11.00000    0.13386    0.05566 =
         0.05409   -0.00015   -0.01047    0.01830
C6    1    0.386848    0.616594    0.688634    11.00000    0.14255    0.05113 =
         0.05828   -0.00371   -0.00725    0.01296
C7    1    0.401004    0.714649    0.747333    11.00000    0.14479    0.05393 =
         0.06449   -0.00940   -0.01762    0.01697
PART 4
AFIX  43
H15   2    0.355391    0.748344    0.803404    10.75000   -1.20000
PART 0
AFIX   0
C8    1    0.489230    0.751467    0.710406    11.00000    0.14268    0.04991 =
         0.06874   -0.01073   -0.01575    0.00695
AFIX  43
H2    2    0.515988    0.814626    0.734203    11.00000   -1.20000
AFIX   0
C9    1    0.533986    0.676325    0.628526    11.00000    0.14089    0.04661 =
         0.06139   -0.00438   -0.01456    0.00939
C10   1    0.225035    0.565927    0.778495    11.00000    0.13288    0.05486 =
         0.05672   -0.00161   -0.00801    0.01122
C11   1    0.128766    0.598472    0.692257    11.00000    0.14060    0.06541 =
         0.05723   -0.00325   -0.00800    0.02485
C12   1    0.052625    0.621016    0.779430    11.00000    0.13743    0.05991 =
         0.07816   -0.00417   -0.00302    0.01991
AFIX  43
H3    2   -0.012810    0.642672    0.721193    11.00000   -1.20000
AFIX   0
C13   1    0.068824    0.612983    0.949706    11.00000    0.14882    0.05611 =
         0.07415   -0.00570    0.01442   -0.00363
C14   1    0.164275    0.578824    1.031335    11.00000    0.15720    0.06887 =
         0.05857    0.00219   -0.00110   -0.01151
AFIX  43
H4    2    0.176257    0.572035    1.147729    11.00000   -1.20000
AFIX   0
C15   1    0.242401    0.554377    0.949079    11.00000    0.14130    0.06196 =
         0.05646    0.00390   -0.01029   -0.00063
C16   1    0.108432    0.610278    0.505987    11.00000    0.16040    0.10914 =
         0.05762    0.00322   -0.00945    0.04997
AFIX 137
H5    2    0.035644    0.627546    0.466319    11.00000   -1.50000
H6    2    0.123576    0.549501    0.455013    11.00000   -1.50000
H7    2    0.152977    0.661393    0.476633    11.00000   -1.50000
AFIX   0
C17   1   -0.016321    0.639667    1.042421    11.00000    0.17335    0.08046 =
         0.10095   -0.00816    0.03715   -0.01145
AFIX 137
H8    2   -0.031317    0.584255    1.107480    11.00000   -1.50000
H9    2   -0.079011    0.657769    0.963514    11.00000   -1.50000
H10   2    0.006541    0.694158    1.115969    11.00000   -1.50000
AFIX   0
C18   1    0.344297    0.514964    1.044498    11.00000    0.14964    0.09535 =
         0.06793    0.01783   -0.02387   -0.00270
AFIX 137
H11   2    0.339683    0.506902    1.160488    11.00000   -1.50000
H12   2    0.400303    0.560138    1.036098    11.00000   -1.50000
H13   2    0.358630    0.452429    0.998455    11.00000   -1.50000
AFIX   0
N1    3    0.387610    0.433457    0.519533    11.00000    0.14084    0.04301 =
         0.06450   -0.00181   -0.00070    0.00520
N2    3    0.472164    0.600342    0.618731    11.00000    0.13784    0.04695 =
         0.06925   -0.00756   -0.00225    0.00843
NI1   4    0.500000    0.500000    0.500000    10.50000    0.14595    0.04238 =
         0.06104   -0.00334    0.00040    0.00640
PART 1
BR1   5    0.153265    0.351708    0.668084    20.50000    0.06020    0.08185 =
         0.08091   -0.00889    0.01960   -0.01176
PART 2
BR2   5    0.310617    0.782785    0.830040   -20.50000    0.08395    0.05474 =
         0.05623   -0.00862    0.00917    0.00802
PART 0

HKLF 4

REM  160318-3_a.res
REM R1 =  0.0608 for    2738 Fo > 4sig(Fo)  and  0.0727 for all    3390 data
REM    209 parameters refined using      2 restraints

END

WGHT      0.0646      1.1714

REM Highest difference peak  0.470,  deepest hole -0.876,  1-sigma level  0.050
Q1    1   0.2203  0.3653  0.6096  11.00000  0.05    0.47
Q2    1   0.5104  0.4961  0.6321  11.00000  0.05    0.26
Q3    1   0.4716  0.5673  0.5278  11.00000  0.05    0.20
Q4    1   0.5082  0.4240  0.4918  11.00000  0.05    0.19
Q5    1   0.3644  0.3979  0.5149  11.00000  0.05    0.18
Q6    1   0.5160  0.7196  0.6711  11.00000  0.05    0.18
Q7    1   0.3323  0.4565  0.5513  11.00000  0.05    0.18
Q8    1   0.4659  0.5035  0.4913  11.00000  0.05    0.17
Q9    1   0.3619  0.6681  0.6820  11.00000  0.05    0.17
Q10   1   0.2862  0.4983  0.6317  11.00000  0.05    0.16
Q11   1   0.3653  0.7248  0.7695  11.00000  0.05    0.16
Q12   1   0.4200  0.6128  0.6426  11.00000  0.05    0.16
Q13   1   0.1011  0.6823  0.4977  11.00000  0.05    0.16
Q14   1   0.3222  0.7173  0.8491  11.00000  0.05    0.16
Q15   1   0.1645  0.2861  0.6475  11.00000  0.05    0.15
Q16   1   0.2785  0.4362  0.5827  11.00000  0.05    0.15
Q17   1   0.3742  0.6607  0.7461  11.00000  0.05    0.15
Q18   1   0.0191  0.6163  0.7718  11.00000  0.05    0.14
Q19   1   0.1817  0.3583  0.7878  11.00000  0.05    0.14
Q20   1   0.2682  0.5585  0.7141  11.00000  0.05    0.14
;
_shelx_res_checksum              2473
_shelx_hkl_file
;
   2   0   0  379.66    2.62
  -2   0   0  387.68    2.68
  -2   0   0  395.14    2.30
   2   0   0  394.65    2.29
  -3   0   0  202.44    2.39
  -3   0   0  204.02    2.01
   3   0   0  193.91    1.98
   3   0   0  189.71    2.23
   4   0   0  104.81    1.91
  -4   0   0  106.58    1.96
  -4   0   0  112.55    1.70
   5   0   0 1694.20    8.70
  -5   0   0 1686.28    7.37
   6   0   0 1668.61    9.26
  -6   0   0 1696.50    7.99
  -6   0   0 1685.52    9.18
  -6   0   0 1722.87    9.72
  -7   0   0   17.31    1.09
  -7   0   0   15.65    1.05
  -7   0   0   18.43    0.96
  -8   0   0  241.43    4.29
  -8   0   0  240.90    3.48
  -9   0   0  347.04    5.31
  -9   0   0  332.86    4.19
 -10   0   0    4.25    0.63
 -10   0   0    3.04    0.88
 -11   0   0  127.83    2.97
 -11   0   0  122.47    3.60
 -12   0   0   12.41    1.07
 -12   0   0   13.02    1.35
 -13   0   0   53.01    2.09
 -13   0   0   50.70    2.51
 -14   0   0    1.78    0.75
 -14   0   0    1.85    0.98
 -15   0   0    0.99    0.64
 -15   0   0   -0.72    0.96
 -16   0   0    3.65    0.90
 -16   0   0    4.15    1.36
 -17   0   0    1.00    1.07
   1   1   0  207.97    1.68
   1  -1   0  194.56    1.40
  -1   1   0  205.99    1.72
   2  -1   0   37.24    0.97
   2  -1   0   40.55    0.80
   2   1   0   36.86    0.59
   2   1   0   39.69    0.88
  -2   1   0   41.07    1.01
  -2   1   0   36.08    0.74
  -2  -1   0   35.59    0.58
  -2  -1   0   40.10    0.92
  -3  -1   0  814.33    4.93
  -3   1   0  782.45    4.33
  -3   1   0  804.22    5.01
   3   1   0  849.39    4.94
   3   1   0  786.54    3.47
  -3  -1   0  782.14    3.40
   3  -1   0  848.35    4.47
  -3   1   0  825.61    4.45
  -4   1   0  288.82    3.02
   4   1   0  278.14    3.25
  -4   1   0  265.61    3.29
   4   1   0  266.98    2.46
   4  -1   0  286.72    3.07
  -4  -1   0  260.69    2.35
  -4   1   0  279.03    3.08
  -4  -1   0  268.37    3.29
  -5   1   0   38.43    1.45
   5   1   0   38.06    1.11
  -5   1   0   41.03    1.30
  -5  -1   0   36.83    1.01
   5   1   0   37.11    1.38
   5  -1   0   37.67    1.29
  -5  -1   0   38.17    1.45
  -5   1   0   36.83    1.34
  -6  -1   0    6.99    0.79
   6   1   0    6.11    0.54
   6  -1   0    4.29    0.63
  -6   1   0    4.93    0.82
  -6   1   0    5.78    0.70
  -6   1   0    5.58    0.66
  -6  -1   0    6.69    0.52
  -7  -1   0    4.00    0.71
  -7   1   0    2.73    0.61
  -7   1   0    3.48    0.55
  -7  -1   0    3.75    0.46
  -7  -1   0    4.33    0.62
  -7   1   0    3.50    0.67
  -8  -1   0  136.18    2.49
  -8  -1   0  134.55    3.19
  -8   1   0  129.91    3.06
  -8   1   0  144.30    2.83
  -9   1   0  170.04    3.19
  -9  -1   0  162.52    2.87
  -9   1   0  165.80    3.66
  -9  -1   0  166.77    3.84
 -10  -1   0   38.02    2.02
 -10   1   0   42.27    2.01
 -10  -1   0   36.63    1.49
 -10   1   0   44.17    1.79
 -11   1   0   47.26    2.25
 -11  -1   0   39.96    2.17
 -11   1   0   44.42    1.82
 -11  -1   0   45.04    1.75
 -12  -1   0   -0.21    0.58
 -12   1   0    2.07    0.63
 -12   1   0    0.10    0.80
 -12  -1   0    1.51    0.87
 -13   1   0    0.42    0.61
 -13  -1   0    0.57    0.56
 -13  -1   0    1.81    0.92
 -13   1   0    1.87    0.89
 -14   1   0    0.52    0.82
 -14  -1   0    1.78    0.97
 -14   1   0    1.93    0.75
 -14  -1   0    2.55    0.74
 -15   1   0    9.95    1.18
 -15  -1   0    8.76    1.05
 -15   1   0    8.82    1.34
 -15  -1   0    8.94    1.55
 -16   1   0   -0.18    0.74
 -16  -1   0    0.35    0.72
 -16  -1   0    0.59    1.08
 -16   1   0   -1.32    1.07
 -17   1   0    2.01    1.29
 -17  -1   0    0.18    1.15
 -17   1   0    2.64    0.89
   0  -2   0 2707.13    7.26
   0   2   0 2707.02    7.00
  -1  -2   0  264.87    2.45
   1  -2   0  261.20    2.11
  -1  -2   0  272.95    1.88
  -1   2   0  267.85    2.38
   1  -2   0  244.74    2.44
   1   2   0  276.31    2.45
  -1   2   0  252.35    2.05
   1   2   0  270.73    1.83
   2   2   0   24.05    0.55
  -2   2   0   22.48    0.70
   2   2   0   22.28    0.77
  -2   2   0   28.24    0.92
   2  -2   0   19.62    0.85
  -2  -2   0   29.02    0.97
  -2  -2   0   32.91    0.62
   2  -2   0   16.56    0.63
   3  -2   0  312.18    2.90
   3   2   0  325.35    3.17
  -3  -2   0  324.16    2.18
  -3  -2   0  326.04    3.41
  -3   2   0  308.68    2.81
   3  -2   0  325.66    3.53
   3   2   0  320.26    2.08
  -3   2   0  322.78    3.52
  -4   2   0  103.58    1.84
  -4   2   0  109.41    2.24
  -4  -2   0   99.03    1.41
   4   2   0  116.25    1.44
  -4  -2   0  127.42    2.37
   4   2   0  109.53    2.11
   4  -2   0  111.19    1.94
   4  -2   0  116.67    2.43
  -5   2   0  114.72    2.24
  -5  -2   0  103.21    1.58
  -5  -2   0  122.58    2.60
   5   2   0  111.87    2.32
  -5   2   0  103.29    2.12
   5  -2   0  116.07    2.17
   5   2   0  109.98    1.66
  -5   2   0  105.27    2.43
  -6  -2   0   90.78    2.45
  -6   2   0   97.94    2.30
   6  -2   0   85.93    2.04
  -6  -2   0   94.83    1.75
  -6   2   0   82.95    2.36
   6   2   0   87.16    1.75
  -6   2   0   95.21    2.25
  -7  -2   0  541.16    4.43
  -7  -2   0  541.77    6.38
   7   2   0  546.10    4.67
  -7   2   0  570.03    6.00
  -8  -2   0  136.90    2.44
  -8  -2   0  138.45    3.46
  -8   2   0  168.22    3.20
  -8   2   0  162.22    3.49
  -9   2   0    2.08    0.70
  -9  -2   0    0.91    0.41
  -9  -2   0    0.90    0.63
  -9   2   0    1.25    0.52
 -10   2   0    2.10    0.66
 -10  -2   0    3.81    0.64
 -10   2   0    3.77    0.84
 -10  -2   0    4.56    1.01
 -11   2   0    1.24    0.77
 -11  -2   0    1.50    0.75
 -11  -2   0    0.72    0.50
 -11   2   0    0.63    0.59
 -12  -2   0   -0.31    0.86
 -12   2   0   -0.20    0.76
 -12   2   0    1.93    0.70
 -12  -2   0    0.27    0.53
 -13   2   0    7.90    1.20
 -13   2   0    9.49    1.09
 -13  -2   0    9.87    1.00
 -13  -2   0    8.00    1.24
 -14  -2   0    0.03    0.57
 -14  -2   0    0.25    0.99
 -14   2   0    1.26    0.91
 -14   2   0    0.36    0.68
 -15   2   0    3.29    0.91
 -15  -2   0    1.66    0.72
 -15  -2   0    2.22    1.17
 -15   2   0    2.18    0.97
 -16  -2   0   -0.47    1.09
 -16   2   0    0.57    0.94
 -16   2   0    1.58    0.77
 -17   2   0    0.02    0.78
 -17   2   0    0.28    1.15
   0  -3   0   14.79    0.72
   0  -3   0   18.02    0.69
   0   3   0   17.64    0.74
   0   3   0   16.76    0.67
   1  -3   0 1079.88    5.77
  -1  -3   0 1108.06    4.81
  -1   3   0 1132.09    5.27
  -1   3   0 1094.82    5.71
   1   3   0 1066.99    4.71
   1  -3   0 1131.26    5.42
  -1  -3   0 1125.12    6.21
   1   3   0 1115.97    5.76
  -2   3   0 3211.16   10.79
  -2  -3   0 3268.77    8.01
  -2  -3   0 3368.68   11.28
   2  -3   0 3254.28   11.15
   2  -3   0 3241.55    9.39
   2   3   0 3329.86   10.69
   2   3   0 3257.55    7.35
  -3   3   0   53.87    1.25
   3  -3   0   55.57    1.34
  -3   3   0   57.08    1.65
   3   3   0   58.13    1.58
   3   3   0   64.00    1.03
   3  -3   0   58.80    1.66
  -3  -3   0   48.71    1.48
  -3  -3   0   71.19    1.20
  -4  -3   0    9.35    0.51
  -4  -3   0   11.19    0.88
  -4   3   0   14.32    0.76
   4   3   0   10.03    0.48
  -4   3   0   12.48    0.89
   4  -3   0   15.91    0.83
   4  -3   0   15.00    0.95
   4   3   0   11.58    0.80
  -5   3   0  312.75    4.45
  -5  -3   0  341.72    2.94
   5  -3   0  339.62    4.80
   5  -3   0  332.99    3.96
   5   3   0  332.83    2.69
  -5   3   0  329.43    3.74
  -5  -3   0  350.50    4.67
   5   3   0  330.08    4.17
  -6  -3   0    9.13    0.99
  -6   3   0    7.72    0.82
  -6  -3   0    7.75    0.53
   6   3   0    6.62    0.48
  -6   3   0    6.73    0.74
  -7   3   0    7.84    0.79
   7   3   0    7.28    0.58
  -7  -3   0    9.07    0.61
  -7  -3   0    7.23    0.96
  -7   3   0    5.88    0.79
  -8   3   0   90.29    2.57
  -8   3   0   93.11    2.51
   8   3   0   83.04    1.98
  -8  -3   0   84.08    1.91
  -8  -3   0   81.99    2.90
  -9  -3   0   14.32    1.37
  -9   3   0   13.74    1.21
  -9  -3   0   16.24    0.94
  -9   3   0   13.80    1.09
 -10   3   0    3.03    0.86
 -10  -3   0    3.30    0.59
 -10  -3   0    1.67    0.77
 -10   3   0    3.44    0.74
 -11  -3   0    0.51    0.81
 -11   3   0   -0.12    0.75
 -11  -3   0    0.98    0.54
 -11   3   0    0.78    0.64
 -12   3   0   17.79    1.36
 -12  -3   0   12.37    1.59
 -12   3   0   18.14    1.51
 -12  -3   0   12.26    1.03
 -13   3   0    0.09    0.77
 -13   3   0   -0.08    0.71
 -13  -3   0    1.03    1.04
 -13  -3   0   -0.03    0.58
 -14   3   0    2.45    0.82
 -14  -3   0    2.92    0.77
 -14   3   0    2.80    0.92
 -14  -3   0    1.94    1.06
 -15   3   0    1.66    0.78
 -15  -3   0    0.20    1.08
 -15   3   0    0.77    1.05
 -16  -3   0   -0.47    1.06
 -16   3   0   -0.36    0.72
 -16   3   0    0.46    0.99
 -17   3   0   -0.39    0.87
 -17   3   0    0.61    1.09
 -17  -3   0   -0.36    1.26
 -18   3   0    1.28    0.98
   0  -4   0 1379.96    6.78
   0  -4   0 1405.10    7.51
  -1   4   0 9999.00   19.86
   1   4   0 9787.58   19.82
  -2  -4   0   23.71    0.84
   2   4   0   17.58    0.71
   2   4   0   19.06    0.97
  -2   4   0   34.59    1.28
  -2  -4   0   25.32    1.22
   2  -4   0   24.37    1.10
   2  -4   0   25.69    0.98
  -2   4   0   34.04    1.08
  -3  -4   0   45.03    1.13
   3  -4   0   44.33    1.58
   3  -4   0   40.46    1.29
   3   4   0   41.34    1.46
  -3  -4   0   43.59    1.67
  -3   4   0   38.58    1.19
   3   4   0   46.00    1.01
  -3   4   0   43.10    1.54
  -4  -4   0 1599.42    9.89
   4   4   0 1555.01    5.85
   4  -4   0 1612.60    8.32
  -4   4   0 1606.18    9.93
  -4   4   0 1605.02    7.95
   4  -4   0 1640.28   10.00
   4   4   0 1549.21    8.88
  -4  -4   0 1569.10    6.47
   5  -4   0 1388.17    9.75
   5   4   0 1413.92    5.71
  -5  -4   0 1404.03    6.23
   5  -4   0 1399.08    8.32
  -5   4   0 1436.35    8.19
  -5  -4   0 1384.74    9.96
  -6  -4   0  450.33    3.72
   6   4   0  444.56    3.40
  -6  -4   0  442.87    5.89
   6  -4   0  440.92    5.99
   7   4   0  282.68    2.99
  -7  -4   0  293.56    5.16
  -7   4   0  291.64    4.29
  -7   4   0  288.98    4.10
  -8  -4   0   13.27    1.38
  -8  -4   0   10.96    0.74
   8   4   0   12.37    0.80
  -8   4   0   15.56    1.19
  -9  -4   0    6.93    1.06
  -9   4   0    7.53    0.89
   9   4   0    8.00    0.72
  -9   4   0    7.05    0.96
  -9  -4   0    7.97    0.72
 -10  -4   0  216.02    3.43
 -10   4   0  218.93    4.42
 -11  -4   0    6.83    1.22
 -11   4   0    7.65    1.11
 -11   4   0    7.30    1.01
 -11  -4   0    6.11    0.76
 -12  -4   0    0.38    0.82
 -12   4   0    2.25    0.84
 -12   4   0    2.26    0.76
 -12  -4   0    1.22    0.53
 -13   4   0    8.21    1.11
 -13  -4   0    9.18    0.95
 -13  -4   0    7.18    1.36
 -13   4   0    9.66    1.16
 -14  -4   0    4.65    0.85
 -14  -4   0    4.63    1.24
 -14   4   0    5.26    1.00
 -14   4   0    7.96    1.37
 -15  -4   0    3.11    1.28
 -15   4   0    1.94    1.09
 -15   4   0    1.97    0.82
 -16  -4   0    3.22    1.41
 -16   4   0    2.76    1.19
 -16   4   0    4.49    1.10
 -17   4   0    1.71    0.85
 -17   4   0    0.90    1.06
 -17  -4   0    1.61    1.28
 -18   4   0   -0.42    0.90
   0   5   0    8.29    0.66
   0  -5   0    7.68    0.74
   0   5   0    8.06    0.68
   0  -5   0    7.79    0.66
   1  -5   0 2678.62   11.28
  -1   5   0 2821.84   10.79
  -1   5   0 2778.10   11.34
   1   5   0 2792.25   11.68
  -1   5   0 2968.37   12.00
   1   5   0 3002.42   10.56
  -1  -5   0 2827.01   12.35
  -1  -5   0 2870.76   10.44
  -2   5   0   83.83    2.07
   2   5   0   74.72    2.00
  -2  -5   0   83.21    2.29
  -2   5   0   89.53    1.96
  -2  -5   0   82.83    1.72
   2   5   0   75.28    1.59
   2  -5   0   81.17    2.12
   2  -5   0   93.60    2.08
   3   5   0  343.01    4.44
  -3   5   0  351.96    3.85
   3  -5   0  378.46    4.22
   3   5   0  362.95    3.19
  -3   5   0  352.77    4.67
  -3  -5   0  371.80    5.00
   3  -5   0  360.72    4.66
  -3  -5   0  350.65    3.42
   4   5   0  348.08    3.02
   4  -5   0  345.17    4.93
  -4  -5   0  346.56    3.40
  -4  -5   0  338.36    4.99
   4  -5   0  347.10    4.20
  -4   5   0  325.98    3.87
   5   5   0   34.93    0.99
   5  -5   0   30.54    1.69
  -5  -5   0   33.71    1.80
  -5  -5   0   37.77    1.16
  -5   5   0   31.75    1.35
   6   5   0   88.45    1.59
  -6  -5   0   85.81    1.77
   6  -5   0   86.27    2.77
   7   5   0   75.16    1.57
  -7  -5   0   67.30    2.60
  -7   5   0   74.88    2.18
  -7  -5   0   75.20    1.71
   8   5   0   20.89    0.95
  -8  -5   0   22.40    0.98
  -8  -5   0   21.95    1.64
  -8   5   0   26.87    1.38
  -8   5   0   27.20    1.45
  -9  -5   0   51.44    2.49
   9   5   0   57.46    1.71
  -9   5   0   55.36    2.21
  -9   5   0   53.65    2.14
  -9  -5   0   61.02    1.72
 -10  -5   0    0.34    0.72
 -10   5   0    1.08    0.67
 -10   5   0    1.14    0.70
 -10  -5   0    1.16    0.51
 -11  -5   0   16.75    1.65
 -11   5   0   22.39    1.66
 -11   5   0   21.88    1.52
 -11  -5   0   23.23    1.24
 -12   5   0   23.75    1.84
 -12   5   0   22.76    1.60
 -12  -5   0   19.61    1.22
 -13   5   0    0.10    0.84
 -13  -5   0   -0.89    0.98
 -13  -5   0    0.89    0.58
 -13   5   0    0.28    0.69
 -14   5   0   14.47    1.53
 -14   5   0   12.72    1.36
 -15  -5   0    4.28    1.37
 -15   5   0    1.43    1.05
 -15   5   0    3.01    0.93
 -16   5   0    0.24    0.83
 -16   5   0    0.71    1.04
 -16  -5   0   -1.62    1.28
 -17  -5   0    0.68    1.29
 -17   5   0    0.22    0.87
 -17   5   0    2.38    1.39
 -18   5   0    1.12    0.94
   0   6   0    6.28    0.65
   0  -6   0    4.57    0.69
   0  -6   0    3.91    0.66
   0   6   0    5.62    0.68
   1   6   0  348.11    4.57
  -1  -6   0  375.99    4.18
   1  -6   0  362.79    4.52
  -1   6   0  367.51    4.47
   1   6   0  370.66    4.15
  -1   6   0  381.78    4.32
  -1  -6   0  372.70    4.94
  -1   6   0  378.32    4.74
  -2   6   0  468.95    5.34
   2   6   0  446.73    5.33
  -2   6   0  502.10    5.64
  -2   6   0  488.32    4.85
  -2  -6   0  506.22    6.11
   2  -6   0  469.27    5.44
   2   6   0  492.08    4.58
  -2  -6   0  480.49    4.51
  -3  -6   0  178.04    3.70
   3  -6   0  172.52    3.06
   3  -6   0  174.01    3.56
  -3   6   0  178.54    3.02
   3   6   0  182.82    2.58
  -3  -6   0  181.56    2.73
  -4  -6   0  181.84    3.96
   4   6   0  184.85    2.45
   4  -6   0  180.72    3.92
  -4  -6   0  187.90    2.74
   5   6   0   85.74    1.66
  -5  -6   0   79.30    2.70
   5  -6   0   76.26    2.63
  -5  -6   0   85.99    1.88
  -5   6   0   70.03    2.05
  -6  -6   0  540.25    4.74
   6   6   0  554.73    4.11
  -6   6   0  533.69    5.60
   6  -6   0  528.83    7.02
  -7  -6   0    6.03    0.61
  -7  -6   0    5.47    0.96
  -7   6   0    7.12    0.83
   7  -6   0    6.92    1.01
   7   6   0    6.18    0.54
  -8   6   0   34.00    1.65
   8   6   0   38.93    1.31
  -8  -6   0   37.15    2.09
  -8   6   0   39.44    1.75
  -8  -6   0   42.20    1.43
  -9  -6   0   73.41    1.94
   9   6   0   68.86    1.84
  -9   6   0   56.78    2.22
  -9  -6   0   61.07    2.79
  -9   6   0   62.67    2.28
 -10   6   0   15.61    1.37
 -10  -6   0   14.05    0.95
 -10  -6   0   13.20    1.53
 -10   6   0   13.26    1.21
 -11   6   0    0.58    0.68
 -11   6   0   -0.81    0.75
 -11  -6   0   -0.38    0.93
 -11  -6   0    0.27    0.48
 -12  -6   0    7.11    0.84
 -12  -6   0    7.61    1.38
 -12   6   0    9.52    1.15
 -12   6   0    8.44    1.17
 -13   6   0    4.09    0.94
 -13  -6   0    3.54    1.32
 -13   6   0    7.15    1.35
 -14   6   0    1.31    0.99
 -14   6   0    1.51    0.83
 -14  -6   0    0.88    1.16
 -15   6   0   -0.65    0.94
 -15  -6   0   -1.07    1.14
 -15   6   0   -1.85    0.95
 -16  -6   0    4.53    1.57
 -16   6   0    2.91    1.05
 -16   6   0    3.16    1.21
 -17   6   0    0.35    0.94
 -17   6   0    0.31    1.07
   0   7   0    0.51    0.38
   0  -7   0    0.35    0.47
  -1  -7   0  387.15    5.40
  -1   7   0  399.84    4.79
  -1  -7   0  381.85    4.67
   1  -7   0  400.97    5.21
   1   7   0  390.09    4.62
   2   7   0    1.44    0.41
  -2  -7   0    2.89    0.73
  -2  -7   0    2.59    0.56
   2  -7   0    2.70    0.72
  -2   7   0    3.13    0.64
   3  -7   0 1301.47   10.24
   3   7   0 1337.39    7.62
  -3  -7   0 1345.77    8.17
  -3  -7   0 1337.65   10.72
  -4  -7   0    6.93    0.96
   4   7   0    8.52    0.65
  -4   7   0    9.81    0.92
   4  -7   0    8.05    1.04
  -4  -7   0    8.92    0.75
   5   7   0    5.63    0.56
   5  -7   0    6.93    0.99
  -5  -7   0    3.92    0.92
  -5   7   0    8.53    0.88
  -5  -7   0    5.15    0.62
   6  -7   0   65.20    2.62
   6   7   0   73.82    1.72
  -6  -7   0   64.72    2.67
  -6   7   0   69.75    2.16
  -6  -7   0   71.25    1.83
  -7  -7   0   54.65    1.66
  -7  -7   0   50.66    2.51
   7   7   0   59.34    1.53
   7  -7   0   53.70    2.50
  -7   7   0   59.13    1.99
  -8  -7   0    1.67    0.81
  -8  -7   0    1.17    0.47
  -8   7   0    1.30    0.67
   8   7   0    0.47    0.36
  -9  -7   0    5.52    1.15
  -9   7   0    3.92    0.79
  -9  -7   0    6.51    0.73
  -9   7   0    3.71    0.88
 -10  -7   0   19.44    1.15
 -10   7   0   19.31    1.48
 -10  -7   0   15.98    1.72
 -11   7   0    3.86    0.85
 -11  -7   0    2.57    0.97
 -11  -7   0    3.85    0.68
 -11   7   0    4.64    0.99
 -12   7   0    1.03    0.83
 -12   7   0    2.32    0.79
 -12  -7   0    1.78    1.13
 -13  -7   0   -0.23    0.97
 -13   7   0    1.59    0.89
 -13   7   0    1.11    0.95
 -14   7   0    2.10    1.07
 -14   7   0    1.28    0.78
 -14  -7   0    1.67    1.17
 -15   7   0    1.17    1.01
 -15   7   0    0.89    0.85
 -15  -7   0    1.84    1.28
 -16   7   0    0.04    1.02
 -16  -7   0    0.61    1.31
 -16   7   0    0.70    1.05
 -17   7   0   -1.95    1.15
 -17   7   0    0.64    0.96
   0  -8   0  522.07    6.05
  -1  -8   0   14.64    1.28
   1  -8   0   12.52    1.14
   1   8   0   15.67    1.03
  -1  -8   0   14.95    1.09
  -2  -8   0 1825.16   12.75
   2   8   0 1916.88   10.76
  -2   8   0 1877.07   11.17
  -2  -8   0 1873.81   10.59
   2  -8   0 1848.63   12.24
   3  -8   0  555.37    7.04
  -3  -8   0  532.13    7.11
   3   8   0  561.06    5.49
  -3   8   0  547.12    6.10
  -3  -8   0  549.13    5.63
  -4  -8   0  150.84    3.99
  -4  -8   0  166.84    3.08
   4  -8   0  153.24    3.79
   4   8   0  171.60    2.89
  -4   8   0  164.38    3.33
  -5  -8   0  242.89    3.62
   5   8   0  248.05    3.39
  -5   8   0  255.12    4.17
  -6  -8   0  167.83    2.99
  -6  -8   0  148.53    4.21
   6   8   0  164.67    2.72
   6  -8   0  140.20    3.96
  -6   8   0  144.56    3.21
  -7  -8   0   80.00    3.19
   7   8   0   90.66    2.00
   7  -8   0   69.78    2.89
  -7   8   0   80.60    2.49
  -7  -8   0   94.90    2.26
  -8  -8   0  123.98    2.59
  -8   8   0  127.18    3.23
   8  -8   0  112.89    3.92
  -8  -8   0  109.26    3.81
  -9   8   0   63.03    2.42
  -9   8   0   53.41    2.19
  -9  -8   0   64.37    1.91
  -9  -8   0   54.42    2.92
 -10  -8   0    0.64    0.51
 -10   8   0    0.73    0.69
 -10  -8   0    0.02    0.95
 -10   8   0    0.24    0.70
 -11  -8   0    8.31    1.47
 -11   8   0    9.22    1.14
 -11  -8   0    7.82    0.81
 -12  -8   0    2.50    1.03
 -12   8   0    3.91    0.99
 -12   8   0    2.19    0.86
 -13  -8   0    0.82    1.10
 -13   8   0    0.40    0.77
 -13   8   0    1.06    1.02
 -14  -8   0    1.62    1.12
 -14   8   0    1.87    1.05
 -14   8   0    0.22    0.82
 -15   8   0    0.90    0.90
 -15   8   0    0.12    0.98
 -15  -8   0    0.19    1.21
 -16   8   0    2.95    1.14
 -16   8   0    1.76    1.12
   0  -9   0    2.55    0.64
   0   9   0    0.49    0.59
  -1  -9   0  162.87    4.01
  -1   9   0  150.31    3.38
  -1  -9   0  152.45    3.36
   1  -9   0  165.24    3.91
   2  -9   0  256.57    4.81
  -2   9   0  236.47    4.27
  -2  -9   0  257.71    4.28
  -2  -9   0  255.12    5.07
   3  -9   0    2.64    0.78
  -3  -9   0    2.52    0.61
  -3  -9   0    2.93    0.86
  -3   9   0    2.63    0.71
   4  -9   0   80.39    2.90
  -4  -9   0   82.55    3.12
  -4  -9   0   87.10    2.39
  -4   9   0   80.14    2.44
   4   9   0   89.53    2.32
   5   9   0   52.79    1.73
  -5  -9   0   51.55    2.52
   5  -9   0   53.76    2.43
  -5  -9   0   57.27    1.95
  -5   9   0   60.96    2.16
   6   9   0    7.42    0.75
  -6   9   0    7.70    0.93
  -6  -9   0    7.01    1.17
   6  -9   0    5.70    1.08
  -6  -9   0    7.50    0.79
   7  -9   0    1.11    0.86
  -7  -9   0    1.52    0.92
  -7   9   0    2.39    0.70
  -7  -9   0    2.09    0.58
  -8  -9   0    9.16    1.41
  -8   9   0    6.57    0.93
   8  -9   0    7.99    1.30
  -8  -9   0   10.62    0.87
  -9  -9   0   17.34    1.83
  -9  -9   0   20.24    1.16
  -9   9   0   19.27    1.44
 -10   9   0    2.41    0.78
 -10  -9   0    1.95    0.97
 -10  -9   0    1.89    0.54
 -10   9   0    1.93    0.83
 -11   9   0    5.91    1.08
 -11   9   0    5.83    1.05
 -11  -9   0    5.21    1.36
 -12   9   0    9.43    1.28
 -12   9   0   11.94    1.43
 -13  -9   0   -0.16    1.09
 -13   9   0    1.02    0.81
 -13   9   0    0.30    0.93
 -14   9   0    2.23    1.01
 -14  -9   0    1.00    1.24
 -14   9   0   -0.21    0.90
 -15  -9   0    0.75    1.43
 -15   9   0    2.74    1.07
 -15   9   0    2.23    1.21
 -16   9   0   -0.62    1.16
 -16   9   0    0.04    0.93
   0  10   0   74.80    2.63
   0 -10   0   78.49    2.77
  -1 -10   0  243.61    5.07
  -1 -10   0  245.06    4.72
   1 -10   0  247.10    4.81
  -1  10   0  253.35    4.53
  -2  10   0  606.84    7.04
  -2 -10   0  580.36    6.67
   2 -10   0  588.60    7.68
  -2 -10   0  585.06    8.02
  -3  10   0   87.73    2.72
   3 -10   0   83.93    2.95
  -3 -10   0   87.10    3.19
  -3 -10   0   93.36    2.64
  -4 -10   0   95.28    3.46
  -4 -10   0  103.59    2.77
   4 -10   0   99.45    3.39
  -4  10   0   98.59    2.87
  -5 -10   0  315.70    6.42
  -5  10   0  312.50    5.05
   6 -10   0    7.23    1.23
  -6  10   0    8.65    1.03
  -6 -10   0    6.90    0.78
  -6 -10   0    6.08    1.18
   7 -10   0   58.91    2.86
  -7 -10   0   66.76    2.14
  -7 -10   0   57.48    2.93
  -7  10   0   72.12    2.60
  -8 -10   0    3.75    0.67
   8 -10   0    1.21    0.87
  -8 -10   0    4.45    1.24
  -8  10   0    2.40    0.72
  -9 -10   0    1.79    1.03
  -9  10   0    1.51    0.76
  -9 -10   0    1.45    0.54
 -10  10   0   25.02    1.71
 -10 -10   0   27.95    2.35
 -10  10   0   29.88    1.90
 -11  10   0    0.75    0.73
 -11 -10   0    0.14    1.15
 -11  10   0    0.13    0.81
 -12  10   0    1.25    0.83
 -12 -10   0    3.11    1.28
 -12  10   0    0.65    0.80
 -13  10   0    4.24    1.11
 -13  10   0    2.67    0.95
 -13 -10   0    3.10    1.40
 -14  10   0    3.12    0.94
 -14  10   0    2.48    1.12
 -14 -10   0    1.99    1.29
 -15  10   0    0.59    1.10
 -15  10   0    0.61    0.87
 -16  10   0   -0.87    1.19
   0 -11   0    0.72    0.68
   0  11   0    2.19    0.76
  -1 -11   0  130.16    3.58
   1 -11   0  132.01    3.70
  -1  11   0  133.59    3.49
   2 -11   0   45.56    2.26
  -2 -11   0   45.79    2.56
  -2  11   0   49.32    2.20
  -2 -11   0   46.04    2.07
  -3 -11   0  369.06    6.74
  -3  11   0  377.96    5.72
   3 -11   0  362.61    6.38
  -3 -11   0  385.88    5.62
  -4 -11   0   11.69    1.42
  -4 -11   0   13.58    1.17
   4 -11   0   13.94    1.55
  -4  11   0   14.59    1.32
  -5 -11   0   67.39    2.38
   5 -11   0   69.62    3.02
  -5  11   0   71.37    2.52
   6 -11   0   10.06    1.50
  -6 -11   0    9.78    1.44
  -6 -11   0   10.38    1.04
  -6  11   0   11.78    1.19
   7 -11   0    0.63    0.97
  -7  11   0    1.86    0.79
  -7 -11   0    1.20    0.96
  -7 -11   0    2.17    0.63
  -8  11   0   22.21    1.60
   8 -11   0   19.34    1.88
  -8 -11   0   21.13    1.96
  -8 -11   0   21.46    1.25
  -9 -11   0    0.74    1.04
  -9  11   0    0.13    0.83
 -10  11   0    1.02    0.70
 -10 -11   0   -1.29    1.13
 -10  11   0    0.16    0.77
 -11  11   0   -1.89    0.87
 -11 -11   0   -0.74    1.12
 -11  11   0   -0.10    0.76
 -12  11   0    2.78    0.98
 -12 -11   0    4.46    1.67
 -12  11   0    3.12    1.09
 -13  11   0    0.75    0.82
 -13  11   0   -1.44    1.08
 -13 -11   0   -0.06    1.19
 -14  11   0    1.73    1.04
 -14 -11   0    0.65    1.30
 -14  11   0    1.29    0.92
 -15  11   0    1.51    1.17
   0 -12   0    4.95    0.94
   0  12   0    5.41    1.00
  -1 -12   0  213.44    4.79
  -1  12   0  228.15    4.94
   1  12   0  226.79    4.95
   1 -12   0  215.83    5.02
  -2 -12   0  405.48    6.25
  -2 -12   0  388.29    6.97
   2 -12   0  397.30    6.88
  -3  12   0  693.30    8.13
  -3 -12   0  705.13    8.03
  -3 -12   0  670.65    9.42
   3 -12   0  655.97    8.86
  -4 -12   0   53.15    2.22
  -4 -12   0   52.07    2.73
   4 -12   0   53.45    2.68
  -4  12   0   61.44    2.50
   5 -12   0    9.26    1.32
  -5  12   0   11.90    1.24
  -5 -12   0   10.42    1.50
  -5 -12   0   12.99    1.20
  -6 -12   0   79.05    2.61
  -6  12   0   81.37    2.81
   6 -12   0   71.06    3.27
  -6 -12   0   71.45    3.31
  -7 -12   0   71.22    3.50
  -7 -12   0   69.57    2.33
  -7  12   0   63.30    2.54
  -8 -12   0   66.05    3.48
  -8  12   0   62.22    2.60
  -9  12   0   10.90    1.19
  -9 -12   0   11.49    1.73
 -10  12   0    1.88    0.92
 -10 -12   0    1.22    1.17
 -10  12   0    1.08    0.82
 -11  12   0    3.59    0.95
 -11  12   0    2.50    1.04
 -11 -12   0    3.12    1.42
 -12  12   0   -0.42    0.98
 -12  12   0    0.05    0.83
 -13 -12   0    0.62    1.23
 -13  12   0    1.74    1.03
 -13  12   0    1.40    0.98
 -14  12   0    1.51    1.09
 -15  12   0    3.14    1.31
   0 -13   0    2.04    0.88
   0  13   0    0.93    0.71
   1 -13   0    0.53    0.81
  -1  13   0    1.47    0.86
   1  13   0    1.88    0.88
  -1 -13   0    0.65    0.71
   2 -13   0   27.50    1.99
  -2 -13   0   25.42    1.84
  -2  13   0   27.48    1.76
   3 -13   0   12.11    1.45
  -3  13   0   14.12    1.39
  -3 -13   0   12.61    1.33
  -3 -13   0   14.45    1.75
   4 -13   0    0.69    0.95
  -4 -13   0    1.42    0.76
  -4  13   0    1.74    0.82
  -4 -13   0    3.99    1.13
  -5 -13   0    4.57    1.25
  -5  13   0    2.87    0.87
   5 -13   0    4.24    1.07
  -5 -13   0    3.28    0.81
  -6 -13   0    2.42    0.71
  -6 -13   0    1.61    0.93
   6 -13   0    2.80    1.05
  -6  13   0    3.35    0.95
  -7 -13   0    4.23    1.27
   7 -13   0    4.07    1.20
  -7  13   0    7.08    1.11
   8 -13   0    1.42    1.06
  -8 -13   0    1.48    1.05
  -8  13   0    3.34    0.98
  -9  13   0    9.00    1.17
  -9 -13   0   10.82    1.83
 -10  13   0    0.08    0.86
 -10  13   0    0.75    0.84
 -10 -13   0    0.30    1.21
 -11  13   0   -0.30    0.90
 -11 -13   0    1.91    1.41
 -11  13   0   -0.03    0.85
 -12  13   0   -1.60    0.96
 -12  13   0    1.66    0.95
 -12 -13   0   -0.38    1.28
 -13  13   0    1.02    0.94
 -14  13   0    0.79    1.09
   0  14   0  131.00    3.87
   0 -14   0  136.03    4.38
   1 -14   0   30.58    2.11
   1  14   0   32.16    2.04
  -1  14   0   32.77    2.06
  -1 -14   0   30.37    2.10
   2  14   0    3.33    1.01
  -2 -14   0    2.34    0.87
   2 -14   0    2.17    1.06
  -2  14   0    3.27    0.93
  -3 -14   0   12.02    1.61
   3 -14   0   10.16    1.53
  -3  14   0   10.42    1.25
  -3 -14   0    9.19    1.38
  -4 -14   0    5.01    0.93
   4 -14   0    4.28    1.15
  -4  14   0    3.59    0.95
  -4 -14   0    6.07    1.37
   5 -14   0    0.86    1.00
  -5 -14   0    0.74    0.69
  -5 -14   0    1.04    1.06
  -5  14   0    1.19    0.87
  -6  14   0   24.29    1.79
  -6 -14   0   20.12    1.53
   6 -14   0   20.82    2.13
  -6 -14   0   20.84    2.07
  -7 -14   0    0.67    0.99
   7 -14   0    1.85    1.07
  -7  14   0   -0.33    0.77
   8 -14   0    6.49    1.51
  -8 -14   0    5.39    1.48
  -8  14   0    7.28    1.12
  -9  14   0    7.33    1.45
  -9  14   0    6.16    1.14
  -9 -14   0    7.36    1.54
 -10 -14   0    1.04    1.24
 -10  14   0    1.85    0.91
 -10  14   0   -0.36    0.99
 -11 -14   0    3.01    1.57
 -11  14   0    2.74    1.06
 -11  14   0    4.65    1.24
 -12  14   0   -0.79    1.00
 -13  14   0    1.65    1.07
   0 -15   0    0.39    0.86
   0  15   0    0.31    0.85
  -1 -15   0    0.85    0.85
   1  15   0   -0.82    0.86
   1 -15   0    0.01    0.89
  -1  15   0   -0.06    0.78
  -2 -15   0   17.94    1.84
   2  15   0   20.08    1.78
  -2  15   0   20.77    1.71
   3 -15   0   12.63    1.65
  -3  15   0   10.61    1.37
  -3 -15   0    9.45    1.38
   4 -15   0    3.18    1.06
  -4 -15   0    5.02    1.33
  -4 -15   0    4.66    0.95
  -4  15   0    6.01    1.14
  -5  15   0    1.96    0.93
  -5 -15   0    0.10    1.12
   5 -15   0   -0.23    1.13
  -5 -15   0    0.48    0.68
  -6 -15   0    9.89    1.70
  -6  15   0   11.87    1.36
   6 -15   0   11.70    1.74
  -7  15   0    0.24    0.81
   7 -15   0    2.67    1.32
  -8 -15   0    2.15    1.31
  -8  15   0    1.79    0.90
  -9  15   0    8.13    1.63
  -9  15   0    8.02    1.30
  -9 -15   0    8.38    1.84
 -10  15   0    2.27    0.97
 -10  15   0    4.39    1.43
 -10 -15   0    2.58    1.43
 -11  15   0    0.53    0.95
 -12  15   0    0.21    0.91
   0 -16   0   30.70    2.26
   0  16   0   32.86    2.22
  -1 -16   0   26.88    2.07
  -1  16   0   29.37    2.11
   1  16   0   26.77    2.05
   1 -16   0   28.32    2.38
  -2  16   0   46.13    2.55
   2 -16   0   44.12    2.82
  -2 -16   0   43.08    2.56
   2  16   0   43.66    2.59
  -3 -16   0   32.54    2.15
  -3  16   0   37.82    2.32
   3 -16   0   34.31    2.57
   3  16   0   36.75    2.45
  -4 -16   0   60.57    2.97
  -4  16   0   65.76    2.94
   4 -16   0   65.42    3.59
  -5  16   0    4.09    1.12
  -5 -16   0    3.73    1.41
   5 -16   0    2.74    1.28
  -6  16   0    0.14    0.84
  -6 -16   0    0.55    1.18
   6 -16   0   -0.63    1.17
   7 -16   0   16.53    2.15
  -7  16   0   19.61    1.75
  -7 -16   0   22.26    2.39
  -8  16   0   12.08    1.49
  -8 -16   0   10.56    1.85
  -9 -16   0    3.45    1.50
  -9  16   0    3.30    1.60
  -9  16   0    1.48    0.92
 -10  16   0   -1.12    0.98
 -11  16   0    1.20    0.92
   0 -17   0   -0.04    1.00
   0  17   0    0.65    0.96
  -1  17   0   11.96    1.57
   1  17   0    9.18    1.43
  -1 -17   0   10.07    1.43
   1 -17   0   11.32    1.63
   2  17   0    4.43    1.17
  -2 -17   0    4.92    1.22
  -2  17   0    3.23    1.07
   2 -17   0    2.78    1.18
  -3 -17   0    0.18    0.81
   3  17   0    0.85    0.99
   3 -17   0    1.51    1.21
  -3  17   0    1.29    0.93
  -4  17   0    0.64    0.91
   4  17   0    2.58    1.13
   4 -17   0    3.42    1.42
  -5  17   0    0.35    0.92
  -5 -17   0    0.70    1.16
  -6 -17   0    6.34    1.66
  -6  17   0    5.93    1.21
   6 -17   0    4.35    1.56
  -7  17   0    0.47    0.85
  -7 -17   0   -0.14    1.37
  -8  17   0   -0.33    0.95
  -8  17   0   -1.20    1.88
  -8 -17   0    0.47    1.37
  -9  17   0    0.95    0.87
   0  18   0   56.34    3.10
   0 -18   0   50.66    3.07
  -1  18   0   32.50    2.33
   1  18   0   33.17    2.38
  -1 -18   0   25.67    2.19
   1 -18   0   25.73    2.35
   2 -18   0    8.42    1.57
  -2  18   0   10.33    1.51
   2  18   0   10.89    1.58
   3 -18   0    0.23    1.20
  -3  18   0    0.42    0.92
   3  18   0    0.91    0.96
   4 -18   0    3.24    1.39
   4  18   0    3.40    1.14
  -4  18   0    4.03    1.16
   5 -18   0    4.87    1.47
  -5  18   0    4.23    1.23
   5  18   0    5.14    1.36
  -6  18   0    1.52    0.98
  -6 -18   0    1.94    1.27
   6 -18   0    2.08    1.55
  -7  18   0    3.97    1.14
  -8  18   0    0.00    0.92
   0 -19   0    0.59    1.11
   0  19   0    0.63    0.94
   1 -19   0    3.41    1.36
  -1  19   0    4.57    1.23
   1  19   0    5.92    1.42
  -2  19   0    1.75    1.15
   2  19   0    0.69    1.03
   2 -19   0   -0.71    1.27
   3  19   0    2.40    1.18
   3 -19   0    1.76    1.29
  -3  19   0    1.84    1.03
   4  19   0    3.51    1.26
  -4  19   0    1.43    1.05
   4 -19   0    2.00    1.42
  -5  19   0   -0.55    0.92
  -6  19   0    0.69    0.94
   1 -20   0    5.27    1.46
   2 -20   0    3.14    1.42
 -18   0   1   -1.12    1.26
 -17   0   1   -0.94    1.17
 -17   0   1    0.41    0.81
 -16   0   1   -0.18    1.06
 -16   0   1    0.14    0.74
 -15   0   1   -1.04    0.95
 -15   0   1    0.39    0.72
 -14   0   1   -1.21    0.76
 -14   0   1    0.94    0.92
 -13   0   1    1.20    0.65
 -13   0   1   -0.74    0.80
 -12   0   1    0.19    0.60
 -12   0   1   -0.27    0.74
 -11   0   1   -1.08    0.57
 -11   0   1    0.09    0.71
 -10   0   1    3.05    0.64
 -10   0   1    2.86    0.72
  -9   0   1    1.37    0.55
  -9   0   1    0.86    0.63
  -8   0   1   -0.30    0.68
  -8   0   1   -0.07    0.51
  -7   0   1    1.50    0.51
  -7   0   1    1.65    0.40
   6   0  -1    1.09    0.37
  -6   0   1    1.68    0.42
  -6   0   1    1.78    0.57
   6   0  -1    1.98    0.46
  -5   0   1   -0.09    0.45
  -5   0   1    0.21    0.32
   5   0  -1   -0.27    0.38
   5   0  -1    0.01    0.31
  -4   0   1   13.72    0.70
   4   0  -1   13.59    0.68
   4   0  -1   12.42    0.62
  -4   0   1   12.33    0.65
  -3   0   1    3.07    0.31
   3   0  -1    2.56    0.29
  -3   0   1    3.02    0.31
   3   0  -1    2.94    0.28
  -2   0   1    7.72    0.35
  -2   0   1    5.06    0.34
   2   0  -1    7.18    0.34
   2   0  -1    6.91    0.38
   1   0  -1    0.43    0.14
  -1   0   1    1.03    0.21
   0   0  -1    5.69    0.24
   0   0  -1    4.47    0.24
   0   0   1    4.75    0.20
  -1   0  -1    1.65    0.19
   1   0   1    1.47    0.18
  -1   0  -1    1.63    0.19
   1   0   1    2.09    0.22
  -2   0  -1   13.09    0.60
  -2   0  -1   11.99    0.47
   2   0   1   12.34    0.46
   2   0   1   12.67    0.58
  -3   0  -1    1.98    0.29
   3   0   1    2.24    0.32
   3   0   1    2.24    0.34
  -3   0  -1    1.04    0.36
  -4   0  -1    4.76    0.56
   4   0   1    5.30    0.49
  -4   0  -1    5.00    0.45
   4   0   1    4.75    0.54
  -5   0  -1    2.14    0.53
  -5   0  -1    2.35    0.40
  -5   0  -1    1.95    0.44
   5   0   1    1.61    0.39
  -6   0  -1   -0.28    0.67
  -6   0  -1    0.26    0.39
  -6   0  -1    0.22    0.38
  -7   0  -1    2.09    0.64
  -7   0  -1    2.57    0.50
  -7   0  -1    2.41    0.52
  -8   0  -1    2.29    0.70
  -8   0  -1    2.27    0.55
  -8   0  -1    2.80    0.54
  -9   0  -1   -0.15    0.69
  -9   0  -1    0.66    0.43
 -10   0  -1   -0.25    0.74
 -10   0  -1    0.59    0.50
 -11   0  -1    1.59    0.82
 -11   0  -1   -0.08    0.52
 -12   0  -1   -0.17    0.76
 -12   0  -1   -0.54    0.52
 -13   0  -1    0.13    0.52
 -13   0  -1    1.87    0.86
 -14   0  -1    0.51    0.60
 -14   0  -1    0.21    0.84
 -15   0  -1    0.37    0.65
 -15   0  -1   -1.15    0.97
 -16   0  -1    0.70    1.07
 -17   0  -1   -0.31    1.17
 -18   1   1   -0.57    1.20
 -18   1   1    1.50    0.96
 -18  -1   1    0.81    1.37
 -17  -1   1    1.20    1.21
 -17  -1   1   -0.91    0.83
 -17   1   1    0.89    0.80
 -17   1   1    0.58    1.01
 -16  -1   1    1.98    1.16
 -16   1   1    0.86    1.12
 -16   1   1    0.77    0.78
 -16  -1   1    1.48    0.80
 -15   1   1    6.11    1.03
 -15   1   1    4.96    1.26
 -15  -1   1    5.27    0.95
 -15  -1   1    5.35    1.35
 -14   1   1    3.51    0.84
 -14  -1   1    2.78    0.81
 -14  -1   1    3.19    1.05
 -14   1   1    4.88    1.07
 -13   1   1    1.90    0.74
 -13   1   1    2.93    0.87
 -13  -1   1    2.56    0.70
 -13  -1   1    3.51    1.05
 -12  -1   1   10.71    1.10
 -12   1   1   10.11    1.20
 -12  -1   1    7.54    1.15
 -12   1   1   10.84    1.01
 -11   1   1   42.64    1.88
 -11   1   1   38.18    2.05
 -11  -1   1   40.53    2.23
 -11  -1   1   40.66    1.71
 -10   1   1   38.88    1.98
 -10  -1   1   37.44    1.99
 -10   1   1   39.61    1.70
 -10  -1   1   39.40    1.63
  -9   1   1   21.86    1.29
  -9  -1   1   23.87    1.21
  -9  -1   1   20.46    1.41
  -9   1   1   21.01    1.43
  -8   1   1  428.11    5.35
  -8   1   1  425.35    4.87
  -8  -1   1  360.68    5.29
  -8  -1   1  353.70    4.33
  -7   1   1   14.95    1.00
  -7  -1   1   10.49    0.92
  -7   1   1   16.28    0.96
  -7  -1   1   11.47    0.80
   7   1  -1   10.22    0.77
  -6  -1   1  238.75    3.12
   6  -1  -1  214.91    3.05
   6   1  -1  232.62    2.94
  -6  -1   1  244.43    3.77
   6   1  -1  231.18    3.40
   6  -1  -1  211.78    3.20
  -6   1   1  231.64    3.43
  -6   1   1  235.59    3.36
  -5   1   1 1067.24    6.30
  -5  -1   1 1057.19    7.13
   5  -1  -1 1049.53    6.17
  -5   1   1 1090.70    6.87
  -5  -1   1 1053.06    6.08
   5   1  -1 1065.96    5.91
   5  -1  -1 1064.88    6.70
  -4   1   1   60.58    1.34
  -4  -1   1   57.51    1.48
  -4  -1   1   56.01    1.26
  -4   1   1   58.71    1.43
   4  -1  -1   51.06    1.19
   4   1  -1   56.83    1.38
   4   1  -1   54.20    1.22
   4  -1  -1   53.29    1.35
  -3  -1   1 1111.71    5.67
  -3   1   1 1100.14    5.62
   3  -1  -1 1080.13    5.36
  -3   1   1 1099.72    4.73
   3   1  -1 1066.08    4.77
   3   1  -1 1145.34    5.45
  -3  -1   1 1075.95    5.05
   3  -1  -1 1026.96    4.29
  -2  -1   1 2157.57    6.61
   2  -1  -1 2278.72    6.66
  -2  -1   1 2233.80    7.00
  -2   1   1 2203.65    4.95
   2   1  -1 2270.28    6.91
   2   1  -1 2196.28    6.41
   1   1  -1  238.17    1.98
  -1  -1   1  238.57    2.06
   1  -1  -1  255.36    1.87
  -1  -1   1  238.02    2.01
   1   1  -1  244.94    2.04
  -1   1   1  236.58    1.75
   2  -1   1  498.92    3.38
  -2   1  -1  496.54    3.47
  -2  -1  -1  486.05    3.51
   2   1   1  508.85    3.53
   2  -1   1  492.56    3.49
   3  -1   1 1751.74    7.13
  -3  -1  -1 1533.88    5.06
   3  -1   1 1628.63    7.01
  -3  -1  -1 1618.93    7.42
  -3   1  -1 1797.73    7.44
  -3   1  -1 1705.60    7.31
   3   1   1 1764.08    7.82
  -4   1  -1   56.62    1.53
  -4  -1  -1   65.07    1.28
  -4   1  -1   61.02    1.52
   4   1   1   64.15    1.72
  -4  -1  -1   62.25    1.69
   4  -1   1   61.84    1.61
   4  -1   1   58.44    1.64
   5  -1   1 1439.25    8.11
  -5  -1  -1 1413.99    6.85
   5   1   1 1399.44    8.35
  -5  -1  -1 1442.44    5.97
  -5   1  -1 1405.10    8.08
   5  -1   1 1428.15    8.12
  -6   1  -1  348.39    4.46
  -6  -1  -1  346.71    3.89
  -6  -1  -1  349.82    3.23
  -6   1  -1  354.53    4.70
  -7   1  -1   10.13    0.94
  -7   1  -1   10.53    1.03
  -7   1  -1   11.30    0.87
  -7  -1  -1   13.67    0.75
  -7  -1  -1   14.61    1.14
  -7  -1  -1   12.35    0.85
  -8  -1  -1   59.82    1.59
  -8   1  -1   63.22    1.90
  -8  -1  -1   56.77    1.88
  -8  -1  -1   58.50    2.20
  -8   1  -1   57.13    2.16
  -9  -1  -1  197.70    2.96
  -9   1  -1  199.78    4.14
  -9   1  -1  208.36    3.49
 -10  -1  -1   33.19    1.34
 -10  -1  -1   32.32    1.89
 -10   1  -1   33.35    1.52
 -10   1  -1   32.21    1.82
 -11  -1  -1    2.76    0.61
 -11   1  -1    4.65    0.76
 -11   1  -1    5.18    1.01
 -11  -1  -1    2.73    0.89
 -12  -1  -1   14.94    1.51
 -12  -1  -1   16.44    1.12
 -12   1  -1   15.49    1.47
 -12   1  -1   17.71    1.25
 -13  -1  -1    1.19    0.57
 -13   1  -1    1.49    0.65
 -13  -1  -1    0.16    0.83
 -14  -1  -1    1.04    0.88
 -14  -1  -1   -0.06    0.56
 -14   1  -1   -1.22    0.86
 -14   1  -1   -0.64    0.65
 -15   1  -1    0.82    0.67
 -15   1  -1    2.93    1.02
 -16   1  -1   -0.54    1.01
 -16  -1  -1    0.79    1.02
 -16   1  -1    0.38    0.76
 -17  -1  -1    1.11    1.18
 -17   1  -1   -0.31    1.06
 -18  -2   1   -0.46    1.24
 -18   2   1    1.62    1.27
 -18   2   1    1.09    0.95
 -17  -2   1    0.49    1.31
 -17   2   1    1.91    1.24
 -17   2   1   -1.23    0.94
 -16  -2   1    2.35    1.24
 -16   2   1    2.59    0.92
 -16   2   1    3.93    1.18
 -16  -2   1    5.30    1.05
 -15  -2   1    7.11    1.03
 -15   2   1    7.91    1.14
 -15   2   1    8.35    1.34
 -15  -2   1    7.40    1.38
 -14  -2   1    1.59    1.01
 -14   2   1    1.28    0.87
 -14   2   1   -0.69    0.69
 -14  -2   1    0.50    0.64
 -13  -2   1   33.61    2.39
 -13  -2   1   33.04    1.77
 -13   2   1   30.58    2.02
 -13   2   1   33.00    1.86
 -12   2   1   45.73    2.29
 -12   2   1   44.70    2.04
 -12  -2   1   41.80    2.49
 -12  -2   1   39.28    1.79
 -11   2   1    7.55    1.09
 -11   2   1    7.39    0.92
 -11  -2   1    8.69    1.23
 -11  -2   1    9.16    0.89
 -10  -2   1    0.22    0.77
 -10   2   1    2.34    0.80
 -10  -2   1    0.96    0.51
 -10   2   1    1.50    0.63
  -9  -2   1   74.41    2.77
  -9   2   1   74.87    2.46
  -9   2   1   82.94    2.50
  -9  -2   1   75.33    2.09
  -8   2   1  132.82    3.00
  -8  -2   1  125.61    3.38
  -8  -2   1  125.86    2.56
  -8   2   1  137.23    3.00
   7   2  -1  419.23    4.13
  -7  -2   1  469.43    5.95
  -7   2   1  447.10    5.09
  -7  -2   1  434.60    4.38
  -7   2   1  471.32    5.14
  -6  -2   1  125.44    2.26
   6  -2  -1  128.32    2.36
  -6  -2   1  126.83    2.89
   6   2  -1  118.98    2.09
  -6   2   1  136.58    2.66
   6   2  -1  118.45    2.51
  -5   2   1    6.11    0.71
  -5  -2   1    6.99    0.58
   5  -2  -1    3.55    0.48
  -5   2   1    6.18    0.68
  -5  -2   1    6.24    0.77
  -5   2   1    4.95    0.59
   5   2  -1    4.45    0.46
   5   2  -1    4.94    0.59
  -4  -2   1   36.07    1.04
   4   2  -1   35.48    1.22
  -4   2   1   28.90    0.93
   4  -2  -1   32.03    0.94
  -4   2   1   32.37    1.18
   4   2  -1   38.97    1.03
  -4  -2   1   33.47    1.30
   3   2  -1   26.47    0.82
  -3   2   1   32.14    1.04
  -3  -2   1   29.23    1.07
  -3   2   1   33.46    0.81
   3  -2  -1   28.78    0.98
   3  -2  -1   31.36    0.78
   3   2  -1   27.21    1.00
  -3  -2   1   25.33    0.86
  -2   2   1  422.91    2.21
   2  -2  -1  427.29    3.29
   2  -2  -1  426.27    2.41
  -2  -2   1  436.83    3.14
   2   2  -1  447.75    3.14
  -2  -2   1  453.35    3.83
  -2   2   1  432.33    3.37
   2   2  -1  468.62    3.73
  -1   2   1 1102.77    3.56
  -1  -2   1 1082.84    5.17
  -1   2   1 1108.50    4.57
   1   2  -1 1103.57    4.99
   1   2  -1 1112.28    5.43
  -1   2   1 1102.81    3.25
   1  -2  -1 1143.26    4.62
  -1  -2   1 1087.88    5.44
   0  -2   1 1735.38    6.53
   0   2   1 1626.51    4.70
   0   2  -1 1586.38    5.90
   0  -2   1 1574.55    6.34
   0   2  -1 1642.18    6.46
   0  -2  -1 1690.36    5.06
  -2  -2  -1 2395.96    8.36
   2   2   1 2334.01    7.74
   2  -2   1 2101.99    8.38
  -2   2  -1 2071.31    8.22
   2  -2   1 2155.25    7.87
  -2   2  -1 2115.23    7.78
   3  -2   1  372.76    3.53
   3  -2   1  373.02    3.87
  -3  -2  -1  389.87    3.71
  -3   2  -1  379.12    3.83
  -3   2  -1  368.80    3.36
   3   2   1  385.06    3.63
  -4   2  -1  156.94    2.69
   4   2   1  152.94    2.66
  -4  -2  -1  142.43    1.33
  -4  -2  -1  158.30    2.83
  -4  -2  -1  154.29    1.65
   4  -2   1  165.48    2.58
   4  -2   1  153.05    2.67
  -4   2  -1  163.99    2.47
   5   2   1   16.54    1.04
  -5  -2  -1   17.09    0.70
   5  -2   1   14.87    0.90
  -5   2  -1   14.24    0.94
  -5   2  -1   14.95    1.00
   5  -2   1   18.28    1.12
  -5  -2  -1   17.39    0.58
  -5  -2  -1   17.27    1.10
  -6   2  -1  756.12    6.85
   6  -2   1  785.05    7.03
  -6  -2  -1  747.31    4.30
  -6  -2  -1  763.22    5.11
  -6  -2  -1  759.34    7.09
  -7  -2  -1  156.96    3.37
  -7  -2  -1  154.47    2.61
  -7   2  -1  160.46    3.26
  -7  -2  -1  155.47    2.17
  -8  -2  -1   26.46    1.26
  -8  -2  -1   27.13    1.03
  -8  -2  -1   27.09    1.66
  -8   2  -1   32.07    1.66
  -9  -2  -1    1.32    0.72
  -9   2  -1    2.93    0.62
  -9  -2  -1    1.64    0.52
  -9   2  -1    1.14    0.70
  -9  -2  -1    1.88    0.41
 -10   2  -1  103.21    2.68
 -10  -2  -1   84.43    2.06
 -10  -2  -1   89.70    3.06
 -10   2  -1   98.50    3.11
 -11  -2  -1   40.02    1.54
 -11  -2  -1   39.16    2.22
 -11   2  -1   41.49    1.86
 -11   2  -1   38.52    2.08
 -12   2  -1    2.28    0.82
 -12  -2  -1    0.84    0.80
 -12   2  -1    0.89    0.56
 -12  -2  -1    1.43    0.55
 -13   2  -1    7.79    1.24
 -13  -2  -1    9.04    0.89
 -13   2  -1   10.63    1.19
 -13  -2  -1    8.78    1.38
 -14  -2  -1    6.29    0.88
 -14  -2  -1    4.51    1.18
 -14   2  -1    6.91    1.02
 -14   2  -1    6.28    1.21
 -15   2  -1    1.31    0.78
 -15  -2  -1   -0.60    1.00
 -15   2  -1    2.71    1.13
 -16   2  -1    0.47    0.73
 -16   2  -1    1.31    1.10
 -16  -2  -1    0.71    1.12
 -17   2  -1    1.77    1.12
 -17  -2  -1   -0.18    1.18
 -18   3   1    0.31    1.09
 -18   3   1    0.41    0.86
 -17  -3   1    6.25    1.52
 -17   3   1    6.41    1.22
 -17   3   1    5.49    1.45
 -16   3   1    0.89    0.88
 -16  -3   1   -1.22    1.10
 -16   3   1   -0.42    0.90
 -15  -3   1    1.05    1.05
 -15  -3   1    3.43    0.88
 -15   3   1    3.37    0.97
 -15   3   1    3.02    1.19
 -14   3   1   12.23    1.31
 -14   3   1   12.23    1.48
 -14  -3   1    8.41    0.98
 -14  -3   1    9.49    1.61
 -13  -3   1    7.30    0.96
 -13   3   1    7.27    1.05
 -13   3   1    7.06    1.10
 -13  -3   1    6.95    1.35
 -12   3   1    5.80    1.01
 -12  -3   1    7.61    1.22
 -12  -3   1    5.24    0.80
 -12   3   1    6.84    0.99
 -11   3   1   35.80    1.82
 -11  -3   1   32.88    1.56
 -11   3   1   34.02    1.88
 -10  -3   1  150.26    4.14
 -10  -3   1  163.84    3.25
 -10   3   1  174.73    3.77
 -10   3   1  189.13    3.84
  -9   3   1  157.48    3.46
  -9  -3   1  169.19    3.16
  -9  -3   1  153.77    3.91
  -9   3   1  162.49    3.44
  -8  -3   1   80.94    2.86
  -8   3   1   86.78    2.52
  -8  -3   1   80.06    2.06
  -7   3   1  121.39    2.66
   7   3  -1  123.47    2.22
  -7  -3   1  132.54    2.45
  -7   3   1  142.63    3.09
  -7  -3   1  132.75    3.35
   6   3  -1    9.62    0.65
  -6  -3   1   10.37    0.71
  -6   3   1    9.79    0.86
  -6   3   1    9.94    0.79
   6  -3  -1   10.35    0.77
  -6  -3   1    8.63    0.91
   5  -3  -1   21.94    1.00
  -5  -3   1   18.55    1.26
  -5  -3   1   19.87    0.95
  -5   3   1   22.76    1.23
  -5   3   1   17.80    1.17
   5   3  -1   19.06    1.17
  -5   3   1   17.08    0.91
   5   3  -1   17.45    0.83
   4   3  -1 2921.07   11.58
  -4   3   1 2929.17    8.76
   4  -3  -1 3212.90    9.92
   4   3  -1 3156.40    9.77
  -4  -3   1 3029.92   12.67
  -4  -3   1 2939.62    9.65
  -4   3   1 3169.55   11.92
  -4   3   1 2902.30   12.77
  -3   3   1 1332.12    5.36
  -3  -3   1 1396.77    7.96
   3   3  -1 1446.23    6.34
  -3   3   1 1427.00    7.36
  -3  -3   1 1424.14    6.50
  -3   3   1 1376.85    8.19
   3  -3  -1 1353.61    5.68
   3   3  -1 1402.55    7.84
   2  -3  -1 1205.25    4.93
   2   3  -1 1237.85    6.81
  -2   3   1 1227.82    4.81
  -2   3   1 1269.60    7.01
  -2  -3   1 1258.85    6.21
  -2   3   1 1234.56    5.99
  -2  -3   1 1270.49    7.27
   2   3  -1 1276.12    5.90
   1   3  -1  163.65    2.25
  -1   3   1  172.03    2.24
  -1  -3   1  166.39    2.32
  -1   3   1  166.65    1.86
   1   3  -1  154.83    2.37
  -1   3   1  163.32    1.78
  -1  -3   1  163.47    2.46
   0  -3   1  575.73    4.47
   0   3   1  578.14    3.61
   0   3  -1  572.21    4.62
   0  -3  -1  574.31    3.53
   0   3  -1  573.12    4.23
   0   3   1  561.21    3.45
   0  -3  -1  573.92    3.76
   0   3  -1  578.35    4.39
  -1  -3  -1  103.35    1.77
   1   3   1  114.74    1.20
  -1  -3  -1  112.93    1.26
   1  -3   1  127.33    2.03
  -1   3  -1  110.26    1.90
  -1   3  -1  111.35    2.04
   1   3   1  123.33    1.84
   1  -3   1  115.07    2.03
  -2   3  -1 7554.32   17.48
   2  -3   1 7521.56   17.70
   3  -3   1  113.17    2.35
  -3   3  -1  109.72    2.01
  -3   3  -1  117.91    2.35
   3  -3   1  101.90    2.02
  -3  -3  -1  129.54    2.36
   3   3   1  121.63    2.16
  -4  -3  -1  245.20    1.61
  -4   3  -1  268.12    3.31
   4  -3   1  267.74    3.90
  -4   3  -1  264.57    3.72
   4  -3   1  259.31    3.42
   4   3   1  259.63    3.49
   5  -3   1  617.56    6.29
  -5   3  -1  593.49    6.13
  -5   3  -1  604.53    5.30
  -5  -3  -1  607.57    3.62
  -5  -3  -1  605.00    3.09
  -6  -3  -1  320.32    3.14
  -6  -3  -1  313.77    2.61
  -6  -3  -1  306.18    4.82
  -6   3  -1  293.19    4.10
   6  -3   1  305.50    4.75
  -7  -3  -1  384.90    5.73
  -7  -3  -1  394.74    3.87
  -7  -3  -1  389.64    3.26
   7  -3   1  390.82    5.58
  -7   3  -1  396.81    4.96
  -8  -3  -1  207.51    3.11
  -8  -3  -1  190.80    4.28
  -8  -3  -1  202.47    2.58
  -8   3  -1  229.10    4.05
  -8   3  -1  220.99    3.68
  -9  -3  -1   22.04    1.16
  -9  -3  -1   23.64    1.68
  -9   3  -1   27.65    1.46
  -9   3  -1   24.66    1.60
  -9  -3  -1   25.68    1.03
 -10  -3  -1   20.36    1.66
 -10  -3  -1   21.76    1.07
 -10   3  -1   20.02    1.54
 -10  -3  -1   17.98    1.19
 -10   3  -1   21.27    1.38
 -11  -3  -1   62.80    2.84
 -11  -3  -1   66.06    1.89
 -11   3  -1   65.91    2.34
 -11   3  -1   59.47    2.56
 -12   3  -1    3.66    0.97
 -12   3  -1    3.78    0.78
 -12  -3  -1    1.49    0.94
 -12  -3  -1    1.54    0.53
 -13   3  -1    5.76    1.13
 -13   3  -1    7.51    1.06
 -13  -3  -1    7.00    1.31
 -13  -3  -1    6.05    0.82
 -14  -3  -1    1.41    1.06
 -14   3  -1    0.82    0.89
 -14   3  -1    1.86    0.88
 -15   3  -1    9.07    1.50
 -15   3  -1   12.14    1.29
 -15  -3  -1   12.63    1.79
 -16   3  -1    0.07    0.75
 -16  -3  -1   -0.68    1.19
 -16   3  -1    1.93    1.19
 -17  -3  -1    1.00    1.20
 -17   3  -1    0.48    1.04
 -17   3  -1   -1.06    0.89
 -18   4   1    1.24    0.91
 -18   4   1    0.40    1.09
 -17  -4   1   -0.65    1.28
 -17   4   1   -0.45    0.98
 -17   4   1    0.56    0.91
 -16   4   1   -0.73    0.86
 -16  -4   1   -1.68    1.20
 -16   4   1    0.79    1.01
 -15   4   1    2.26    0.89
 -15  -4   1    3.84    0.88
 -15   4   1    1.73    0.92
 -15  -4   1    0.73    1.12
 -14   4   1    2.69    0.89
 -14  -4   1    0.83    0.65
 -14   4   1    2.24    1.00
 -14  -4   1    2.03    1.09
 -13  -4   1   11.68    1.52
 -13  -4   1   15.44    1.27
 -13   4   1   16.12    1.43
 -13   4   1   12.67    1.39
 -12   4   1    1.35    0.75
 -12  -4   1    1.08    0.63
 -12   4   1    1.15    0.79
 -12  -4   1    1.51    0.85
 -11   4   1    8.89    1.07
 -11  -4   1   11.32    0.99
 -11   4   1    9.37    1.15
 -11  -4   1    8.57    1.18
 -10  -4   1    0.89    0.71
 -10   4   1   -0.02    0.75
 -10   4   1    0.55    0.62
 -10  -4   1    0.44    0.54
  -9  -4   1    8.49    0.75
  -9   4   1    6.17    0.90
  -9  -4   1    8.15    1.08
  -9   4   1    5.72    0.84
  -8   4   1    8.62    0.92
  -8  -4   1    7.59    1.08
  -8  -4   1    5.51    0.66
  -8   4   1    8.07    0.83
  -7  -4   1    9.28    1.10
   7   4  -1    8.52    0.66
  -7   4   1    6.03    0.73
  -7   4   1    7.12    0.93
  -7  -4   1    9.76    0.72
   6   4  -1  509.81    4.32
  -6   4   1  519.00    5.76
  -6   4   1  492.91    4.74
   6  -4  -1  522.48    5.09
  -6  -4   1  511.11    6.31
  -6  -4   1  501.25    4.57
   5  -4  -1  161.23    2.59
  -5  -4   1  176.50    2.62
   5   4  -1  177.10    2.57
  -5   4   1  169.06    3.16
  -5  -4   1  170.24    3.48
  -5   4   1  159.47    2.46
  -4   4   1  109.79    2.26
   4   4  -1  118.50    2.05
   4  -4  -1  114.95    2.07
  -4  -4   1  119.79    2.17
  -4   4   1  107.13    1.86
  -4   4   1  104.76    2.56
   4   4  -1  106.78    2.47
  -4  -4   1  111.99    2.68
  -3  -4   1  230.88    2.92
   3   4  -1  223.16    3.44
   3   4  -1  243.46    2.86
  -3   4   1  200.26    2.44
  -3  -4   1  224.60    3.49
   3  -4  -1  202.93    2.51
  -3   4   1  217.25    3.37
  -2  -4   1  712.04    5.33
  -2   4   1  738.55    5.69
  -2  -4   1  738.18    6.17
  -2   4   1  730.08    4.40
   2   4  -1  706.10    5.88
   2   4  -1  724.12    4.96
   2  -4  -1  707.52    5.70
  -1  -4   1 1071.64    7.18
   1   4  -1 1052.71    6.92
   1   4  -1 1069.78    6.37
   1  -4  -1 1049.22    6.30
  -1  -4   1 1095.92    6.67
  -1   4   1 1051.66    5.63
  -1   4   1 1047.67    6.03
   0  -4   1  967.50    6.45
   0  -4  -1  972.37    5.34
   0   4  -1  972.74    6.29
   0  -4  -1  953.44    5.71
   0   4   1  958.30    5.47
   0   4  -1  973.00    6.78
   0   4   1  954.47    5.12
   0   4  -1  980.30    6.39
  -1  -4  -1    7.88    0.45
   1   4   1    8.36    0.44
  -1  -4  -1    8.21    0.65
   1  -4   1    5.44    0.57
  -1   4  -1    5.39    0.60
  -1   4  -1    5.68    0.60
   1   4   1    7.56    0.58
   1  -4   1    6.17    0.63
   2   4   1  450.82    4.14
  -2  -4  -1  432.47    2.82
  -2   4  -1  455.99    4.28
   2  -4   1  439.60    4.67
   2   4   1  446.30    2.59
  -2   4  -1  454.12    4.75
  -2  -4  -1  457.16    4.54
  -3  -4  -1    1.77    0.21
  -3  -4  -1    2.76    0.61
   3  -4   1    3.28    0.59
  -3   4  -1    2.16    0.53
   3   4   1    2.70    0.20
   3   4   1    3.34    0.55
  -3   4  -1    2.91    0.56
   3  -4   1    2.61    0.48
  -4   4  -1   25.33    1.21
  -4  -4  -1   22.58    0.55
  -4   4  -1   24.82    1.32
   4   4   1   24.62    0.49
  -4  -4  -1   28.63    1.41
   4  -4   1   27.26    1.23
   4   4   1   26.12    1.21
   4  -4   1   29.78    1.48
   5   4   1   61.91    0.96
  -5  -4  -1   69.09    2.28
  -5   4  -1   51.71    1.68
   5  -4   1   55.91    2.05
  -5  -4  -1   62.75    1.02
   6  -4   1   14.83    1.20
  -6   4  -1   17.68    1.09
  -6  -4  -1   19.00    0.65
  -6  -4  -1   18.53    1.34
  -7  -4  -1   30.45    1.75
  -7   4  -1   28.13    1.44
  -7  -4  -1   28.24    0.99
   7  -4   1   27.35    1.68
  -7  -4  -1   33.00    0.93
  -8  -4  -1    5.69    0.58
  -8  -4  -1    4.62    0.88
  -8  -4  -1    5.38    0.49
   8  -4   1    6.10    0.99
  -9  -4  -1   11.92    1.34
  -9  -4  -1   17.07    0.83
  -9   4  -1   13.60    1.11
  -9  -4  -1   14.10    0.91
  -9   4  -1   15.70    1.28
 -10   4  -1   21.95    1.43
 -10   4  -1   23.88    1.65
 -10  -4  -1   20.09    0.98
 -10  -4  -1   19.76    1.71
 -11   4  -1   15.41    1.51
 -11  -4  -1   14.77    0.94
 -11  -4  -1   12.69    1.45
 -11   4  -1   14.57    1.28
 -12  -4  -1    3.35    0.61
 -12  -4  -1    4.18    1.22
 -12   4  -1    6.77    1.01
 -12   4  -1    6.04    1.09
 -13   4  -1    3.37    1.03
 -13   4  -1    4.38    0.91
 -13  -4  -1    2.89    1.05
 -14   4  -1    2.57    0.97
 -14  -4  -1    0.42    0.97
 -14   4  -1    1.12    0.75
 -15  -4  -1    0.53    1.05
 -15   4  -1    0.16    0.82
 -15   4  -1   -0.27    0.96
 -16   4  -1    0.34    0.79
 -16   4  -1   -1.76    1.09
 -16  -4  -1   -0.72    1.15
 -17   4  -1    0.14    0.81
 -17   4  -1    0.73    1.21
 -18   5   1    1.19    1.13
 -18   5   1    0.35    0.91
 -17   5   1    0.90    1.09
 -17  -5   1   -0.44    1.28
 -17   5   1    0.82    0.87
 -16   5   1   -1.33    1.13
 -16   5   1    0.27    0.87
 -16  -5   1   -0.85    1.25
 -15  -5   1    0.18    1.04
 -15   5   1    0.46    0.87
 -15   5   1   -0.14    0.79
 -14  -5   1    3.64    0.82
 -14  -5   1    1.24    1.17
 -14   5   1    3.82    0.94
 -14   5   1    3.76    1.01
 -13  -5   1    0.24    1.00
 -13   5   1    1.75    0.82
 -13  -5   1    0.44    0.59
 -13   5   1    2.70    0.93
 -12   5   1   14.96    1.39
 -12   5   1   13.44    1.27
 -12  -5   1   12.18    1.63
 -12  -5   1   11.99    1.10
 -11   5   1   13.94    1.29
 -11   5   1   14.76    1.39
 -11  -5   1   13.12    1.54
 -11  -5   1   17.11    1.24
 -10   5   1    5.21    0.89
 -10  -5   1    8.19    0.84
 -10   5   1    4.24    0.85
 -10  -5   1    7.64    1.25
  -9   5   1   89.50    2.70
  -9  -5   1   81.37    3.12
  -9   5   1   87.53    2.58
  -9  -5   1   86.71    2.26
  -8   5   1    4.03    0.72
  -8  -5   1    2.92    0.56
  -8   5   1    3.26    0.75
  -8  -5   1    1.47    0.71
  -7   5   1  142.59    3.24
  -7  -5   1  146.13    3.83
   7   5  -1  153.98    2.63
  -7   5   1  145.69    2.89
  -7  -5   1  159.19    2.85
   6   5  -1  577.96    4.87
  -6  -5   1  572.94    7.03
  -6  -5   1  579.47    5.18
  -6   5   1  571.61    5.16
  -6   5   1  557.69    6.08
  -5  -5   1  778.60    7.86
   5   5  -1  786.91    5.50
  -5   5   1  756.85    6.69
   5  -5  -1  786.54    6.15
  -5  -5   1  798.39    6.00
  -5   5   1  763.13    5.62
  -4  -5   1  529.04    4.93
   4  -5  -1  505.98    4.70
  -4  -5   1  543.21    6.45
  -4   5   1  499.19    4.40
   4   5  -1  542.50    4.60
  -3  -5   1  650.49    5.52
  -3  -5   1  638.34    6.61
   3  -5  -1  623.49    6.23
   3  -5  -1  628.30    4.83
  -3   5   1  628.35    4.72
   3   5  -1  611.51    4.86
  -3   5   1  612.10    6.05
  -2  -5   1  304.91    4.38
  -2  -5   1  298.55    3.76
  -2   5   1  309.97    4.08
   2   5  -1  310.48    3.64
   2  -5  -1  298.04    4.05
  -2   5   1  302.82    3.30
   2   5  -1  292.50    4.20
  -2   5   1  303.57    3.65
  -1  -5   1 1841.09    9.46
  -1   5   1 1802.20    8.23
  -1   5   1 1804.56    8.77
   1   5  -1 1828.07    9.28
   1  -5  -1 1812.95    9.13
   1   5  -1 1803.56   10.04
   0   5  -1  889.96    6.99
   0  -5  -1  898.62    6.26
   0   5  -1  894.93    6.65
   0  -5  -1  915.51    5.79
   0   5   1  888.55    5.66
   0   5  -1  894.31    6.64
   0  -5   1  879.87    6.65
   0   5   1  928.44    6.24
  -1  -5  -1  252.66    3.59
  -1  -5  -1  243.93    2.78
  -1   5  -1  224.91    3.50
  -1   5  -1  228.41    3.34
   1   5   1  241.57    3.30
   1   5   1  243.56    2.71
   1  -5   1  231.21    3.53
  -2   5  -1  328.65    3.93
   2   5   1  319.11    3.92
   2  -5   1  325.00    4.14
   2   5   1  337.10    2.80
  -2  -5  -1  341.54    2.96
  -2  -5  -1  325.86    4.21
   3   5   1   72.43    1.10
  -3   5  -1   54.05    1.71
   3  -5   1   62.85    2.08
   3   5   1   62.84    1.87
   3  -5   1   52.09    1.73
  -3  -5  -1   65.71    1.18
  -3  -5  -1   66.87    2.06
   4  -5   1 1669.61   10.83
   4   5   1 1629.59    4.60
  -4   5  -1 1642.62    9.43
  -4  -5  -1 1648.52   10.58
  -5   5  -1  259.44    3.82
   5   5   1  252.92    1.79
   5  -5   1  254.42    4.49
  -5  -5  -1  237.65    2.14
  -5  -5  -1  263.04    4.54
  -6   5  -1  112.23    2.73
   6   5   1  104.96    1.43
   6  -5   1  101.93    3.01
  -6  -5  -1   97.63    1.50
  -6  -5  -1   99.03    2.92
   7  -5   1    0.70    0.65
  -7  -5  -1    0.73    0.26
  -7  -5  -1    0.99    0.71
  -7   5  -1    0.83    0.56
  -8  -5  -1   28.31    1.91
  -8   5  -1   35.06    1.69
   8  -5   1   32.45    1.93
  -8  -5  -1   29.68    0.97
  -8  -5  -1   25.67    0.98
  -9  -5  -1   26.00    1.91
  -9  -5  -1   27.36    1.15
  -9   5  -1   27.79    1.61
 -10   5  -1   45.40    2.11
 -10   5  -1   47.57    2.04
 -10  -5  -1   41.29    1.32
 -11   5  -1    1.55    0.72
 -11  -5  -1    1.19    0.46
 -11   5  -1    1.45    0.88
 -11  -5  -1    1.52    0.92
 -12   5  -1    3.08    0.88
 -12  -5  -1    2.19    1.06
 -12  -5  -1    1.66    0.52
 -12   5  -1    3.88    1.01
 -13   5  -1   -0.60    0.87
 -13   5  -1    0.04    0.72
 -13  -5  -1    0.39    0.99
 -14   5  -1    0.61    0.93
 -14   5  -1   -0.85    0.78
 -14  -5  -1    1.88    1.21
 -15   5  -1    0.23    0.96
 -15  -5  -1    0.38    1.20
 -15   5  -1    0.34    0.85
 -16   5  -1    2.17    1.14
 -16  -5  -1    0.42    1.22
 -16   5  -1    1.22    0.92
 -17   5  -1    1.59    0.93
 -17   5  -1    1.37    1.07
 -18   6   1    0.02    1.09
 -17  -6   1    2.66    1.59
 -17   6   1    2.08    1.09
 -16  -6   1    1.31    1.43
 -16   6   1    2.56    1.03
 -16   6   1    2.08    1.07
 -15  -6   1   -0.60    1.23
 -15   6   1   -1.22    0.86
 -15   6   1    0.83    0.97
 -14   6   1    0.06    0.78
 -14  -6   1    0.55    1.17
 -14   6   1   -0.31    0.90
 -13  -6   1   -0.59    0.70
 -13   6   1    0.19    0.83
 -13  -6   1    1.99    1.04
 -13   6   1    2.91    0.84
 -12  -6   1   14.34    1.75
 -12  -6   1   16.73    1.27
 -12   6   1   15.17    1.39
 -12   6   1   13.56    1.45
 -11  -6   1   11.49    1.46
 -11   6   1   12.84    1.29
 -11   6   1   13.48    1.32
 -11  -6   1   15.77    1.20
 -10  -6   1   40.79    1.71
 -10   6   1   39.35    1.87
 -10   6   1   40.16    1.95
 -10  -6   1   37.03    2.37
  -9  -6   1    2.86    0.61
  -9   6   1    2.86    0.74
  -9  -6   1    2.09    0.93
  -9   6   1    1.10    0.63
  -8  -6   1   14.77    1.05
  -8  -6   1   13.49    1.41
  -8   6   1   17.69    1.17
  -8   6   1   17.17    1.24
  -7   6   1   10.92    1.00
   7   6  -1   11.31    0.84
  -7  -6   1    9.23    1.18
  -7  -6   1    8.63    0.80
  -6   6   1   24.98    1.16
  -6  -6   1   29.39    1.33
  -6   6   1   23.29    1.31
   6   6  -1   29.20    1.22
  -6  -6   1   26.95    1.74
   5  -6  -1  220.14    3.51
  -5   6   1  215.33    3.19
  -5  -6   1  230.01    4.70
  -5  -6   1  223.48    3.45
   5   6  -1  230.00    3.20
   4  -6  -1   10.76    0.78
   4   6  -1    8.73    0.73
  -4  -6   1    7.96    0.78
   4  -6  -1   10.61    1.03
  -4  -6   1    9.29    1.10
   3   6  -1  229.36    3.35
  -3   6   1  222.76    3.15
  -3  -6   1  220.48    3.55
   3  -6  -1  224.32    4.01
  -2  -6   1  753.26    6.44
   2   6  -1  789.94    6.34
  -2   6   1  739.22    5.73
  -2   6   1  728.66    6.47
  -2   6   1  769.29    6.26
   2  -6  -1  769.53    6.90
  -2  -6   1  776.35    7.52
  -1   6   1  201.71    3.09
  -1   6   1  195.15    3.14
   1   6  -1  169.77    3.39
   1  -6  -1  182.98    3.16
  -1   6   1  177.73    3.02
  -1  -6   1  180.66    3.30
   1   6  -1  173.90    3.18
  -1  -6   1  180.32    3.72
   0  -6  -1   57.68    1.67
   0   6   1   57.66    1.63
   0   6  -1   58.69    1.96
   0  -6   1   58.96    1.89
   0  -6  -1   56.39    1.81
   0   6  -1   57.03    1.86
   0   6   1   53.57    1.72
   0   6  -1   53.44    1.94
  -1   6  -1   81.72    2.34
  -1  -6  -1   90.02    2.37
   1  -6   1   85.68    2.38
   1   6   1   94.28    1.94
  -1   6  -1   86.27    2.59
  -1   6  -1   81.50    2.19
  -1  -6  -1   90.02    1.92
   1   6   1   82.79    2.11
   2   6   1    6.41    0.70
   2   6   1    6.91    0.51
  -2  -6  -1    6.34    0.57
   2  -6   1    6.84    0.85
  -2   6  -1    6.75    0.81
  -2  -6  -1    6.04    0.79
  -3  -6  -1  411.40    3.36
   3   6   1  419.89    3.18
   3  -6   1  405.89    5.56
  -3  -6  -1  392.44    5.32
   4   6   1   60.02    1.09
   4  -6   1   53.75    2.13
  -4   6  -1   58.09    1.96
  -4  -6  -1   51.25    1.19
  -4  -6  -1   54.18    2.16
  -5  -6  -1   89.65    1.46
  -5  -6  -1   88.43    2.87
  -5   6  -1   80.61    2.28
   5  -6   1   82.85    2.74
   5   6   1   93.07    1.25
   6   6   1    2.94    0.29
  -6   6  -1    3.15    0.64
  -6  -6  -1    1.87    0.72
  -6  -6  -1    1.85    0.31
   6  -6   1    3.35    0.81
   7   6   1   42.88    1.02
  -7  -6  -1   42.93    2.30
   7  -6   1   45.45    2.28
  -7  -6  -1   38.72    1.06
  -8  -6  -1   73.70    3.00
   8  -6   1   73.45    2.93
  -8   6  -1   79.41    2.54
  -8  -6  -1   67.53    1.47
   9  -6   1    2.68    0.96
  -9  -6  -1    2.50    0.43
  -9  -6  -1    2.62    0.43
  -9   6  -1    3.55    0.80
  -9  -6  -1    2.61    0.92
 -10   6  -1   14.31    1.24
 -10   6  -1   15.78    1.34
 -10  -6  -1   12.75    1.50
 -10  -6  -1   13.73    0.78
 -11  -6  -1    3.48    0.53
 -11  -6  -1    3.42    1.07
 -11   6  -1    4.64    0.99
 -11   6  -1    4.62    0.86
 -12   6  -1   -0.13    0.78
 -12   6  -1    1.84    0.80
 -12  -6  -1    0.96    0.97
 -13   6  -1   -0.24    0.71
 -13   6  -1   -0.02    0.88
 -14   6  -1    8.53    1.41
 -14   6  -1    6.52    1.17
 -14  -6  -1    4.74    1.54
 -15   6  -1    0.02    0.77
 -15   6  -1    2.73    1.12
 -15  -6  -1    0.07    1.15
 -16   6  -1   -0.63    1.09
 -16   6  -1    0.72    0.96
 -17   6  -1   -1.48    1.01
 -17   7   1   -2.71    1.23
 -17   7   1   -0.50    0.96
 -16  -7   1    4.73    1.60
 -16   7   1    2.92    1.03
 -15   7   1    1.02    0.97
 -15   7   1    2.38    0.97
 -15  -7   1    2.61    1.39
 -14   7   1   14.30    1.47
 -14   7   1   14.20    1.57
 -13   7   1    0.27    0.89
 -13  -7   1    1.04    0.68
 -13   7   1    1.20    0.78
 -13  -7   1    1.82    1.11
 -12   7   1    6.58    1.11
 -12   7   1    4.99    1.02
 -12  -7   1    5.51    0.89
 -12  -7   1    4.35    1.27
 -11   7   1   33.96    1.89
 -11  -7   1   33.93    1.70
 -11   7   1   36.76    2.01
 -10   7   1   10.08    1.13
 -10   7   1   11.26    1.16
 -10  -7   1   10.32    1.50
 -10  -7   1   13.48    1.10
  -9  -7   1   54.01    2.77
  -9   7   1   54.27    2.08
  -9  -7   1   58.22    2.02
  -9   7   1   48.11    2.13
  -8   7   1  507.54    5.90
  -8  -7   1  462.00    7.38
  -8   7   1  467.70    6.37
  -8  -7   1  519.24    5.80
  -7  -7   1    9.62    0.90
  -7   7   1    9.31    0.94
  -7  -7   1    6.73    1.11
  -7   7   1    7.83    0.91
  -6   7   1    3.70    0.66
  -6   7   1    5.25    0.82
  -6  -7   1    5.87    0.77
   6   7  -1    5.53    0.62
  -6  -7   1    4.30    0.93
   5   7  -1  241.82    3.54
  -5  -7   1  244.59    3.91
  -5   7   1  240.09    3.68
   5  -7  -1  229.47    4.78
  -4  -7   1  428.41    5.14
   4  -7  -1  395.51    4.87
   4   7  -1  410.26    4.51
   4  -7  -1  384.30    5.74
  -4   7   1  407.87    4.64
   3  -7  -1 2492.75   14.03
  -3   7   1 2479.07   12.69
  -3  -7   1 2517.38   12.59
  -3   7   1 2456.08   11.34
   3   7  -1 2462.98   11.52
  -3  -7   1 2516.75   14.98
  -2   7   1  665.72    5.82
   2   7  -1  657.04    6.29
   2  -7  -1  661.30    6.81
  -2  -7   1  666.32    6.47
  -2  -7   1  669.22    7.48
  -2   7   1  662.63    6.32
  -1   7   1   45.58    1.71
  -1  -7   1   46.01    1.76
   1   7  -1   44.99    1.73
   1  -7  -1   48.99    1.79
  -1   7   1   44.24    1.66
  -1   7   1   49.86    1.73
  -1  -7   1   42.06    1.89
   0   7  -1  383.94    5.25
   0  -7  -1  366.71    4.46
   0  -7  -1  369.46    5.01
   0   7   1  346.47    4.24
   0   7   1  342.93    4.73
   0  -7   1  371.13    5.04
   1   7   1  376.03    4.27
  -1  -7  -1  377.97    4.32
  -1   7  -1  374.64    5.01
   1  -7   1  353.75    5.14
  -1  -7  -1  361.24    5.13
  -2  -7  -1   14.16    0.90
  -2   7  -1   13.67    1.08
   2   7   1   17.20    0.91
  -2  -7  -1   13.18    1.22
   2  -7   1   15.97    1.26
   3   7   1 2086.28    8.47
  -3  -7  -1 2098.47    8.71
  -3   7  -1 2065.51   11.44
  -4  -7  -1   88.21    2.80
   4   7   1  113.55    1.75
  -4   7  -1   93.94    2.56
   4  -7   1   98.48    3.00
  -4  -7  -1  104.80    1.87
   5  -7   1   26.67    1.74
  -5  -7  -1   23.15    0.92
  -5   7  -1   28.88    1.52
  -5  -7  -1   23.53    1.58
   5   7   1   27.44    0.82
   6  -7   1  280.59    5.39
  -6  -7  -1  258.39    5.15
  -6  -7  -1  276.07    2.96
  -6   7  -1  271.86    4.34
   6   7   1  295.74    2.43
  -7   7  -1  274.97    4.41
  -7  -7  -1  296.08    5.81
  -7  -7  -1  266.31    2.73
   7   7   1  303.44    2.53
   7  -7   1  286.72    5.66
   8  -7   1   17.34    1.60
   8   7   1   17.59    0.75
  -8  -7  -1   16.35    1.61
  -8   7  -1   20.86    1.43
  -8  -7  -1   15.81    0.72
   9  -7   1   54.17    2.77
  -9  -7  -1   53.60    2.75
 -10   7  -1    6.57    1.03
 -10  -7  -1    3.41    0.45
 -10   7  -1    6.57    0.95
 -10  -7  -1    5.55    1.18
 -11   7  -1    2.32    0.90
 -11   7  -1    0.92    0.68
 -11  -7  -1    1.71    0.97
 -12   7  -1   40.79    2.34
 -12   7  -1   37.70    2.07
 -13  -7  -1    0.62    0.98
 -13   7  -1    0.20    0.88
 -13   7  -1    0.23    0.77
 -14   7  -1    1.25    1.02
 -14  -7  -1    2.15    1.13
 -14   7  -1    1.01    0.93
 -15   7  -1    1.18    0.93
 -15   7  -1    0.31    1.07
 -15  -7  -1    0.57    1.18
 -16   7  -1    1.71    1.20
 -16   7  -1    1.94    1.02
 -17   7  -1    0.05    0.99
 -17   8   1    0.40    1.00
 -16   8   1    1.62    1.07
 -16   8   1    2.43    1.06
 -16  -8   1   -0.15    1.37
 -15  -8   1    1.24    1.20
 -15   8   1    1.03    0.98
 -15   8   1    0.51    0.94
 -14  -8   1   -1.85    1.24
 -14   8   1   -1.07    0.97
 -14   8   1    0.35    0.76
 -13   8   1   -0.60    0.72
 -13   8   1   -1.30    0.94
 -13  -8   1   -0.03    1.09
 -12  -8   1   21.44    1.48
 -12   8   1   20.74    1.70
 -12   8   1   22.87    1.73
 -12  -8   1   17.24    1.95
 -11   8   1   -0.33    0.69
 -11  -8   1    2.35    1.10
 -11  -8   1    2.02    0.69
 -11   8   1    1.76    0.85
 -10   8   1   30.18    1.79
 -10  -8   1   31.39    2.37
 -10   8   1   35.08    1.82
  -9   8   1   40.77    1.90
  -9   8   1   33.37    1.83
  -9  -8   1   32.86    2.18
  -9  -8   1   38.88    1.78
  -8  -8   1   90.69    2.62
  -8   8   1   76.22    2.62
  -8   8   1   89.39    2.59
  -8  -8   1   79.50    3.31
  -7  -8   1    0.95    0.82
  -7  -8   1    1.97    0.65
  -7   8   1    3.04    0.72
  -7   8   1    1.16    0.65
  -6   8   1   44.33    1.77
  -6  -8   1   39.43    1.68
  -6  -8   1   41.03    2.23
  -5  -8   1  190.86    3.63
  -5   8   1  187.42    3.45
  -5  -8   1  179.45    4.46
  -4   8   1   60.52    1.93
  -4  -8   1   64.36    2.15
   4  -8  -1   57.48    2.38
  -4  -8   1   59.55    2.59
  -3   8   1  453.70    5.14
   3  -8  -1  475.06    6.46
  -3  -8   1  447.27    6.65
  -3  -8   1  465.07    5.70
  -2   8   1  290.88    4.19
  -2  -8   1  288.98    4.61
  -2  -8   1  298.26    5.44
   2  -8  -1  292.88    4.76
  -1  -8   1   84.13    2.54
   1  -8  -1   87.67    2.55
  -1   8   1   87.37    2.42
   0   8   1  205.52    3.63
   0  -8   1  205.68    4.05
   0   8  -1  201.07    3.95
   0  -8  -1  210.07    3.64
   1   8   1  417.50    4.90
  -1  -8  -1  420.58    4.87
  -1   8  -1  437.81    5.74
  -1  -8  -1  428.60    5.85
   1  -8   1  409.83    5.76
  -2  -8  -1    4.90    0.89
  -2   8  -1    4.95    0.77
   2  -8   1    7.03    0.95
   2   8   1    7.38    0.73
  -2  -8  -1    5.52    0.68
  -3   8  -1  146.43    3.24
  -3  -8  -1  148.28    3.71
   3   8   1  162.81    2.74
   3  -8   1  153.33    3.82
  -3  -8  -1  152.91    2.62
  -4   8  -1  152.24    3.40
  -4  -8  -1  157.31    2.48
  -4  -8  -1  146.62    3.87
   4  -8   1  149.45    3.76
  -5   8  -1   18.63    1.27
   5  -8   1   17.82    1.53
   5   8   1   21.25    0.84
  -5  -8  -1   17.65    0.88
  -5  -8  -1   15.37    1.45
   6  -8   1   27.20    1.83
   6   8   1   32.35    0.91
  -6  -8  -1   26.22    1.83
  -6   8  -1   30.09    1.58
  -6  -8  -1   24.99    1.02
  -7   8  -1   28.16    1.65
  -7  -8  -1   22.80    1.84
   7   8   1   25.50    0.82
   7  -8   1   26.56    1.90
  -8   8  -1   11.65    1.20
  -8  -8  -1    8.28    1.31
  -8  -8  -1    7.79    0.56
   8  -8   1   10.15    1.35
  -9   8  -1    3.43    0.85
   9  -8   1    3.88    1.12
  -9  -8  -1    1.85    0.32
  -9  -8  -1    3.32    1.12
 -10   8  -1   36.75    2.03
 -10  -8  -1   27.69    2.27
 -11   8  -1   -0.47    0.81
 -11   8  -1   -0.69    0.72
 -11  -8  -1   -0.09    0.94
 -12  -8  -1   -2.72    1.16
 -12   8  -1   -1.02    0.93
 -13   8  -1    0.24    0.92
 -13  -8  -1    0.37    1.11
 -13   8  -1    1.53    0.84
 -14   8  -1    4.54    1.05
 -14  -8  -1    2.66    1.41
 -14   8  -1    4.01    1.31
 -15   8  -1    0.54    0.89
 -15  -8  -1    1.95    1.35
 -15   8  -1   -0.68    1.07
 -16   8  -1    2.64    1.10
 -16   8  -1    1.10    1.18
 -16   9   1    1.32    1.05
 -16   9   1    0.13    0.93
 -15   9   1    1.41    1.05
 -15  -9   1   -0.01    1.19
 -15   9   1   -1.33    0.96
 -14   9   1    5.15    1.13
 -14  -9   1    3.48    1.38
 -14   9   1    4.36    1.13
 -13   9   1    1.15    0.93
 -13   9   1    0.57    0.77
 -13  -9   1    1.92    1.14
 -12   9   1    4.24    1.02
 -12   9   1    4.77    1.07
 -12  -9   1    5.60    1.39
 -11  -9   1    0.05    0.98
 -11  -9   1    0.99    0.60
 -11   9   1    2.74    0.85
 -11   9   1    1.37    0.79
 -10  -9   1    2.80    1.01
 -10  -9   1    4.11    0.84
 -10   9   1    2.23    0.77
 -10   9   1    3.33    0.82
  -9   9   1   12.52    1.27
  -9  -9   1   14.42    1.19
  -9  -9   1   10.35    1.47
  -8   9   1   33.41    1.75
  -8   9   1   27.75    1.68
  -8  -9   1   34.03    1.68
  -8  -9   1   28.92    2.02
  -7  -9   1  153.42    3.45
  -7  -9   1  110.29    3.80
  -7   9   1  147.66    3.30
  -7   9   1  126.01    3.34
  -6  -9   1  157.71    4.47
  -6  -9   1  173.68    3.63
  -6   9   1  161.17    3.38
   5  -9  -1   50.76    2.43
  -5  -9   1   55.39    2.63
  -5   9   1   55.96    1.98
  -5  -9   1   58.55    2.20
   4  -9  -1  200.34    4.54
  -4  -9   1  212.01    4.04
  -4   9   1  209.14    3.78
  -4  -9   1  203.92    4.83
  -3  -9   1    5.37    0.99
  -3   9   1    4.78    0.76
   3  -9  -1    4.42    0.91
  -3  -9   1    7.53    1.02
   2  -9  -1   97.06    2.91
  -2  -9   1   98.91    3.47
  -2   9   1   98.02    2.58
  -2  -9   1   94.55    2.76
  -1   9   1  565.72    6.29
  -1  -9   1  571.61    6.89
   1  -9  -1  579.12    6.88
   0  -9   1  200.51    4.23
   0  -9  -1  206.82    3.87
   0  -9  -1  196.86    4.13
   0   9  -1  205.60    4.10
  -1   9  -1   28.95    1.65
   1  -9   1   29.07    1.68
   1   9   1   32.62    1.56
  -1  -9  -1   31.08    1.81
  -1  -9  -1   34.43    1.61
   2  -9   1   75.13    2.69
   2   9   1   81.34    2.31
  -2  -9  -1   77.47    2.19
  -2   9  -1   84.31    2.62
  -2  -9  -1   79.99    2.85
   3   9   1 1789.93   10.03
  -3  -9  -1 1819.86    9.99
  -3   9  -1 1785.70   11.75
   3  -9   1 1800.62   13.46
  -4  -9  -1  888.33    9.74
  -4   9  -1  909.33    8.45
  -4  -9  -1  951.97    6.71
   4   9   1  966.28    6.52
   4  -9   1  885.33    9.57
   5   9   1  578.29    4.58
  -5   9  -1  529.76    6.48
  -5  -9  -1  465.62    7.06
   5  -9   1  493.51    7.38
  -5  -9  -1  541.46    4.76
  -6  -9  -1    1.35    0.86
  -6  -9  -1    1.46    0.40
   6  -9   1    1.77    0.79
  -6   9  -1    0.76    0.63
   6   9   1    1.70    0.38
  -7  -9  -1    2.91    0.96
  -7  -9  -1    3.37    0.46
   7  -9   1    4.06    1.00
   8  -9   1   47.30    2.63
  -8   9  -1   51.67    2.14
  -9   9  -1   28.49    1.82
   9  -9   1   23.26    1.95
  -9  -9  -1   22.61    2.00
 -10   9  -1   41.76    2.25
 -10  -9  -1   41.07    2.82
 -11   9  -1    9.33    1.23
 -11   9  -1   12.91    1.41
 -11  -9  -1   10.17    1.65
 -12  -9  -1    0.36    1.08
 -12   9  -1    1.74    0.91
 -12   9  -1    2.30    0.88
 -13   9  -1    1.18    0.92
 -13  -9  -1    1.05    1.13
 -13   9  -1    0.51    0.78
 -14   9  -1    0.55    0.88
 -14   9  -1    1.98    1.13
 -14  -9  -1    1.11    1.24
 -15   9  -1    2.01    1.08
 -15  -9  -1    0.85    1.28
 -15   9  -1    0.15    1.19
 -16  10   1   -3.18    1.25
 -15 -10   1    0.43    1.39
 -15  10   1    0.53    1.11
 -15  10   1    1.17    0.91
 -14  10   1    1.31    0.92
 -14  10   1    2.22    1.08
 -14 -10   1   -0.30    1.31
 -13 -10   1    1.62    1.38
 -13  10   1    1.33    0.89
 -13  10   1    2.34    0.98
 -12  10   1    0.30    0.74
 -12 -10   1    0.68    1.33
 -12  10   1   -2.07    0.98
 -11 -10   1    1.91    1.21
 -11  10   1    2.06    0.89
 -11  10   1    1.63    0.81
 -10 -10   1   -0.20    1.02
 -10  10   1    0.40    0.71
 -10 -10   1    0.67    0.67
 -10  10   1   -0.31    0.74
  -9 -10   1    9.09    1.01
  -9 -10   1    8.10    1.52
  -9  10   1    8.27    1.02
  -9  10   1    6.96    1.15
  -8  10   1    5.10    0.93
  -8 -10   1    2.50    1.02
  -8  10   1    6.75    0.95
  -8 -10   1    3.81    0.84
  -7  10   1    3.40    0.80
  -7  10   1    3.79    0.84
  -7 -10   1    3.11    0.73
  -6  10   1   15.82    1.28
  -6 -10   1   14.76    1.21
   6 -10  -1   12.07    1.49
  -6 -10   1   13.64    1.62
  -5 -10   1  143.88    3.53
  -5 -10   1  125.94    4.07
   5 -10  -1  128.12    3.88
  -5  10   1  140.12    3.22
  -4  10   1    9.68    0.97
  -4 -10   1   10.45    1.32
  -4 -10   1   11.34    1.13
   4 -10  -1    9.42    1.22
   3 -10  -1    5.56    0.98
  -3 -10   1    6.14    1.14
  -3 -10   1    5.74    0.86
  -3  10   1    5.21    0.84
  -2 -10   1  252.60    4.73
   2 -10  -1  230.20    4.70
  -2 -10   1  235.93    5.07
  -2  10   1  243.26    4.32
  -1 -10   1   16.55    1.37
  -1  10   1   19.43    1.31
   1  10  -1   17.85    1.48
   1 -10  -1   19.38    1.47
   0 -10  -1   16.17    1.30
   0  10  -1   17.26    1.35
   0 -10   1   15.77    1.37
  -1  10  -1  102.92    3.05
   1 -10   1   97.20    3.10
  -1 -10  -1  106.83    2.98
  -2 -10  -1    9.42    0.92
   2 -10   1   10.35    1.22
  -2  10  -1   10.52    1.14
  -2 -10  -1   10.88    1.21
  -3  10  -1   14.35    1.27
   3 -10   1   14.09    1.43
   3  10   1   16.52    1.11
  -3 -10  -1   15.11    1.12
  -3 -10  -1   18.39    1.55
  -4  10  -1   99.31    2.95
   4  10   1  107.12    2.46
   4 -10   1  100.24    3.38
  -4 -10  -1  100.09    3.56
  -4 -10  -1  110.79    2.55
   5  10   1   11.96    0.83
  -5  10  -1   13.91    1.23
  -5 -10  -1   12.33    0.93
  -5 -10  -1   10.27    1.31
   5 -10   1   13.01    1.42
  -6  10  -1   15.65    1.38
  -6 -10  -1   16.71    0.98
  -6 -10  -1   16.27    1.64
   6 -10   1   13.39    1.48
  -7  10  -1    2.13    0.82
  -7 -10  -1    0.15    0.31
   7 -10   1   -0.04    0.79
  -7 -10  -1    0.22    0.88
  -8 -10  -1    3.61    1.19
   8 -10   1    4.14    1.09
  -8  10  -1    4.97    0.89
  -9 -10  -1   28.01    2.22
   9 -10   1   29.48    2.29
 -10 -10  -1   -0.09    1.03
  10 -10   1   -0.04    1.04
 -10  10  -1    1.56    0.87
 -11  10  -1    6.41    1.09
 -11 -10  -1    6.34    1.48
 -11  10  -1    8.08    1.24
 -12  10  -1    0.78    0.92
 -12  10  -1   -0.04    0.79
 -12 -10  -1    2.11    1.31
 -13  10  -1    0.15    0.81
 -13 -10  -1    1.60    1.34
 -14  10  -1   -0.20    1.07
 -14  10  -1   -2.09    0.97
 -14 -10  -1    1.59    1.17
 -15  10  -1    0.94    0.99
 -15  10  -1   -0.52    1.13
 -15  11   1   -0.82    1.04
 -14 -11   1   -0.64    1.34
 -14  11   1   -0.94    0.95
 -14  11   1   -0.02    0.93
 -13  11   1    1.44    0.86
 -13 -11   1    1.56    1.26
 -13  11   1    1.84    0.90
 -12  11   1    0.77    0.80
 -12  11   1    0.96    0.81
 -12 -11   1    0.63    1.20
 -11 -11   1    8.04    1.56
 -11  11   1   12.04    1.31
 -11  11   1    9.78    1.33
 -10 -11   1    4.24    1.29
 -10  11   1    4.66    1.05
 -10  11   1    7.24    1.09
 -10 -11   1    6.94    0.97
  -9  11   1    9.43    1.27
  -9 -11   1   11.22    1.14
  -9  11   1   12.79    1.22
  -9 -11   1    9.61    1.48
  -8  11   1   12.24    1.20
  -8 -11   1   10.92    1.57
  -8 -11   1   12.31    1.15
  -8  11   1    9.49    1.20
  -7  11   1   72.32    2.83
  -7 -11   1   72.31    3.36
  -7 -11   1   83.72    2.79
  -7  11   1   74.88    2.59
  -6 -11   1    5.43    1.27
  -6  11   1    6.11    0.93
  -6 -11   1    6.41    0.99
   6 -11  -1    4.74    1.14
  -5 -11   1   57.40    2.78
  -5 -11   1   61.46    2.37
  -5  11   1   55.97    2.19
  -4  11   1  398.81    5.61
  -4 -11   1  408.82    7.19
   4 -11  -1  382.69    6.78
  -3  11   1  252.44    4.49
  -3 -11   1  255.00    4.90
  -3 -11   1  257.12    5.84
   3 -11  -1  246.36    5.31
  -2  11   1  470.69    6.33
   2 -11  -1  448.38    6.79
  -2 -11   1  478.56    6.80
  -2 -11   1  450.51    7.46
   1 -11  -1  404.37    6.44
   1  11  -1  409.15    6.51
  -1 -11   1  390.72    6.32
   0  11  -1  110.32    3.34
   0 -11  -1  103.36    3.10
   0 -11   1  106.33    3.33
   0  11   1  115.73    3.25
  -1 -11  -1   47.80    2.05
  -1 -11  -1   45.99    2.34
   1 -11   1   49.63    2.39
  -1  11  -1   53.46    2.39
  -2 -11  -1  507.26    7.79
   2 -11   1  520.50    7.83
  -2  11  -1  519.01    6.97
  -2 -11  -1  520.14    6.57
  -3  11  -1  172.71    3.97
  -3 -11  -1  178.60    3.75
  -3 -11  -1  182.74    4.74
   3 -11   1  164.74    4.42
  -4  11  -1  168.98    4.00
  -4 -11  -1  156.15    3.33
  -4 -11  -1  151.80    4.40
   4 -11   1  169.01    4.62
   5 -11   1   49.99    2.64
  -5  11  -1   56.64    2.45
  -5 -11  -1   52.09    2.04
  -5 -11  -1   49.49    2.76
  -6 -11  -1   23.31    1.26
   6 -11   1   25.83    2.09
  -6  11  -1   24.41    1.65
  -6 -11  -1   26.42    2.07
  -7 -11  -1   51.12    1.70
   7 -11   1   58.41    2.95
  -7  11  -1   60.85    2.49
  -7 -11  -1   51.72    2.93
  -8  11  -1   69.02    2.79
   8 -11   1   60.65    3.14
  -8 -11  -1   59.32    3.10
  -9  11  -1    0.56    0.84
  -9 -11  -1    1.03    1.02
   9 -11   1    1.50    0.95
 -10  11  -1    4.85    1.06
  10 -11   1    2.53    1.18
 -11  11  -1    0.14    0.74
 -11  11  -1    0.69    0.85
 -11 -11  -1    1.60    1.26
 -12  11  -1   -0.54    0.80
 -12 -11  -1    1.71    1.27
 -12  11  -1    2.16    1.03
 -13 -11  -1    1.05    1.28
 -13  11  -1    3.43    1.06
 -13  11  -1    1.80    1.10
 -14  11  -1   -1.61    1.02
 -14  11  -1    1.00    1.16
 -14  12   1    0.64    0.94
 -13 -12   1    2.02    1.36
 -13  12   1    2.91    1.13
 -13  12   1    4.57    1.14
 -12  12   1    0.02    0.82
 -12 -12   1    0.06    1.20
 -12  12   1    0.79    0.85
 -11  12   1    0.37    0.96
 -11  12   1    0.63    0.83
 -11 -12   1   -0.51    1.18
 -10 -12   1   -0.30    1.18
 -10  12   1   -1.03    0.79
 -10  12   1    0.04    0.87
  -9 -12   1   20.06    1.48
  -9  12   1   18.74    1.54
  -9 -12   1   18.93    2.08
  -9  12   1   18.96    1.74
  -8 -12   1    3.88    0.89
  -8  12   1    2.88    0.87
  -8 -12   1    3.67    1.23
  -8  12   1    2.13    0.89
  -7  12   1   95.09    2.96
  -7  12   1   92.09    3.35
  -7 -12   1   95.93    3.04
   6 -12  -1   10.00    1.46
  -6 -12   1   14.71    1.34
  -6  12   1   14.35    1.28
  -6 -12   1   14.98    1.60
  -5 -12   1    1.80    0.76
  -5  12   1    2.12    0.73
   5 -12  -1    1.05    0.93
  -5 -12   1    2.88    1.04
   4 -12  -1   13.19    1.55
  -4  12   1   17.59    1.36
  -4 -12   1   18.74    1.51
  -4 -12   1   16.31    1.73
  -3 -12   1   31.60    1.89
  -3 -12   1   29.31    2.12
   3 -12  -1   27.74    1.98
  -3  12   1   32.99    1.81
  -2 -12   1    4.16    0.99
   2 -12  -1    1.72    0.91
  -2  12   1    4.36    0.86
  -1 -12   1   18.18    1.54
   1 -12  -1   16.83    1.51
  -1  12   1   16.96    1.36
   1  12  -1   19.51    1.61
   0 -12   1  118.23    3.87
   0  12   1  122.70    3.46
   0 -12  -1  116.44    3.62
   0  12  -1  115.91    3.52
  -1 -12  -1   33.87    1.90
   1 -12   1   36.05    2.25
  -2 -12  -1    7.35    1.34
   2 -12   1    6.89    1.23
  -2 -12  -1    5.10    0.82
  -2  12  -1    6.56    1.03
  -3 -12  -1    1.30    0.64
  -3  12  -1    2.88    0.86
   3 -12   1    2.91    0.92
  -3 -12  -1    2.40    0.96
  -4  12  -1   87.11    3.04
   4 -12   1   90.54    3.56
  -4 -12  -1   84.54    2.74
  -4 -12  -1   89.39    3.55
  -5 -12  -1   41.06    1.85
   5 -12   1   49.97    2.65
  -5 -12  -1   45.63    2.64
  -6 -12  -1   43.07    1.80
  -6  12  -1   53.35    2.39
   6 -12   1   49.57    2.81
  -6 -12  -1   49.43    2.90
  -7  12  -1   -1.22    0.80
   7 -12   1    0.01    0.93
  -7 -12  -1   -0.86    1.05
   8 -12   1    0.56    0.99
  -8 -12  -1    0.96    1.14
  -8  12  -1    1.49    0.89
  -9 -12  -1    1.83    1.17
  -9  12  -1    0.64    0.78
   9 -12   1   -0.69    1.07
 -10  12  -1    2.40    1.04
 -10 -12  -1    3.30    1.32
  10 -12   1    3.75    1.34
 -11  12  -1    2.36    0.95
 -11  12  -1    1.49    1.02
 -11 -12  -1   -1.07    1.26
 -12  12  -1    1.32    0.99
 -12  12  -1    0.17    0.84
 -12 -12  -1    1.48    1.28
 -13 -12  -1    2.00    1.43
 -13  12  -1    3.63    1.12
 -13  12  -1    1.45    1.07
 -14  12  -1    0.72    1.08
 -13  13   1    0.14    0.95
 -12  13   1    1.25    0.94
 -12  13   1   -1.03    0.87
 -12 -13   1    1.49    1.34
 -11 -13   1    6.10    1.71
 -11  13   1    9.03    1.48
 -11  13   1    8.93    1.28
 -10 -13   1    0.32    1.14
 -10  13   1    0.72    1.02
 -10  13   1    1.38    0.79
  -9 -13   1    4.40    1.30
  -9  13   1    2.75    1.09
  -9  13   1    2.72    0.82
  -8  13   1   12.54    1.36
  -8  13   1   11.17    1.54
  -8 -13   1   15.38    1.35
  -8 -13   1   14.38    1.93
  -7  13   1   36.75    2.38
  -7  13   1   37.52    1.95
  -7 -13   1   43.26    2.17
  -7 -13   1   38.38    2.65
  -6 -13   1   10.21    1.59
  -6 -13   1   12.19    1.26
  -6  13   1   10.56    1.17
   5 -13  -1   17.47    1.71
  -5 -13   1   19.28    1.63
  -5 -13   1   17.76    1.88
  -5  13   1   19.28    1.46
  -4 -13   1    7.62    1.41
  -4 -13   1    8.84    1.20
  -4  13   1    8.33    1.13
   4 -13  -1    7.77    1.29
  -3 -13   1   67.12    2.79
  -3  13   1   61.52    2.45
   3 -13  -1   60.33    2.95
  -3 -13   1   63.70    3.24
  -2  13   1  263.58    5.10
  -2 -13   1  278.67    5.65
   2  13  -1  282.54    5.94
   2 -13  -1  261.50    5.79
   1 -13  -1  126.98    3.89
  -1  13   1  129.03    3.64
  -1 -13   1  134.37    4.08
   1  13  -1  127.24    3.88
   0  13   1   87.02    3.01
   0 -13   1   83.77    3.33
   0 -13  -1   85.72    3.17
   0  13  -1   83.83    3.20
   1  13   1   35.54    2.08
  -1 -13  -1   32.33    1.98
   1 -13   1   33.08    2.29
  -1  13  -1   32.35    2.06
  -2 -13  -1   30.42    1.79
  -2 -13  -1   30.31    2.19
   2 -13   1   31.20    2.18
  -2  13  -1   33.55    2.05
  -3 -13  -1   35.50    2.41
  -3 -13  -1   38.81    1.95
  -3  13  -1   42.27    2.23
   3 -13   1   38.99    2.47
  -4 -13  -1  108.67    3.01
  -4 -13  -1  100.58    3.96
   4 -13   1  101.42    3.86
  -4  13  -1  108.81    3.44
  -5 -13  -1    3.44    1.13
   5 -13   1    3.03    1.07
  -5  13  -1    3.31    0.95
  -5 -13  -1    3.33    0.73
  -6 -13  -1   18.49    1.99
   6 -13   1   18.30    1.87
  -6  13  -1   16.89    1.51
  -7  13  -1   19.32    1.63
   7 -13   1   18.28    1.95
  -7 -13  -1   20.87    2.14
  -8 -13  -1   10.44    1.72
  -8  13  -1   10.97    1.35
   8 -13   1    9.95    1.63
   9 -13   1   26.06    2.40
  -9 -13  -1   28.21    2.57
  -9  13  -1   29.72    2.00
 -10 -13  -1    0.97    1.23
 -10  13  -1   -0.51    0.89
 -11  13  -1    1.13    0.97
 -11  13  -1    1.88    1.04
 -11 -13  -1    1.05    1.38
 -12 -13  -1   -0.47    1.29
 -12  13  -1   -1.02    0.97
 -12  13  -1    1.33    1.07
 -13  13  -1    0.77    1.04
 -12  14   1    0.89    0.87
 -12  14   1    1.42    1.13
 -12 -14   1    1.13    1.40
 -11 -14   1   -1.11    1.31
 -11  14   1    0.23    1.03
 -11  14   1    0.02    0.82
 -10  14   1    3.22    1.23
 -10  14   1    0.87    0.82
 -10 -14   1   -0.05    1.23
  -9 -14   1    8.59    1.68
  -9  14   1    7.64    1.15
  -9  14   1    8.20    1.51
  -8 -14   1    0.87    1.09
  -8  14   1    1.93    1.18
  -8  14   1    1.56    0.86
  -7 -14   1    1.88    1.15
  -7  14   1    2.38    0.83
  -7 -14   1    2.14    0.80
  -7  14   1    2.16    1.23
  -6 -14   1    0.90    1.07
  -6  14   1    0.37    0.72
  -6 -14   1    0.23    0.65
   5 -14  -1   27.57    2.25
  -5 -14   1   32.80    2.11
  -5 -14   1   31.67    2.60
  -5  14   1   28.54    1.79
  -4 -14   1    6.71    1.24
  -4  14   1    6.98    1.06
   4 -14  -1    5.92    1.33
  -4 -14   1    6.52    1.34
   3 -14  -1    3.58    1.07
  -3 -14   1    5.50    1.10
  -3  14   1    7.19    1.09
  -2 -14   1    2.33    0.97
  -2  14   1    3.87    0.96
   2 -14  -1    1.45    0.94
   2  14  -1    1.78    0.89
  -1 -14   1   18.78    1.74
   1  14  -1   19.55    1.71
   1 -14  -1   19.43    1.72
  -1  14   1   23.68    1.73
   0 -14  -1    6.95    1.18
   0  14   1    7.43    1.11
   0  14  -1    8.84    1.29
   0 -14   1    8.57    1.27
  -1 -14  -1    2.17    0.91
   1 -14   1    3.21    0.99
  -1  14  -1    1.48    0.85
   1  14   1    3.33    0.96
   2 -14   1    3.93    1.17
  -2  14  -1    4.78    1.06
  -2 -14  -1    2.13    0.86
  -3 -14  -1   19.85    2.02
  -3 -14  -1   20.53    1.54
  -3  14  -1   20.41    1.71
   3 -14   1   20.48    1.96
  -4 -14  -1   12.59    1.66
   4 -14   1    9.06    1.51
  -4  14  -1    9.39    1.26
  -4 -14  -1    9.41    1.06
  -5 -14  -1    7.39    1.37
   5 -14   1    9.55    1.60
  -5  14  -1   10.54    1.35
  -6  14  -1    7.34    1.23
  -6 -14  -1    8.81    1.52
   6 -14   1    4.78    1.23
  -7 -14  -1    2.18    1.26
  -7  14  -1    0.74    0.80
   7 -14   1   -0.43    1.09
  -8  14  -1    5.40    1.12
   8 -14   1    2.64    1.20
  -8 -14  -1    4.47    1.49
  -9 -14  -1    0.95    1.17
   9 -14   1    1.83    1.21
  -9  14  -1   -0.56    0.94
 -10  14  -1   -0.52    0.92
 -10 -14  -1   -0.23    1.32
 -11 -14  -1   -1.37    1.55
 -11  14  -1    1.01    1.02
 -11  14  -1   -0.20    0.89
 -12  14  -1    0.29    0.95
 -11  15   1    0.34    0.83
 -10  15   1   -0.88    1.22
 -10  15   1    0.63    0.83
 -10 -15   1    2.21    1.39
  -9  15   1    3.81    1.50
  -9 -15   1    4.58    1.57
  -9  15   1    3.21    0.97
  -8 -15   1    6.80    1.61
  -8  15   1    9.81    1.83
  -8  15   1    8.81    1.20
  -7  15   1   14.09    2.05
  -7 -15   1   12.66    1.96
  -7  15   1   10.22    1.21
  -6 -15   1   14.08    1.49
  -6  15   1   11.02    1.30
  -5 -15   1    5.88    1.39
  -5 -15   1    6.48    1.10
  -5  15   1    4.84    0.97
   5 -15  -1    3.95    1.18
   4 -15  -1    8.64    1.53
  -4 -15   1   12.25    1.45
  -4  15   1   11.50    1.32
   3 -15  -1   27.45    2.18
  -3 -15   1   28.29    2.24
   3  15  -1   29.87    2.17
  -3  15   1   31.05    1.97
   2  15  -1   15.50    1.64
  -2  15   1   17.54    1.57
   2 -15  -1   16.67    1.71
  -2 -15   1   15.75    1.72
   1 -15  -1   25.23    2.01
  -1 -15   1   25.56    2.08
   1  15  -1   26.33    2.00
  -1  15   1   26.23    1.88
   0 -15  -1   28.29    2.02
   0  15  -1   34.64    2.23
   0 -15   1   32.66    2.32
   0  15   1   25.94    1.85
   1 -15   1   61.79    3.24
   1  15   1   57.81    2.70
  -1  15  -1   62.25    2.95
  -1 -15  -1   51.73    2.64
   2  15   1   12.30    1.45
  -2  15  -1   12.98    1.51
  -2 -15  -1   11.40    1.25
   2 -15   1   11.90    1.63
  -3 -15  -1    7.42    1.41
  -3 -15  -1    8.27    1.09
   3 -15   1    7.49    1.39
  -3  15  -1   10.35    1.34
  -4 -15  -1   26.00    2.35
   4 -15   1   20.46    2.02
  -4  15  -1   20.38    1.72
  -5 -15  -1   25.36    2.34
   5 -15   1   26.24    2.33
  -5  15  -1   26.60    2.01
  -6 -15  -1   -0.15    1.09
   6 -15   1    0.86    1.13
  -6  15  -1    0.70    0.92
   7 -15   1    1.09    1.17
  -7 -15  -1    2.27    1.12
  -8 -15  -1    7.40    1.75
  -8  15  -1    6.29    1.23
   8 -15   1    3.10    1.30
  -9 -15  -1    9.43    1.89
  -9  15  -1    7.73    1.26
 -10  15  -1    0.35    1.03
 -10 -15  -1    2.43    1.49
 -11  15  -1    2.84    1.12
  -9 -16   1   -1.71    1.35
  -9  16   1   -1.10    1.54
  -9  16   1    0.87    0.79
  -8 -16   1   -0.50    1.26
  -8  16   1   -0.77    0.82
  -8  16   1   -2.79    1.62
  -7 -16   1    1.85    1.41
  -7  16   1    1.96    0.92
  -7  16   1    1.67    1.63
  -6  16   1   13.78    2.40
  -6  16   1    8.81    1.23
  -6 -16   1   10.07    1.76
  -5 -16   1   -0.91    1.24
  -5  16   1    0.74    0.77
  -5 -16   1    1.17    0.86
  -4 -16   1    1.23    0.90
  -4  16   1    0.62    0.78
   4  16  -1    1.54    0.99
   4 -16  -1   -0.08    1.06
  -3 -16   1    1.63    1.02
  -3  16   1   -0.47    0.85
   3 -16  -1    0.85    0.98
   3  16  -1    0.73    1.00
  -2 -16   1    0.11    0.91
   2 -16  -1    0.69    0.93
  -2  16   1    1.32    0.87
   2  16  -1    1.82    0.99
  -1  16   1    6.36    1.20
  -1 -16   1    4.69    1.19
   1  16  -1    5.86    1.33
   1 -16  -1    7.35    1.36
   0  16   1   24.99    1.94
   0 -16  -1   24.28    1.99
   0  16  -1   26.14    2.09
   0 -16   1   24.58    2.25
   1 -16   1    1.90    1.21
  -1  16  -1    4.70    1.18
   1  16   1    1.96    0.88
  -1 -16  -1    3.20    1.02
  -2 -16  -1    0.51    0.78
   2 -16   1    0.40    0.96
  -2  16  -1   -1.40    1.00
   2  16   1    2.22    0.99
  -3  16  -1    1.51    0.94
   3 -16   1    2.96    1.22
  -4 -16  -1    4.20    1.46
   4 -16   1    2.57    1.33
  -4  16  -1    5.17    1.06
  -5 -16  -1    4.97    1.54
   5 -16   1    4.88    1.49
  -5  16  -1    3.49    1.04
   6 -16   1   -0.04    1.16
  -6 -16  -1    1.11    1.24
  -6  16  -1   -0.98    0.84
   7 -16   1    0.13    1.19
  -7  16  -1    0.09    0.89
  -7 -16  -1   -0.76    1.16
   8 -16   1   -1.01    1.41
  -8  16  -1    1.03    0.99
  -8 -16  -1    0.26    1.37
  -9  16  -1   -0.22    0.92
  -9 -16  -1    1.66    1.43
 -10  16  -1    2.82    1.20
  -8 -17   1    1.14    1.40
  -8  17   1    0.90    0.84
  -7 -17   1    3.61    1.46
  -7  17   1    1.14    0.79
  -7  17   1    4.29    2.17
  -6  17   1   18.84    1.63
  -6 -17   1   23.24    2.56
   5  17  -1    2.13    1.09
  -5  17   1    0.74    0.86
  -4  17   1   22.41    1.74
   4  17  -1   26.69    2.29
  -4 -17   1   26.46    2.29
   3 -17  -1   17.70    2.06
  -3  17   1   19.91    1.77
   3  17  -1   22.16    2.06
  -3 -17   1   22.65    2.10
   2 -17  -1   11.33    1.54
   2  17  -1   19.30    1.86
  -2  17   1   12.34    1.39
  -2 -17   1   16.61    1.82
  -1  17   1   22.34    1.95
   1  17  -1   23.37    2.05
   1 -17  -1   17.37    1.80
  -1 -17   1   21.96    2.08
   0  17  -1   14.34    1.75
   0  17   1   13.75    1.63
   0 -17   1   15.25    1.95
   0 -17  -1   10.72    1.48
   1 -17   1   49.64    3.07
  -1  17  -1   50.02    2.83
   1  17   1   46.38    2.59
  -1 -17  -1   39.59    2.43
   2 -17   1   54.52    3.26
   2  17   1   49.88    2.70
  -2  17  -1   55.74    2.97
   3 -17   1   12.13    1.95
   3  17   1   10.84    1.60
  -3  17  -1    9.49    1.46
   4 -17   1    0.42    1.19
  -4  17  -1    0.32    0.92
  -5 -17  -1    6.08    1.47
   5 -17   1    5.78    1.59
  -5  17  -1    5.37    1.30
  -6  17  -1   -0.03    0.89
  -6 -17  -1    1.00    1.38
   6 -17   1    0.87    1.28
  -7 -17  -1    1.93    1.48
   7 -17   1    1.67    1.29
  -7  17  -1    3.58    1.13
  -8 -17  -1    1.35    1.35
  -8  17  -1    3.60    1.12
  -9  17  -1   -0.74    0.99
  -7  18   1    1.24    2.26
  -6  18   1    1.40    0.89
  -6  18   1   -1.81    2.40
   5  18  -1    2.83    1.19
  -5  18   1    2.07    0.92
   4  18  -1   -0.64    0.97
  -4  18   1    0.25    0.81
  -3 -18   1    1.17    0.94
  -3  18   1    0.92    0.88
   3  18  -1    0.20    0.98
   2  18  -1    1.67    1.14
  -2  18   1    1.19    0.86
  -2 -18   1    0.15    0.96
   2 -18  -1    1.68    1.14
   1 -18  -1    0.87    1.01
  -1 -18   1    2.63    1.28
  -1  18   1    3.48    1.01
   1  18  -1    4.11    1.34
   0  18  -1   -1.32    1.05
   0  18   1    0.71    0.91
   0 -18   1    0.12    1.00
   0 -18  -1    1.46    1.02
   1 -18   1    0.20    1.10
  -1  18  -1    0.81    1.03
   1  18   1    1.35    0.99
  -2  18  -1    1.21    1.05
   2 -18   1    1.20    1.21
   2  18   1    0.53    0.96
  -3  18  -1   -0.58    1.02
   3 -18   1    0.08    1.22
  -4  18  -1    1.60    1.05
   4  18   1    1.62    1.16
   4 -18   1    2.02    1.42
  -5  18  -1    1.73    1.00
   5 -18   1    2.34    1.37
  -6 -18  -1   -0.16    1.27
  -6  18  -1    1.47    1.01
  -7  18  -1    1.25    1.06
  -5  19   1   10.20    3.58
  -4  19   1   -0.51    0.93
  -4  19   1    0.70    2.78
   3  19  -1    1.35    1.13
  -3  19   1    0.46    0.91
   2  19  -1    7.26    1.38
  -2  19   1    5.16    1.19
  -2 -19   1    6.87    1.40
   1  19  -1   12.30    1.67
  -1 -19   1    9.99    1.63
  -1  19   1   10.49    1.52
   1 -19  -1    6.11    1.39
   0  19  -1   21.66    2.09
   0 -19   1   18.63    2.14
   0  19   1   22.02    2.06
   1  19   1   16.20    1.77
   1 -19   1   16.07    2.21
  -1  19  -1   21.21    2.14
   2  19   1    9.74    1.55
   2 -19   1    5.13    1.46
  -2  19  -1    9.62    1.56
   3  19   1    7.21    1.40
   3 -19   1    6.20    1.67
  -3  19  -1    6.58    1.38
  -4  19  -1    5.81    1.31
   4  19   1    6.81    1.47
   0 -20   1    0.51    1.17
   0  20   1    0.69    1.06
   1 -20   1    1.65    1.20
   1  20   1    0.39    0.96
 -18   0   2    0.98    1.36
 -18   0   2    1.09    0.94
 -17   0   2    1.12    0.90
 -17   0   2   -0.63    1.06
 -16   0   2    1.91    0.95
 -16   0   2   -1.34    1.00
 -15   0   2   41.01    2.20
 -15   0   2   37.82    2.58
 -14   0   2   -0.25    0.67
 -14   0   2    0.52    0.92
 -13   0   2   16.91    1.35
 -13   0   2   16.72    1.64
 -12   0   2   12.23    1.33
 -12   0   2   11.74    1.17
 -11   0   2    6.54    0.88
 -11   0   2    6.98    1.12
 -10   0   2    1.01    0.71
 -10   0   2    2.20    0.68
  -9   0   2   49.73    1.84
  -9   0   2   50.68    2.09
  -8   0   2  663.16    6.34
  -8   0   2  703.30    7.03
  -7   0   2  245.48    3.85
  -7   0   2  251.69    3.80
   6   0  -2  175.28    2.76
  -6   0   2  173.46    3.05
  -6   0   2  177.06    3.00
   5   0  -2 2314.21    8.59
  -5   0   2 2292.68   10.12
   4   0  -2   16.78    0.80
  -4   0   2   15.94    0.73
   4   0  -2   17.19    0.73
  -4   0   2   15.71    0.84
  -3   0   2   22.65    0.89
   3   0  -2   20.06    0.80
  -3   0   2   20.96    0.70
   3   0  -2   21.89    0.68
   2   0  -2  648.69    4.07
  -2   0   2  644.50    4.19
  -2   0   2  666.61    3.31
   1   0  -2  657.14    3.89
   1   0  -2  675.11    2.85
  -1   0   2  658.30    4.04
   0   0  -2 3265.97    8.45
   0   0   2 3228.11    8.74
   1   0   2 2815.32    8.33
  -1   0  -2 2868.38    8.02
  -2   0  -2  271.77    2.72
  -2   0  -2  275.83    2.74
   2   0   2  259.19    2.60
   2   0   2  275.65    2.76
   3   0   2   62.18    1.35
  -3   0  -2   62.11    1.41
  -3   0  -2   65.04    1.59
  -4   0  -2 1193.39    7.59
  -4   0  -2 1206.01    6.49
   4   0   2 1197.08    7.42
   4   0   2 1221.36    6.66
   5   0   2  151.55    2.56
  -5   0  -2  151.20    2.49
  -6   0  -2  241.37    3.49
  -6   0  -2  247.99    4.23
   6   0   2  228.72    3.33
  -7   0  -2  260.26    3.96
  -7   0  -2  263.86    3.32
  -7   0  -2  276.94    4.62
  -8   0  -2   29.08    1.64
  -8   0  -2   31.87    1.32
  -8   0  -2   27.27    1.49
  -9   0  -2  146.51    2.74
  -9   0  -2  143.78    3.61
 -10   0  -2   36.51    1.50
 -10   0  -2   36.65    2.05
 -11   0  -2   80.00    2.99
 -11   0  -2   85.82    2.32
 -12   0  -2    4.75    1.04
 -12   0  -2    6.40    0.81
 -13   0  -2   10.73    1.02
 -13   0  -2   11.02    1.48
 -14   0  -2    0.86    0.63
 -14   0  -2    1.09    0.99
 -15   0  -2    5.31    1.20
 -16   0  -2   -1.43    1.14
 -18  -1   2   -0.37    0.92
 -18   1   2    1.49    0.94
 -18   1   2    1.84    1.22
 -18  -1   2    0.64    1.40
 -17  -1   2    2.71    0.93
 -17  -1   2    1.13    1.16
 -17   1   2    3.87    0.99
 -17   1   2    4.21    1.48
 -16  -1   2    1.90    0.95
 -16  -1   2   -1.04    1.11
 -16   1   2    1.25    0.81
 -16   1   2    0.56    1.00
 -15   1   2    0.75    0.92
 -15  -1   2    1.25    0.86
 -15   1   2    1.12    0.89
 -15  -1   2   -1.36    1.12
 -14  -1   2    2.20    0.96
 -14  -1   2    3.24    0.90
 -14   1   2    2.21    0.91
 -14   1   2    1.50    0.95
 -13  -1   2   29.11    1.75
 -13  -1   2   27.99    2.02
 -13   1   2   31.35    1.82
 -13   1   2   29.97    2.03
 -12  -1   2    4.24    0.99
 -12   1   2    6.04    0.93
 -12   1   2    6.13    1.03
 -12  -1   2    3.13    0.75
 -11   1   2  130.58    3.35
 -11  -1   2  131.23    3.19
 -11  -1   2  125.35    3.91
 -11   1   2  130.22    3.56
 -10  -1   2   35.84    2.03
 -10  -1   2   34.49    1.61
 -10   1   2   34.99    1.68
 -10   1   2   35.04    1.80
  -9   1   2    1.89    0.53
  -9   1   2    2.15    0.66
  -9  -1   2    2.19    0.75
  -9  -1   2    2.60    0.60
  -8  -1   2   99.81    2.51
  -8   1   2  105.25    2.65
  -8   1   2   98.85    2.51
  -8  -1   2  101.57    2.81
  -7   1   2  174.41    3.20
   7  -1  -2  170.56    2.89
  -7  -1   2  181.11    3.22
  -7   1   2  169.75    3.05
  -7  -1   2  179.19    3.45
   6   1  -2   35.12    1.30
  -6  -1   2   52.03    1.64
  -6   1   2   45.50    1.61
  -6  -1   2   49.39    1.72
   6  -1  -2   34.64    1.25
   6   1  -2   38.83    1.34
  -6   1   2   45.56    1.46
  -5   1   2  288.42    3.63
   5  -1  -2  279.85    3.46
   5   1  -2  289.75    3.26
   5   1  -2  283.26    3.34
   5  -1  -2  282.40    3.02
  -5  -1   2  296.20    3.72
  -5  -1   2  290.21    3.61
  -5   1   2  282.56    3.01
   4   1  -2  727.76    4.83
   4  -1  -2  749.40    5.25
   4  -1  -2  729.67    4.14
  -4   1   2  734.84    5.35
   4   1  -2  731.18    5.08
  -4   1   2  761.47    4.22
  -4  -1   2  717.66    5.36
  -4  -1   2  729.66    5.21
  -3   1   2   50.09    1.28
   3   1  -2   50.32    1.23
   3   1  -2   48.55    1.26
   3  -1  -2   51.34    0.89
  -3  -1   2   52.49    1.37
  -3   1   2   50.21    0.85
  -3  -1   2   52.46    1.31
   3  -1  -2   46.11    1.19
   2  -1  -2   65.95    1.26
  -2   1   2   62.37    1.27
   2   1  -2   67.69    1.42
   2   1  -2   69.16    1.35
  -2  -1   2   70.99    1.34
   1   1  -2   17.16    0.73
  -1   1   2   16.88    0.63
   1   1  -2   16.62    0.60
   1   1  -2   18.64    0.74
   1  -1  -2   18.76    0.65
  -1  -1   2   15.59    0.72
   0  -1   2   18.28    0.77
   0   1  -2    8.90    0.48
   0  -1   2   17.32    0.67
   0   1  -2    8.31    0.53
   0   1   2   18.73    0.61
   0  -1  -2   11.83    0.39
   0  -1  -2   10.65    0.46
   0   1   2   20.52    0.49
  -1   1  -2 4783.88   12.24
   1   1   2 4630.27    9.15
   1  -1   2 4770.99   11.12
   1  -1   2 4682.58   12.30
   3  -1   2  234.61    2.98
  -3  -1  -2  259.69    2.37
   3  -1   2  248.50    3.10
  -3  -1  -2  260.94    3.41
  -3   1  -2  248.27    3.10
   3   1   2  252.11    3.07
  -3   1  -2  258.79    3.09
   3   1   2  261.38    2.38
   4   1   2   61.75    1.28
   4  -1   2   65.55    1.86
  -4  -1  -2   61.32    1.93
   4   1   2   54.87    1.65
  -4  -1  -2   59.30    1.31
  -4   1  -2   62.36    1.71
   4  -1   2   62.19    1.69
  -4   1  -2   60.43    1.70
  -5  -1  -2   10.64    0.93
  -5   1  -2   11.08    0.91
  -5  -1  -2   11.45    0.67
   5   1   2   12.41    0.70
  -5   1  -2   11.77    0.82
   5  -1   2   12.18    0.89
  -6  -1  -2   60.19    1.61
  -6  -1  -2   57.55    2.00
   6  -1   2   57.13    1.86
  -6   1  -2   55.62    1.97
  -6  -1  -2   55.62    1.30
  -6   1  -2   58.14    1.88
  -7  -1  -2   24.85    1.00
  -7  -1  -2   26.46    1.21
  -7   1  -2   23.70    1.34
  -7   1  -2   21.30    1.35
  -7  -1  -2   27.57    1.55
   7  -1   2   27.82    1.44
  -8  -1  -2   27.16    1.62
  -8   1  -2   29.28    1.69
  -8   1  -2   29.15    1.27
  -8  -1  -2   24.02    1.06
  -9   1  -2   36.64    1.91
  -9  -1  -2   36.60    1.28
  -9   1  -2   38.15    1.57
  -9  -1  -2   36.62    1.94
 -10  -1  -2    9.27    1.20
 -10   1  -2    7.58    0.86
 -10   1  -2    6.68    1.05
 -10  -1  -2    7.96    0.74
 -11   1  -2    3.23    0.71
 -11  -1  -2    1.39    0.53
 -11  -1  -2    1.64    0.80
 -11   1  -2    2.79    0.89
 -12  -1  -2    2.57    0.56
 -12   1  -2    1.80    0.62
 -12  -1  -2    2.60    0.92
 -12   1  -2    2.03    0.84
 -13  -1  -2   13.58    1.05
 -13   1  -2   13.50    1.50
 -13   1  -2   15.96    1.29
 -13  -1  -2   11.96    1.47
 -14   1  -2    0.55    0.62
 -14   1  -2    1.98    1.10
 -14  -1  -2    0.15    0.85
 -15   1  -2    2.25    1.08
 -15  -1  -2    4.79    1.32
 -16   1  -2    1.55    1.18
 -16  -1  -2    1.38    1.09
 -19   2   2    2.41    1.12
 -18  -2   2    1.85    1.36
 -18   2   2    0.59    1.22
 -18   2   2    0.65    0.91
 -17   2   2    3.11    1.23
 -17   2   2    3.59    1.01
 -17  -2   2    2.52    1.40
 -17  -2   2    1.49    0.94
 -16  -2   2    0.14    1.08
 -16  -2   2    1.54    0.80
 -16   2   2    0.26    0.81
 -16   2   2    1.89    1.12
 -15  -2   2    2.00    1.19
 -15   2   2    2.27    1.00
 -15  -2   2    1.78    0.84
 -15   2   2    3.26    0.99
 -14   2   2    0.92    0.82
 -14   2   2    0.35    0.72
 -14  -2   2    0.51    0.67
 -14  -2   2    1.13    0.89
 -13  -2   2    4.44    0.88
 -13   2   2    3.87    0.95
 -13   2   2    3.61    0.94
 -13  -2   2    4.13    1.00
 -12  -2   2    1.03    0.84
 -12   2   2    0.91    0.66
 -12  -2   2    0.62    0.57
 -12   2   2    1.68    0.75
 -11  -2   2   -0.28    0.57
 -11   2   2   -0.39    0.72
 -11  -2   2    0.35    0.79
 -11   2   2   -0.23    0.65
 -10   2   2   56.46    2.15
 -10  -2   2   47.34    1.89
 -10  -2   2   47.70    2.37
 -10   2   2   55.94    2.20
  -9  -2   2  225.37    3.86
  -9   2   2  233.40    4.11
  -9  -2   2  219.88    4.49
  -8   2   2   32.89    1.54
  -8   2   2   32.30    1.41
  -8  -2   2   30.82    1.68
  -8  -2   2   31.84    1.42
  -7   2   2    2.68    0.54
  -7   2   2    3.09    0.54
  -7  -2   2    1.17    0.45
   7  -2  -2    3.32    0.52
  -7  -2   2    1.89    0.66
  -6  -2   2   96.47    2.20
   6   2  -2   93.83    2.07
  -6  -2   2   96.72    2.46
  -6   2   2   95.19    2.08
   6   2  -2   91.91    2.18
  -6   2   2   90.14    2.28
   6  -2  -2   84.47    1.78
  -5   2   2  713.88    5.89
   5  -2  -2  712.79    5.99
   5  -2  -2  737.17    4.52
  -5   2   2  749.71    4.85
  -5  -2   2  732.46    5.78
   5   2  -2  748.78    5.55
  -5  -2   2  754.78    6.37
   5   2  -2  711.02    5.78
   4  -2  -2  916.08    6.09
   4   2  -2  925.01    5.89
  -4   2   2  897.12    4.24
   4   2  -2  951.97    6.36
  -4  -2   2  911.11    6.17
  -4  -2   2  929.06    6.47
  -4   2   2  911.00    6.08
   3  -2  -2  771.44    5.13
  -3  -2   2  767.39    5.59
  -3   2   2  726.08    4.91
   3  -2  -2  728.63    2.87
   3   2  -2  775.97    5.40
  -3   2   2  742.75    3.04
  -3  -2   2  733.27    5.19
   3   2  -2  751.50    5.13
   2  -2  -2   51.76    1.17
  -2   2   2   48.17    1.13
   2   2  -2   50.13    1.31
  -2  -2   2   50.02    1.35
   2   2  -2   49.34    1.32
  -2  -2   2   49.35    1.33
  -1  -2   2  780.29    5.36
  -1   2   2  816.63    4.15
   1   2  -2  773.98    4.76
   1   2  -2  799.04    5.17
   1   2  -2  808.60    5.17
   0   2  -2 5263.20   13.66
  -2   2  -2 6005.38   15.84
   2   2   2 6278.50   14.42
   2   2   2 5753.65    8.36
   2  -2   2 5861.45   15.59
   2  -2   2 6141.56   14.96
   3  -2   2 1118.36    7.12
   3   2   2 1165.06    6.92
  -3  -2  -2 1078.13    6.71
   3  -2   2 1135.74    6.88
  -3   2  -2 1118.74    7.10
  -3   2  -2 1102.85    6.45
   3   2   2 1069.80    3.57
  -3  -2  -2 1036.29    3.36
   4  -2   2  151.27    2.81
  -4  -2  -2  138.28    2.72
  -4  -2  -2  142.40    1.58
   4   2   2  144.13    2.75
  -4   2  -2  148.04    2.63
   4  -2   2  147.64    2.79
  -4   2  -2  152.05    2.87
  -5  -2  -2   49.63    0.97
  -5  -2  -2   49.17    1.12
  -5  -2  -2   49.40    1.80
  -5   2  -2   42.49    1.66
   5  -2   2   42.85    1.68
  -5   2  -2   39.59    1.58
  -6  -2  -2 1052.46    4.84
  -6   2  -2 1109.83    8.11
   6  -2   2 1078.37    8.38
  -6  -2  -2 1138.37    9.07
  -6  -2  -2 1078.14    5.71
  -7  -2  -2  716.60    4.36
   7  -2   2  712.35    7.37
  -7   2  -2  702.71    6.96
  -7  -2  -2  734.15    5.40
   8  -2   2  152.56    3.57
  -8  -2  -2  155.03    2.23
  -8  -2  -2  138.67    2.75
  -8   2  -2  147.24    3.52
  -8  -2  -2  162.19    3.84
  -9   2  -2    7.33    0.83
  -9  -2  -2    4.86    0.54
  -9  -2  -2    5.91    0.99
  -9  -2  -2    3.41    0.63
  -9   2  -2    6.15    1.01
 -10  -2  -2    4.53    0.98
 -10   2  -2    3.78    0.74
 -10  -2  -2    4.90    0.60
 -10   2  -2    4.99    0.99
 -11  -2  -2   61.82    1.78
 -11  -2  -2   55.61    2.60
 -11   2  -2   61.44    2.64
 -12   2  -2   27.54    1.66
 -12  -2  -2   22.21    1.18
 -12   2  -2   22.82    1.66
 -12  -2  -2   21.98    1.79
 -13   2  -2   -0.19    0.60
 -13   2  -2    1.51    0.93
 -13  -2  -2    0.68    0.85
 -14   2  -2    1.12    0.92
 -14   2  -2    0.03    0.73
 -14  -2  -2    2.13    0.97
 -15   2  -2    0.81    1.08
 -15   2  -2    1.14    0.74
 -15  -2  -2   -1.08    1.14
 -16  -2  -2    0.23    1.20
 -16   2  -2   -0.48    1.05
 -18  -3   2    0.06    1.26
 -18   3   2    0.55    0.98
 -18   3   2    1.28    1.21
 -17  -3   2    0.11    1.35
 -17   3   2   -2.49    1.10
 -17   3   2    1.32    1.13
 -17  -3   2    0.18    0.82
 -16   3   2   -0.71    0.86
 -16   3   2   -1.18    0.96
 -16  -3   2    0.77    1.09
 -16  -3   2   -0.31    0.76
 -15   3   2    0.62    0.79
 -15  -3   2    0.00    0.71
 -15  -3   2   -1.11    1.11
 -15   3   2    0.78    0.84
 -14   3   2    9.75    1.32
 -14  -3   2    8.05    1.11
 -14   3   2   10.85    1.25
 -14  -3   2    7.08    1.46
 -13   3   2    0.92    0.80
 -13  -3   2   -0.86    0.65
 -13  -3   2    0.35    0.86
 -13   3   2    0.98    0.74
 -12  -3   2   -0.07    0.97
 -12   3   2    0.49    0.70
 -12   3   2    1.66    0.82
 -12  -3   2    0.53    0.60
 -11   3   2    2.61    0.77
 -11   3   2    3.00    0.73
 -11  -3   2    1.52    0.62
 -11  -3   2    2.48    0.95
 -10   3   2   39.54    1.85
 -10   3   2   41.49    1.92
 -10  -3   2   36.49    2.19
 -10  -3   2   38.26    1.73
  -9  -3   2   36.19    1.95
  -9   3   2   35.28    1.65
  -9  -3   2   35.86    1.58
  -9   3   2   36.18    1.68
  -8   3   2   43.05    1.76
  -8   3   2   41.47    1.58
  -8  -3   2   36.70    1.95
  -7   3   2    8.28    0.79
   7  -3  -2    7.16    0.68
  -7  -3   2    9.38    0.84
  -7  -3   2    7.67    0.95
  -7   3   2    8.28    0.91
  -6  -3   2  797.49    6.53
   6   3  -2  764.98    6.00
   6  -3  -2  807.31    5.47
  -6  -3   2  787.24    7.35
  -6   3   2  798.29    5.85
   5  -3  -2   30.64    1.01
  -5   3   2   29.78    1.02
   5   3  -2   34.78    1.25
  -5  -3   2   34.58    1.48
  -5  -3   2   36.52    1.38
  -5   3   2   34.18    1.44
   5   3  -2   31.79    1.37
  -4  -3   2  165.64    2.64
  -4   3   2  170.46    1.88
   4   3  -2  184.23    3.20
   4   3  -2  175.37    2.64
  -4   3   2  166.20    2.85
  -4  -3   2  174.41    3.15
   4  -3  -2  169.36    1.94
   4  -3  -2  160.60    2.78
   3  -3  -2   85.03    1.89
   3  -3  -2   90.98    1.24
   3   3  -2   93.77    2.00
  -3   3   2   87.53    1.08
  -3  -3   2   87.36    1.91
   3   3  -2   84.29    2.01
  -3   3   2   87.08    1.90
  -3  -3   2   91.29    2.20
  -2  -3   2   45.15    1.43
  -2  -3   2   53.36    1.60
   2  -3  -2   59.85    1.44
  -2   3   2   65.84    1.42
   2   3  -2   47.65    1.37
   2   3  -2   53.63    1.57
  -2   3   2   60.35    0.90
  -2   3   2   67.62    0.84
   1  -3  -2  478.94    3.57
   1   3  -2  499.12    4.59
   1   3  -2  504.74    4.45
  -1   3   2  502.66    2.49
  -1   3   2  490.66    3.40
   1  -3  -2  493.42    2.66
   1   3  -2  495.10    4.30
   0   3   2   38.46    0.82
   0   3  -2   28.44    1.15
   0  -3  -2   44.23    1.02
   0   3   2   38.42    0.80
   0  -3   2   31.53    1.28
   0  -3   2   33.26    1.23
   0   3  -2   32.70    1.15
   0  -3  -2   36.19    0.86
  -1   3  -2   44.15    1.45
   1   3   2   45.62    1.10
  -1  -3  -2   44.77    0.79
  -1   3  -2   43.32    1.27
  -1  -3  -2   43.07    1.15
   1   3   2   41.89    0.70
   1  -3   2   42.67    1.43
   1  -3   2   49.00    1.44
  -2   3  -2  525.51    4.70
  -2   3  -2  527.35    5.19
  -2  -3  -2  567.10    4.51
   2  -3   2  521.86    5.05
   2   3   2  559.97    4.27
   2  -3   2  534.44    4.81
   3  -3   2   23.24    1.11
  -3   3  -2   22.47    1.09
   3  -3   2   23.69    1.19
  -3   3  -2   24.51    1.22
   3   3   2   23.40    1.07
  -3  -3  -2   24.85    1.19
   4  -3   2   87.71    2.36
   4   3   2   95.97    2.37
  -4  -3  -2   96.35    2.37
  -4   3  -2   91.81    2.47
  -5  -3  -2   27.05    0.48
  -5  -3  -2   32.97    1.48
  -5  -3  -2   23.30    0.56
   5  -3   2   34.97    1.61
  -5   3  -2   33.05    1.42
  -6   3  -2   17.63    1.13
   6  -3   2   16.72    1.22
  -6  -3  -2   12.29    0.45
  -6  -3  -2   13.14    0.59
  -6  -3  -2   12.45    1.09
  -7  -3  -2   66.62    1.17
  -7   3  -2   69.10    2.20
   7  -3   2   72.75    2.49
  -7  -3  -2   66.37    2.32
  -7  -3  -2   70.87    1.49
  -8   3  -2    7.32    0.96
  -8  -3  -2    4.77    0.55
  -8  -3  -2    5.65    0.43
  -8  -3  -2    5.03    0.91
  -9   3  -2    1.66    0.72
  -9  -3  -2    2.02    0.39
  -9  -3  -2    1.12    0.70
  -9  -3  -2    0.74    0.43
 -10   3  -2   17.84    1.24
 -10   3  -2   15.47    1.33
 -10  -3  -2   14.71    1.51
 -10  -3  -2   13.20    0.78
 -11   3  -2    1.50    0.80
 -11  -3  -2    1.62    0.46
 -11  -3  -2    0.94    0.79
 -11   3  -2    2.38    0.75
 -12   3  -2    3.14    0.79
 -12   3  -2    3.99    1.10
 -12  -3  -2    3.86    1.09
 -12  -3  -2    3.50    0.60
 -13   3  -2    1.51    0.93
 -13   3  -2   -0.30    0.70
 -13  -3  -2    0.46    0.93
 -14   3  -2   -0.39    0.66
 -14   3  -2    0.37    0.93
 -14  -3  -2   -1.42    1.00
 -15   3  -2   -0.94    0.99
 -15   3  -2   -0.23    0.77
 -15  -3  -2    1.21    1.12
 -16   3  -2    3.21    1.28
 -16  -3  -2    0.57    1.12
 -18   4   2    2.09    1.25
 -18   4   2    0.88    1.00
 -18  -4   2   -0.20    1.27
 -17  -4   2   -1.74    1.35
 -17   4   2   -0.06    0.92
 -17   4   2    1.19    1.07
 -16  -4   2    5.28    1.10
 -16   4   2    4.79    1.06
 -16   4   2    3.25    1.04
 -15  -4   2    1.18    0.76
 -15   4   2    0.91    0.81
 -15   4   2    1.07    0.91
 -15  -4   2    0.69    1.13
 -14   4   2    6.48    1.06
 -14  -4   2    6.57    1.06
 -14   4   2    6.63    1.21
 -14  -4   2    6.16    1.40
 -13   4   2    2.60    0.86
 -13  -4   2    1.27    0.98
 -13   4   2    1.85    0.73
 -13  -4   2    0.57    0.65
 -12   4   2   47.77    2.19
 -12   4   2   47.84    2.23
 -12  -4   2   42.21    1.93
 -11   4   2    2.26    0.75
 -11   4   2    3.00    0.77
 -11  -4   2    3.26    0.98
 -11  -4   2    2.89    0.68
 -10   4   2   15.60    1.25
 -10  -4   2    9.69    1.01
 -10  -4   2   10.51    1.28
 -10   4   2   14.02    1.18
  -9   4   2  183.87    3.97
  -9  -4   2  161.80    4.26
  -9  -4   2  181.79    3.62
  -9   4   2  167.10    3.45
  -8  -4   2    0.95    0.52
  -8   4   2    1.30    0.60
  -8   4   2    1.63    0.59
  -8  -4   2    1.55    0.66
   7  -4  -2   50.28    1.65
  -7   4   2   53.35    2.01
  -7   4   2   48.96    1.65
  -7  -4   2   59.29    1.91
  -7  -4   2   55.38    2.28
  -6   4   2 1013.37    7.93
  -6   4   2 1002.39    6.41
   6  -4  -2 1009.38    6.36
  -5  -4   2    5.95    0.77
  -5   4   2    6.64    0.72
  -5   4   2    6.04    0.50
  -5  -4   2    6.30    0.67
   5  -4  -2    2.45    0.37
   5   4  -2    3.31    0.53
   4  -4  -2 1041.48    5.30
   4   4  -2 1071.45    6.79
   4   4  -2 1040.08    7.91
  -4   4   2 1055.68    7.54
  -4   4   2 1014.17    8.30
  -4   4   2 1018.70    4.98
  -4  -4   2 1056.74    8.35
  -3  -4   2  390.00    4.38
  -3   4   2  392.06    4.80
  -3   4   2  399.38    2.79
  -3   4   2  395.47    4.21
   3   4  -2  377.52    4.55
   3   4  -2  404.07    4.20
   3  -4  -2  408.47    3.08
  -3  -4   2  392.42    4.80
  -2   4   2    4.45    0.57
  -2  -4   2    4.58    0.67
   2   4  -2    5.09    0.57
  -2   4   2    4.76    0.55
  -2   4   2    5.49    0.42
   2   4  -2    5.59    0.69
  -2  -4   2    4.94    0.69
  -2   4   2    4.63    0.39
   1  -4  -2 2029.63    6.98
   1   4  -2 2050.61    9.98
  -1   4   2 2155.41    6.96
  -1   4   2 2081.65    7.78
  -1  -4   2 2013.90   10.20
   1   4  -2 2138.49   10.13
  -1   4   2 2132.36    9.12
   1   4  -2 1996.19   10.11
   0   4   2  136.27    1.70
   0   4  -2  117.02    2.53
   0   4  -2  115.12    2.33
   0   4   2  134.60    2.05
   0  -4   2  113.94    2.50
   0   4   2  128.99    1.82
   0  -4  -2  135.94    2.11
   0   4  -2  127.04    2.75
   1   4   2    4.30    0.37
   1  -4   2    3.88    0.62
  -1   4  -2    2.89    0.52
   1   4   2    4.21    0.45
  -1   4  -2    3.28    0.58
   1  -4   2    3.46    0.53
   1   4   2    3.84    0.28
  -1  -4  -2    4.15    0.53
   2   4   2  510.66    4.39
  -2   4  -2  513.92    5.50
  -2   4  -2  533.87    5.02
   2  -4   2  529.28    5.28
  -2  -4  -2  504.89    4.78
   2  -4   2  506.64    5.42
   3   4   2  802.86    6.03
   3  -4   2  823.35    7.22
  -3   4  -2  833.17    6.49
  -3  -4  -2  825.58    6.62
  -3   4  -2  794.45    7.13
  -4   4  -2   23.99    1.27
  -4  -4  -2   23.42    1.38
   4  -4   2   24.59    1.44
  -5  -4  -2  381.68    5.29
   5  -4   2  365.70    5.47
   6  -4   2   12.49    1.19
  -6   4  -2   10.60    0.94
  -6  -4  -2   12.87    1.12
  -7  -4  -2   58.97    2.40
   7  -4   2   73.81    2.76
  -7  -4  -2   42.60    0.92
  -7   4  -2   67.32    2.18
  -7  -4  -2   38.04    0.73
  -8   4  -2  183.10    3.76
  -8  -4  -2  151.88    3.98
  -8  -4  -2  138.14    1.68
   8  -4   2  182.61    4.36
  -8  -4  -2  129.36    1.89
  -9  -4  -2    5.64    0.45
  -9   4  -2    5.29    0.93
   9  -4   2    5.63    1.05
  -9  -4  -2    5.17    1.00
  -9  -4  -2    4.89    0.50
 -10   4  -2    6.60    1.02
 -10  -4  -2    4.27    0.45
 -10  -4  -2    5.70    1.10
 -10   4  -2    5.60    0.84
 -11  -4  -2   14.19    0.80
 -11   4  -2   17.05    1.54
 -11  -4  -2   15.87    1.60
 -11   4  -2   18.83    1.41
 -12   4  -2    3.80    1.12
 -12   4  -2    5.07    0.91
 -12  -4  -2    2.41    1.04
 -13  -4  -2    1.12    1.00
 -13   4  -2    1.31    0.93
 -13   4  -2   -0.16    0.74
 -14   4  -2    7.54    1.15
 -14   4  -2    4.16    1.16
 -14  -4  -2    4.86    1.37
 -15   4  -2    1.37    1.05
 -15   4  -2    2.66    0.95
 -15  -4  -2    1.50    1.11
 -16   4  -2    0.03    0.80
 -16  -4  -2    0.58    1.20
 -16   4  -2    0.84    1.15
 -18   5   2    0.14    0.99
 -18   5   2    1.10    1.16
 -17   5   2    0.49    0.90
 -17   5   2    0.46    0.96
 -17  -5   2    0.41    1.30
 -16  -5   2    3.60    1.63
 -16   5   2    3.80    1.06
 -16   5   2    3.85    1.09
 -15   5   2   -0.15    0.84
 -15  -5   2    1.55    0.82
 -15   5   2    0.59    0.88
 -15  -5   2    0.86    1.16
 -14   5   2   11.85    1.35
 -14   5   2   10.95    1.38
 -14  -5   2   12.47    1.26
 -14  -5   2   10.15    1.72
 -13  -5   2    5.03    0.93
 -13   5   2    7.83    1.12
 -13  -5   2    4.13    1.23
 -13   5   2    6.87    1.13
 -12  -5   2   -0.90    0.68
 -12  -5   2   -0.20    0.88
 -12   5   2   -0.38    0.70
 -12   5   2    1.50    0.73
 -11  -5   2    4.92    0.78
 -11  -5   2    3.86    1.04
 -11   5   2    3.00    0.83
 -11   5   2    2.73    0.82
 -10  -5   2   72.12    2.36
 -10   5   2   78.39    2.68
 -10   5   2   75.42    2.52
  -9   5   2   46.26    1.90
  -9   5   2   51.26    2.11
  -9  -5   2   47.98    2.43
  -8  -5   2   17.24    1.49
  -8   5   2   16.68    1.10
  -8  -5   2   15.23    1.06
  -8   5   2   18.28    1.32
   7  -5  -2  100.92    2.36
  -7   5   2  105.02    2.30
  -7   5   2  111.19    2.92
  -7  -5   2  106.12    3.23
  -7  -5   2  111.18    2.65
  -6   5   2   19.97    1.26
   6  -5  -2   19.19    1.00
  -6  -5   2   18.26    1.10
  -6   5   2   18.47    0.92
  -6  -5   2   18.69    1.41
   5  -5  -2   79.61    1.80
  -5   5   2   83.66    1.72
  -5  -5   2   88.53    2.69
  -5   5   2   88.24    2.42
  -5  -5   2   95.19    2.38
   4   5  -2  171.61    2.91
  -4  -5   2  173.57    3.18
   4  -5  -2  199.74    2.61
  -4   5   2  195.53    2.37
  -4   5   2  190.37    3.34
  -4  -5   2  168.04    3.75
  -3   5   2  466.91    4.05
  -3  -5   2  446.74    5.03
  -3   5   2  466.45    3.52
  -3   5   2  457.01    5.38
  -3   5   2  480.59    4.99
   3   5  -2  463.48    4.76
  -3  -5   2  473.80    5.87
  -2  -5   2   50.44    1.98
   2   5  -2   56.74    1.74
  -2   5   2   38.92    1.07
  -2   5   2   46.49    1.63
  -2  -5   2   57.72    1.91
  -2   5   2   44.91    1.52
   2   5  -2   48.69    1.79
  -2   5   2   47.27    1.30
   1   5  -2 1103.93    7.90
   1   5  -2 1077.13    8.25
  -1  -5   2 1094.36    8.13
  -1   5   2 1076.04    6.34
  -1   5   2 1119.58    7.03
  -1   5   2 1119.39    5.96
   1  -5  -2 1105.21    6.22
   1   5  -2 1150.43    8.17
   0   5  -2    4.36    0.77
   0   5   2    6.24    0.55
   0   5  -2    4.19    0.75
   0  -5   2    5.28    0.81
   0   5  -2    3.43    0.59
   0   5   2    5.30    0.55
   0  -5  -2    4.81    0.63
   0   5   2    6.17    0.55
  -1  -5  -2   41.31    1.49
   1  -5   2   30.88    1.44
   1   5   2   37.67    1.27
   1   5   2   41.92    0.99
   1   5   2   38.25    1.05
  -1   5  -2   31.71    1.53
   1  -5   2   32.76    1.59
  -1   5  -2   29.49    1.34
   2   5   2    1.96    0.22
  -2   5  -2    2.89    0.69
  -2  -5  -2    1.75    0.51
   2  -5   2    2.03    0.68
   2   5   2    1.57    0.25
   2   5   2    2.07    0.49
   3  -5   2  576.53    6.48
  -3   5  -2  587.92    5.76
   4  -5   2    9.45    0.98
  -4   5  -2    9.20    0.89
  -5  -5  -2   33.18    1.77
  -5   5  -2   34.92    1.58
   5  -5   2   36.20    1.90
  -6  -5  -2  203.72    4.24
   6  -5   2  215.33    4.56
   7  -5   2    1.23    0.70
  -7   5  -2    1.15    0.65
  -7  -5  -2    1.54    0.76
  -8   5  -2    0.95    0.69
   8  -5   2    0.10    0.70
  -8  -5  -2    0.57    0.73
  -9   5  -2   14.39    1.26
  -9  -5  -2    5.17    0.36
  -9  -5  -2   12.26    1.36
  -9  -5  -2    6.83    0.38
   9  -5   2   12.78    1.41
 -10  -5  -2   44.00    2.50
 -10   5  -2   56.00    2.50
 -11   5  -2    0.90    0.66
 -11   5  -2    1.30    0.85
 -11  -5  -2    2.76    1.04
 -12   5  -2   29.69    2.05
 -12   5  -2   34.51    1.97
 -12  -5  -2   29.54    2.26
 -13   5  -2    1.02    0.97
 -13   5  -2    0.65    0.80
 -13  -5  -2    2.19    1.07
 -14  -5  -2   -0.20    1.09
 -14   5  -2   -0.39    1.00
 -14   5  -2    0.89    0.88
 -15   5  -2    0.27    0.80
 -15   5  -2   -0.36    0.91
 -15  -5  -2   -1.44    1.24
 -16   5  -2    0.87    0.89
 -16   5  -2    1.91    1.26
 -16  -5  -2   -1.06    1.29
 -17  -6   2    0.43    1.32
 -17   6   2    1.45    1.16
 -17   6   2   -1.50    1.08
 -16   6   2    1.18    1.01
 -16   6   2   -0.01    0.84
 -16  -6   2   -1.37    1.33
 -15   6   2    4.30    1.09
 -15  -6   2    4.39    0.96
 -15   6   2    4.78    1.16
 -15  -6   2    2.52    1.19
 -14  -6   2    2.62    0.89
 -14   6   2    1.17    0.89
 -14  -6   2    1.09    1.07
 -14   6   2    2.28    0.93
 -13  -6   2    2.40    0.80
 -13   6   2    2.08    0.88
 -13   6   2    0.78    0.77
 -13  -6   2    1.91    1.13
 -12   6   2   19.41    1.57
 -12   6   2   19.94    1.56
 -12  -6   2   16.73    1.76
 -12  -6   2   14.94    1.31
 -11   6   2   45.68    2.18
 -11  -6   2   44.51    2.78
 -11  -6   2   49.52    2.13
 -11   6   2   43.85    2.11
 -10   6   2   44.21    2.05
 -10   6   2   39.44    1.86
 -10  -6   2   44.25    2.53
 -10  -6   2   48.62    2.01
  -9  -6   2    2.39    0.66
  -9   6   2    3.19    0.80
  -9   6   2    4.00    0.78
  -9  -6   2    1.82    0.88
  -8   6   2  254.47    4.58
  -8   6   2  244.35    3.80
  -8  -6   2  255.05    4.29
  -7   6   2  161.38    2.86
  -7   6   2  162.08    3.57
  -7  -6   2  168.72    4.24
  -6  -6   2  262.52    4.21
  -6  -6   2  240.31    4.82
   6  -6  -2  251.64    3.67
  -6   6   2  240.88    3.25
  -6   6   2  248.92    4.26
  -5  -6   2  697.44    6.80
   5  -6  -2  726.75    5.75
  -5   6   2  739.91    7.22
  -5   6   2  719.08    5.30
  -5  -6   2  701.60    8.11
  -4  -6   2 1170.29    8.77
  -4   6   2 1198.82    6.61
  -4   6   2 1202.52    8.67
  -4  -6   2 1167.07   10.08
  -3   6   2  562.10    4.92
  -3   6   2  574.15    5.73
  -3  -6   2  549.62    6.11
  -3  -6   2  550.91    6.71
  -2  -6   2 1446.73   10.92
  -2   6   2 1441.94    8.64
  -2   6   2 1450.86    7.28
  -2   6   2 1438.39    9.38
  -2   6   2 1478.72    7.86
   1  -6  -2  947.04    6.37
   1   6  -2  961.45    8.07
  -1   6   2  976.19    7.01
  -1   6   2  977.18    6.38
  -1   6   2  970.09    6.42
   0   6   2  960.38    5.88
   0   6  -2  944.16    7.58
   0  -6  -2  963.06    6.99
   0   6   2  962.19    6.35
   0  -6   2  939.99    8.25
   0   6   2  950.06    6.39
  -1   6  -2 1610.41    9.85
   1   6   2 1605.97    6.82
   1   6   2 1595.42    7.30
   1   6   2 1562.86    8.70
  -1  -6  -2 1624.87    9.60
   1  -6   2 1604.85   10.70
   2  -6   2  104.64    2.92
  -2   6  -2  107.27    2.69
   2   6   2  113.92    1.52
   2   6   2  113.11    1.72
   2   6   2  101.30    2.27
  -2  -6  -2  105.04    2.60
   3   6   2   31.57    0.61
   3  -6   2   36.19    1.79
  -3  -6  -2   31.73    1.58
  -3   6  -2   38.55    1.63
   4  -6   2  296.63    5.14
  -4   6  -2  291.84    4.39
   5  -6   2  120.16    3.45
  -5   6  -2  117.83    2.82
  -6  -6  -2   78.88    2.84
  -6   6  -2   83.00    2.48
   6  -6   2   82.03    2.93
  -7  -6  -2  169.46    4.23
   7  -6   2  174.64    4.32
  -8   6  -2    5.49    0.96
   8  -6   2    4.55    1.01
  -8  -6  -2    5.30    1.04
   9  -6   2    0.20    0.88
  -9   6  -2    0.75    0.74
  -9  -6  -2    0.08    0.77
  10  -6   2   14.31    1.64
 -10   6  -2   15.89    1.41
 -11   6  -2    0.70    0.67
 -11   6  -2    2.09    0.93
 -11  -6  -2    0.62    0.84
 -12   6  -2    1.34    0.81
 -12   6  -2    1.26    0.89
 -12  -6  -2    1.32    1.04
 -13   6  -2    1.79    0.84
 -13   6  -2    4.06    1.23
 -13  -6  -2    3.09    1.16
 -14  -6  -2    2.32    1.25
 -14   6  -2    2.03    0.91
 -14   6  -2    3.37    1.29
 -15  -6  -2   -0.42    1.09
 -15   6  -2   -0.44    0.83
 -15   6  -2   -0.61    1.11
 -16   6  -2   -0.41    0.86
 -16   6  -2   -0.42    1.06
 -17   7   2    0.26    0.98
 -17   7   2   -0.28    0.97
 -16   7   2    0.97    0.84
 -16   7   2    2.23    0.98
 -15   7   2    1.57    0.91
 -15   7   2   -1.23    0.91
 -15  -7   2   -1.94    1.33
 -14   7   2   -0.77    0.79
 -14   7   2   -0.12    0.86
 -14  -7   2    0.39    0.69
 -14  -7   2   -1.24    1.04
 -13   7   2   -0.61    0.84
 -13   7   2    0.64    0.81
 -13  -7   2    0.05    0.65
 -13  -7   2   -0.07    1.01
 -12   7   2    3.16    0.87
 -12  -7   2    2.15    0.79
 -12   7   2    3.40    0.96
 -12  -7   2    0.64    0.90
 -11   7   2    1.82    0.73
 -11   7   2    1.65    0.70
 -11  -7   2    3.76    0.84
 -11  -7   2    1.99    0.98
 -10  -7   2    1.16    1.05
 -10  -7   2    1.05    0.64
 -10   7   2    0.86    0.72
 -10   7   2    1.14    0.69
  -9  -7   2    5.62    1.18
  -9   7   2    3.11    0.81
  -9  -7   2    5.31    0.85
  -9   7   2    3.94    0.78
  -8  -7   2   26.83    1.50
  -8  -7   2   26.20    1.96
  -8   7   2   27.20    1.37
  -8   7   2   24.87    1.53
  -7  -7   2    1.78    0.70
  -7   7   2    2.04    0.62
  -7  -7   2    2.32    0.63
  -7   7   2    2.70    0.57
  -6   7   2   52.15    2.09
  -6  -7   2   48.60    1.99
  -6   7   2   51.35    1.62
  -6  -7   2   44.61    2.30
  -5  -7   2    1.59    0.81
   5  -7  -2    4.80    0.63
  -5   7   2    5.07    0.62
  -5  -7   2    0.79    0.56
  -5   7   2    4.36    0.77
  -4   7   2   88.49    2.29
  -4   7   2   96.73    2.65
  -4  -7   2   88.37    2.61
  -4  -7   2   89.52    2.99
  -4   7   2   93.68    2.06
  -3  -7   2  130.61    3.48
  -3   7   2  143.02    3.03
  -3  -7   2  134.82    3.19
  -3   7   2  145.19    2.54
  -3   7   2  141.55    2.75
  -2  -7   2    8.65    1.02
  -2   7   2   10.67    0.85
  -2  -7   2    8.94    0.96
  -2   7   2   12.61    0.84
  -2   7   2   10.99    0.80
   1   7  -2   45.65    1.94
  -1   7   2   47.39    1.67
  -1  -7   2   45.37    1.95
  -1   7   2   46.82    1.56
  -1   7   2   48.94    1.60
   0   7   2   46.65    1.56
   0   7   2   48.88    1.46
   0   7   2   45.39    1.61
   0  -7   2   50.08    2.05
   0   7  -2   45.95    1.86
   0  -7  -2   47.73    1.77
  -1  -7  -2    4.08    0.75
  -1   7  -2    8.94    0.99
   1   7   2    4.23    0.63
   1   7   2    4.94    0.60
   1  -7   2    8.59    0.96
  -2  -7  -2    1.42    0.55
   2   7   2    1.42    0.32
   2   7   2    1.49    0.37
  -2   7  -2    1.95    0.66
   2  -7   2    1.69    0.73
   3   7   2   97.79    1.48
  -3   7  -2   97.18    2.63
   3  -7   2  100.74    3.06
  -3  -7  -2  109.98    2.97
   3   7   2  110.49    1.51
   4  -7   2   25.60    1.60
  -4   7  -2   26.54    1.47
  -4  -7  -2   25.56    1.61
  -5   7  -2    1.18    0.66
  -5  -7  -2    2.58    0.76
   5  -7   2    1.83    0.79
  -6   7  -2    3.31    0.74
   6  -7   2    2.83    0.87
  -6  -7  -2    0.85    0.75
  -7   7  -2    1.74    0.70
   7  -7   2    0.40    0.75
  -7  -7  -2    2.02    0.86
   8  -7   2    1.78    0.89
  -8  -7  -2    3.89    1.11
  -8   7  -2    4.92    0.94
  -9   7  -2   22.57    1.65
   9  -7   2   19.98    1.81
  -9  -7  -2   21.20    1.83
 -10   7  -2    0.96    0.75
 -10  -7  -2   -0.03    0.84
 -11   7  -2    0.78    0.80
 -11  -7  -2    0.80    0.90
 -12   7  -2    1.74    0.85
 -12   7  -2    3.19    0.94
 -12  -7  -2    0.80    0.99
 -13   7  -2    0.27    0.76
 -13   7  -2    1.09    1.00
 -13  -7  -2   -1.10    1.00
 -14   7  -2    0.43    0.87
 -14   7  -2    0.47    1.03
 -14  -7  -2    2.24    1.31
 -15   7  -2    0.72    0.90
 -15   7  -2   -0.28    1.08
 -15  -7  -2    0.78    1.34
 -16   7  -2    0.94    0.97
 -16  -8   2   -1.40    1.19
 -16   8   2    1.03    0.96
 -16   8   2   -1.31    0.95
 -15  -8   2    2.98    1.48
 -15   8   2    1.48    0.89
 -15   8   2   -0.10    0.90
 -14   8   2   -1.85    1.02
 -14   8   2    0.77    0.82
 -14  -8   2    0.72    1.15
 -13  -8   2   -0.04    1.02
 -13  -8   2   -0.06    0.69
 -13   8   2   -0.87    0.84
 -13   8   2    2.28    0.84
 -12  -8   2    3.29    1.16
 -12  -8   2    0.60    0.71
 -12   8   2    2.00    0.80
 -12   8   2    2.12    0.84
 -11  -8   2    6.60    1.44
 -11   8   2    5.88    0.92
 -11  -8   2    3.30    0.85
 -11   8   2    4.53    0.94
 -10  -8   2    8.70    1.10
 -10   8   2    9.50    1.15
 -10   8   2   11.55    1.14
 -10  -8   2    9.31    1.54
  -9  -8   2   53.55    2.29
  -9   8   2   53.34    2.32
  -9   8   2   57.82    2.09
  -9  -8   2   46.93    2.67
  -8  -8   2    9.08    1.02
  -8   8   2    6.30    0.97
  -8  -8   2    7.87    1.17
  -8   8   2    7.83    0.86
  -7  -8   2  158.38    3.75
  -7   8   2  156.56    3.73
  -7  -8   2  143.08    4.26
  -6   8   2   26.68    1.55
  -6  -8   2   29.49    1.66
  -6  -8   2   25.92    1.99
  -6   8   2   29.80    1.31
  -5   8   2  152.95    3.58
  -5   8   2  148.59    2.80
  -5  -8   2  155.00    3.55
  -5  -8   2  146.11    4.10
  -4   8   2   33.52    1.54
  -4   8   2   33.32    1.65
  -4  -8   2   32.71    1.70
  -4  -8   2   31.72    1.89
  -4   8   2   33.03    1.36
  -3  -8   2  222.32    4.79
  -3   8   2  200.17    3.62
  -3   8   2  203.28    3.66
  -3  -8   2  229.68    4.31
  -3   8   2  203.01    3.23
  -2  -8   2  215.33    4.63
  -2  -8   2  226.27    4.30
  -2   8   2  220.66    3.44
  -2   8   2  228.05    3.79
  -2   8   2  215.73    3.71
   1   8  -2    5.16    0.90
  -1  -8   2    6.36    1.00
  -1   8   2    7.00    0.74
   0  -8  -2   73.30    2.37
   0   8   2   65.47    2.04
   0   8  -2   66.85    2.33
   0  -8   2   66.83    2.40
   1  -8   2  274.78    4.99
   1   8   2  278.63    3.90
  -1   8  -2  286.38    4.74
  -2   8  -2  210.59    4.02
   2  -8   2  205.01    4.40
   2   8   2  210.09    3.10
  -2  -8  -2  191.44    4.06
   3   8   2  114.74    1.95
  -3  -8  -2  112.93    3.27
   4  -8   2  761.80    8.67
   4   8   2  726.39    3.63
  -4  -8  -2  746.89    8.39
  -5   8  -2  219.52    4.21
   5  -8   2  215.60    4.82
  -5  -8  -2  225.48    4.84
   6  -8   2  127.35    3.88
  -6   8  -2  131.70    3.26
   7  -8   2   39.42    2.31
  -7   8  -2   40.80    1.94
   8  -8   2   27.68    2.04
  -8  -8  -2   25.12    2.08
  -8   8  -2   31.11    1.82
  -9   8  -2   11.78    1.24
   9  -8   2    8.86    1.39
  -9  -8  -2    8.30    1.39
  10  -8   2    5.13    1.20
 -10  -8  -2    5.71    1.25
 -10   8  -2    5.62    1.07
 -11   8  -2    1.14    0.90
 -11  -8  -2   -0.83    0.95
 -12   8  -2    4.08    1.07
 -12   8  -2    5.19    1.04
 -12  -8  -2    3.24    1.19
 -13   8  -2    2.33    1.18
 -13   8  -2   -1.32    0.91
 -13  -8  -2    0.48    1.16
 -14   8  -2    1.83    0.99
 -14  -8  -2    0.20    1.11
 -14   8  -2    2.24    1.15
 -15   8  -2   -1.14    1.18
 -15  -8  -2    0.41    1.37
 -15   8  -2    0.77    0.92
 -16   8  -2    0.15    0.92
 -16   9   2    0.24    0.86
 -15  -9   2    1.28    1.34
 -15   9   2    0.17    0.88
 -15   9   2    0.79    0.89
 -14  -9   2    4.75    1.61
 -14   9   2    2.31    1.08
 -14   9   2    5.26    1.25
 -13  -9   2    2.56    1.32
 -13   9   2    2.59    0.92
 -13   9   2    3.18    1.04
 -12  -9   2   -2.44    1.24
 -12  -9   2   -0.03    0.79
 -12   9   2   -1.43    0.88
 -11  -9   2    3.55    1.28
 -11  -9   2    2.65    0.87
 -11   9   2    2.64    0.90
 -11   9   2    5.92    1.04
 -10   9   2   13.04    1.25
 -10  -9   2   15.87    1.42
 -10  -9   2   12.35    1.64
 -10   9   2   13.74    1.38
  -9  -9   2    2.57    1.06
  -9   9   2    0.38    0.70
  -9  -9   2    3.14    0.83
  -9   9   2    1.34    0.63
  -8  -9   2   11.52    1.52
  -8   9   2   12.01    1.06
  -8   9   2   10.12    1.21
  -8  -9   2   11.16    1.21
  -7  -9   2    6.23    1.20
  -7  -9   2    7.42    0.97
  -7   9   2    6.06    0.98
  -7   9   2    7.80    0.84
  -6  -9   2    1.15    0.89
  -6   9   2    0.89    0.49
  -6   9   2    1.12    0.74
  -6  -9   2    0.58    0.64
  -5   9   2   85.42    2.75
  -5   9   2   85.97    2.28
  -5  -9   2   75.48    2.65
  -4  -9   2    1.70    0.68
  -4  -9   2    1.43    0.82
  -4   9   2    1.26    0.63
  -4   9   2    1.57    0.58
  -3  -9   2  290.70    5.92
  -3   9   2  271.64    4.54
  -3  -9   2  280.81    4.97
  -2   9   2   11.10    0.91
  -2  -9   2   11.33    1.17
   1   9  -2  140.44    3.63
  -1  -9   2  142.07    3.62
   0  -9  -2   91.51    2.83
   0  -9  -2   88.58    2.60
   0   9  -2   89.67    2.81
   0  -9   2   92.96    3.08
  -1  -9  -2    3.55    0.60
  -1   9  -2    1.23    0.69
   1   9   2    3.90    0.67
  -1  -9  -2    3.47    0.76
   1  -9   2    2.27    0.84
  -2  -9  -2    2.41    0.79
   2  -9   2    1.73    0.78
  -2   9  -2    1.70    0.78
   2   9   2    1.19    0.48
  -2  -9  -2    2.37    0.54
   3   9   2  117.31    2.33
  -3   9  -2  120.24    3.17
   3  -9   2  116.72    3.44
  -3  -9  -2  109.82    2.16
  -3  -9  -2  109.11    3.32
  -4  -9  -2    3.98    0.88
   4   9   2    3.96    0.40
   4  -9   2    4.98    1.06
  -5   9  -2   13.33    1.22
   5  -9   2   11.80    1.39
   5   9   2    9.72    0.43
  -5  -9  -2   11.79    1.35
   5   9   2    7.86    0.36
  -6   9  -2   11.18    1.15
   6  -9   2   13.23    1.50
  -6  -9  -2   12.65    1.45
  -7  -9  -2   28.66    2.11
   7  -9   2   35.66    2.26
  -7   9  -2   35.62    1.92
   8  -9   2    0.43    0.79
  -8  -9  -2    0.63    0.89
  -8   9  -2    2.13    0.79
  -9   9  -2    2.75    0.93
   9  -9   2    2.04    0.96
  10  -9   2   27.42    2.30
 -10  -9  -2   24.03    2.16
  11  -9   2    0.78    1.12
 -11   9  -2   -0.19    0.80
 -11  -9  -2    0.68    1.01
 -12   9  -2    1.53    0.84
 -12   9  -2    1.84    1.03
 -12  -9  -2    3.74    1.40
 -13   9  -2    2.77    1.00
 -13  -9  -2    3.90    1.44
 -13   9  -2    2.46    1.12
 -14   9  -2    0.23    0.87
 -14   9  -2    1.13    1.13
 -14  -9  -2    0.71    1.19
 -15   9  -2   -0.59    0.93
 -15 -10   2   -1.26    1.44
 -15  10   2    0.56    0.99
 -14 -10   2   -0.40    1.29
 -14  10   2    1.00    0.92
 -14  10   2    0.52    0.85
 -13 -10   2   -0.32    1.13
 -13  10   2   -0.65    0.88
 -13  10   2   -0.48    0.87
 -12  10   2   14.53    1.43
 -12 -10   2   17.30    2.13
 -12 -10   2   16.57    1.57
 -12  10   2   14.33    1.50
 -11  10   2    4.52    1.04
 -11  10   2    6.37    1.03
 -11 -10   2    4.28    1.29
 -11 -10   2    4.64    0.96
 -10 -10   2   -0.08    0.95
 -10  10   2    0.42    0.64
 -10  10   2    0.68    0.73
 -10 -10   2   -0.40    0.84
  -9 -10   2    8.45    1.12
  -9 -10   2    5.77    1.35
  -9  10   2    7.96    1.11
  -9  10   2    9.18    1.05
  -8 -10   2    5.95    1.25
  -8  10   2    6.62    1.03
  -8 -10   2    7.62    1.12
  -8  10   2    7.14    0.95
  -7  10   2  127.86    3.02
  -7  10   2  115.45    3.44
  -7 -10   2  125.90    4.20
  -6  10   2  253.36    4.15
  -6  10   2  236.64    4.89
  -6 -10   2  246.30    5.79
  -5 -10   2  134.99    3.69
  -5  10   2  131.76    3.00
  -5  10   2  118.29    3.38
  -5 -10   2  129.33    4.11
  -4 -10   2   84.28    3.34
  -4  10   2   88.34    2.81
  -4  10   2   87.14    2.38
  -4 -10   2   86.44    2.95
  -3 -10   2  316.39    6.24
  -3 -10   2  339.60    5.86
  -3  10   2  333.21    4.66
  -3  10   2  340.85    5.29
   2  10  -2  101.09    3.31
  -2 -10   2   99.47    3.14
  -2  10   2   98.42    2.63
  -1  10   2  285.62    4.56
   1  10  -2  302.86    5.42
   1 -10  -2  285.77    5.15
  -1 -10   2  305.88    5.55
   0 -10  -2  206.89    3.96
   0 -10   2  219.69    4.81
   0  10  -2  228.23    4.72
   0 -10  -2  213.00    4.42
  -1 -10  -2   10.63    0.94
  -1  10  -2   12.23    1.25
   1 -10   2   11.93    1.24
  -1 -10  -2   12.86    1.26
   2  10   2  198.40    3.74
  -2  10  -2  196.39    4.27
   2 -10   2  185.39    4.48
  -2 -10  -2  197.75    4.56
  -2 -10  -2  180.64    3.30
   3  10   2  517.13    5.31
   3 -10   2  519.43    7.64
  -3  10  -2  510.52    6.74
  -3 -10  -2  500.78    5.13
  -3 -10  -2  534.19    7.84
  -4  10  -2  372.95    5.78
   4 -10   2  368.62    6.66
  -4 -10  -2  351.38    6.40
  -5 -10  -2  449.16    7.34
   5 -10   2  470.93    7.56
  -6  10  -2   54.88    2.34
   6 -10   2   51.85    2.73
  -6 -10  -2   50.18    2.78
  -7 -10  -2    0.12    0.85
   7 -10   2    1.30    0.93
  -7  10  -2    0.83    0.76
   8 -10   2   27.85    2.16
  -8  10  -2   28.19    1.80
  -8 -10  -2   24.59    2.08
  -9  10  -2   32.56    1.98
  -9 -10  -2   27.98    2.32
   9 -10   2   31.52    2.36
  10 -10   2    3.88    1.19
 -10  10  -2    4.85    1.06
 -10 -10  -2    6.43    1.46
 -11  10  -2    9.09    1.31
  11 -10   2    8.29    1.65
 -11 -10  -2    7.79    1.58
 -12  10  -2    1.27    1.01
 -12  10  -2    1.12    0.83
 -12 -10  -2    0.88    1.30
 -13  10  -2    0.46    1.02
 -13  10  -2   -0.02    0.84
 -13 -10  -2   -0.25    1.25
 -14  10  -2    5.24    1.45
 -14  10  -2    3.82    1.12
 -14 -10  -2    1.77    1.45
 -14 -11   2    3.07    1.61
 -14  11   2    1.56    0.87
 -13 -11   2    1.48    1.34
 -13  11   2    1.51    0.92
 -13  11   2    0.98    0.87
 -12 -11   2   -0.60    1.29
 -12  11   2    1.72    0.92
 -12  11   2    0.11    0.75
 -11  11   2    0.95    0.75
 -11 -11   2   -0.23    1.18
 -11  11   2   -0.20    0.88
 -11 -11   2    0.30    0.74
 -10 -11   2    4.10    1.15
 -10  11   2    3.83    0.96
 -10  11   2    4.33    0.90
 -10 -11   2    5.07    1.05
  -9 -11   2    3.28    1.12
  -9  11   2    2.20    0.92
  -9  11   2    3.03    0.74
  -9 -11   2    4.34    0.96
  -8  11   2   45.75    1.91
  -8  11   2   47.40    2.36
  -8 -11   2   48.45    2.72
  -7 -11   2   39.04    2.50
  -7  11   2   46.73    1.95
  -7  11   2   40.26    2.23
  -7 -11   2   44.23    2.28
  -6  11   2   18.54    1.28
  -6  11   2   18.14    1.57
  -6 -11   2   20.36    1.60
  -6 -11   2   19.13    1.78
  -5 -11   2    8.22    1.14
  -5 -11   2    5.61    1.21
  -5  11   2    8.15    0.91
  -5  11   2    8.04    1.13
  -4  11   2   14.12    1.38
  -4 -11   2   14.11    1.65
  -4 -11   2   16.89    1.55
  -4  11   2   13.19    1.10
  -3 -11   2   83.95    3.42
  -3  11   2   87.90    2.57
  -3 -11   2   93.44    3.15
  -2  11   2    0.02    0.53
  -2 -11   2    1.75    0.85
   2  11  -2    1.80    0.84
  -1 -11   2   17.89    1.54
   1 -11  -2   17.50    1.42
   1  11  -2   15.02    1.38
  -1  11   2   17.35    1.21
   0 -11   2    1.70    0.88
   0  11  -2    2.17    0.94
   0 -11  -2    2.27    0.65
  -1 -11  -2   11.60    1.35
  -1  11  -2    9.67    1.28
  -1 -11  -2   10.31    1.05
   1 -11   2   10.01    1.32
  -2 -11  -2   18.98    1.60
  -2  11  -2   20.51    1.55
   2 -11   2   18.35    1.61
  -2 -11  -2   16.33    1.14
  -3 -11  -2    1.24    0.82
   3 -11   2    1.39    0.76
  -3  11  -2    1.97    0.73
  -3 -11  -2    1.77    0.56
  -4 -11  -2   14.34    1.64
   4 -11   2   11.51    1.48
  -4  11  -2   10.79    1.23
  -5  11  -2   29.73    1.83
   5 -11   2   25.10    1.90
  -5 -11  -2   25.38    1.99
   6 -11   2   19.93    1.83
  -6  11  -2   20.91    1.62
  -6 -11  -2   22.48    1.95
  -7 -11  -2    1.97    1.13
  -7  11  -2    3.45    0.97
   7 -11   2    3.31    1.09
  -8 -11  -2    8.11    1.57
  -8  11  -2   10.55    1.32
   8 -11   2    8.22    1.46
  -9 -11  -2    0.38    1.15
  -9  11  -2    1.23    0.86
   9 -11   2    0.15    1.00
 -10 -11  -2   -0.09    1.03
  10 -11   2    0.87    1.11
 -10  11  -2    0.90    0.87
 -11 -11  -2   -0.39    1.15
  11 -11   2    1.72    1.31
 -11  11  -2    1.28    0.99
 -12 -11  -2    3.95    1.49
 -12  11  -2    1.46    0.88
 -12  11  -2    3.50    1.17
 -13  11  -2    0.71    1.09
 -13  11  -2   -0.49    0.90
 -13 -11  -2    1.90    1.48
 -13 -12   2    2.00    1.50
 -13  12   2   -0.23    0.83
 -12 -12   2    0.20    1.28
 -12  12   2   -0.03    0.77
 -12  12   2   -1.50    1.05
 -11 -12   2    0.72    1.20
 -11  12   2    2.64    0.80
 -10 -12   2    5.49    1.00
 -10  12   2    4.89    1.14
 -10  12   2    3.96    0.91
 -10 -12   2    5.02    1.47
  -9  12   2   16.81    1.37
  -9  12   2   16.73    1.70
  -9 -12   2   14.80    1.80
  -8 -12   2    0.94    1.06
  -8 -12   2    1.88    0.87
  -8  12   2    1.46    0.66
  -8  12   2    1.64    0.97
  -7 -12   2    4.18    1.18
  -7 -12   2    5.44    1.04
  -7  12   2    3.22    1.06
  -7  12   2    4.72    0.86
  -6  12   2   39.95    1.81
  -6 -12   2   39.15    2.25
  -6 -12   2   34.55    2.45
  -6  12   2   41.15    2.34
  -5  12   2   19.33    1.66
  -5  12   2   18.49    1.29
  -5 -12   2   18.54    1.71
  -4 -12   2    5.45    1.22
  -4 -12   2    6.77    1.11
  -4  12   2    5.41    0.87
  -4  12   2    4.22    1.04
  -3  12   2    1.82    0.67
  -3 -12   2    3.50    0.92
  -2 -12   2  188.61    4.72
   2  12  -2  182.83    4.71
  -1 -12   2  211.38    5.02
  -1  12   2  189.95    3.96
   1  12  -2  205.07    4.80
   1 -12  -2  192.54    4.63
   0 -12  -2  188.92    4.41
   0  12   2  200.94    4.33
   0 -12   2  184.70    4.78
   0  12  -2  185.75    4.62
  -1 -12  -2  145.62    3.55
  -1 -12  -2  151.46    4.24
   1 -12   2  148.18    4.28
  -2 -12  -2   18.35    1.74
  -2  12  -2   23.24    1.69
   2 -12   2   22.20    1.91
  -2 -12  -2   19.84    1.29
   3 -12   2   10.24    1.47
  -3 -12  -2    8.94    0.87
  -3  12  -2    9.63    1.19
  -3 -12  -2    8.94    1.28
  -4 -12  -2    2.10    1.01
  -4  12  -2    0.44    0.71
   4 -12   2    0.27    0.88
  -5  12  -2    7.06    1.05
  -5 -12  -2    7.16    1.35
   5 -12   2    6.03    1.28
   6 -12   2   32.34    2.28
  -6  12  -2   36.09    2.15
  -6 -12  -2   35.15    2.42
   7 -12   2   43.38    2.77
  -7  12  -2   46.77    2.32
  -7 -12  -2   41.68    2.74
  -8 -12  -2    1.14    1.01
  -8  12  -2    2.19    0.97
   8 -12   2    1.10    1.02
  -9 -12  -2    4.72    1.43
  -9  12  -2    3.29    1.02
   9 -12   2    1.87    1.16
  10 -12   2    7.32    1.68
 -10  12  -2    6.38    1.26
 -10 -12  -2    4.00    1.36
 -11 -12  -2    2.22    1.43
 -11  12  -2    2.13    1.01
  11 -12   2    0.40    1.27
 -12 -12  -2    1.74    1.59
 -12  12  -2    2.08    0.96
 -12  12  -2   -0.64    1.05
 -13  12  -2   -0.06    1.03
 -13  13   2    1.48    1.08
 -12 -13   2    1.54    1.38
 -12  13   2   -0.57    0.98
 -11 -13   2    0.79    1.28
 -11  13   2    2.34    1.10
 -11  13   2    2.93    0.88
 -10 -13   2    0.44    1.24
 -10  13   2    3.38    1.13
 -10  13   2    1.10    0.78
  -9 -13   2   10.02    1.68
  -9  13   2   12.93    1.63
  -9 -13   2   13.11    1.41
  -9  13   2   14.75    1.35
  -8 -13   2    1.63    1.15
  -8  13   2    0.65    0.65
  -8  13   2    0.81    1.03
  -8 -13   2    1.56    0.89
  -7 -13   2    0.69    1.02
  -7  13   2    3.34    1.11
  -7  13   2    1.43    0.67
  -7 -13   2    1.76    0.97
  -6 -13   2   -1.22    1.11
  -6  13   2    0.75    0.67
  -6 -13   2    1.04    0.75
  -6  13   2    0.27    0.95
  -5 -13   2   25.49    2.24
  -5  13   2   26.37    1.59
  -5  13   2   28.65    2.10
  -5 -13   2   29.61    1.98
  -4 -13   2    5.28    1.31
  -4  13   2    6.22    0.95
  -4  13   2    4.70    1.18
  -4 -13   2    5.27    1.05
   3  13  -2   10.65    1.42
  -3  13   2   13.72    1.59
  -3  13   2   10.83    1.10
  -3 -13   2   10.88    1.45
  -2 -13   2   11.17    1.36
   2  13  -2   12.81    1.47
  -2  13   2   14.80    1.28
  -1  13   2  119.65    3.30
   1  13  -2  120.97    3.86
  -1 -13   2  129.77    4.14
   0  13   2  205.16    4.48
   0 -13   2  211.17    5.30
   0  13  -2  210.52    5.00
  -1 -13  -2    0.20    0.70
  -1  13  -2    1.43    0.80
   1 -13   2    0.24    0.87
  -2 -13  -2   47.20    2.04
  -2 -13  -2   55.12    2.95
   2 -13   2   52.95    2.82
  -2  13  -2   53.94    2.54
   3 -13   2    3.94    1.18
  -3 -13  -2    5.82    1.27
  -3 -13  -2    2.61    0.68
  -3  13  -2    5.04    1.09
  -4  13  -2   27.61    1.95
   4 -13   2   30.15    2.27
  -4 -13  -2   33.64    2.38
   5 -13   2   22.69    2.05
  -5  13  -2   21.36    1.63
  -5 -13  -2   19.20    1.91
  -6  13  -2   18.16    1.60
   6 -13   2   14.05    1.77
  -6 -13  -2   12.67    1.66
   7 -13   2    0.10    1.00
  -7 -13  -2    1.36    1.07
  -7  13  -2    3.05    1.05
  -8 -13  -2    0.52    1.02
   8 -13   2    0.88    1.11
  -8  13  -2    2.33    1.05
  -9 -13  -2    6.82    1.57
  -9  13  -2    5.94    1.15
   9 -13   2    4.46    1.34
 -10 -13  -2    1.04    1.26
 -10  13  -2    0.44    0.89
  10 -13   2   -0.18    1.19
 -11 -13  -2    1.66    1.44
 -11  13  -2    2.32    1.14
  11 -13   2    0.71    1.30
 -12 -13  -2   -0.78    1.32
 -12  13  -2   -1.51    1.02
 -12  14   2   -0.32    1.02
 -11 -14   2    3.05    1.50
 -11  14   2    1.36    1.07
 -10 -14   2   -0.09    1.12
 -10  14   2   -0.23    1.00
  -9 -14   2    1.69    1.32
  -9  14   2   -0.27    0.71
  -9  14   2    2.23    1.20
  -8  14   2   37.51    2.59
  -8 -14   2   37.48    2.79
  -8  14   2   34.73    1.90
  -8 -14   2   38.69    2.28
  -7  14   2   28.51    2.41
  -7 -14   2   29.49    2.53
  -7  14   2   27.52    1.67
  -7 -14   2   29.41    2.04
  -6 -14   2   48.07    3.20
  -6  14   2   45.27    2.85
  -6  14   2   38.44    1.93
  -6 -14   2   47.06    2.56
  -5 -14   2    8.39    1.27
  -5 -14   2    7.65    1.50
  -5  14   2    7.30    1.50
  -5  14   2    6.31    0.96
  -4  14   2    4.53    0.88
  -4 -14   2    3.74    1.05
  -4  14   2    6.29    1.41
  -3 -14   2   19.19    1.73
  -3  14   2   21.55    1.97
   3  14  -2   19.41    1.83
  -3  14   2   18.11    1.36
  -2  14   2  244.44    4.93
  -2 -14   2  258.66    5.96
   1  14  -2  141.19    4.35
  -1  14   2  140.67    3.81
  -1 -14   2  144.94    4.53
   0  14   2   61.37    2.55
   0  14  -2   69.32    3.07
   0 -14   2   70.34    3.20
  -1  14  -2   55.43    2.72
   1  14   2   56.28    2.55
   1 -14   2   56.42    2.91
  -2 -14  -2   17.95    1.78
  -2  14  -2   16.90    1.68
   2 -14   2   18.74    1.86
  -3 -14  -2   62.65    3.24
  -3  14  -2   62.74    2.81
   3 -14   2   62.44    3.22
  -4  14  -2  112.28    3.74
  -4 -14  -2  111.93    4.33
   4 -14   2  114.82    4.38
   5 -14   2   15.12    1.88
  -5 -14  -2   13.40    1.75
  -5  14  -2   14.97    1.51
  -6  14  -2   19.98    1.73
   6 -14   2   16.29    1.81
  -6 -14  -2   16.60    2.02
  -7 -14  -2    5.72    1.50
   7 -14   2    5.66    1.47
  -7  14  -2    4.27    1.09
  -8 -14  -2    9.64    1.86
  -8  14  -2    9.66    1.41
   8 -14   2    7.91    1.59
  -9 -14  -2   19.92    2.38
  -9  14  -2   25.80    2.02
   9 -14   2   21.64    2.43
 -10 -14  -2    3.16    1.61
  10 -14   2    4.14    1.44
 -10  14  -2    2.30    1.08
 -11 -14  -2    2.00    1.51
 -11  14  -2    2.39    1.13
 -11  15   2    6.73    1.52
 -10 -15   2   -0.09    1.26
 -10  15   2    1.80    1.23
  -9 -15   2    1.60    1.34
  -9  15   2    0.50    1.32
  -8 -15   2    2.22    1.44
  -8  15   2   -1.65    1.34
  -8  15   2    1.16    0.77
  -7 -15   2    9.64    1.41
  -7 -15   2   11.47    1.91
  -7  15   2    9.56    1.15
  -7  15   2    7.42    1.57
  -6 -15   2   12.42    1.86
  -6 -15   2   12.94    1.50
  -6  15   2   16.99    2.15
  -6  15   2   12.45    1.23
  -5 -15   2   14.28    1.60
  -5  15   2   12.96    1.28
  -4 -15   2    4.41    1.18
  -4  15   2    4.46    1.41
  -4  15   2    2.53    0.79
   4  15  -2    4.34    1.21
  -3 -15   2    6.48    1.33
  -3  15   2    7.39    1.52
  -3  15   2    6.47    1.09
   3  15  -2    5.84    1.27
  -2  15   2    3.41    1.15
  -2  15   2    3.36    0.83
  -2 -15   2    3.15    1.09
   2  15  -2    3.29    1.11
   1  15  -2   10.59    1.54
  -1  15   2    9.99    1.21
  -1 -15   2   12.07    1.60
   0  15   2   12.62    1.34
   0 -15   2   12.37    1.62
   0  15  -2   13.09    1.58
   1  15   2    8.22    1.20
  -1  15  -2    9.57    1.40
   1 -15   2   10.52    1.63
   2 -15   2    4.83    1.23
  -2  15  -2    5.99    1.30
  -3 -15  -2    0.18    1.04
  -3  15  -2    1.31    0.84
   3 -15   2    1.81    1.15
  -4 -15  -2    0.03    1.08
   4 -15   2   -0.57    1.11
  -4  15  -2    1.53    0.99
  -5 -15  -2    0.30    1.01
  -5  15  -2   -0.46    0.85
   5 -15   2   -0.32    1.06
   6 -15   2    5.07    1.50
  -6 -15  -2    7.56    1.58
  -6  15  -2    8.73    1.36
   7 -15   2    0.59    1.07
  -7 -15  -2    0.31    1.15
  -7  15  -2    0.15    0.90
  -8 -15  -2    4.71    1.62
  -8  15  -2    5.03    1.19
   8 -15   2    0.78    1.22
  -9 -15  -2   -0.39    1.21
  -9  15  -2   -0.52    0.91
   9 -15   2    2.13    1.43
 -10 -15  -2    0.27    1.42
 -10  15  -2   -2.41    1.19
  -9 -16   2    6.83    1.68
  -9  16   2    8.07    1.83
  -8 -16   2    2.31    1.41
  -8  16   2    2.98    1.69
  -7 -16   2    3.22    1.47
  -7  16   2    2.13    1.54
  -6 -16   2    9.88    1.50
  -6  16   2   13.52    2.26
  -6  16   2    8.74    1.10
  -6 -16   2    9.68    1.70
  -5  16   2   23.16    1.64
  -5 -16   2   26.64    2.20
   5  16  -2   29.03    2.42
  -4  16   2   30.20    2.78
   4  16  -2   25.34    2.20
  -4  16   2   22.95    1.65
  -4 -16   2   23.23    2.14
   3  16  -2   21.27    1.98
  -3  16   2   19.23    1.59
  -3 -16   2   18.76    1.88
  -2  16   2    1.70    1.29
  -2 -16   2    1.44    1.05
   2  16  -2    2.08    1.05
  -2  16   2    1.45    0.81
  -1  16   2   18.67    1.94
  -1  16   2   16.19    1.54
   1  16  -2   16.82    1.76
  -1 -16   2   18.06    1.96
   0  16  -2   65.94    3.30
   0  16   2   61.04    2.92
   0 -16   2   61.07    3.46
   1  16   2   38.42    2.25
  -1  16  -2   43.29    2.66
   1 -16   2   39.04    2.81
   2  16   2   36.09    2.28
  -2  16  -2   34.39    2.38
   2 -16   2   35.08    2.77
  -3  16  -2    4.65    1.24
   3 -16   2    3.49    1.37
  -4 -16  -2    0.78    1.05
  -4  16  -2   -0.62    0.95
   4 -16   2   -0.67    1.08
  -5 -16  -2    8.02    1.64
   5 -16   2    7.89    1.58
  -5  16  -2    6.50    1.29
   6 -16   2    3.39    1.31
  -6 -16  -2    3.35    1.30
  -6  16  -2    1.97    1.00
  -7 -16  -2    0.38    1.23
  -7  16  -2    1.06    0.94
   7 -16   2    1.26    1.24
  -8 -16  -2    2.79    1.48
  -8  16  -2    0.36    0.94
   8 -16   2    0.92    1.33
  -9 -16  -2    0.50    1.30
  -9  16  -2   -0.52    0.98
  -8  17   2    4.96    2.34
  -7  17   2    0.38    1.72
  -7 -17   2   -0.14    1.28
  -6  17   2    0.45    1.77
   6  17  -2    2.69    1.36
  -5 -17   2    1.57    1.03
  -5  17   2    3.55    1.99
   5  17  -2    3.17    1.30
  -4  17   2    2.30    1.67
  -4  17   2   -0.18    0.76
  -4 -17   2    1.13    1.01
   4  17  -2    0.52    1.00
  -3  17   2    4.07    1.52
   3  17  -2    4.25    1.26
  -3 -17   2    3.42    1.27
  -3  17   2    4.48    1.06
  -2  17   2    0.25    0.76
  -2 -17   2   -0.73    1.06
  -2  17   2    1.65    1.24
   2  17  -2    0.78    1.08
  -1 -17   2   -0.70    1.06
   1  17  -2    0.73    1.10
  -1  17   2    1.14    0.98
  -1  17   2   -0.26    1.07
   0  17   2    0.79    0.89
   0 -17   2    0.64    1.03
   0  17  -2   -0.58    1.00
   1  17   2   -0.07    0.90
  -1  17  -2    1.21    1.01
   1 -17   2    1.49    1.18
   2 -17   2    6.95    1.54
  -2  17  -2    7.72    1.46
   2  17   2    7.52    1.31
  -3  17  -2    4.59    1.26
   3 -17   2    2.98    1.21
   3  17   2    2.92    1.09
  -4 -17  -2    0.03    1.22
   4 -17   2    3.02    1.35
  -4  17  -2    2.77    1.14
  -5 -17  -2   13.39    2.01
  -5  17  -2   13.89    1.75
   5 -17   2   13.00    2.17
  -6 -17  -2    2.25    1.38
   6 -17   2    2.39    1.39
  -6  17  -2    1.09    1.06
  -7 -17  -2    3.09    1.46
  -7  17  -2   -1.24    1.08
  -8 -17  -2    3.85    1.71
  -7  18   2    7.39    2.30
  -6  18   2    2.67    2.12
   5  18  -2   12.54    1.86
  -5  18   2    9.49    2.50
  -4 -18   2    5.30    1.48
   4  18  -2    6.41    1.43
  -4  18   2    5.95    2.31
   3  18  -2   18.63    2.07
  -3  18   2   18.05    2.47
  -3 -18   2   17.46    2.09
  -2  18   2   15.18    1.63
   2  18  -2   14.72    1.91
  -2 -18   2   16.87    2.24
  -1 -18   2   26.95    2.50
   1  18  -2   26.52    2.41
  -1  18   2   22.32    1.90
   0 -18   2    7.59    1.66
   0  18   2    7.24    1.36
   0  18  -2    7.61    1.51
  -1  18  -2    4.88    1.33
   1  18   2    3.24    1.07
   1 -18   2    4.72    1.48
   2 -18   2   30.07    2.82
   2  18   2   24.63    2.02
  -2  18  -2   29.34    2.39
   3 -18   2   26.25    2.74
  -3  18  -2   23.41    2.12
   3  18   2   23.66    2.09
   4 -18   2    9.08    1.90
   4  18   2    7.87    1.45
  -4  18  -2    7.46    1.48
  -5 -18  -2    5.58    1.61
  -5  18  -2    6.95    1.34
  -6 -18  -2    1.38    1.36
  -5  19   2   -2.17    2.17
  -4  19   2    4.94    2.13
  -3 -19   2   -1.14    1.22
  -2 -19   2    1.44    1.20
  -1 -19   2   -0.64    1.24
   0 -19   2    0.23    1.20
   1  19   2    0.67    1.01
   1 -19   2   -0.08    1.28
   2  19   2    0.40    0.92
   2 -19   2    0.65    1.20
   3  19   2    4.46    1.27
   4  19   2   -1.31    1.21
 -19   0   3    0.41    0.96
 -19   0   3    1.20    1.36
 -18   0   3   -0.21    0.97
 -18   0   3   -3.02    1.30
 -17   0   3   -0.51    1.07
 -17   0   3   -0.56    0.82
 -16   0   3    0.68    1.10
 -16   0   3    0.89    0.86
 -15   0   3    0.44    0.82
 -15   0   3   -1.25    1.08
 -14   0   3   -0.98    0.77
 -14   0   3    0.29    0.89
 -13   0   3   -0.73    0.77
 -13   0   3    0.83    0.84
 -12   0   3    0.16    0.68
 -12   0   3    1.08    0.74
 -11   0   3    0.54    0.69
 -11   0   3    1.39    0.78
 -10   0   3   -0.70    0.69
 -10   0   3   -1.88    0.81
  -9   0   3    2.10    0.60
  -9   0   3    1.79    0.66
  -8   0   3   -0.31    0.57
  -8   0   3    0.25    0.46
  -7   0   3    0.19    0.48
   7   0  -3    0.23    0.37
  -7   0   3   -0.06    0.45
   6   0  -3    3.75    0.47
  -6   0   3    2.79    0.51
  -6   0   3    3.12    0.46
   5   0  -3    3.90    0.49
  -5   0   3    3.79    0.51
  -5   0   3    3.04    0.61
  -4   0   3    2.56    0.38
   4   0  -3    2.60    0.45
   4   0  -3    2.98    0.36
  -4   0   3    2.76    0.56
  -3   0   3    1.75    0.32
   3   0  -3    2.65    0.44
   3   0  -3    2.30    0.33
  -3   0   3    2.09    0.47
   2   0  -3    3.15    0.32
   2   0  -3    3.26    0.46
  -2   0   3    4.18    0.54
   2   0  -3    4.04    0.40
  -1   0   3    0.79    0.29
  -1   0   3    0.90    0.25
   1   0  -3    0.85    0.22
   1   0  -3    0.86    0.27
   0   0   3    7.42    0.59
   0   0  -3    9.67    0.51
   0   0   3    8.38    0.52
   0   0  -3    7.86    0.59
   1   0   3    0.97    0.32
  -1   0  -3    1.28    0.32
   1   0   3    0.63    0.37
  -1   0  -3    1.04    0.35
   2   0   3    3.65    0.48
  -2   0  -3    3.69    0.49
   2   0   3    3.51    0.52
  -2   0  -3    3.79    0.46
  -3   0  -3   -0.13    0.34
  -3   0  -3   -0.67    0.47
   3   0   3    0.15    0.37
   3   0   3   -0.63    0.42
  -4   0  -3    1.26    0.41
  -4   0  -3    1.61    0.56
   4   0   3    0.77    0.37
  -5   0  -3    1.43    0.40
  -5   0  -3    0.91    0.57
   5   0   3    1.50    0.46
  -6   0  -3    3.31    0.54
  -6   0  -3    2.75    0.74
   6   0   3    2.21    0.54
  -7   0  -3    0.49    0.42
  -7   0  -3    0.32    0.60
   7   0   3   -0.54    0.52
  -8   0  -3    1.58    0.76
  -9   0  -3    0.10    0.44
  -9   0  -3    0.48    0.65
 -10   0  -3    0.47    0.77
 -10   0  -3   -0.19    0.53
 -11   0  -3   -0.07    0.72
 -11   0  -3    0.11    0.48
 -12   0  -3    0.61    0.57
 -12   0  -3    0.29    0.81
 -13   0  -3   -0.78    0.97
 -14   0  -3    1.14    1.01
 -15   0  -3    1.14    1.17
 -16   0  -3   -0.03    1.02
 -19   1   3   -0.16    0.95
 -18   1   3    2.11    1.14
 -18   1   3    0.32    1.20
 -18  -1   3    2.05    1.34
 -18  -1   3    2.45    1.02
 -17   1   3    1.75    0.93
 -17   1   3    2.86    1.26
 -17  -1   3    2.46    1.00
 -17  -1   3    1.99    1.30
 -16   1   3    0.66    0.82
 -16   1   3   -0.30    1.05
 -16  -1   3   -0.57    0.83
 -16  -1   3    1.29    1.20
 -15   1   3    3.99    1.05
 -15   1   3    2.25    1.12
 -15  -1   3    3.90    0.96
 -15  -1   3    2.14    1.10
 -14   1   3    6.46    1.15
 -14   1   3    4.53    1.20
 -14  -1   3    3.72    0.89
 -14  -1   3    3.91    1.09
 -13   1   3    9.47    1.15
 -13  -1   3    9.58    1.35
 -13  -1   3    8.71    1.12
 -13   1   3    9.78    1.33
 -12   1   3    3.77    0.86
 -12   1   3    5.33    1.07
 -12  -1   3    5.19    0.95
 -12  -1   3    5.05    1.06
 -11   1   3    0.62    0.64
 -11   1   3    1.57    0.76
 -11  -1   3    1.53    0.66
 -11  -1   3    2.16    0.82
 -10  -1   3   57.18    2.24
 -10   1   3   63.56    2.41
 -10  -1   3   58.18    2.36
  -9   1   3    6.75    0.86
  -9   1   3    7.45    0.85
  -9  -1   3    6.49    0.95
  -9  -1   3    5.06    0.75
  -8   1   3   85.22    2.39
   8  -1  -3   75.56    2.07
  -8  -1   3   93.36    2.61
  -8   1   3   78.48    2.44
  -8  -1   3   96.28    2.80
  -7   1   3  509.65    5.84
   7  -1  -3  495.58    4.65
  -7  -1   3  523.26    5.78
   7   1  -3  489.35    5.01
  -7   1   3  515.38    5.07
  -7  -1   3  523.20    5.72
  -6   1   3  128.90    2.86
   6  -1  -3  133.80    2.22
   6   1  -3  128.14    2.34
  -6  -1   3  128.32    2.83
  -6   1   3  137.62    2.42
  -6  -1   3  131.28    2.66
   5   1  -3   58.63    1.54
   5  -1  -3   62.16    1.36
  -5   1   3   61.04    1.82
  -5  -1   3   58.93    1.87
  -5   1   3   68.78    1.50
  -5  -1   3   60.90    1.70
   4  -1  -3  854.38    3.80
   4  -1  -3  823.30    5.81
   4   1  -3  809.10    6.09
  -4   1   3  852.19    6.31
  -4  -1   3  816.33    6.43
   4   1  -3  850.62    5.47
  -4   1   3  835.70    4.22
  -4  -1   3  836.05    5.79
  -3   1   3  648.17    3.18
  -3  -1   3  657.79    4.71
   3  -1  -3  655.27    4.94
  -3   1   3  665.62    5.28
   3   1  -3  674.13    5.36
   3  -1  -3  672.81    2.70
  -3  -1   3  651.08    5.42
   2   1  -3 1171.79    5.43
   2  -1  -3 1212.94    6.43
  -2   1   3 1119.41    6.32
   2   1  -3 1186.18    6.84
  -2  -1   3 1175.45    6.96
   2  -1  -3 1236.70    3.88
   2  -1  -3 1077.74    3.09
   2   1  -3 1197.18    6.00
  -1   1   3 1078.24    4.01
  -1   1   3 1020.33    5.86
   1  -1  -3 1049.68    5.65
   1   1  -3 1038.36    6.32
   1  -1  -3 1090.83    3.61
  -1  -1   3 1101.53    7.04
   0  -1   3  211.98    3.03
   0   1  -3  204.69    2.35
   0   1   3  221.80    2.11
   0  -1  -3  226.62    2.08
   0  -1  -3  214.38    2.49
   0  -1   3  228.95    2.73
   0   1   3  207.22    2.57
   0   1  -3  208.25    2.85
   1   1   3  420.62    3.62
   1  -1   3  440.51    3.95
  -1   1  -3  425.22    3.71
   1   1   3  438.38    3.41
  -1  -1  -3  433.69    3.48
  -1  -1  -3  427.45    3.31
  -1   1  -3  433.44    4.14
   1  -1   3  425.93    4.38
  -2   1  -3 1224.56    7.36
  -2  -1  -3 1145.94    6.72
   2   1   3 1244.07    6.17
   2  -1   3 1258.28    7.18
   2   1   3 1276.41    6.48
  -2   1  -3 1314.24    7.14
   2  -1   3 1187.68    7.38
  -2  -1  -3 1260.73    5.58
  -3   1  -3   37.29    1.38
   3   1   3   34.05    1.33
  -3   1  -3   38.96    1.35
   3  -1   3   36.42    1.35
  -3  -1  -3   34.86    1.42
   3   1   3   34.36    1.16
   3  -1   3   33.37    1.29
  -3  -1  -3   31.70    1.01
  -4  -1  -3  288.19    3.18
   4  -1   3  276.36    3.74
  -4   1  -3  301.51    3.89
   4   1   3  290.21    3.23
  -4   1  -3  297.49    3.94
  -4  -1  -3  302.18    4.27
  -5  -1  -3  355.39    4.87
  -5  -1  -3  380.69    3.80
  -5   1  -3  352.79    4.47
   5  -1   3  338.70    4.37
   5   1   3  370.21    3.79
  -5   1  -3  356.36    4.63
  -6  -1  -3    5.88    0.60
   6   1   3    6.02    0.63
  -6   1  -3    4.45    0.65
  -6  -1  -3    6.12    0.84
  -6   1  -3    4.13    0.76
   6  -1   3    4.93    0.72
   7  -1   3  270.75    4.38
  -7   1  -3  252.96    4.50
  -7  -1  -3  271.34    3.69
  -7  -1  -3  248.87    4.34
  -8   1  -3   98.08    3.10
  -8  -1  -3  105.42    2.14
  -8  -1  -3  103.54    3.03
  -8  -1  -3  105.75    2.55
   8  -1   3  107.66    2.96
  -9  -1  -3   16.89    0.94
  -9   1  -3   19.83    1.52
  -9  -1  -3   17.03    1.45
 -10   1  -3   58.80    2.57
 -10  -1  -3   54.95    1.66
 -10  -1  -3   54.41    2.50
 -10   1  -3   61.72    2.07
 -11   1  -3    1.67    0.71
 -11  -1  -3    1.15    0.53
 -11   1  -3    0.60    0.70
 -11  -1  -3    0.02    0.77
 -12   1  -3    1.75    0.92
 -12   1  -3   -0.02    0.57
 -12  -1  -3    0.04    0.84
 -12  -1  -3   -0.04    0.49
 -13   1  -3   11.78    1.45
 -13  -1  -3   10.70    1.46
 -13   1  -3   10.99    1.08
 -14   1  -3    0.46    1.02
 -14  -1  -3   -0.28    0.94
 -15   1  -3    2.32    1.16
 -15  -1  -3    2.58    1.22
 -16   1  -3   -0.41    1.04
 -16  -1  -3   -1.40    1.22
 -18   2   3    4.69    1.31
 -18   2   3    1.68    1.27
 -18  -2   3    1.27    1.29
 -18  -2   3    1.30    0.99
 -17   2   3    1.53    0.97
 -17   2   3    0.03    1.04
 -17  -2   3   -0.89    1.26
 -17  -2   3    1.24    0.97
 -16   2   3    1.76    0.89
 -16   2   3    2.90    1.13
 -16  -2   3    2.05    1.29
 -16  -2   3    1.85    0.92
 -15   2   3   12.64    1.43
 -15  -2   3   13.58    1.41
 -15   2   3   10.53    1.51
 -15  -2   3   11.35    1.75
 -14   2   3   10.62    1.28
 -14  -2   3    9.93    1.21
 -14   2   3    9.22    1.39
 -14  -2   3    6.34    1.34
 -13   2   3    0.16    0.72
 -13   2   3   -0.20    0.84
 -13  -2   3    0.80    0.64
 -13  -2   3    0.07    0.86
 -12   2   3   11.00    1.21
 -12  -2   3   10.29    1.14
 -12   2   3   10.89    1.27
 -12  -2   3   11.46    1.45
 -11   2   3   67.21    2.57
 -11   2   3   65.36    2.56
 -11  -2   3   64.31    2.42
 -11  -2   3   68.31    2.93
 -10   2   3    1.73    0.74
 -10   2   3    1.29    0.57
 -10  -2   3    1.84    0.59
 -10  -2   3    1.87    0.76
  -9  -2   3   63.71    2.23
  -9   2   3   59.59    2.11
  -9  -2   3   65.36    2.44
  -9   2   3   61.20    2.29
  -8   2   3   85.17    2.23
  -8   2   3   84.81    2.51
   8  -2  -3   84.81    2.08
  -8  -2   3   75.15    2.37
  -8  -2   3   86.38    2.77
   7  -2  -3  147.07    2.48
  -7   2   3  153.17    2.64
  -7  -2   3  158.99    3.37
  -7   2   3  151.70    3.21
   6   2  -3   13.65    0.94
  -6   2   3   17.95    1.07
   6  -2  -3   15.63    0.77
  -6   2   3   16.62    0.79
  -6  -2   3   12.42    1.01
  -6  -2   3   12.92    1.04
  -5  -2   3  147.34    2.98
  -5   2   3  149.35    2.92
  -5   2   3  164.93    2.05
   5   2  -3  148.24    2.73
   5  -2  -3  162.60    1.90
  -5  -2   3  142.35    2.78
   4  -2  -3   94.73    1.11
  -4   2   3  101.16    2.28
   4   2  -3  103.30    2.27
  -4   2   3  104.63    1.28
  -4  -2   3  112.58    2.49
   4   2  -3  108.00    2.27
   4  -2  -3   99.31    2.15
  -4  -2   3  109.70    2.38
  -3  -2   3  172.34    2.75
   3  -2  -3  160.53    2.52
   3   2  -3  171.80    2.80
  -3  -2   3  184.10    3.02
   3   2  -3  181.44    2.87
  -3   2   3  166.43    2.56
   2   2  -3  697.85    5.02
   2  -2  -3  740.98    4.88
   2   2  -3  728.98    5.76
  -2  -2   3  726.13    6.00
  -2   2   3  710.33    4.93
   2   2  -3  735.27    5.40
  -1  -2   3   73.36    1.96
   1   2  -3   72.28    1.77
  -1   2   3   63.45    0.81
   1  -2  -3   69.88    1.43
  -1   2   3   70.46    1.49
   1  -2  -3   69.97    0.83
   1   2  -3   67.09    1.55
   1   2  -3   65.53    1.66
   0  -2   3  607.15    5.59
   0   2  -3  608.08    5.21
   0  -2   3  620.85    4.97
   0   2  -3  613.33    4.76
   0   2   3  637.78    3.51
   0  -2  -3  645.49    3.57
   0   2   3  588.02    4.15
   0  -2  -3  612.72    3.93
  -1   2  -3 1002.92    6.98
   1  -2   3 1025.15    6.62
  -1   2  -3  999.36    6.12
   1  -2   3 1032.31    7.44
  -1  -2  -3  996.09    4.64
  -1  -2  -3  985.47    5.39
   1   2   3  995.19    5.02
  -2   2  -3 3195.79   12.92
   2   2   3 3097.30    8.74
  -2   2  -3 3245.35   11.75
   2   2   3 3388.38   10.99
  -2  -2  -3 2954.15   10.69
  -2  -2  -3 3228.40    7.89
   2  -2   3 3121.44   12.89
   2  -2   3 3249.32   12.27
  -3  -2  -3  252.65    3.56
  -3   2  -3  257.18    3.38
   3   2   3  253.79    3.42
  -3  -2  -3  268.75    2.29
  -3   2  -3  258.22    3.85
   3  -2   3  249.25    3.69
   4  -2   3   39.50    1.57
  -4   2  -3   42.62    1.72
  -4   2  -3   40.51    1.52
   4   2   3   43.19    1.06
  -4  -2  -3   43.92    1.67
  -4  -2  -3   45.42    0.99
  -5  -2  -3   86.21    1.54
   5   2   3   83.89    1.55
  -5   2  -3   77.85    2.22
   5  -2   3   76.01    2.33
  -5  -2  -3   78.09    2.35
  -6  -2  -3    7.21    0.58
  -6   2  -3   10.12    0.94
  -6  -2  -3    6.65    0.88
   6  -2   3    7.28    0.84
  -7  -2  -3    2.87    0.40
  -7  -2  -3    3.19    0.48
  -7   2  -3    0.95    0.65
  -7  -2  -3    1.76    0.65
   7  -2   3    1.49    0.65
  -8  -2  -3    2.36    0.39
   8  -2   3    3.41    0.80
  -8   2  -3    3.52    0.81
  -8  -2  -3    3.56    0.90
  -8  -2  -3    2.57    0.48
   9  -2   3   26.64    1.74
  -9  -2  -3   28.09    1.04
  -9   2  -3   25.21    1.68
  -9  -2  -3   29.33    1.92
  -9  -2  -3   24.07    1.18
 -10  -2  -3    0.82    0.40
 -10   2  -3    0.64    0.55
 -10   2  -3    0.10    0.74
 -10  -2  -3    0.39    0.83
 -11   2  -3   10.63    1.12
 -11  -2  -3   10.29    0.76
 -11  -2  -3    9.75    1.27
 -11   2  -3   11.32    1.38
 -12   2  -3    2.28    0.77
 -12  -2  -3    0.21    0.84
 -12   2  -3    0.11    0.79
 -13   2  -3   -0.77    0.70
 -13   2  -3   -0.08    0.81
 -13  -2  -3    0.11    0.89
 -14   2  -3    1.56    0.71
 -14   2  -3    0.78    1.00
 -14  -2  -3    2.26    1.08
 -15   2  -3    3.44    1.24
 -15  -2  -3    3.13    1.28
 -18   3   3   -1.24    1.09
 -18   3   3    2.50    1.27
 -18  -3   3   -0.65    1.34
 -17  -3   3   -0.71    0.82
 -17   3   3   -0.84    0.89
 -17   3   3    0.22    1.00
 -17  -3   3    0.65    1.24
 -16   3   3    6.39    1.21
 -16   3   3    4.23    1.24
 -16  -3   3    4.35    1.38
 -16  -3   3    5.35    1.11
 -15   3   3   -0.98    0.81
 -15   3   3    0.77    0.88
 -15  -3   3   -1.77    1.05
 -15  -3   3    0.24    0.74
 -14   3   3    0.39    0.80
 -14   3   3    2.63    1.02
 -14  -3   3   -0.10    0.94
 -14  -3   3    0.82    0.73
 -13   3   3   42.44    2.22
 -13   3   3   37.32    2.13
 -13  -3   3   40.51    2.11
 -13  -3   3   33.87    2.38
 -12  -3   3   10.17    1.15
 -12   3   3   14.30    1.35
 -12   3   3   14.12    1.32
 -12  -3   3   11.57    1.50
 -11   3   3   25.30    1.65
 -11   3   3   23.56    1.55
 -11  -3   3   24.99    1.60
 -11  -3   3   26.48    1.96
 -10   3   3   17.97    1.36
 -10  -3   3   15.91    1.28
 -10  -3   3   18.00    1.64
 -10   3   3   19.99    1.37
  -9   3   3  103.46    2.95
  -9   3   3  105.75    2.63
  -9  -3   3  107.12    2.86
  -9  -3   3  109.56    3.31
  -8  -3   3   76.20    2.38
  -8   3   3   78.43    2.50
   8  -3  -3   69.84    1.91
  -8   3   3   80.05    2.13
  -8  -3   3   79.21    2.65
  -7  -3   3    3.49    0.67
  -7   3   3    4.44    0.52
   7  -3  -3    4.03    0.51
  -7   3   3    4.88    0.69
  -7  -3   3    4.11    0.75
  -6   3   3  762.52    6.95
  -6   3   3  781.82    5.18
  -6  -3   3  769.57    7.54
  -6  -3   3  768.88    7.12
  -5   3   3  150.19    1.85
   5   3  -3  146.99    3.05
  -5  -3   3  155.64    3.10
  -5  -3   3  144.00    3.12
   5  -3  -3  138.00    1.70
  -4   3   3   61.63    1.81
  -4   3   3   60.98    0.89
   4   3  -3   66.04    1.95
  -4  -3   3   70.61    2.05
  -4  -3   3   66.51    2.05
  -3  -3   3  954.33    7.34
   3  -3  -3  988.12    6.49
  -3   3   3  955.14    6.43
   3   3  -3  971.54    7.06
   3   3  -3  966.32    7.12
  -2  -3   3  546.15    5.53
   2   3  -3  541.46    4.91
   2  -3  -3  565.04    4.48
  -2   3   3  554.89    4.38
   2   3  -3  545.27    5.22
   2   3  -3  557.30    5.25
   1   3  -3  278.94    3.94
  -1  -3   3  251.66    3.82
   1   3  -3  254.52    3.55
   1   3  -3  247.89    3.23
  -1   3   3  266.31    1.71
  -1   3   3  265.50    2.79
   1  -3  -3  252.31    1.92
   1  -3  -3  285.69    2.97
   0  -3   3 1894.28    9.79
   0  -3   3 1735.26   10.01
   0  -3  -3 1780.51    6.61
   0   3   3 1753.47    6.78
   0   3   3 1786.48    6.09
   0  -3  -3 1840.78    6.40
   0   3  -3 1704.54    8.59
   0   3  -3 1785.53    9.79
  -1  -3  -3  410.21    2.81
  -1   3  -3  428.62    5.00
   1  -3   3  440.11    4.74
   1  -3   3  414.19    4.90
  -1  -3  -3  421.15    3.59
   1   3   3  405.83    3.05
  -1   3  -3  418.06    4.29
   2   3   3 1779.31    5.83
   2  -3   3 1781.25    9.83
  -2   3  -3 1807.04   10.47
   2  -3   3 1777.24   10.42
  -2  -3  -3 1821.83    5.14
  -2   3  -3 1828.79    9.35
  -2  -3  -3 1832.39    8.47
  -3   3  -3 2858.20   11.94
  -3  -3  -3 2910.83    5.70
   3   3   3 2863.55   11.82
  -3  -3  -3 2895.69   11.83
   3  -3   3 2899.46   13.54
   4   3   3  278.01    1.97
  -4  -3  -3  285.31    1.67
   4  -3   3  355.11    4.88
  -4  -3  -3  351.62    4.65
  -4   3  -3  358.40    4.36
   5  -3   3   57.12    2.11
  -5  -3  -3   52.51    1.98
  -5   3  -3   53.72    1.85
  -5  -3  -3   46.44    0.70
  -6   3  -3  342.74    4.78
   6  -3   3  346.47    5.30
  -7  -3  -3    0.43    0.18
  -7  -3  -3    0.80    0.62
  -7  -3  -3    0.51    0.21
   7  -3   3    0.72    0.63
  -7   3  -3    0.59    0.57
  -8  -3  -3   11.82    0.64
   8  -3   3   15.11    1.35
  -8   3  -3   15.55    1.34
  -8  -3  -3   13.20    0.57
  -8  -3  -3   15.23    1.36
  -9  -3  -3   51.63    1.21
  -9  -3  -3   50.75    2.36
  -9   3  -3   47.30    2.20
   9  -3   3   55.76    2.50
 -10   3  -3    2.39    0.89
 -10  -3  -3    0.46    0.31
  10  -3   3    0.29    0.80
 -10  -3  -3    1.58    0.82
 -11   3  -3   33.37    2.10
 -11  -3  -3   31.49    2.13
 -11   3  -3   38.01    1.85
 -12   3  -3   17.34    1.37
 -12   3  -3   15.28    1.60
 -13   3  -3    9.14    1.15
 -13   3  -3    9.97    1.45
 -13  -3  -3    8.08    1.43
 -14   3  -3    1.05    0.72
 -14   3  -3   -0.71    0.93
 -14  -3  -3   -1.03    1.09
 -15   3  -3    1.01    1.11
 -15  -3  -3    0.38    1.03
 -18   4   3   -0.68    1.05
 -18  -4   3   -0.05    1.27
 -17  -4   3    2.40    0.98
 -17   4   3    1.43    1.05
 -17   4   3   -0.47    0.94
 -17  -4   3   -0.11    1.21
 -16  -4   3   -0.12    0.81
 -16   4   3   -0.26    0.87
 -16   4   3    0.35    0.92
 -16  -4   3    1.67    1.16
 -15  -4   3    4.35    1.06
 -15  -4   3    4.07    1.34
 -15   4   3    6.93    1.24
 -15   4   3    3.26    1.08
 -14  -4   3    1.74    0.87
 -14   4   3    1.68    0.89
 -14  -4   3    0.75    1.00
 -14   4   3   -0.12    0.78
 -13  -4   3    1.33    0.84
 -13   4   3    1.31    0.87
 -13   4   3   -0.44    0.71
 -13  -4   3    2.46    0.98
 -12  -4   3   -0.53    0.68
 -12   4   3   -0.66    0.67
 -12   4   3    1.41    0.71
 -12  -4   3    1.44    0.95
 -11   4   3   12.85    1.28
 -11   4   3   13.15    1.22
 -11  -4   3   14.16    1.28
 -11  -4   3   12.69    1.46
 -10   4   3   24.15    1.62
 -10   4   3   21.96    1.35
 -10  -4   3   16.58    1.32
 -10  -4   3   19.34    1.78
  -9   4   3   79.41    2.64
  -9   4   3   80.50    2.32
  -9  -4   3   86.28    2.68
  -9  -4   3   81.48    2.93
  -8   4   3   53.11    2.09
   8  -4  -3   56.17    1.79
  -8  -4   3   54.24    2.03
  -8   4   3   60.33    1.89
  -8  -4   3   52.52    2.29
  -7  -4   3    1.07    0.65
  -7  -4   3    0.95    0.53
   7  -4  -3    2.93    0.48
  -7   4   3    2.26    0.66
  -7   4   3    1.81    0.44
   6  -4  -3   53.61    1.36
  -6   4   3   48.08    1.84
  -6   4   3   54.97    1.44
  -6  -4   3   52.05    1.93
  -6  -4   3   50.63    2.14
  -5  -4   3    4.94    0.76
   5  -4  -3    3.98    0.39
  -5   4   3    5.79    0.46
  -5   4   3    3.25    0.65
  -5  -4   3    5.81    0.73
  -4   4   3  212.82    3.35
  -4   4   3  216.95    1.86
  -4  -4   3  208.33    3.69
  -4  -4   3  219.67    3.95
  -3  -4   3  301.83    4.38
  -3  -4   3  291.91    4.29
   3  -4  -3  239.73    3.51
  -3   4   3  212.43    1.41
  -3   4   3  274.69    3.56
  -3   4   3  228.03    1.66
   3   4  -3  265.34    3.93
  -2  -4   3  464.01    5.56
   2  -4  -3  427.14    4.29
   2   4  -3  462.52    5.06
  -2   4   3  452.98    4.12
  -2   4   3  421.70    2.16
   2   4  -3  443.49    5.12
  -2   4   3  412.07    2.30
   1   4  -3  260.74    4.12
   1   4  -3  241.42    3.54
   1  -4  -3  257.13    3.03
  -1   4   3  265.50    2.87
  -1   4   3  267.68    2.12
  -1  -4   3  270.40    4.26
   1  -4  -3  260.59    2.39
   0   4   3  427.89    3.27
   0  -4  -3  398.68    3.40
   0   4  -3  407.82    4.52
   0  -4   3  431.79    5.35
   0   4   3  401.71    3.09
   0  -4  -3  428.38    3.56
  -1  -4  -3   12.75    0.58
  -1   4  -3   15.40    0.97
   1   4   3   13.48    0.77
   1  -4   3   16.00    1.15
   1   4   3   11.82    0.55
  -1  -4  -3   11.80    0.77
  -2  -4  -3    6.26    0.36
   2   4   3    8.09    0.75
  -2  -4  -3    7.01    0.73
   2  -4   3    8.49    0.98
   2   4   3    7.04    0.39
  -2   4  -3    7.48    0.80
  -3   4  -3  387.11    4.71
  -3  -4  -3  405.05    4.76
   3  -4   3  381.08    5.29
  -4   4  -3  735.21    6.65
  -4  -4  -3  720.20    6.89
  -5   4  -3   57.05    2.05
   5  -4   3   55.55    2.19
  -5  -4  -3   57.26    2.15
  -6   4  -3   64.66    2.17
  -6  -4  -3   59.78    2.30
  -7   4  -3    1.01    0.61
   7  -4   3    2.91    0.87
  -7  -4  -3    0.89    0.63
   8  -4   3    0.37    0.76
  -8  -4  -3    0.83    0.68
  -8   4  -3    0.47    0.59
  -9   4  -3   68.34    2.60
   9  -4   3   70.63    2.96
  -9  -4  -3   67.81    2.85
  10  -4   3    5.64    1.13
 -10   4  -3    7.45    1.16
 -10  -4  -3    5.98    1.16
 -11   4  -3   10.19    1.11
 -11   4  -3   10.09    1.32
 -11  -4  -3   10.86    1.45
 -12   4  -3    2.89    0.78
 -12   4  -3    2.36    0.92
 -12  -4  -3    5.07    1.17
 -13   4  -3    0.94    0.91
 -13  -4  -3   -0.51    1.01
 -13   4  -3    1.49    0.82
 -14   4  -3    0.85    0.74
 -14   4  -3    0.27    0.90
 -15   4  -3   -0.23    0.79
 -15   4  -3    0.60    1.05
 -15  -4  -3    2.05    1.31
 -17   5   3    1.52    1.00
 -17  -5   3   -0.28    1.44
 -16  -5   3    1.71    0.93
 -16   5   3    2.13    0.97
 -16   5   3    1.70    0.94
 -16  -5   3    1.73    1.34
 -15  -5   3    1.61    0.83
 -15   5   3    3.06    1.02
 -15   5   3    1.14    0.84
 -15  -5   3    2.36    1.11
 -14  -5   3    0.49    0.74
 -14   5   3    1.41    0.93
 -14   5   3    0.60    0.80
 -14  -5   3   -0.57    1.09
 -13  -5   3    1.62    0.76
 -13   5   3    1.56    0.82
 -13   5   3    0.28    0.77
 -13  -5   3   -0.45    1.10
 -12  -5   3    1.63    0.75
 -12   5   3    1.66    0.79
 -12   5   3    0.32    0.71
 -12  -5   3    0.99    0.93
 -11  -5   3    0.96    0.62
 -11   5   3    0.56    0.76
 -11   5   3    1.98    0.75
 -11  -5   3    1.68    0.89
 -10  -5   3    1.74    0.65
 -10   5   3    1.78    0.80
 -10   5   3    2.08    0.67
 -10  -5   3    1.80    0.85
  -9   5   3   72.93    2.53
  -9   5   3   77.99    2.21
  -9  -5   3   82.02    2.57
  -9  -5   3   77.26    3.03
   8  -5  -3  264.75    3.85
  -8   5   3  274.36    4.70
  -8  -5   3  264.63    4.57
  -8  -5   3  279.08    5.62
  -8   5   3  274.51    3.82
   7  -5  -3   40.17    1.37
  -7   5   3   40.97    1.86
  -7   5   3   40.68    1.46
  -7  -5   3   49.32    2.00
  -7  -5   3   45.11    2.12
  -6   5   3  126.74    2.14
   6  -5  -3  131.64    2.20
  -6   5   3  126.54    3.08
  -6  -5   3  126.31    3.49
  -6  -5   3  137.96    3.14
  -5   5   3  299.69    4.36
   5  -5  -3  325.41    3.07
  -5   5   3  323.14    2.79
  -5  -5   3  275.79    4.96
  -5  -5   3  286.21    4.54
  -4   5   3  360.37    3.15
  -4  -5   3  361.21    5.06
  -4   5   3  383.79    2.73
  -4   5   3  354.13    4.57
  -4  -5   3  360.14    5.32
  -3  -5   3 1784.70   12.06
  -3  -5   3 1842.88   11.55
  -3   5   3 1751.24    5.42
  -3   5   3 1824.74    9.54
  -3   5   3 1877.90    6.32
  -2  -5   3 1559.83   10.67
  -2   5   3 1593.01    5.67
  -2   5   3 1531.86    7.93
  -2   5   3 1597.39    5.83
   2   5  -3 1560.88   10.06
   1   5  -3  569.69    5.71
  -1  -5   3  534.67    6.29
  -1   5   3  567.20    3.67
  -1   5   3  562.37    4.32
  -1   5   3  565.73    5.43
   1  -5  -3  544.56    3.99
   0   5   3  599.56    4.01
   0  -5   3  615.53    6.71
   0   5  -3  619.35    6.21
   0   5   3  602.80    4.26
   0  -5  -3  607.47    4.91
   0   5   3  621.98    5.09
  -1   5  -3  121.26    2.73
   1   5   3  135.06    1.62
   1   5   3  141.68    2.14
   1   5   3  128.33    2.18
   1  -5   3  125.39    3.08
  -1  -5  -3  138.59    2.51
   2   5   3   91.76    2.06
   2   5   3   92.60    1.19
  -2  -5  -3  104.05    2.39
   2   5   3   94.21    1.43
   2  -5   3  103.69    2.80
   3  -5   3  462.27    6.04
  -3   5  -3  461.47    5.30
  -3  -5  -3  455.07    5.40
  -4   5  -3  152.21    3.12
   4  -5   3  145.51    3.59
  -4  -5  -3  145.86    3.27
  -5   5  -3   13.63    1.11
   5  -5   3   10.87    1.18
  -5  -5  -3    9.55    1.08
  -6   5  -3   35.15    1.77
  -6  -5  -3   41.05    2.05
   6  -5   3   39.72    2.06
  -7   5  -3   30.91    1.64
  -7  -5  -3   33.29    1.99
   7  -5   3   32.74    1.98
  -8   5  -3   84.96    2.76
   8  -5   3   78.52    2.97
  -9   5  -3   42.89    2.14
  -9  -5  -3   36.63    2.26
   9  -5   3   42.65    2.42
 -10   5  -3    0.87    0.74
  10  -5   3    0.26    0.82
 -10  -5  -3    1.09    0.97
 -11   5  -3    1.40    0.83
 -11  -5  -3   -0.44    0.93
 -12   5  -3    0.63    0.77
 -12   5  -3    0.60    0.89
 -12  -5  -3    0.16    1.01
 -13   5  -3    1.88    0.84
 -13   5  -3    1.69    1.12
 -13  -5  -3    1.70    1.06
 -14   5  -3    0.14    0.78
 -14   5  -3    0.88    1.07
 -14  -5  -3    1.22    1.16
 -15   5  -3    0.57    1.03
 -15   5  -3    0.57    0.93
 -15  -5  -3    0.92    1.29
 -17   6   3   -0.86    1.03
 -17  -6   3    2.02    1.42
 -16  -6   3    1.24    0.88
 -16   6   3   -1.68    0.91
 -16  -6   3    1.82    1.25
 -15  -6   3    0.10    0.77
 -15   6   3    1.85    0.99
 -15   6   3    1.66    0.86
 -15  -6   3   -0.47    1.09
 -14  -6   3    4.83    1.05
 -14   6   3    3.28    0.95
 -14   6   3    2.73    0.93
 -14  -6   3    4.58    1.40
 -13  -6   3    0.64    0.78
 -13   6   3   -0.34    0.75
 -13   6   3    0.02    0.71
 -13  -6   3   -0.76    1.11
 -12   6   3   24.10    1.58
 -12  -6   3   21.83    2.04
 -12  -6   3   20.18    1.56
 -12   6   3   24.54    1.68
 -11  -6   3    3.30    1.03
 -11  -6   3    1.92    0.73
 -11   6   3    1.38    0.77
 -11   6   3    2.66    0.77
 -10  -6   3    0.27    0.90
 -10   6   3    0.43    0.66
 -10  -6   3   -1.01    0.66
 -10   6   3    1.14    0.57
  -9  -6   3    0.31    0.84
  -9  -6   3    1.61    0.67
  -9   6   3    1.98    0.73
  -9   6   3    2.27    0.68
  -8   6   3   97.16    2.38
  -8   6   3  105.09    3.11
  -8  -6   3   96.73    3.34
  -8  -6   3  107.92    3.06
   7  -6  -3  113.93    2.41
  -7   6   3  107.83    2.31
  -7   6   3  117.99    3.19
  -7  -6   3  109.35    3.44
  -7  -6   3  111.88    3.00
   6  -6  -3  183.69    2.74
  -6   6   3  173.63    3.62
  -6   6   3  175.32    2.48
  -6  -6   3  165.89    4.19
  -5  -6   3   22.93    1.39
  -5   6   3   22.43    1.32
  -5   6   3   23.79    0.86
  -5  -6   3   23.03    1.57
  -4  -6   3  554.17    6.96
  -4  -6   3  542.84    6.49
  -4   6   3  545.08    5.79
  -4   6   3  572.21    3.78
  -4   6   3  585.70    4.51
  -3  -6   3  112.84    3.17
  -3   6   3   98.40    1.61
  -3  -6   3  121.43    3.11
  -3   6   3  110.07    1.87
  -3   6   3   94.79    2.31
  -2   6   3    1.23    0.35
  -2   6   3    1.08    0.45
  -2   6   3    1.06    0.44
  -2  -6   3    1.82    0.67
  -2   6   3    1.53    0.38
   2   6  -3    1.75    0.69
   1  -6  -3 1421.98    7.42
  -1   6   3 1436.92    7.57
  -1  -6   3 1473.56   10.90
  -1   6   3 1435.03    8.89
  -1   6   3 1446.23    7.15
   0   6   3   59.46    1.64
   0   6  -3   52.33    1.92
   0   6   3   58.29    1.35
   0  -6   3   53.42    2.13
   0   6   3   57.45    1.49
   0  -6  -3   58.06    1.71
  -1   6  -3   92.17    2.52
   1   6   3   94.75    1.48
   1  -6   3   97.05    2.96
   1   6   3   98.09    1.93
  -1  -6  -3   99.83    2.45
   2   6   3    2.76    0.34
  -2   6  -3    4.00    0.73
   2  -6   3    4.28    0.78
   2   6   3    3.24    0.28
   2   6   3    2.62    0.48
  -2  -6  -3    3.14    0.66
   3  -6   3   16.09    1.33
  -3   6  -3   13.95    1.10
  -3  -6  -3   17.91    1.19
  -4   6  -3    5.50    0.85
   4  -6   3    5.77    0.94
  -4  -6  -3    5.02    0.80
  -5  -6  -3   55.99    2.28
  -5   6  -3   63.67    2.22
   5  -6   3   64.44    2.60
  -6   6  -3   42.35    1.86
   6  -6   3   40.07    2.16
  -6  -6  -3   35.04    1.93
  -7   6  -3   23.30    1.46
  -7  -6  -3   20.62    1.66
   7  -6   3   22.33    1.73
  -8   6  -3    6.32    1.00
   8  -6   3    3.65    1.02
  -8  -6  -3    3.14    1.00
   9  -6   3    3.21    0.97
  -9   6  -3    1.55    0.76
  -9  -6  -3    4.57    1.09
 -10   6  -3   24.55    1.75
  10  -6   3   27.88    2.17
 -11   6  -3    1.45    0.86
  11  -6   3    0.31    1.02
 -11  -6  -3   -0.40    0.98
 -12   6  -3    7.49    1.13
 -12   6  -3    8.52    1.36
 -12  -6  -3    4.95    1.31
 -13   6  -3   -0.56    0.78
 -13   6  -3    1.49    1.05
 -13  -6  -3    0.98    1.11
 -14   6  -3    3.08    1.06
 -14   6  -3    3.55    1.33
 -14  -6  -3    1.75    1.19
 -15   6  -3    0.10    0.88
 -15   6  -3    0.34    1.11
 -15  -6  -3    0.68    1.35
 -17  -7   3    2.05    1.46
 -16  -7   3    0.04    1.15
 -16   7   3    1.43    1.00
 -15  -7   3    1.24    1.24
 -15  -7   3    0.28    0.79
 -15   7   3    0.81    0.92
 -14   7   3   10.80    1.30
 -14   7   3   13.17    1.49
 -14  -7   3   10.77    1.80
 -14  -7   3   10.40    1.33
 -13  -7   3    1.60    1.18
 -13  -7   3    1.59    0.84
 -13   7   3    2.61    0.94
 -13   7   3    1.32    0.74
 -12  -7   3    2.15    0.99
 -12  -7   3    4.46    1.00
 -12   7   3    4.55    1.06
 -12   7   3    3.81    0.82
 -11  -7   3    3.39    1.12
 -11  -7   3    4.24    0.91
 -11   7   3    3.45    0.87
 -11   7   3    3.08    0.82
 -10   7   3   94.27    2.73
 -10   7   3   97.36    3.16
 -10  -7   3   97.24    3.86
 -10  -7   3  108.04    3.34
  -9   7   3   11.34    1.24
  -9   7   3   10.73    1.03
  -9  -7   3   10.27    1.41
  -9  -7   3   10.97    1.19
  -8  -7   3    1.60    0.71
  -8  -7   3    1.16    0.86
  -8   7   3    1.71    0.51
  -8   7   3    2.14    0.70
  -7  -7   3  150.59    3.70
  -7   7   3  150.36    3.55
  -7   7   3  152.24    2.64
   7  -7  -3  149.82    2.88
  -7  -7   3  151.80    4.33
  -6  -7   3   86.53    2.83
  -6   7   3   80.82    2.53
   6  -7  -3   87.15    2.12
  -6   7   3   84.04    1.82
  -6  -7   3   78.55    2.94
  -5   7   3  486.32    4.97
  -5  -7   3  461.65    6.25
  -5   7   3  479.13    4.10
  -5   7   3  459.50    5.85
  -5  -7   3  465.99    6.90
  -4  -7   3  169.83    4.15
  -4   7   3  166.31    3.37
  -4  -7   3  178.97    3.98
  -4   7   3  176.71    2.46
  -4   7   3  187.61    2.96
  -3  -7   3  104.33    3.12
  -3   7   3  108.70    2.57
  -3   7   3  116.90    2.06
  -3  -7   3  110.39    3.04
  -3   7   3  121.10    2.35
  -2   7   3  417.13    3.91
  -2  -7   3  433.74    6.12
   2   7  -3  437.47    5.90
  -2   7   3  422.07    4.74
  -2   7   3  427.92    4.31
  -1  -7   3  425.65    6.04
   1  -7  -3  442.20    4.63
   1   7  -3  411.62    5.54
  -1   7   3  426.50    4.32
  -1   7   3  422.18    4.42
  -1   7   3  434.30    5.26
   0   7  -3  150.03    3.34
   0   7   3  160.38    2.45
   0   7   3  143.07    2.66
   0  -7   3  151.87    3.66
   0   7   3  147.99    2.87
   0  -7  -3  152.89    3.00
  -1   7  -3  600.43    6.54
   1   7   3  572.94    4.90
   1   7   3  569.91    3.97
   1  -7   3  591.53    7.25
  -1  -7  -3  567.09    6.04
  -2   7  -3   21.71    1.33
   2   7   3   21.92    0.68
  -2  -7  -3   20.45    1.27
   2   7   3   21.48    0.86
   2  -7   3   22.67    1.61
   3  -7   3   11.96    1.20
  -3   7  -3   10.42    1.01
  -3  -7  -3   11.83    1.09
  -4   7  -3  514.29    6.16
   4  -7   3  513.12    7.12
  -5   7  -3  551.26    6.47
   5  -7   3  555.60    7.59
  -5  -7  -3  534.62    7.03
  -6   7  -3   78.93    2.61
   6  -7   3   79.87    3.16
  -6  -7  -3   73.49    2.97
  -7   7  -3   45.69    2.17
   7  -7   3   45.12    2.49
   8  -7   3    2.34    0.96
  -8  -7  -3    1.07    0.86
  -8   7  -3    3.03    0.80
   9  -7   3    0.73    0.83
  -9   7  -3    2.80    0.91
  -9  -7  -3    0.97    0.94
 -10   7  -3   24.50    1.76
  10  -7   3   26.06    2.21
 -11   7  -3    2.02    0.88
  11  -7   3    3.76    1.25
 -11  -7  -3    3.04    1.06
 -12   7  -3    0.43    0.90
 -12  -7  -3    1.81    1.20
 -13   7  -3    2.14    0.96
 -13   7  -3    2.00    1.12
 -13  -7  -3    2.58    1.19
 -14   7  -3    3.46    1.08
 -14   7  -3    2.14    1.24
 -14  -7  -3    0.94    1.27
 -15   7  -3    0.07    0.89
 -16   7  -3    3.04    1.18
 -16  -8   3    0.70    1.30
 -16   8   3   -1.64    0.99
 -15  -8   3    2.83    1.51
 -15   8   3    1.76    0.95
 -14  -8   3    7.21    1.60
 -14   8   3    7.33    1.18
 -14  -8   3    8.04    1.26
 -13  -8   3    0.83    1.19
 -13  -8   3   -0.15    0.80
 -13   8   3   -0.98    0.80
 -13   8   3    0.40    0.73
 -12   8   3   14.05    1.39
 -12   8   3   14.12    1.34
 -12  -8   3   18.98    2.11
 -12  -8   3   16.92    1.57
 -11  -8   3    6.77    1.15
 -11  -8   3    4.32    1.20
 -11   8   3    8.18    1.17
 -11   8   3    6.24    1.00
 -10  -8   3    0.79    0.88
 -10  -8   3    0.83    0.74
 -10   8   3    2.08    0.70
  -9  -8   3    9.10    1.14
  -9   8   3    8.04    0.91
  -9   8   3    8.37    1.11
  -9  -8   3    8.63    1.41
  -8  -8   3   18.67    1.54
  -8   8   3   17.03    1.41
  -8   8   3   16.38    1.09
  -8  -8   3   17.12    1.73
  -7  -8   3   62.70    2.48
  -7   8   3   63.26    1.83
  -7   8   3   64.45    2.42
  -7  -8   3   56.96    2.77
  -6   8   3   27.93    1.38
  -6  -8   3   35.52    1.92
  -6   8   3   32.99    1.22
  -6   8   3   34.15    1.75
  -6  -8   3   35.78    2.16
  -5  -8   3  296.24    5.73
  -5   8   3  301.46    3.53
  -5  -8   3  307.51    5.39
  -5   8   3  302.12    4.91
  -5   8   3  292.28    4.13
  -4  -8   3   37.53    2.14
  -4   8   3   36.42    1.28
  -4  -8   3   37.73    1.93
  -4   8   3   34.79    1.66
  -4   8   3   37.26    1.55
  -3  -8   3   32.49    2.01
  -3   8   3   39.59    1.35
  -3  -8   3   39.20    1.97
  -3   8   3   39.06    1.71
  -3   8   3   36.21    1.48
   2   8  -3   63.26    2.50
  -2   8   3   61.86    2.01
  -2   8   3   60.03    1.66
  -2  -8   3   65.31    2.54
  -2   8   3   60.24    1.84
   1   8  -3  328.78    5.21
  -1   8   3  329.51    4.15
  -1  -8   3  331.23    5.53
  -1   8   3  310.90    4.32
   0  -8  -3    5.67    0.73
   0   8  -3    4.96    0.83
   0   8   3    5.87    0.69
   0   8   3    5.48    0.58
   0   8   3    4.95    0.63
   0  -8   3    7.15    1.08
   1   8   3  229.34    2.80
   1   8   3  233.87    3.53
  -1   8  -3  224.18    4.24
   1  -8   3  226.82    4.59
  -1  -8  -3  233.93    4.27
   2  -8   3   25.03    1.72
   2   8   3   24.02    0.80
  -2   8  -3   25.26    1.52
   2   8   3   27.13    1.16
  -2  -8  -3   21.79    1.43
  -3  -8  -3    3.69    0.87
   3  -8   3    3.73    0.93
  -3   8  -3    3.25    0.78
   3   8   3    1.50    0.27
   3   8   3    2.48    0.23
   4  -8   3   73.67    2.82
  -4   8  -3   77.73    2.55
  -4  -8  -3   68.66    2.62
  -5   8  -3    3.91    0.80
   5  -8   3    3.08    0.85
  -5  -8  -3    3.73    0.95
  -6   8  -3  165.44    3.78
   6  -8   3  165.89    4.60
  -6  -8  -3  152.19    4.30
  -7   8  -3   75.89    2.60
  -7  -8  -3   71.15    3.11
   7  -8   3   72.12    3.18
   8  -8   3   72.90    3.19
  -8   8  -3   78.26    2.76
  -8  -8  -3   70.07    3.19
   9  -8   3    1.70    0.94
  -9   8  -3    3.01    0.94
  -9  -8  -3    3.03    1.04
 -10   8  -3   -1.59    1.00
  10  -8   3    0.07    0.92
 -10  -8  -3    0.14    0.93
 -11   8  -3    2.66    1.01
  11  -8   3    1.28    1.11
 -11  -8  -3    1.48    1.09
 -12   8  -3   12.01    1.60
 -12  -8  -3    8.09    1.62
 -13   8  -3    2.20    1.13
 -13   8  -3   -0.18    0.78
 -13  -8  -3    1.19    1.24
 -14   8  -3    2.15    1.05
 -14   8  -3    3.35    1.31
 -14  -8  -3    3.65    1.57
 -15   8  -3    0.27    0.96
 -16  -9   3    2.60    1.53
 -15  -9   3    1.27    1.42
 -15   9   3    0.36    0.87
 -14  -9   3    0.85    1.20
 -14   9   3    1.30    0.93
 -13  -9   3   -0.02    1.20
 -13  -9   3    0.77    0.87
 -13   9   3   -0.21    0.79
 -12  -9   3    0.77    1.15
 -12  -9   3    1.96    0.91
 -12   9   3    2.49    0.96
 -12   9   3    2.22    0.83
 -11  -9   3    0.45    0.98
 -11  -9   3    0.95    0.80
 -11   9   3   -0.37    0.80
 -11   9   3    1.43    0.71
 -10  -9   3    6.53    1.44
 -10  -9   3    9.37    1.30
 -10   9   3    9.19    0.97
 -10   9   3    7.82    1.08
  -9  -9   3   15.07    1.49
  -9   9   3   13.72    1.11
  -9   9   3   14.39    1.38
  -9  -9   3   12.98    1.67
  -8  -9   3    2.42    1.03
  -8   9   3    2.51    0.81
  -8  -9   3    2.29    0.81
  -8   9   3    2.97    0.64
  -7  -9   3    3.22    1.03
  -7   9   3    4.35    0.65
  -7   9   3    4.29    0.89
  -7  -9   3    3.39    0.89
  -6  -9   3   54.20    2.42
  -6   9   3   50.15    1.65
  -6   9   3   50.47    2.23
  -6  -9   3   50.67    2.56
  -5  -9   3   56.25    2.67
  -5   9   3   54.36    2.22
  -5   9   3   50.04    1.61
  -4  -9   3  199.64    5.03
  -4   9   3  189.24    3.87
  -4   9   3  190.71    3.05
  -4  -9   3  197.88    4.51
  -4   9   3  178.45    3.54
  -3   9   3  532.74    5.16
  -3   9   3  518.16    6.15
  -3  -9   3  545.81    7.43
   2   9  -3  342.09    5.80
  -2   9   3  323.62    4.07
  -2   9   3  328.01    4.69
  -2  -9   3  331.84    5.71
   1   9  -3   27.22    1.67
  -1   9   3   28.96    1.37
  -1  -9   3   29.36    1.88
   0  -9  -3   46.08    1.94
   0   9  -3   38.46    1.94
   0   9   3   44.46    1.58
   0   9   3   42.06    1.84
   0  -9   3   45.35    2.19
  -1   9  -3   22.08    1.52
   1   9   3   19.92    0.97
   1   9   3   17.87    1.17
  -1  -9  -3   18.73    1.33
   1  -9   3   22.04    1.62
   2  -9   3   81.34    2.99
   2   9   3   81.66    1.61
   2   9   3   79.86    2.03
  -2  -9  -3   79.75    2.75
  -2   9  -3   85.88    2.85
  -3   9  -3  393.41    5.71
   3   9   3  342.04    2.60
  -3  -9  -3  361.16    5.83
   3  -9   3  382.01    6.48
   4  -9   3  289.94    5.69
  -4  -9  -3  294.90    5.67
  -5   9  -3  175.63    4.01
   5  -9   3  167.54    4.54
  -5  -9  -3  158.69    4.29
  -6   9  -3  110.10    3.21
   6  -9   3  108.89    3.79
  -6  -9  -3   98.08    3.60
  -7   9  -3   28.05    1.77
  -7  -9  -3   26.49    2.07
   7  -9   3   25.19    1.99
   8  -9   3   41.69    2.60
  -8   9  -3   44.76    2.28
  -8  -9  -3   36.30    2.47
  -9   9  -3   18.44    1.52
   9  -9   3   19.88    1.91
  -9  -9  -3   15.18    1.82
  10  -9   3    2.19    1.20
 -10   9  -3    0.71    0.83
 -10  -9  -3    1.02    1.18
 -11   9  -3    0.42    0.85
  11  -9   3    0.13    1.06
 -11  -9  -3    0.48    1.10
 -12   9  -3    3.14    1.21
 -12  -9  -3    2.95    1.42
 -13   9  -3    0.15    0.80
 -13   9  -3   -0.48    1.02
 -13  -9  -3    0.69    1.28
 -14   9  -3    1.47    1.15
 -14  -9  -3    0.54    1.29
 -14   9  -3    0.18    0.93
 -15 -10   3   -0.21    1.34
 -15  10   3   -0.14    0.90
 -14 -10   3   -0.14    1.28
 -14  10   3    1.00    0.90
 -13 -10   3   -1.43    1.23
 -13  10   3    1.71    0.94
 -13 -10   3    0.50    0.93
 -12 -10   3    2.32    1.28
 -12  10   3    0.46    0.87
 -12 -10   3    1.18    0.94
 -11 -10   3    1.10    1.05
 -11  10   3    2.59    0.87
 -11  10   3    2.73    0.81
 -11 -10   3    2.71    1.04
 -10 -10   3    2.90    1.27
 -10  10   3    0.44    0.80
 -10  10   3    0.64    0.62
 -10 -10   3    2.68    0.98
  -9  10   3   11.67    1.02
  -9  10   3   10.03    1.23
  -9 -10   3   10.41    1.31
  -9 -10   3    8.32    1.44
  -8 -10   3    2.81    1.04
  -8  10   3    3.64    0.93
  -8  10   3    3.52    0.70
  -8 -10   3    4.15    0.98
  -7 -10   3   14.35    1.44
  -7  10   3   15.29    1.45
  -7  10   3   15.35    1.02
  -7 -10   3   14.26    1.67
  -6 -10   3   16.25    1.63
  -6  10   3   16.64    1.05
  -6 -10   3   17.65    1.52
  -6  10   3   15.21    1.38
  -5 -10   3    3.46    0.88
  -5 -10   3    5.84    1.14
  -5  10   3    5.72    0.91
  -4 -10   3    8.40    1.24
  -4  10   3    3.92    0.63
  -4 -10   3    7.05    1.10
  -4  10   3    5.48    0.90
   3  10  -3   48.58    2.39
  -3  10   3   49.02    2.08
  -3 -10   3   48.34    2.34
  -3  10   3   53.09    1.77
   2  10  -3  101.16    3.27
  -2  10   3  101.59    2.53
  -2  10   3   92.42    2.68
  -2 -10   3  102.66    3.39
  -1  10   3   60.55    2.05
   1  10  -3   52.44    2.31
  -1  10   3   58.27    1.97
  -1 -10   3   56.09    2.55
   0 -10  -3   65.20    2.47
   0  10  -3   65.53    2.63
   0  10   3   56.58    1.87
   0 -10   3   62.56    2.68
   1  10   3    4.75    0.63
   1 -10   3    4.84    1.03
  -1  10  -3    5.17    0.97
  -1 -10  -3    6.75    1.03
  -2  10  -3   20.01    1.50
   2 -10   3   19.90    1.64
   2  10   3   18.35    0.93
   2  10   3   20.02    1.24
  -2 -10  -3   17.40    1.44
  -3 -10  -3    1.28    0.73
  -3  10  -3    1.63    0.77
   3 -10   3   -0.70    0.84
   3  10   3    0.76    0.33
  -4  10  -3   17.75    1.46
   4 -10   3   19.86    1.75
  -4 -10  -3   18.49    1.58
  -5 -10  -3    5.68    1.20
  -5  10  -3    8.56    1.12
   5 -10   3    6.76    1.28
  -6  10  -3   14.89    1.38
   6 -10   3   12.03    1.47
  -6 -10  -3   12.93    1.56
  -7  10  -3   26.86    1.74
  -7 -10  -3   19.84    1.93
   7 -10   3   22.83    2.01
  -8  10  -3   -0.86    0.78
   8 -10   3    1.22    0.90
  -8 -10  -3    0.21    0.88
  -9  10  -3   10.07    1.29
   9 -10   3    8.31    1.48
  -9 -10  -3    8.83    1.54
 -10  10  -3    1.43    1.04
  10 -10   3    2.13    1.10
 -10 -10  -3    1.84    1.14
 -11  10  -3    1.72    0.95
  11 -10   3    1.12    1.06
 -11 -10  -3    1.80    1.20
  12 -10   3    0.17    1.17
 -12  10  -3   -0.38    1.00
 -12 -10  -3    2.35    1.34
 -13  10  -3    0.77    1.18
 -13  10  -3    1.78    1.03
 -13 -10  -3    1.12    1.22
 -14  10  -3   -0.31    0.90
 -14 -11   3    1.81    1.38
 -14  11   3   -2.14    1.06
 -13 -11   3    5.66    1.66
 -13  11   3    4.54    1.14
 -12 -11   3    0.13    1.22
 -12  11   3   -0.28    0.88
 -12 -11   3   -0.26    0.81
 -11 -11   3    4.42    1.46
 -11  11   3    4.63    1.07
 -11 -11   3    5.41    1.17
 -10 -11   3    1.96    1.18
 -10  11   3    1.80    0.93
 -10  11   3    0.15    0.63
 -10 -11   3    1.59    0.88
  -9  11   3   18.54    1.68
  -9 -11   3   22.88    1.81
  -9  11   3   18.51    1.32
  -9 -11   3   22.23    2.23
  -8 -11   3    2.24    1.06
  -8  11   3    0.69    0.76
  -8  11   3    0.39    0.54
  -8 -11   3    1.30    0.84
  -7 -11   3    0.43    0.92
  -7  11   3    0.16    0.54
  -7  11   3    0.14    0.77
  -7 -11   3    1.87    0.92
  -6 -11   3  116.32    4.13
  -6  11   3  113.48    2.65
  -6 -11   3  123.53    3.90
  -5 -11   3  101.33    3.94
  -5 -11   3  103.76    3.59
  -5  11   3  102.87    2.47
  -5  11   3  101.38    3.24
  -4 -11   3   45.44    2.57
  -4  11   3   52.43    2.36
  -4  11   3   53.45    1.93
  -4 -11   3   51.67    2.51
   3  11  -3    9.88    1.26
  -3  11   3    9.73    1.15
  -3  11   3    9.70    0.93
  -3 -11   3    7.84    1.19
   2  11  -3    0.67    0.78
  -2  11   3    1.47    0.63
  -2  11   3    0.64    0.60
  -2 -11   3    1.45    0.87
  -1  11   3  161.76    3.45
  -1  11   3  153.88    3.48
   0 -11   3  314.63    6.20
   0 -11  -3  302.05    5.44
   0  11  -3  319.54    5.82
   0  11   3  298.09    4.50
  -1 -11  -3   20.68    1.62
   1 -11   3   16.09    1.58
   1  11   3   17.34    1.08
  -1  11  -3   17.12    1.46
  -2 -11  -3    4.47    0.96
   2  11   3    4.97    0.63
   2 -11   3    6.91    1.17
  -2  11  -3    5.96    1.00
   3  11   3   25.46    0.97
  -3  11  -3   30.52    1.86
   3 -11   3   30.48    2.02
  -3 -11  -3   25.70    1.90
  -4  11  -3   78.88    2.87
   4 -11   3   76.95    3.18
  -4 -11  -3   77.60    3.23
  -5  11  -3   88.53    3.07
   5 -11   3   84.45    3.55
  -5 -11  -3   77.18    3.28
  -6  11  -3   32.16    1.93
   6 -11   3   33.48    2.39
  -6 -11  -3   33.37    2.33
  -7 -11  -3    0.59    1.13
  -7  11  -3    0.25    0.76
   7 -11   3   -0.04    0.93
  -8 -11  -3   -0.24    0.99
  -8  11  -3    0.49    0.76
   8 -11   3   -0.58    0.89
  -9 -11  -3    0.28    1.00
   9 -11   3    2.85    1.18
  -9  11  -3    1.24    0.86
 -10  11  -3   12.01    1.46
  10 -11   3    8.25    1.70
 -10 -11  -3    8.49    1.66
  11 -11   3   11.05    1.83
 -11  11  -3   10.35    1.48
 -11 -11  -3    9.89    1.77
 -12  11  -3    3.24    1.13
  12 -11   3    0.92    1.22
 -12 -11  -3    2.43    1.34
 -13  11  -3    2.30    1.02
 -13 -12   3   -1.16    1.41
 -13  12   3    0.80    1.02
 -12 -12   3    2.63    1.29
 -12  12   3    0.20    0.98
 -11 -12   3    1.89    1.27
 -11  12   3    5.66    1.18
 -11 -12   3    5.45    1.14
 -10  12   3    1.01    0.89
 -10 -12   3    0.04    1.10
 -10 -12   3    1.12    0.90
  -9  12   3   21.53    1.84
  -9  12   3   23.32    1.47
  -9 -12   3   25.73    2.04
  -9 -12   3   18.97    2.08
  -8 -12   3    0.27    0.85
  -8 -12   3   -0.13    1.06
  -8  12   3    0.49    0.89
  -8  12   3    1.61    0.66
  -7 -12   3    3.78    1.05
  -7 -12   3    2.78    1.12
  -7  12   3    3.21    1.03
  -7  12   3    4.32    0.77
  -6 -12   3    8.58    1.44
  -6 -12   3    6.92    1.15
  -6  12   3    5.54    1.10
  -6  12   3    5.34    0.77
  -5 -12   3    5.61    1.20
  -5 -12   3    5.96    1.16
  -5  12   3    6.30    0.86
  -5  12   3    6.38    1.10
  -4  12   3    0.88    0.55
  -4 -12   3    0.74    0.87
  -4  12   3    1.31    0.76
   3  12  -3    1.39    0.92
  -3  12   3    0.02    0.54
  -3 -12   3    0.87    0.77
  -3  12   3    0.29    0.71
  -2  12   3   88.75    2.95
   2  12  -3   91.76    3.30
  -2  12   3   88.42    2.56
  -2 -12   3   93.54    3.46
  -1  12   3    0.41    0.56
   1  12  -3    0.28    0.82
  -1  12   3    1.10    0.62
  -1 -12   3    1.57    0.99
   0 -12   3   30.59    2.08
   0  12  -3   30.02    1.99
   0  12   3   28.64    1.54
  -1 -12  -3   10.81    1.35
   1 -12   3   10.12    1.42
   1  12   3    9.25    0.94
  -1  12  -3    9.55    1.23
  -2 -12  -3   25.22    1.84
   2 -12   3   26.00    1.99
   2  12   3   22.54    1.20
  -2  12  -3   26.38    1.84
  -3 -12  -3    3.84    1.04
  -3  12  -3    4.80    1.02
   3 -12   3    6.11    1.29
  -4  12  -3   34.58    2.04
   4 -12   3   37.10    2.43
  -4 -12  -3   34.04    2.30
  -5 -12  -3    2.02    1.09
   5 -12   3    2.66    1.08
  -5  12  -3    1.68    0.80
   6 -12   3   -0.85    0.88
  -6  12  -3    0.48    0.83
  -7 -12  -3    2.46    1.18
  -7  12  -3    2.17    0.94
   7 -12   3    2.39    1.12
  -8 -12  -3    6.29    1.49
  -8  12  -3    8.70    1.33
   8 -12   3    6.96    1.48
  -9 -12  -3    4.73    1.47
   9 -12   3    5.96    1.45
  -9  12  -3    5.38    1.27
 -10 -12  -3   -0.64    1.24
 -10  12  -3    2.57    1.09
  10 -12   3    1.40    1.26
 -11 -12  -3   -0.03    1.25
 -11  12  -3    0.31    1.00
  11 -12   3    2.34    1.23
 -12 -12  -3   -1.44    1.40
  12 -12   3    1.54    1.33
 -12  12  -3   -1.27    1.11
 -12 -13   3    1.66    1.41
 -12  13   3    0.37    1.10
 -11 -13   3    1.68    1.48
 -11  13   3   -1.88    1.11
 -10 -13   3    4.79    1.22
 -10 -13   3    6.11    1.52
 -10  13   3    3.38    1.14
  -9 -13   3    1.09    1.06
  -9 -13   3    2.14    1.04
  -9  13   3    2.09    1.06
  -8  13   3   23.78    2.04
  -8 -13   3   22.20    2.18
  -8 -13   3   24.82    1.97
  -7 -13   3   52.35    3.22
  -7  13   3   47.13    2.65
  -7  13   3   47.98    1.88
  -7 -13   3   51.15    2.80
  -6 -13   3    3.36    1.17
  -6 -13   3    3.61    1.10
  -6  13   3    1.60    0.92
  -6  13   3    3.17    0.74
  -5 -13   3    8.54    1.54
  -5  13   3    7.55    0.88
  -5  13   3    6.36    1.17
  -4  13   3   37.79    2.29
   4  13  -3   38.81    2.48
  -4  13   3   32.80    1.67
  -4 -13   3   39.79    2.40
  -3  13   3   11.47    1.07
  -3  13   3   12.06    1.42
   3  13  -3   10.40    1.41
  -3 -13   3   11.21    1.40
  -2 -13   3  104.95    3.87
   2  13  -3   95.17    3.51
  -2  13   3   98.20    2.87
  -2  13   3   96.74    3.21
  -1  13   3  288.71    4.91
   1  13  -3  300.09    6.08
  -1  13   3  296.61    5.26
   0  13   3   52.83    2.27
   0  13  -3   58.62    2.84
   0 -13   3   58.46    2.93
  -1 -13  -3   90.46    3.48
   1 -13   3   98.25    3.92
  -1  13  -3   96.73    3.45
  -2 -13  -3   91.00    3.50
  -2  13  -3  100.61    3.49
   2 -13   3   92.04    3.67
  -3 -13  -3   16.29    1.69
  -3  13  -3   16.44    1.54
   3 -13   3   14.86    1.76
  -4  13  -3   24.61    1.85
   4 -13   3   27.16    2.28
  -4 -13  -3   25.79    2.11
  -5 -13  -3    8.60    1.43
   5 -13   3    6.28    1.24
  -5  13  -3    7.30    1.19
  -6 -13  -3    2.16    1.25
  -6  13  -3    0.81    0.89
   6 -13   3   -0.16    1.07
   7 -13   3   50.04    3.18
  -7  13  -3   56.30    2.75
  -7 -13  -3   48.19    3.14
  -8 -13  -3    9.39    1.73
   8 -13   3    8.95    1.77
  -8  13  -3   12.32    1.54
  -9 -13  -3    1.83    1.23
   9 -13   3   -0.02    1.14
  -9  13  -3    0.09    0.91
  10 -13   3    3.53    1.43
 -10 -13  -3   -0.25    1.25
 -10  13  -3    2.91    1.13
 -11 -13  -3    2.18    1.56
 -11  13  -3    2.79    1.21
  11 -13   3   -0.28    1.21
 -11  14   3    1.42    1.04
 -11 -14   3    1.94    1.42
 -10 -14   3    1.66    1.44
 -10  14   3    1.11    1.03
  -9  14   3    0.67    1.03
  -9 -14   3   -0.32    1.30
  -9 -14   3    1.11    0.97
  -8 -14   3    2.97    1.31
  -8  14   3    2.78    1.25
  -8 -14   3    4.25    1.19
  -7 -14   3   -0.30    1.03
  -7  14   3   -0.64    1.04
  -7 -14   3    0.19    1.01
  -6 -14   3    1.83    1.14
  -6  14   3    0.25    0.99
  -6  14   3    0.73    0.63
  -6 -14   3    0.50    0.89
  -5  14   3    3.51    1.20
  -5  14   3    2.15    0.70
  -5 -14   3    1.77    0.96
   4  14  -3   -0.47    0.91
  -4  14   3    0.66    0.64
  -4 -14   3   -1.22    1.07
  -4  14   3    1.87    0.90
   3  14  -3    7.52    1.30
  -3  14   3    7.25    0.93
  -3  14   3    5.34    1.14
  -3 -14   3    7.80    1.36
  -2  14   3   -0.20    0.65
   2  14  -3   -1.19    0.95
  -2  14   3    1.06    0.77
  -2 -14   3    0.29    0.84
  -1 -14   3    4.24    1.19
  -1  14   3    3.60    0.84
  -1  14   3    1.49    0.74
   1  14  -3    5.19    1.19
   0  14   3   11.34    1.23
   0  14  -3   15.33    1.66
   0 -14   3   14.08    1.67
   0  14   3   10.77    1.11
  -1  14  -3    0.62    1.00
   1 -14   3    0.71    0.90
  -2  14  -3    1.06    0.84
  -2 -14  -3    0.82    0.96
   2 -14   3    0.70    1.04
  -3 -14  -3   -0.24    0.94
  -3  14  -3   -0.03    0.87
   3 -14   3   -0.95    1.17
  -4 -14  -3    0.20    0.96
   4 -14   3   -0.81    1.10
  -4  14  -3   -1.25    0.93
  -5 -14  -3    0.72    1.00
   5 -14   3    1.27    1.14
  -5  14  -3    2.24    1.02
  -6 -14  -3    1.54    1.25
  -6  14  -3    0.83    1.00
   6 -14   3    0.65    1.06
  -7 -14  -3    0.82    1.09
  -7  14  -3    0.92    0.96
   7 -14   3    0.06    1.04
  -8 -14  -3    2.71    1.38
   8 -14   3    5.04    1.56
  -8  14  -3    4.43    1.18
  -9 -14  -3    1.54    1.21
  -9  14  -3    2.56    1.05
   9 -14   3    2.89    1.35
 -10 -14  -3    0.90    1.30
  10 -14   3    1.96    1.28
 -10  14  -3    4.12    1.27
 -10 -15   3    1.95    1.47
 -10  15   3    2.31    1.24
  -9 -15   3    2.24    1.34
  -9  15   3   -0.23    1.18
  -8 -15   3    4.94    1.62
  -8  15   3    4.18    1.41
  -8 -15   3    5.65    1.22
  -7 -15   3   10.01    1.79
  -7 -15   3    9.43    1.38
  -6  15   3    4.73    1.40
  -6 -15   3    5.47    1.29
  -5  15   3   34.19    2.55
   5  15  -3   33.31    2.54
  -5 -15   3   34.24    2.48
  -4 -15   3   28.90    2.32
   4  15  -3   25.21    2.18
  -4  15   3   29.32    2.26
  -4  15   3   24.88    1.55
  -3 -15   3   26.76    2.22
   3  15  -3   22.12    1.98
  -3  15   3   24.06    2.06
  -3  15   3   21.63    1.53
  -2  15   3   13.01    1.28
  -2  15   3   12.01    1.44
  -1  15   3   37.11    2.05
   1  15  -3   47.72    2.81
  -1 -15   3   48.17    2.99
  -1  15   3   36.94    2.17
   0  15   3   82.61    2.95
   0  15  -3   92.78    3.67
   0 -15   3   89.92    3.87
   1  15   3   83.95    3.16
  -1  15  -3   85.81    3.58
   1 -15   3   91.11    4.10
  -2  15  -3   37.60    2.54
   2 -15   3   35.31    2.61
  -3 -15  -3   17.82    1.91
  -3  15  -3   19.31    1.82
   3 -15   3   21.09    2.19
  -4 -15  -3   19.04    2.04
  -4  15  -3   19.26    1.83
   4 -15   3   16.43    2.07
  -5 -15  -3   16.34    1.96
  -5  15  -3   16.48    1.74
   5 -15   3   16.17    1.93
  -6 -15  -3    6.78    1.52
  -6  15  -3    7.47    1.31
   6 -15   3    5.65    1.46
   7 -15   3    0.78    1.21
  -7 -15  -3   -0.74    1.34
  -7  15  -3   -0.49    0.99
  -8 -15  -3    1.68    1.36
   8 -15   3    1.33    1.21
  -8  15  -3    0.87    1.03
  -9 -15  -3    4.22    1.70
  -9  15  -3    4.79    1.19
  -9  16   3    0.35    1.37
  -8 -16   3    6.05    1.67
  -8  16   3    5.47    1.77
  -7  16   3    4.59    1.51
  -7 -16   3    6.36    1.41
   6  16  -3   -1.12    1.23
  -6  16   3    0.10    1.19
  -6 -16   3   -0.30    0.94
   5  16  -3    0.11    1.12
  -5  16   3   -0.57    1.15
  -5 -16   3    0.29    0.96
  -4 -16   3    3.05    1.18
   4  16  -3    1.45    1.08
  -4  16   3    0.28    1.08
  -3 -16   3    4.19    1.29
   3  16  -3    4.96    1.22
  -3  16   3    2.42    1.01
   2  16  -3    9.51    1.57
  -2  16   3    8.27    1.39
  -2 -16   3    8.67    1.58
  -2  16   3    6.90    1.06
  -1 -16   3    0.40    0.96
  -1  16   3   -0.08    0.72
   1  16  -3    0.08    0.98
   0  16   3    5.27    1.03
   0  16  -3    7.84    1.37
   0 -16   3    6.90    1.45
  -1  16  -3    0.98    1.02
   1  16   3    0.26    0.77
   1 -16   3    1.19    1.17
   2 -16   3   -0.38    1.08
   2  16   3   -0.14    0.79
  -2  16  -3    1.74    1.04
  -3 -16  -3    4.43    1.30
  -3  16  -3    4.53    1.25
   3 -16   3    2.35    1.16
  -4 -16  -3    2.76    1.28
  -4  16  -3    3.48    1.20
   4 -16   3    2.37    1.37
  -5 -16  -3    1.84    1.23
  -5  16  -3    0.42    1.00
   5 -16   3    1.76    1.28
  -6 -16  -3    2.37    1.30
  -6  16  -3    3.11    1.30
   6 -16   3   -1.06    1.18
   7 -16   3    0.21    1.25
  -7 -16  -3   -0.52    1.16
  -7  16  -3   -0.36    0.98
  -8 -16  -3    2.44    1.50
  -8  17   3    2.76    1.72
  -7  17   3    5.75    1.77
  -6 -17   3   16.04    1.98
   6  17  -3   14.53    1.93
  -6  17   3   15.11    2.31
   5  17  -3   15.15    1.95
  -5  17   3    9.21    1.92
  -5 -17   3   12.85    1.74
   4  17  -3    9.53    1.69
  -4 -17   3    6.45    1.55
  -4  17   3    5.84    1.49
  -3 -17   3   21.05    2.28
   3  17  -3   24.96    2.45
   2  17  -3   15.26    1.96
  -2 -17   3   13.61    1.86
   1  17  -3    3.11    1.29
  -1 -17   3    3.24    1.33
   0  17  -3   23.16    2.15
   0 -17   3   25.24    2.59
   1 -17   3    8.66    1.67
  -1  17  -3    8.65    1.59
   1  17   3    6.10    1.21
   2  17   3   11.13    1.50
  -2  17  -3   14.86    1.83
   2 -17   3   13.46    2.00
  -3  17  -3   22.03    2.07
   3 -17   3   23.63    2.45
  -4 -17  -3    3.35    1.38
  -4  17  -3    0.29    1.05
   4 -17   3    1.84    1.34
  -5 -17  -3    2.99    1.39
  -5  17  -3    2.84    1.20
   5 -17   3    4.35    1.56
  -6 -17  -3    6.83    1.72
  -7 -17  -3    0.33    1.24
  -7  18   3   -3.75    2.00
  -6  18   3    1.54    1.63
  -5 -18   3    4.71    1.37
  -5  18   3    0.29    1.43
  -4 -18   3    1.47    1.10
   3  18  -3    2.76    1.36
  -3 -18   3    2.55    1.34
   2  18  -3    1.38    1.12
  -2 -18   3   -0.34    1.20
   1  18  -3    0.11    1.08
  -1 -18   3    2.64    1.50
   0 -18   3    3.04    1.29
   0  18  -3    2.08    1.20
   1 -18   3    0.08    1.19
  -1  18  -3    1.34    1.10
  -2  18  -3   -0.59    1.09
   2 -18   3   -0.04    1.24
   3 -18   3    1.54    1.27
  -5 -18  -3   -0.65    1.18
  -6 -18  -3   -0.04    1.49
  -4 -19   3    5.47    1.59
  -3 -19   3   10.19    1.89
  -2 -19   3   10.33    2.03
  -1 -19   3    5.88    1.78
   0 -19   3    0.82    1.32
 -18   0   4    1.71    1.09
 -17   0   4   29.02    2.26
 -17   0   4   14.70    2.00
 -16   0   4    0.34    0.95
 -16   0   4    1.55    1.15
 -15   0   4    3.12    0.98
 -15   0   4    2.68    1.09
 -14   0   4   11.64    1.38
 -14   0   4   11.27    1.44
 -13   0   4    3.94    1.00
 -13   0   4    4.61    1.08
 -12   0   4    0.84    0.72
 -12   0   4   -0.11    0.78
 -11   0   4   58.72    2.49
 -11   0   4   63.76    2.76
 -10   0   4   89.54    2.95
 -10   0   4   92.92    2.94
  -9   0   4  206.10    4.26
  -9   0   4  222.06    4.18
   8   0  -4    5.20    0.65
  -8   0   4    6.58    0.82
  -8   0   4    6.82    0.71
  -7   0   4  143.78    3.34
  -7   0   4  146.43    2.88
  -6   0   4   12.40    1.04
   6   0  -4   13.85    0.77
  -6   0   4   11.99    0.80
   5   0  -4   90.73    1.69
  -5   0   4   82.62    2.30
  -5   0   4   80.20    1.74
  -4   0   4  289.01    3.00
   4   0  -4  299.87    3.02
   3   0  -4  584.24    3.77
  -3   0   4  601.06    5.80
   2   0  -4   23.89    1.13
   2   0  -4   25.19    0.79
  -2   0   4   25.37    1.24
   2   0  -4   26.57    0.93
  -1   0   4  313.26    3.12
   1   0  -4  314.22    2.75
   1   0  -4  297.04    3.61
  -1   0   4  299.34    3.89
   0   0  -4 2124.89    7.77
   0   0   4 2145.97   10.29
   1   0   4   21.94    1.11
   1   0   4   23.93    1.04
  -1   0  -4   21.00    0.90
  -1   0  -4   20.36    0.98
  -2   0  -4 1457.27    7.92
   2   0   4 1480.17    8.50
   2   0   4 1446.10    8.63
  -2   0  -4 1465.40    7.96
  -3   0  -4   82.00    2.07
   3   0   4   79.11    2.02
  -3   0  -4   90.55    2.12
  -4   0  -4   81.75    2.04
  -4   0  -4   78.40    2.18
   4   0   4   79.26    2.10
  -5   0  -4   60.52    1.88
   5   0   4   57.09    1.87
  -5   0  -4   56.39    2.09
  -6   0  -4    6.33    0.75
  -6   0  -4    6.29    0.91
   6   0   4    6.02    0.79
   7   0   4  391.90    5.14
  -7   0  -4  364.62    5.84
  -8   0  -4  327.28    5.75
   8   0   4  357.25    5.28
  -9   0  -4    1.69    0.83
 -10   0  -4    9.38    0.89
 -10   0  -4   10.40    1.32
 -11   0  -4    7.57    0.86
 -11   0  -4    7.04    1.23
 -12   0  -4    2.17    0.98
 -13   0  -4    6.74    1.42
 -14   0  -4    1.30    1.07
 -15   0  -4    2.86    1.22
 -18   1   4   -0.07    1.00
 -18  -1   4   -0.43    1.28
 -18  -1   4    0.46    1.00
 -17   1   4    0.81    0.92
 -17   1   4    0.81    1.16
 -17  -1   4    1.35    1.00
 -17  -1   4   -0.53    1.15
 -16   1   4    1.60    1.05
 -16   1   4    0.68    1.04
 -16  -1   4    0.05    0.89
 -16  -1   4   -0.06    1.03
 -15   1   4    8.83    1.37
 -15  -1   4    8.24    1.30
 -15   1   4    6.54    1.39
 -15  -1   4    5.49    1.28
 -14   1   4   -1.12    0.83
 -14   1   4    0.88    0.84
 -14  -1   4   -1.31    0.83
 -14  -1   4    1.11    0.96
 -13   1   4   32.29    2.02
 -13  -1   4   34.12    2.06
 -13   1   4   26.21    1.90
 -13  -1   4   26.26    2.00
 -12   1   4    6.60    1.06
 -12  -1   4    7.89    1.12
 -12   1   4    7.71    1.17
 -12  -1   4    6.95    1.10
 -11   1   4    1.94    0.82
 -11   1   4    2.13    0.80
 -11  -1   4    2.77    0.85
 -11  -1   4    2.18    0.85
 -10   1   4    2.09    0.79
 -10  -1   4    2.42    0.75
 -10   1   4    1.76    0.69
 -10  -1   4    2.57    0.74
  -9   1   4   34.53    1.78
  -9  -1   4   37.90    1.85
  -9   1   4   36.70    1.69
  -9  -1   4   39.22    1.90
   8  -1  -4   55.79    1.67
  -8  -1   4   60.00    2.27
  -8   1   4   62.76    1.90
  -8  -1   4   56.28    2.06
  -8   1   4   63.48    2.27
  -7  -1   4  178.28    3.64
  -7   1   4  181.44    3.69
   7   1  -4  170.02    2.95
  -7   1   4  179.43    2.91
  -7  -1   4  185.16    3.49
   6  -1  -4  225.69    2.78
  -6   1   4  238.93    4.11
   6   1  -4  246.86    3.40
  -6  -1   4  240.60    4.16
  -6   1   4  265.15    3.19
  -6  -1   4  250.50    3.75
   5  -1  -4    6.51    0.44
  -5  -1   4    3.57    0.72
   5   1  -4    6.31    0.63
  -5   1   4    5.23    0.69
  -5   1   4    4.88    0.46
  -5  -1   4    4.41    0.59
  -4  -1   4   30.05    1.22
  -4   1   4   29.51    1.34
  -4  -1   4   28.00    1.38
   4   1  -4   33.11    1.24
   4  -1  -4   33.41    0.74
   3   1  -4   22.92    0.90
   3  -1  -4   16.60    0.56
  -3   1   4   22.44    1.14
   3  -1  -4   24.93    0.67
  -3  -1   4   22.84    1.23
   3   1  -4   23.54    1.00
   2   1  -4  810.09    5.05
   2  -1  -4  825.04    5.94
  -2   1   4  833.28    6.48
   2  -1  -4  842.24    3.58
  -2  -1   4  813.91    6.82
   2  -1  -4  837.84    4.07
   2   1  -4  854.11    5.82
  -1   1   4    7.98    0.50
   1   1  -4    7.47    0.60
   1  -1  -4    9.15    0.47
   1  -1  -4    7.62    0.64
   1   1  -4    6.92    0.67
  -1   1   4    6.88    0.67
  -1  -1   4    6.77    0.63
  -1  -1   4    6.54    0.73
   0  -1  -4   90.08    1.55
   0  -1   4   86.93    2.28
   0  -1   4   88.22    2.02
   0   1  -4   85.31    1.74
   0   1   4   83.80    1.62
   0  -1  -4   83.79    1.83
   0   1  -4   80.70    1.97
   0   1   4   79.05    1.89
   1   1   4  309.48    3.73
   1  -1   4  292.92    4.13
   1  -1   4  316.66    3.94
   1   1   4  315.39    3.47
  -1  -1  -4  315.99    3.46
  -1   1  -4  296.50    3.86
  -1   1  -4  317.06    3.57
   2  -1   4   35.04    1.54
   2   1   4   40.77    1.36
   2  -1   4   31.71    1.33
   2   1   4   38.27    1.35
  -2   1  -4   37.67    1.34
  -2  -1  -4   43.00    1.44
  -2  -1  -4   42.14    1.25
  -2   1  -4   37.14    1.48
  -3   1  -4  227.10    3.58
  -3   1  -4  248.81    3.61
  -3  -1  -4  243.38    3.74
   3   1   4  243.58    3.25
   3  -1   4  234.03    3.76
  -3  -1  -4  243.50    2.93
  -4   1  -4  364.10    4.74
  -4   1  -4  357.54    4.59
  -4  -1  -4  362.80    4.98
  -4  -1  -4  380.19    3.83
   4   1   4  378.28    4.13
   4  -1   4  358.18    4.72
   5  -1   4   10.62    0.98
   5   1   4   10.24    0.76
  -5   1  -4    7.79    0.88
  -5  -1  -4    8.44    0.98
  -5  -1  -4    8.22    0.69
  -6  -1  -4  140.46    2.64
  -6   1  -4  135.38    3.26
  -6  -1  -4  135.10    3.43
   6  -1   4  141.62    3.36
   6   1   4  151.32    2.87
  -7  -1  -4   24.10    1.18
   7   1   4   27.09    1.31
  -7   1  -4   21.76    1.50
  -7  -1  -4   24.17    1.54
   7  -1   4   25.06    1.53
   8  -1   4   32.34    1.76
  -8   1  -4   27.48    1.81
  -8  -1  -4   25.97    1.72
  -9  -1  -4    7.63    0.71
  -9   1  -4    6.66    1.11
  -9  -1  -4    7.53    1.11
   9  -1   4    6.41    1.03
 -10  -1  -4    2.67    0.52
 -10   1  -4    0.78    0.85
 -10  -1  -4    2.35    0.91
 -11   1  -4   12.71    1.16
 -11   1  -4   10.23    1.28
 -11  -1  -4   14.96    1.61
 -12   1  -4    0.23    0.58
 -12   1  -4    0.27    0.92
 -12  -1  -4    0.70    0.95
 -13   1  -4    8.16    1.40
 -13  -1  -4    7.32    1.34
 -14   1  -4    1.04    1.01
 -14  -1  -4    2.43    1.12
 -15   1  -4   -0.39    1.04
 -15  -1  -4    1.64    1.18
 -18   2   4   -1.23    1.07
 -18  -2   4    2.34    1.42
 -18  -2   4    0.39    0.91
 -17   2   4    0.29    0.97
 -17  -2   4   -0.28    1.14
 -17  -2   4   -0.68    0.93
 -16   2   4   -0.19    0.94
 -16   2   4    2.12    1.06
 -16  -2   4   -0.86    1.12
 -16  -2   4   -0.84    1.04
 -15   2   4    0.39    0.85
 -15   2   4   -0.38    0.90
 -15  -2   4    3.05    1.17
 -15  -2   4    1.63    0.89
 -14   2   4    2.53    0.96
 -14   2   4    1.03    0.96
 -14  -2   4   -0.93    0.91
 -14  -2   4    1.94    0.82
 -13   2   4    4.41    1.03
 -13   2   4    2.69    0.94
 -13  -2   4    2.24    0.84
 -12   2   4    4.36    0.88
 -12   2   4    2.68    0.81
 -12  -2   4    3.22    0.93
 -12  -2   4    1.35    0.91
 -11   2   4   23.54    1.60
 -11   2   4   21.61    1.54
 -11  -2   4   24.80    1.81
 -11  -2   4   22.70    1.63
 -10   2   4    2.90    0.78
 -10   2   4    2.07    0.60
 -10  -2   4    1.69    0.69
 -10  -2   4    2.98    0.81
   9  -2  -4    5.46    0.69
  -9   2   4    7.05    1.00
  -9   2   4    7.13    0.84
  -9  -2   4    8.37    0.98
   8  -2  -4   39.59    1.40
  -8   2   4   40.71    1.86
  -8  -2   4   47.86    2.00
  -8   2   4   40.92    1.52
   7  -2  -4  123.78    2.11
  -7   2   4  119.63    2.95
  -7  -2   4  133.35    3.20
  -7   2   4  131.57    2.33
  -7  -2   4  126.80    3.04
   6  -2  -4  419.54    3.25
  -6   2   4  418.00    5.31
   6   2  -4  415.29    4.88
  -6  -2   4  410.04    5.50
  -6   2   4  431.29    3.62
  -6  -2   4  422.14    5.27
   5   2  -4  207.31    3.36
  -5  -2   4  204.12    3.68
  -5   2   4  194.88    3.51
  -5   2   4  188.34    1.98
  -5  -2   4  205.55    3.42
  -4  -2   4   13.51    0.95
  -4   2   4   14.29    1.01
  -4  -2   4   11.29    0.96
   4   2  -4   12.45    0.89
   3   2  -4  154.81    2.56
  -3   2   4  164.51    2.92
  -3  -2   4  162.29    3.25
   3   2  -4  166.27    2.89
   2   2  -4  318.57    3.55
   2  -2  -4  307.06    3.57
  -2   2   4  296.30    3.69
  -2  -2   4  291.97    4.29
   2   2  -4  318.20    3.94
  -1  -2   4  341.96    4.69
   1   2  -4  346.72    4.34
  -1   2   4  343.54    2.55
   1   2  -4  328.81    3.63
   1  -2  -4  337.86    3.61
   1  -2  -4  343.74    2.43
  -1   2   4  337.30    3.87
   0  -2   4  645.68    6.56
   0  -2   4  627.26    5.60
   0   2  -4  639.45    5.28
   0   2   4  639.93    4.07
   0  -2  -4  633.76    4.57
   0  -2  -4  637.14    4.22
   0   2   4  635.11    4.93
   1  -2   4  109.44    2.68
  -1   2  -4  116.80    2.28
   1   2   4  105.95    1.90
   1  -2   4  114.75    2.52
  -1  -2  -4  110.59    1.93
  -1  -2  -4  111.63    2.07
   1   2   4  106.68    2.05
   2   2   4  134.06    2.28
   2   2   4  133.28    2.41
  -2  -2  -4  145.37    2.63
  -2  -2  -4  144.49    2.13
   2  -2   4  144.64    3.12
  -3   2  -4  947.32    7.29
   3   2   4  929.87    5.79
  -3  -2  -4  921.81    7.06
  -3  -2  -4  947.01    5.26
   3  -2   4  935.52    8.11
  -4   2  -4  557.99    5.80
  -4  -2  -4  525.44    5.74
  -4  -2  -4  580.24    4.17
   4   2   4  561.84    4.49
   4  -2   4  528.64    6.14
   5  -2   4   17.13    1.24
  -5   2  -4   17.06    1.18
   5   2   4   20.12    0.95
  -5  -2  -4   16.99    1.21
  -5  -2  -4   22.12    0.83
   6   2   4   13.84    0.89
  -6   2  -4    9.40    0.99
   6  -2   4   11.06    1.07
  -6  -2  -4   10.54    1.06
  -6  -2  -4   14.34    0.77
  -7   2  -4   67.55    2.46
  -7  -2  -4   64.96    2.51
   7  -2   4   72.05    2.59
  -7  -2  -4   65.52    1.61
  -8  -2  -4   23.37    1.07
  -8  -2  -4   25.99    0.99
   8  -2   4   28.30    1.76
  -8   2  -4   27.46    1.69
  -8  -2  -4   25.71    1.72
  -9  -2  -4   35.46    1.15
  -9   2  -4   33.11    2.28
  -9  -2  -4   36.04    2.17
   9  -2   4   37.33    2.11
 -10  -2  -4    8.57    1.26
  10  -2   4    9.97    1.27
 -10   2  -4   11.46    1.39
 -11   2  -4    0.93    0.60
 -11   2  -4    1.23    0.82
 -11  -2  -4    0.56    0.88
 -12   2  -4    0.40    0.69
 -12   2  -4   -1.69    0.97
 -12  -2  -4    0.32    0.87
 -13   2  -4    1.14    1.03
 -13  -2  -4    1.51    1.05
 -14   2  -4    0.92    1.11
 -14  -2  -4   -0.35    1.01
 -15   2  -4    1.61    1.19
 -15  -2  -4    2.04    1.15
 -18  -3   4    1.26    0.99
 -18   3   4   -0.63    1.06
 -18  -3   4   -1.82    1.36
 -17  -3   4    0.77    0.88
 -17   3   4    0.59    0.98
 -17  -3   4   -0.11    1.17
 -16  -3   4    0.57    0.91
 -16   3   4    2.20    1.09
 -16  -3   4    0.96    1.11
 -15  -3   4    0.75    0.82
 -15   3   4   -0.20    0.83
 -15   3   4    0.87    0.90
 -15  -3   4   -0.04    1.03
 -14  -3   4   -0.26    0.83
 -14   3   4    0.54    0.88
 -14   3   4    0.02    0.84
 -14  -3   4   -0.31    0.94
 -13  -3   4    0.47    0.68
 -13   3   4    0.05    0.79
 -13   3   4    1.88    0.90
 -13  -3   4    0.68    0.99
 -12   3   4    6.31    1.05
 -12  -3   4    7.84    1.04
 -12   3   4    5.34    0.99
 -12  -3   4    8.30    1.30
 -11  -3   4    5.38    0.98
 -11   3   4    5.42    0.92
 -11   3   4    4.66    1.01
 -11  -3   4    6.24    1.07
 -10   3   4   43.09    2.13
 -10   3   4   40.83    1.84
 -10  -3   4   41.68    2.15
 -10  -3   4   40.40    2.25
  -9  -3   4    2.08    0.77
  -9  -3   4    2.68    0.71
   9  -3  -4    1.03    0.47
  -9   3   4    0.44    0.59
  -9   3   4    1.48    0.54
  -8  -3   4    2.43    0.74
  -8  -3   4    1.84    0.61
   8  -3  -4    3.77    0.53
  -8   3   4    3.48    0.72
  -8   3   4    2.96    0.46
   7  -3  -4   11.80    0.67
  -7   3   4   12.42    1.08
  -7   3   4   13.47    0.78
  -7  -3   4   14.69    1.17
  -7  -3   4   13.20    1.10
  -6   3   4  116.65    2.84
  -6   3   4  112.39    1.69
  -6  -3   4  111.91    2.95
   6  -3  -4  108.86    1.53
  -6  -3   4  102.96    2.86
  -5   3   4  147.58    3.06
   5   3  -4  140.69    3.00
  -5  -3   4  148.16    3.27
  -5  -3   4  151.49    3.16
  -4  -3   4   89.77    2.48
  -4   3   4   84.72    2.17
   4   3  -4   78.94    2.24
   3   3  -4   22.57    1.15
  -3   3   4   23.06    1.17
   3   3  -4   23.79    1.24
  -3  -3   4   24.10    1.36
  -2  -3   4   29.41    1.50
   2   3  -4   24.91    1.17
  -2   3   4   19.82    1.01
   2  -3  -4   23.61    1.06
   2   3  -4   24.95    1.23
   1   3  -4  277.34    4.26
  -1  -3   4  272.41    4.34
   1   3  -4  274.55    3.63
  -1   3   4  245.15    1.94
  -1   3   4  260.36    3.20
   1  -3  -4  253.55    2.08
   1  -3  -4  260.58    3.08
   0  -3   4  318.89    4.39
   0  -3   4  311.61    4.76
   0   3  -4  300.74    3.81
   0  -3  -4  306.65    3.19
   0   3   4  299.66    2.65
   0  -3  -4  314.48    2.86
   0   3   4  289.03    3.23
  -1  -3  -4  672.68    4.35
   1  -3   4  642.62    6.81
   1   3   4  696.54    4.93
  -1  -3  -4  674.03    4.83
   1   3   4  661.36    4.75
   2   3   4 1284.19    6.48
  -2   3  -4 1277.51    8.28
   2   3   4 1276.37    7.60
   2  -3   4 1279.75    9.68
  -2  -3  -4 1289.27    7.76
  -2  -3  -4 1290.00    5.62
  -3   3  -4 1163.68    8.28
   3   3   4 1176.25    5.76
  -3  -3  -4 1190.70    4.99
  -3  -3  -4 1157.18    8.22
   3  -3   4 1141.02    9.23
   4  -3   4  370.62    5.34
   4   3   4  373.11    3.15
  -4   3  -4  399.16    5.15
  -4  -3  -4  409.81    2.87
  -4  -3  -4  371.72    5.10
   5  -3   4   24.62    1.51
  -5   3  -4   25.49    1.37
  -5  -3  -4   26.14    1.51
  -5  -3  -4   21.48    0.69
   5   3   4   24.69    0.82
  -6   3  -4    1.66    0.69
   6  -3   4    0.16    0.59
  -6  -3  -4    1.30    0.69
  -6  -3  -4    0.57    0.19
  -7  -3  -4    2.09    0.26
  -7   3  -4    3.11    0.76
  -7  -3  -4    1.89    0.77
  -7  -3  -4    2.45    0.29
   7  -3   4    3.56    0.85
   8  -3   4   14.59    1.39
  -8   3  -4   16.27    1.36
  -8  -3  -4   11.21    1.27
  -8  -3  -4    8.74    0.46
  -9   3  -4   12.36    1.32
   9  -3   4   16.58    1.53
  -9  -3  -4   16.08    1.55
  10  -3   4    0.61    0.81
 -10   3  -4   -0.76    0.89
 -10  -3  -4    0.49    0.80
 -11   3  -4    2.48    1.05
 -11  -3  -4    1.04    0.86
 -12   3  -4   -0.34    0.67
 -12   3  -4   -0.80    0.98
 -12  -3  -4    0.25    0.89
 -13   3  -4    2.55    0.90
 -13   3  -4    0.69    0.94
 -13  -3  -4    0.05    0.93
 -14   3  -4    3.39    1.22
 -14  -3  -4    3.49    1.30
 -15  -3  -4    0.64    1.11
 -18  -4   4    2.74    1.09
 -18  -4   4    1.67    1.45
 -17  -4   4   -3.05    1.15
 -17   4   4    0.61    0.91
 -17  -4   4   -1.02    1.37
 -16  -4   4    4.28    1.08
 -16   4   4    2.77    1.10
 -16  -4   4    4.19    1.34
 -15  -4   4    3.88    1.09
 -15   4   4    3.48    1.09
 -15   4   4    2.16    0.94
 -15  -4   4    4.05    1.31
 -14  -4   4    6.93    1.14
 -14   4   4   11.12    1.47
 -14   4   4    6.97    1.16
 -14  -4   4    6.61    1.46
 -13  -4   4    2.85    0.87
 -13   4   4    3.96    1.00
 -13   4   4    2.50    0.85
 -13  -4   4    4.69    1.22
 -12   4   4   13.79    1.38
 -12   4   4    9.72    1.08
 -12  -4   4   10.17    1.25
 -12  -4   4   10.73    1.47
 -11   4   4   12.50    1.28
 -11   4   4   12.71    1.18
 -11  -4   4   14.18    1.43
 -11  -4   4   12.97    1.48
 -10  -4   4    2.04    0.92
 -10  -4   4    1.04    0.69
 -10   4   4    0.60    0.65
 -10   4   4    1.39    0.60
   9  -4  -4   27.15    1.28
  -9   4   4   29.51    1.77
  -9   4   4   27.31    1.28
  -9  -4   4   31.69    1.77
  -9  -4   4   34.97    2.06
   8  -4  -4  286.37    3.42
  -8   4   4  273.66    4.86
  -8   4   4  273.57    3.65
  -8  -4   4  284.08    5.31
  -7  -4   4    5.80    0.90
  -7  -4   4    6.42    0.87
   7  -4  -4    4.42    0.44
  -7   4   4    5.23    0.49
  -7   4   4    5.86    0.84
   6  -4  -4  111.52    1.53
  -6   4   4  125.81    3.05
  -6   4   4  118.80    1.72
  -6  -4   4  132.05    3.24
  -6  -4   4  131.57    3.43
  -5  -4   4  894.14    8.27
  -5   4   4  873.35    7.49
  -5  -4   4  870.77    8.24
  -4  -4   4  558.73    6.46
  -4   4   4  581.34    5.70
  -4  -4   4  585.97    6.76
  -3  -4   4  387.34    5.47
   3   4  -4  365.78    4.69
  -3   4   4  381.74    4.49
  -2  -4   4  310.44    4.94
   2  -4  -4  307.50    3.74
  -2   4   4  326.58    3.75
   1   4  -4  414.93    4.79
   1  -4  -4  418.65    4.01
  -1   4   4  413.21    2.53
  -1   4   4  434.75    4.12
   1  -4  -4  397.89    2.95
   0  -4  -4  528.90    4.21
   0   4  -4  570.29    5.65
   0   4   4  543.36    3.81
   0  -4   4  586.85    6.84
   0   4   4  534.13    4.35
   0  -4  -4  558.27    4.27
  -1   4  -4 2769.54   12.63
   1   4   4 2799.71   10.56
  -1  -4  -4 2747.83    8.79
   1  -4   4 2781.52   14.68
  -2  -4  -4  375.74    2.93
  -2   4  -4  377.70    4.70
  -2  -4  -4  387.48    4.43
   2  -4   4  372.17    5.41
   2   4   4  386.59    3.20
  -3  -4  -4 1529.08    5.00
  -3   4  -4 1529.04    9.70
   3   4   4 1480.36    5.82
  -3  -4  -4 1573.39    9.48
   3  -4   4 1523.01   10.98
   4  -4   4  270.24    4.80
  -4   4  -4  266.98    4.20
  -4  -4  -4  271.78    4.33
  -5   4  -4   45.61    1.88
  -5  -4  -4   38.30    1.83
   5  -4   4   42.60    2.03
  -6   4  -4  134.83    3.17
   6  -4   4  126.69    3.49
  -7   4  -4   69.82    2.46
  -7  -4  -4   61.61    2.58
   7  -4   4   69.56    2.79
   8  -4   4   22.63    1.73
  -8   4  -4   19.75    1.51
  -8  -4  -4   20.34    1.64
  -9   4  -4   34.01    2.02
   9  -4   4   34.99    2.18
  -9  -4  -4   34.45    2.15
 -10   4  -4   -1.22    0.84
 -10  -4  -4   -0.20    0.88
  10  -4   4    1.35    0.99
 -11   4  -4    0.86    0.84
  11  -4   4    3.62    1.18
 -11  -4  -4    2.28    1.02
 -12   4  -4   19.82    1.57
 -12   4  -4   16.04    1.72
 -12  -4  -4   15.20    1.80
 -13   4  -4   -0.18    0.78
 -13   4  -4    0.93    1.02
 -13  -4  -4    1.07    1.12
 -14   4  -4   -0.60    0.95
 -14  -4  -4    1.56    1.12
 -18  -5   4    2.60    1.64
 -17  -5   4   -0.35    1.19
 -17  -5   4    0.02    0.89
 -17   5   4   -2.20    1.19
 -16  -5   4    5.44    1.55
 -16  -5   4    8.21    1.40
 -16   5   4    8.84    1.46
 -15  -5   4    3.13    1.34
 -15  -5   4    3.40    1.06
 -15   5   4    0.82    0.95
 -14  -5   4   -0.68    0.95
 -14  -5   4   -0.43    0.83
 -14   5   4    0.52    0.85
 -14   5   4   -1.42    0.74
 -13  -5   4    5.72    1.30
 -13  -5   4    5.23    1.06
 -13   5   4    4.64    1.05
 -13   5   4    2.49    0.82
 -12   5   4   29.83    1.92
 -12   5   4   27.84    1.67
 -12  -5   4   29.24    2.06
 -12  -5   4   26.94    2.26
 -11  -5   4    1.29    0.88
 -11  -5   4    1.19    0.64
 -11   5   4    0.94    0.81
 -11   5   4    0.79    0.62
 -10   5   4   14.73    1.37
 -10   5   4   16.54    1.14
 -10  -5   4   15.74    1.41
 -10  -5   4   15.24    1.51
  -9   5   4   56.76    2.38
  -9   5   4   55.14    1.77
   9  -5  -4   55.88    1.76
  -9  -5   4   58.86    2.44
  -9  -5   4   60.19    2.67
  -8  -5   4    1.68    0.84
   8  -5  -4    1.60    0.44
  -8   5   4    1.97    0.70
  -8  -5   4    1.62    0.66
  -8   5   4    1.28    0.40
  -7   5   4   22.46    0.92
   7  -5  -4   19.99    0.85
  -7   5   4   16.82    1.34
  -7  -5   4   22.87    1.46
  -7  -5   4   22.62    1.61
   6  -5  -4  174.59    2.05
  -6   5   4  170.27    1.99
  -6   5   4  176.75    3.59
  -6  -5   4  171.64    3.85
  -6  -5   4  174.71    4.16
  -5  -5   4   17.14    1.27
  -5   5   4   14.38    1.08
  -5   5   4    7.70    0.34
  -5   5   4    8.90    0.38
  -5  -5   4   15.15    1.23
  -4  -5   4    2.83    0.72
  -4  -5   4    2.46    0.66
  -4   5   4    2.39    0.52
  -3  -5   4  153.17    3.64
   3   5  -4  146.31    3.19
  -3   5   4  154.26    2.86
  -2   5   4    1.76    0.20
   2   5  -4    2.83    0.61
   2  -5  -4    2.23    0.49
  -2   5   4    0.89    0.17
  -2  -5   4    3.71    0.82
  -2   5   4    2.21    0.50
   1  -5  -4    6.96    0.64
   1   5  -4    4.75    0.77
  -1  -5   4    5.12    0.89
  -1   5   4    7.84    0.64
  -1   5   4    7.40    0.48
   1  -5  -4    7.49    0.53
   0  -5  -4  350.43    3.67
   0   5  -4  360.10    4.83
   0  -5   4  367.57    5.59
   0   5   4  365.57    3.48
   0  -5  -4  356.37    3.67
   1  -5   4    4.55    0.84
  -1  -5  -4    3.90    0.41
  -1   5  -4    1.32    0.53
   1   5   4    2.00    0.44
  -1  -5  -4    3.03    0.51
   1   5   4    2.42    0.37
  -2   5  -4   68.15    2.09
   2   5   4   49.28    1.68
  -2  -5  -4   56.94    1.84
   2  -5   4   70.90    2.60
   2   5   4   56.52    1.20
   3   5   4    1.30    0.20
   3   5   4    1.38    0.19
  -3   5  -4    2.70    0.68
   3  -5   4    3.02    0.76
  -3  -5  -4    2.83    0.63
   4  -5   4   37.31    1.95
  -4  -5  -4   35.04    1.73
  -4   5  -4   38.35    1.68
   5  -5   4    5.16    0.96
  -5   5  -4    6.52    0.86
  -5  -5  -4    7.32    1.00
  -6  -5  -4    8.39    1.07
  -6   5  -4    9.57    1.05
   6  -5   4   12.32    1.33
  -7   5  -4   14.47    1.31
  -7  -5  -4   11.97    1.26
   7  -5   4   13.66    1.47
   8  -5   4   26.30    1.94
  -8   5  -4   23.70    1.61
  -8  -5  -4   24.55    1.83
   9  -5   4    3.17    1.13
  -9   5  -4    1.18    0.78
  -9  -5  -4    1.48    0.90
 -10   5  -4    9.47    1.29
 -10  -5  -4    7.65    1.27
 -11   5  -4    3.48    1.04
  11  -5   4    1.49    0.99
 -11  -5  -4    1.78    1.06
 -12   5  -4   -0.15    0.90
 -12  -5  -4    1.20    1.12
 -13   5  -4    2.55    1.30
 -13  -5  -4    1.83    1.25
 -13   5  -4    0.48    0.81
 -14   5  -4    3.13    1.06
 -14   5  -4    2.62    1.29
 -14  -5  -4    1.75    1.31
 -17  -6   4   -1.00    1.41
 -16  -6   4   -1.48    1.20
 -16  -6   4    0.38    0.88
 -16   6   4    1.01    0.99
 -15  -6   4   -0.74    1.13
 -15  -6   4    1.20    0.90
 -15   6   4    2.68    1.14
 -14  -6   4    7.07    1.50
 -14   6   4   10.63    1.45
 -14  -6   4    8.25    1.26
 -13  -6   4   -1.07    1.06
 -13  -6   4    0.56    0.77
 -13   6   4   -1.59    0.88
 -13   6   4   -0.69    0.71
 -12  -6   4    1.99    0.96
 -12  -6   4    3.56    0.94
 -12   6   4    1.67    0.81
 -12   6   4    0.85    0.60
 -11  -6   4    4.05    1.00
 -11  -6   4    2.79    0.90
 -11   6   4    3.91    0.94
 -11   6   4    2.92    0.74
 -10   6   4   26.00    1.69
 -10   6   4   30.40    1.51
 -10  -6   4   26.48    2.03
 -10  -6   4   27.23    1.81
  -9  -6   4    6.86    1.15
  -9   6   4    5.56    0.72
  -9   6   4    5.23    1.00
  -9  -6   4    6.45    1.02
   8  -6  -4   24.58    1.10
  -8   6   4   24.53    1.63
  -8   6   4   25.23    1.13
  -8  -6   4   22.25    1.84
  -8  -6   4   22.39    1.63
   7  -6  -4  120.14    2.08
  -7   6   4  130.01    2.12
  -7   6   4  113.21    3.10
  -7  -6   4  123.06    3.79
  -7  -6   4  127.61    3.49
  -6  -6   4   91.32    2.90
  -6   6   4   80.54    1.65
  -6   6   4   87.08    2.63
  -6   6   4   97.32    1.64
  -6  -6   4   98.70    3.19
  -5  -6   4   61.19    2.55
  -5  -6   4   51.53    2.25
  -5   6   4   53.98    1.04
  -5   6   4   58.10    2.09
  -5   6   4   51.93    1.11
  -4  -6   4  501.34    6.71
  -4  -6   4  503.61    6.69
  -4   6   4  509.80    5.54
  -4   6   4  412.53    2.34
  -4   6   4  404.01    2.63
   3   6  -4   15.64    1.20
  -3  -6   4   15.62    1.29
  -3   6   4    9.69    0.89
  -3   6   4    5.43    0.31
  -3   6   4    6.92    0.36
  -2   6   4  179.13    1.95
   2   6  -4  193.37    3.74
  -2  -6   4  204.42    4.31
  -2   6   4  190.31    3.03
  -1   6   4  687.87    6.72
   1   6  -4  688.33    6.99
  -1  -6   4  717.97    8.03
  -1   6   4  696.55    5.31
   1  -6  -4  680.87    4.85
   0   6  -4   21.76    1.29
   0   6   4   26.59    0.98
   0  -6   4   21.92    1.50
   0   6   4   21.86    0.94
   0  -6  -4   25.71    1.13
   0   6   4   26.51    1.26
   1   6   4  107.33    2.35
   1   6   4  124.59    1.93
   1   6   4  131.56    2.48
   1  -6   4  113.01    3.25
  -1  -6  -4  115.87    2.55
  -1   6  -4  104.68    2.75
   2   6   4  223.45    2.70
   2   6   4  217.45    2.19
  -2  -6  -4  226.03    3.81
  -2   6  -4  232.41    4.07
  -3   6  -4   11.24    0.98
   3  -6   4   13.85    1.29
   4  -6   4   71.75    2.70
  -4   6  -4   74.53    2.40
  -4  -6  -4   68.59    2.40
   5  -6   4  369.00    6.24
  -5   6  -4  365.51    5.42
  -5  -6  -4  355.01    5.81
   6  -6   4  111.63    3.62
  -6   6  -4  110.72    3.06
  -6  -6  -4  109.39    3.42
  -7   6  -4    9.33    1.09
  -7  -6  -4    7.88    1.16
   7  -6   4    7.77    1.23
  -8   6  -4   65.60    2.58
   8  -6   4   68.32    3.11
  -9   6  -4    4.41    0.92
  -9  -6  -4    3.85    1.04
   9  -6   4    5.95    1.22
  10  -6   4    2.13    1.08
 -10   6  -4    2.13    0.92
 -10  -6  -4    4.35    1.15
  11  -6   4    1.87    1.02
 -11   6  -4    4.27    1.07
 -11  -6  -4    3.94    1.21
 -12   6  -4    0.57    0.96
 -12  -6  -4    1.90    1.22
 -13   6  -4   -0.20    0.98
 -13   6  -4    2.01    0.88
 -13  -6  -4    0.58    1.14
 -14   6  -4    3.11    1.06
 -14   6  -4    0.28    1.13
 -14  -6  -4    4.85    1.56
 -17  -7   4    0.67    1.37
 -16  -7   4   -0.23    1.22
 -16  -7   4    0.88    1.01
 -16   7   4    1.26    1.00
 -15  -7   4    1.08    0.96
 -15   7   4   -0.64    0.98
 -14  -7   4    1.05    1.06
 -14  -7   4    1.09    0.96
 -14   7   4    0.16    0.88
 -13  -7   4   -0.97    1.02
 -13  -7   4    0.99    0.84
 -13   7   4    0.46    0.77
 -12  -7   4    3.52    1.27
 -12  -7   4    2.62    1.01
 -12   7   4    1.49    0.84
 -11  -7   4    1.55    1.01
 -11  -7   4    1.13    0.81
 -11   7   4    1.03    0.77
 -11   7   4    0.75    0.60
 -10  -7   4    1.21    1.02
 -10  -7   4    0.93    0.79
 -10   7   4    0.37    0.73
 -10   7   4    0.93    0.55
  -9  -7   4    2.47    0.98
  -9  -7   4    2.16    0.76
  -9   7   4    1.48    0.69
  -9   7   4    2.43    0.56
  -8  -7   4   20.70    1.60
  -8   7   4   16.35    1.39
  -8   7   4   17.54    1.01
  -8  -7   4   19.56    1.60
  -7  -7   4   40.75    2.13
  -7   7   4   45.20    2.06
  -7   7   4   46.37    1.41
  -7  -7   4   44.83    2.42
  -6  -7   4   15.34    1.44
  -6  -7   4   14.88    1.34
  -6   7   4   15.40    1.22
  -6   7   4   17.33    0.78
  -6   7   4   14.40    0.81
  -5  -7   4    9.42    1.23
  -5  -7   4    8.27    1.06
  -5   7   4    9.92    0.96
  -5   7   4   12.05    0.57
  -5   7   4    9.69    0.62
  -4  -7   4   12.30    1.28
  -4  -7   4   13.47    1.29
  -4   7   4   14.10    1.06
  -4   7   4   14.62    0.60
  -4   7   4   12.69    0.64
  -3   7   4    5.65    0.45
  -3   7   4    5.50    0.65
  -3   7   4    4.81    0.41
   3   7  -4    6.08    0.87
  -3  -7   4    6.26    0.96
  -2   7   4  137.06    1.98
   2   7  -4  130.26    3.22
  -2   7   4  131.70    2.58
  -2  -7   4  142.84    3.85
  -1  -7   4    0.80    0.67
   1  -7  -4    2.56    0.46
  -1   7   4    2.62    0.58
  -1   7   4    2.49    0.42
  -1   7   4    1.97    0.39
   1   7  -4    1.94    0.66
   0   7   4   46.45    1.74
   0   7  -4   44.80    1.88
   0   7   4   43.36    1.28
   0   7   4   36.87    1.33
   0  -7   4   46.90    2.20
   0  -7  -4   44.05    1.64
  -1  -7  -4    3.91    0.67
  -1   7  -4    6.96    0.90
   1   7   4    4.05    0.45
   1   7   4    2.93    0.52
   1  -7   4    7.37    1.03
   1   7   4    5.17    0.63
  -2   7  -4    4.76    0.82
   2   7   4    5.64    0.52
   2  -7   4    4.38    0.86
   2   7   4    5.64    0.42
  -2  -7  -4    5.04    0.72
   3  -7   4   71.15    2.74
  -3   7  -4   66.34    2.32
   4  -7   4  131.64    3.73
  -4   7  -4  140.72    3.40
   5  -7   4   15.49    1.49
  -5   7  -4   15.21    1.22
  -6   7  -4    5.91    0.96
  -6  -7  -4    8.90    1.28
   6  -7   4    6.71    1.16
  -7   7  -4    6.64    1.01
   7  -7   4    8.09    1.23
  -7  -7  -4    8.44    1.22
  -8   7  -4    3.43    0.91
   8  -7   4    1.40    0.96
  -8  -7  -4    1.96    0.96
  -9   7  -4    3.88    0.99
  -9  -7  -4    2.39    1.00
   9  -7   4    3.16    1.07
  10  -7   4    0.29    0.95
 -10   7  -4    0.51    0.82
 -10  -7  -4    0.31    0.91
  11  -7   4   -1.62    1.13
 -11   7  -4    1.96    1.03
 -11  -7  -4    0.57    1.12
  12  -7   4    0.68    1.10
 -12   7  -4   -1.17    0.98
 -13   7  -4   -0.45    0.83
 -13   7  -4    0.13    1.03
 -13  -7  -4    0.23    1.12
 -14   7  -4    0.26    0.92
 -14  -7  -4   -0.89    1.23
 -15   7  -4   -0.49    1.04
 -16  -8   4    0.67    1.47
 -16   8   4    1.43    1.00
 -15  -8   4   -0.54    1.23
 -15  -8   4    1.08    0.88
 -15   8   4    0.35    0.87
 -14  -8   4    0.60    1.13
 -14  -8   4    0.32    0.84
 -14   8   4    2.76    1.06
 -13  -8   4   -0.32    0.93
 -13   8   4    0.94    0.92
 -12  -8   4    1.90    1.19
 -12  -8   4    2.01    0.95
 -12   8   4    2.08    0.92
 -11  -8   4    0.23    0.98
 -11  -8   4   -0.17    0.79
 -11   8   4    1.54    0.79
 -10  -8   4    5.81    1.27
 -10  -8   4    6.01    1.17
 -10   8   4    4.66    0.97
 -10   8   4    4.48    0.76
  -9  -8   4    0.22    0.83
  -9  -8   4    1.54    0.78
  -9   8   4    2.69    0.89
  -9   8   4    1.91    0.64
  -8  -8   4    0.25    0.83
  -8   8   4    2.12    0.72
  -8  -8   4    2.15    0.87
  -8   8   4    2.07    0.55
  -7  -8   4   58.73    2.61
  -7   8   4   53.90    2.25
  -7   8   4   56.81    1.59
  -7  -8   4   62.42    2.79
  -6  -8   4   69.10    2.91
  -6  -8   4   65.26    2.80
  -6   8   4   62.93    2.38
  -6   8   4   70.08    1.60
  -6   8   4   61.12    1.72
  -5  -8   4  102.41    3.60
  -5  -8   4  104.56    3.39
  -5   8   4   90.74    1.62
  -5   8   4   86.09    2.68
  -5   8   4   83.59    1.91
  -4  -8   4  293.25    5.52
  -4   8   4  277.07    4.43
  -4   8   4  295.52    2.95
  -4   8   4  270.94    3.34
   3   8  -4  304.41    5.40
  -3   8   4  315.28    4.45
  -3  -8   4  313.24    5.84
  -2   8   4  564.08    4.53
  -2  -8   4  553.77    7.59
  -2   8   4  554.04    5.56
   1  -8  -4  172.51    3.00
   1   8  -4  186.14    4.09
  -1   8   4  182.42    3.01
  -1  -8   4  191.35    4.55
   0   8  -4   75.86    2.57
   0   8   4   73.86    1.73
   0  -8   4   64.79    2.61
   0   8   4   74.12    2.29
   0  -8  -4   74.37    2.22
   1   8   4   55.97    1.37
  -1   8  -4   68.91    2.43
   1   8   4   59.20    1.86
   1  -8   4   67.11    2.68
  -1  -8  -4   57.16    2.09
   2   8   4  484.16    4.49
  -2   8  -4  538.19    6.62
   2   8   4  494.86    3.45
  -2  -8  -4  531.97    6.57
   2  -8   4  548.06    7.65
   3  -8   4    7.84    1.17
  -3   8  -4    6.60    1.00
  -3  -8  -4    9.08    1.08
   4  -8   4   29.73    1.97
  -4   8  -4   27.20    1.59
  -4  -8  -4   26.03    1.70
  -5   8  -4  278.11    4.87
   5  -8   4  270.56    5.63
  -5  -8  -4  258.77    5.35
   6  -8   4  102.65    3.68
  -6  -8  -4   98.96    3.49
  -6   8  -4  106.99    3.14
  -7   8  -4   41.26    1.99
   7  -8   4   39.72    2.44
  -8   8  -4   11.22    1.33
  -8  -8  -4   11.32    1.48
   8  -8   4    9.82    1.50
  -9   8  -4    0.86    0.84
   9  -8   4    0.71    0.92
  -9  -8  -4    2.32    1.11
  10  -8   4    1.84    1.02
 -10   8  -4    2.05    0.92
 -10  -8  -4    1.35    1.05
  11  -8   4    2.45    1.24
 -11   8  -4    0.21    0.92
 -11  -8  -4   -0.04    0.99
 -12   8  -4    1.52    1.09
  12  -8   4    2.19    1.26
 -12  -8  -4    3.66    1.50
 -13   8  -4    1.16    0.93
 -13   8  -4   -0.39    1.03
 -13  -8  -4    0.85    1.26
 -14   8  -4   -1.34    1.01
 -16  -9   4    2.02    1.47
 -15  -9   4    0.89    1.38
 -15   9   4    0.45    0.89
 -14  -9   4   -0.65    1.23
 -14  -9   4   -0.89    1.03
 -14   9   4   -2.61    1.13
 -13  -9   4    0.79    1.17
 -13  -9   4    1.91    0.99
 -13   9   4    2.04    0.90
 -12  -9   4    4.97    1.41
 -12  -9   4    2.78    1.08
 -12   9   4    3.50    1.02
 -11  -9   4    2.12    1.13
 -11  -9   4    2.26    1.01
 -11   9   4    1.91    0.82
 -10  -9   4   11.41    1.51
 -10   9   4    8.72    1.25
 -10  -9   4   10.24    1.54
  -9  -9   4    5.99    1.33
  -9   9   4    6.17    0.85
  -9   9   4    5.78    1.04
  -9  -9   4    6.01    1.13
  -8  -9   4    2.16    1.06
  -8   9   4    0.66    0.69
  -8   9   4    1.51    0.54
  -8  -9   4    0.45    0.82
  -7  -9   4    3.29    1.03
  -7   9   4    5.17    0.64
  -7   9   4    5.34    0.91
  -7  -9   4    4.26    1.01
  -6  -9   4   24.46    1.87
  -6  -9   4   23.72    1.78
  -6   9   4   18.36    1.43
  -6   9   4   19.89    0.93
  -5   9   4   39.63    1.25
  -5  -9   4   37.55    2.25
  -5  -9   4   36.95    2.12
  -5   9   4   35.23    1.85
  -4   9   4  112.38    2.06
  -4  -9   4  110.35    3.58
  -4   9   4  105.36    2.88
  -3  -9   4    1.51    0.75
   3   9  -4   -0.06    0.69
  -3   9   4    1.15    0.42
  -3   9   4    2.29    0.69
  -3   9   4    1.08    0.53
  -2   9   4   15.42    0.89
   2   9  -4   16.17    1.35
  -2   9   4   15.60    1.07
  -2  -9   4   18.52    1.50
  -2   9   4   11.57    0.86
  -1  -9   4    3.64    0.89
   1   9  -4    4.13    0.92
  -1   9   4    5.50    0.68
  -1   9   4    4.28    0.65
   0  -9  -4    0.91    0.58
   0   9  -4    1.53    0.72
   0  -9   4   -0.21    0.78
   0   9   4    0.51    0.40
  -1   9  -4  140.23    3.51
   1   9   4  134.07    3.01
   1   9   4  121.10    2.09
   1  -9   4  143.39    4.03
  -1  -9  -4  124.16    3.20
  -2  -9  -4    2.23    0.81
  -2   9  -4    2.00    0.77
   2   9   4    1.33    0.30
   2  -9   4    2.86    0.97
  -3  -9  -4    2.30    0.76
   3   9   4    1.57    0.19
   3  -9   4    3.41    0.90
   4  -9   4   31.55    2.11
  -4   9  -4   31.47    1.79
  -4  -9  -4   28.62    1.84
  -5   9  -4    3.96    0.87
   5  -9   4    5.76    1.13
  -5  -9  -4    7.29    1.19
  -6   9  -4    4.83    0.95
   6  -9   4    3.83    1.10
  -6  -9  -4    2.31    0.98
  -7   9  -4    8.79    1.14
   7  -9   4    9.02    1.41
  -7  -9  -4    7.68    1.30
   8  -9   4   13.39    1.70
  -8   9  -4   13.54    1.38
  -8  -9  -4   10.30    1.49
  -9   9  -4   -0.51    0.85
   9  -9   4   -0.39    0.99
  -9  -9  -4   -0.03    1.00
  10  -9   4    2.32    1.08
 -10  -9  -4    5.94    1.46
 -10   9  -4    5.00    1.16
  11  -9   4   -0.69    1.11
 -11   9  -4   -0.54    0.88
 -11  -9  -4   -0.35    1.17
  12  -9   4   -0.27    1.25
 -12   9  -4    0.38    0.98
 -12  -9  -4    1.72    1.31
 -13  -9  -4   -0.17    1.34
 -14   9  -4    0.83    1.00
 -15 -10   4   -0.52    1.35
 -14 -10   4   -0.12    1.28
 -14  10   4    0.76    0.91
 -14 -10   4    1.69    0.98
 -13 -10   4    2.76    1.60
 -13  10   4    2.43    1.04
 -13 -10   4    1.02    0.95
 -12 -10   4    3.82    1.48
 -12  10   4    2.20    0.98
 -12 -10   4    2.19    1.08
 -11 -10   4    5.46    1.38
 -11  10   4    6.34    1.23
 -11 -10   4    6.29    1.28
 -10 -10   4    1.45    1.02
 -10  10   4    0.42    0.78
 -10 -10   4    1.24    0.96
  -9 -10   4    2.84    1.14
  -9  10   4    2.48    0.87
  -9 -10   4    3.77    1.13
  -8 -10   4   35.33    2.54
  -8 -10   4   37.21    2.34
  -8  10   4   31.82    1.98
  -7 -10   4   12.94    1.59
  -7  10   4   12.56    1.37
  -7  10   4   10.98    0.80
  -7 -10   4   12.22    1.45
  -6 -10   4   11.03    1.45
  -6  10   4    8.51    1.15
  -6 -10   4   11.15    1.37
  -6  10   4    8.15    0.69
  -5 -10   4  169.30    4.87
  -5  10   4  168.73    3.99
  -5  10   4  173.85    2.81
  -5 -10   4  173.59    4.60
  -4 -10   4    8.50    1.16
   4  10  -4    9.56    1.22
  -4  10   4    8.95    1.00
  -4  10   4   10.75    0.77
   3  10  -4   70.88    2.84
  -3  10   4   65.56    1.81
  -3  10   4   65.34    2.32
  -2 -10   4    6.27    1.15
   2  10  -4    5.75    0.98
  -2  10   4    3.99    0.63
  -2  10   4    5.71    0.81
  -1  10   4    5.67    0.73
  -1  10   4    6.76    0.79
   1  10  -4    6.35    1.02
  -1 -10   4    6.90    1.20
   0 -10  -4  153.18    3.65
   0  10  -4  139.68    3.75
   0  10   4  131.63    2.58
   0 -10   4  144.60    4.09
   1  10   4  127.45    2.29
  -1  10  -4  114.39    3.35
   1 -10   4  128.21    3.95
  -1 -10  -4  127.13    3.35
   2 -10   4   30.76    2.07
   2  10   4   24.61    0.93
  -2  10  -4   27.78    1.72
  -2 -10  -4   28.83    1.85
   3 -10   4   13.08    1.50
  -3  10  -4   13.77    1.27
  -3 -10  -4    9.51    1.22
  -4 -10  -4    7.02    1.20
  -4  10  -4    8.15    1.10
   4 -10   4    7.51    1.21
  -5  10  -4   30.03    1.89
   5 -10   4   30.48    2.17
  -5 -10  -4   27.07    2.04
  -6  10  -4   49.14    2.35
   6 -10   4   48.59    2.76
  -6 -10  -4   45.19    2.58
  -7  10  -4   18.57    1.57
  -7 -10  -4   14.38    1.61
   7 -10   4   17.98    1.87
  -8  10  -4   -0.10    0.81
  -8 -10  -4    0.94    1.01
   9 -10   4   16.64    1.93
  -9  10  -4   18.22    1.64
  10 -10   4    1.53    1.10
 -10  10  -4    3.72    1.20
 -10 -10  -4    2.58    1.23
  11 -10   4   -0.73    1.14
 -11  10  -4    0.82    0.97
 -11 -10  -4    0.28    1.15
  12 -10   4    0.58    1.19
 -12  10  -4    3.75    1.22
 -12 -10  -4    3.00    1.41
 -14 -11   4    0.84    1.36
 -14  11   4    0.85    0.93
 -13 -11   4    0.18    1.18
 -13  11   4   -0.97    1.04
 -13 -11   4   -1.41    0.97
 -12 -11   4    1.87    1.36
 -12  11   4    2.93    1.04
 -12 -11   4    3.17    1.16
 -11 -11   4    0.72    1.16
 -11  11   4    2.66    1.07
 -11 -11   4   -0.80    0.98
 -10 -11   4    2.98    1.18
 -10  11   4    2.93    1.01
 -10 -11   4    3.57    1.10
  -9 -11   4   10.88    1.59
  -9  11   4   10.68    1.42
  -9 -11   4   12.08    1.50
  -8 -11   4   10.31    1.49
  -8  11   4    9.01    1.32
  -8 -11   4    9.54    1.36
  -7 -11   4    7.76    1.37
  -7 -11   4    9.86    1.34
  -7  11   4    6.83    1.13
  -6 -11   4   19.40    1.85
  -6  11   4   16.72    1.48
  -6  11   4   16.31    1.03
  -6 -11   4   21.25    1.82
  -5  11   4   13.21    1.26
  -5  11   4   13.91    0.89
  -5 -11   4   14.95    1.56
   4  11  -4    8.16    1.30
  -4  11   4    5.21    0.88
  -4 -11   4    7.72    1.29
  -3 -11   4    4.26    0.96
   3  11  -4    2.02    0.85
  -3  11   4    2.29    0.54
  -3  11   4    2.29    0.72
   2  11  -4    9.44    1.27
  -2  11   4   10.57    0.92
  -2  11   4    9.54    1.00
  -2 -11   4    9.94    1.45
  -1  11   4   11.45    0.98
   1  11  -4    8.91    1.17
  -1  11   4    9.23    0.92
  -1 -11   4    9.18    1.37
   0 -11  -4    5.29    0.92
   0  11  -4    5.04    0.96
   0  11   4    4.39    0.65
   0 -11   4    4.82    1.02
  -1 -11  -4   33.44    1.90
   1 -11   4   36.45    2.25
  -1  11  -4   40.64    2.14
   1  11   4   29.55    1.20
  -2 -11  -4    1.51    0.89
  -2  11  -4    1.12    0.75
   2 -11   4    0.98    0.95
  -3  11  -4  109.10    3.39
   3 -11   4  114.71    4.03
  -3 -11  -4  114.02    3.78
  -4  11  -4   46.52    2.30
   4 -11   4   43.13    2.49
  -4 -11  -4   44.76    2.48
  -5  11  -4   48.57    2.38
   5 -11   4   45.27    2.65
  -5 -11  -4   39.46    2.44
  -6  11  -4   34.05    2.02
   6 -11   4   39.98    2.70
  -6 -11  -4   34.98    2.45
  -7 -11  -4   23.82    2.16
   7 -11   4   26.08    2.26
  -8 -11  -4    0.28    0.98
  -8  11  -4    0.39    0.76
   8 -11   4   -1.19    1.05
   9 -11   4    4.21    1.34
  -9  11  -4    3.95    1.05
  -9 -11  -4    2.14    1.09
  10 -11   4    3.03    1.34
 -10  11  -4    1.74    0.97
 -10 -11  -4    1.95    1.20
  11 -11   4    0.45    1.21
 -11  11  -4    0.34    1.00
 -11 -11  -4    0.25    1.20
  12 -11   4    0.61    1.29
 -12 -11  -4    1.52    1.42
 -13 -12   4   -0.84    1.41
 -13  12   4    0.22    0.95
 -12 -12   4    0.47    1.24
 -12  12   4    0.11    0.91
 -12 -12   4   -0.10    0.94
 -11 -12   4    1.05    1.09
 -11  12   4    0.86    0.96
 -11 -12   4    1.57    1.04
 -10 -12   4    0.57    1.12
 -10  12   4   -0.03    0.97
 -10 -12   4    1.49    1.05
  -9 -12   4    1.51    1.12
  -9  12   4   -0.68    1.00
  -9 -12   4   -0.39    0.84
  -8 -12   4    7.65    1.48
  -8  12   4    8.59    1.32
  -8 -12   4   10.23    1.40
  -7 -12   4   37.25    2.62
  -7  12   4   35.55    2.15
  -7 -12   4   39.20    2.51
  -6 -12   4   74.04    3.54
  -6  12   4   69.33    2.86
  -6 -12   4   79.95    3.44
   5  12  -4   24.84    2.14
  -5  12   4   24.06    1.72
  -4  12   4    6.91    0.76
   4  12  -4    9.39    1.35
  -4  12   4    5.66    0.95
  -4 -12   4    9.83    1.35
   3  12  -4   25.83    1.95
  -3  12   4   24.68    1.29
  -3 -12   4   30.48    2.25
  -3  12   4   23.47    1.54
  -2  12   4   16.86    1.16
  -2  12   4   15.46    1.22
   2  12  -4   15.83    1.59
  -2 -12   4   16.14    1.65
  -1  12   4   92.05    2.55
   1  12  -4   95.14    3.35
  -1  12   4   91.54    2.64
  -1 -12   4  102.71    3.70
   0 -12   4   75.38    3.26
   0  12  -4   69.72    2.88
  -1 -12  -4   36.76    2.14
   1 -12   4   38.04    2.39
   1  12   4   30.77    1.29
  -1  12  -4   39.51    2.26
   2 -12   4    7.60    1.29
  -2 -12  -4    5.96    1.14
  -2  12  -4    7.44    1.14
  -3  12  -4   34.15    2.04
   3 -12   4   30.64    2.18
  -3 -12  -4   32.06    2.17
  -4  12  -4   46.27    2.34
   4 -12   4   44.33    2.77
  -4 -12  -4   47.52    2.74
  -5  12  -4   43.03    2.37
   5 -12   4   39.66    2.73
  -6  12  -4   17.78    1.64
   6 -12   4   16.75    1.88
  -7 -12  -4    5.05    1.36
   7 -12   4    4.22    1.30
  -7  12  -4    4.70    1.14
  -8 -12  -4    6.28    1.51
  -8  12  -4    5.85    1.20
   8 -12   4    5.17    1.45
  -9 -12  -4    1.05    1.25
   9 -12   4    0.84    1.18
  -9  12  -4    1.60    1.06
 -10 -12  -4    3.31    1.45
  10 -12   4    1.57    1.15
 -10  12  -4    0.30    0.95
 -11 -12  -4    0.36    1.24
  11 -12   4   -0.15    1.25
 -12 -13   4   -1.40    1.33
 -12  13   4   -1.03    1.04
 -11 -13   4    0.19    1.39
 -11  13   4    1.37    1.02
 -11 -13   4    1.72    1.12
 -10 -13   4    0.27    0.92
 -10 -13   4    1.77    1.31
 -10  13   4    0.66    0.99
  -9 -13   4    1.31    1.00
  -9 -13   4    1.47    1.19
  -9  13   4   -0.28    1.01
  -8 -13   4    0.06    0.93
  -8 -13   4   -1.16    1.11
  -8  13   4    0.54    0.95
  -7 -13   4    2.29    1.09
  -7 -13   4    2.44    1.21
  -7  13   4    0.57    0.86
  -6 -13   4    8.82    1.36
  -6  13   4    8.92    1.24
   5  13  -4   16.92    1.77
  -5  13   4   11.74    1.31
  -5 -13   4   15.90    1.76
   4  13  -4    5.77    1.17
  -4  13   4    5.53    1.05
  -4 -13   4    8.81    1.55
   3  13  -4    0.76    0.92
  -3  13   4    0.93    0.55
  -3  13   4    0.72    0.67
  -3 -13   4    2.57    1.09
   2  13  -4    0.62    0.86
  -2  13   4    1.16    0.56
  -2  13   4    0.98    0.68
  -2 -13   4    0.86    0.93
  -1  13   4    0.49    0.59
   1  13  -4   -1.19    0.97
  -1  13   4    0.09    0.58
  -1 -13   4   -0.66    0.95
   0 -13   4    9.88    1.40
   0  13   4   11.78    1.17
   0  13  -4    8.96    1.32
   0  13   4    9.78    0.99
  -1 -13  -4    7.13    1.16
  -1  13  -4    9.79    1.32
  -2 -13  -4   11.48    1.40
  -2  13  -4   13.17    1.50
   2 -13   4   14.17    1.73
  -3 -13  -4    8.34    1.31
  -3  13  -4   10.26    1.30
   3 -13   4    7.60    1.37
  -4 -13  -4    1.97    1.05
  -4  13  -4    3.14    0.96
   4 -13   4    2.67    1.05
   5 -13   4    3.46    1.27
  -5 -13  -4    4.18    1.22
  -5  13  -4    5.75    1.15
  -6  13  -4   10.96    1.36
   6 -13   4    9.57    1.64
  -6 -13  -4   10.20    1.62
  -7 -13  -4   -1.06    1.10
  -7  13  -4   -0.09    0.83
   7 -13   4   -1.85    1.25
  -8 -13  -4    1.61    1.22
  -8  13  -4    0.06    0.89
   8 -13   4    0.80    1.13
  -9 -13  -4   -0.04    1.18
   9 -13   4   -0.85    1.25
  -9  13  -4    1.38    1.11
 -10 -13  -4   -1.31    1.37
 -10  13  -4   -0.12    0.97
  10 -13   4   -0.97    1.36
 -11 -13  -4    0.80    1.42
 -11 -14   4    1.48    1.32
 -11  14   4    0.70    1.11
 -10 -14   4    1.47    1.04
 -10 -14   4    1.03    1.27
 -10  14   4   -0.62    1.18
  -9 -14   4   12.23    2.04
  -9  14   4    7.07    1.42
  -9 -14   4   11.78    1.68
  -8 -14   4    4.04    1.43
  -8 -14   4    2.57    1.17
  -7  14   4    4.11    1.09
  -7 -14   4   11.56    1.71
   6  14  -4    1.13    1.02
  -6 -14   4    1.08    1.06
  -6  14   4    3.04    1.10
   5  14  -4    1.36    1.01
  -5 -14   4    1.54    1.05
  -5  14   4    0.83    0.81
   4  14  -4   61.23    3.11
  -4  14   4   50.72    2.50
   3  14  -4   37.52    2.40
  -3  14   4   33.36    1.97
  -3 -14   4   40.24    2.64
  -2 -14   4   14.15    1.69
   2  14  -4   15.40    1.71
  -2  14   4   10.31    1.16
  -1 -14   4   35.61    2.50
  -1  14   4   26.95    1.61
   1  14  -4   36.85    2.53
  -1  14   4   25.08    1.53
   0  14   4   79.47    2.77
   0  14  -4   86.69    3.49
   0 -14   4   81.44    3.65
   1 -14   4  224.23    6.15
  -1  14  -4  216.52    5.39
  -2 -14  -4   89.50    3.72
  -2  14  -4   96.36    3.70
   2 -14   4   87.88    3.89
  -3 -14  -4   14.01    1.65
  -3  14  -4   13.79    1.54
   3 -14   4   15.85    1.94
  -4 -14  -4    3.39    1.18
  -4  14  -4    2.86    1.04
   4 -14   4    2.54    1.25
  -5 -14  -4    3.63    1.23
   5 -14   4    2.63    1.17
  -5  14  -4    5.32    1.16
  -6 -14  -4    6.05    1.43
  -6  14  -4    9.02    1.42
   6 -14   4    9.78    1.68
  -7 -14  -4    7.69    1.62
  -7  14  -4    9.61    1.44
   7 -14   4    7.14    1.62
  -8 -14  -4    4.70    1.59
  -8  14  -4    4.92    1.15
  -9 -14  -4    0.31    1.28
 -10 -14  -4    2.94    1.58
 -10  15   4   -0.21    1.20
  -9 -15   4    2.02    1.23
  -9 -15   4    1.07    1.14
  -9  15   4   -1.09    1.30
  -8 -15   4    5.06    1.44
  -8 -15   4    5.98    1.54
  -8  15   4    5.49    1.37
   7  15  -4   10.79    1.79
  -7  15   4    9.79    1.60
  -7 -15   4   10.26    1.69
   6  15  -4    0.15    1.01
  -6  15   4    2.49    1.15
  -6 -15   4    2.25    1.13
   5  15  -4    3.40    1.31
  -5  15   4    0.96    0.98
  -5 -15   4    0.37    1.00
   4  15  -4    0.02    1.03
  -4  15   4    0.08    0.86
  -4 -15   4    0.35    0.98
  -3  15   4    2.74    0.85
  -3 -15   4    4.82    1.33
  -2 -15   4   19.20    2.03
   2  15  -4   21.49    2.08
  -1 -15   4   -1.16    1.19
   1  15  -4    0.80    0.96
   0  15  -4   79.57    3.60
   0 -15   4   84.36    3.93
   1  15   4   10.66    1.26
  -1  15  -4   11.61    1.59
   1 -15   4   12.83    1.77
  -2 -15  -4    3.90    1.20
  -2  15  -4    5.15    1.32
   2 -15   4    2.88    1.18
  -3 -15  -4    5.24    1.38
  -3  15  -4    3.75    1.12
   3 -15   4    1.79    1.28
  -4 -15  -4    8.25    1.48
  -4  15  -4   11.92    1.60
   4 -15   4   13.78    2.02
  -5 -15  -4    6.12    1.45
   5 -15   4    6.75    1.57
  -5  15  -4    5.74    1.25
  -6  15  -4   11.48    1.54
  -6 -15  -4   11.85    1.86
   6 -15   4   14.59    2.10
  -7 -15  -4   -0.69    1.14
  -7  15  -4    1.94    1.10
   7 -15   4   -1.53    1.37
  -8 -15  -4    0.24    1.19
  -9 -15  -4    1.45    1.48
  -9  16   4    2.40    1.39
  -8  16   4    1.73    1.27
  -8 -16   4    0.88    1.01
   7  16  -4   14.21    1.85
  -7  16   4   12.63    1.86
  -7 -16   4   14.87    1.96
   6  16  -4   28.27    2.55
  -6 -16   4   24.45    2.30
   5  16  -4   17.22    2.01
  -5  16   4   13.82    1.65
   4  16  -4    6.25    1.45
  -4  16   4    2.14    0.88
  -4 -16   4    5.67    1.42
   3  16  -4    6.95    1.57
  -3 -16   4    7.46    1.57
  -2 -16   4   32.36    2.65
   2  16  -4   32.52    2.51
   1  16  -4   16.55    1.85
  -1 -16   4   19.22    2.17
   0  16  -4   44.02    2.81
   0 -16   4   45.52    3.06
  -1  16  -4   28.94    2.35
   1 -16   4   25.63    2.42
  -2  16  -4    1.19    1.04
   2 -16   4    3.35    1.26
  -3 -16  -4   17.20    1.89
  -3  16  -4   20.27    2.02
  -4 -16  -4   27.64    2.50
  -4  16  -4   31.75    2.40
   4 -16   4   32.93    2.77
  -5 -16  -4    4.97    1.37
  -5  16  -4    9.68    1.58
   5 -16   4    7.63    1.65
  -6 -16  -4    3.93    1.48
  -7 -16  -4    1.78    1.36
  -8 -16  -4   -0.82    1.37
  -8  17   4   -0.67    1.31
  -7  17   4    1.48    1.35
  -7 -17   4   -0.27    1.04
  -6  17   4   -1.17    1.11
  -6 -17   4   -1.07    1.11
   5  17  -4    0.99    1.08
  -5  17   4   -0.40    1.06
  -5 -17   4    0.59    1.09
  -4 -17   4    0.48    1.06
   4  17  -4    1.12    1.19
  -3 -17   4    0.86    1.19
   3  17  -4    3.20    1.37
  -2 -17   4    1.69    1.24
   2  17  -4    1.73    1.30
   1  17  -4    3.03    1.33
  -1 -17   4    2.53    1.24
   0  17  -4   -1.57    1.22
   0 -17   4    0.46    1.11
  -1  17  -4    8.27    1.59
   1 -17   4    4.36    1.48
   2 -17   4    1.32    1.39
  -2  17  -4   -1.00    1.07
   3 -17   4    0.12    1.25
  -3  17  -4    2.34    1.15
  -6 -17  -4    1.75    1.41
  -6 -18   4    0.89    1.11
  -5 -18   4   -0.27    1.16
  -4 -18   4    0.21    1.15
  -3 -18   4   10.16    1.86
  -2 -18   4    9.37    1.78
  -1 -18   4    3.97    1.60
   0 -18   4    5.80    1.61
 -18   0   5    0.22    1.04
 -17   0   5    0.02    0.99
 -16   0   5    3.53    1.19
 -15   0   5   -0.53    0.89
 -15   0   5    1.38    0.99
 -14   0   5    0.57    0.91
 -14   0   5    1.12    0.96
 -13   0   5   -0.23    0.76
 -13   0   5    0.57    0.83
 -12   0   5   -0.23    0.74
 -12   0   5    0.34    0.74
 -11   0   5    0.51    0.72
 -11   0   5    0.75    0.70
 -10   0   5    0.12    0.60
 -10   0   5   -0.23    0.67
  -9   0   5   -1.51    0.74
  -9   0   5   -1.09    0.69
  -8   0   5    1.59    0.54
   8   0  -5    2.60    0.52
  -8   0   5    1.78    0.62
  -7   0   5    0.48    0.44
   7   0  -5    0.29    0.35
  -7   0   5    0.92    0.64
  -6   0   5    0.81    0.38
   6   0  -5    1.32    0.34
  -6   0   5    0.63    0.60
  -5   0   5    1.12    0.57
   5   0  -5    0.79    0.34
   5   0  -5    0.83    0.32
  -4   0   5    1.01    0.54
   4   0  -5    1.01    0.32
   4   0  -5    1.50    0.37
   3   0  -5    0.70    0.33
  -3   0   5   -0.08    0.52
   3   0  -5    0.07    0.27
   2   0  -5    5.67    0.56
  -2   0   5    3.47    0.61
   2   0  -5    4.53    0.46
  -1   0   5    0.08    0.34
  -1   0   5    0.85    0.59
   1   0  -5    0.47    0.35
   0   0   5    2.76    0.52
   0   0   5    2.10    0.56
   0   0  -5    2.37    0.45
   1   0   5    0.22    0.39
  -1   0  -5   -0.20    0.41
   1   0   5   -0.18    0.52
  -2   0  -5    0.52    0.41
   2   0   5    0.83    0.49
   3   0   5    0.78    0.49
  -3   0  -5   -0.16    0.49
   4   0   5    0.92    0.48
  -4   0  -5    1.06    0.61
  -5   0  -5    0.56    0.59
   5   0   5    0.80    0.57
   6   0   5    1.36    0.60
  -6   0  -5    2.13    0.84
   7   0   5   -0.17    0.59
  -7   0  -5   -0.75    0.71
   8   0   5   -0.10    0.64
  -8   0  -5    0.73    0.83
   9   0   5    0.10    0.68
  -9   0  -5   -0.16    0.80
 -10   0  -5   -0.10    0.83
 -10   0  -5    0.82    0.58
 -11   0  -5   -0.18    0.85
 -12   0  -5    0.97    0.97
 -13   0  -5    1.72    1.12
 -14   0  -5   -0.49    1.12
 -18  -1   5    1.22    1.00
 -17   1   5    1.08    1.07
 -17  -1   5    3.55    1.21
 -16   1   5    7.57    1.43
 -16  -1   5    5.51    1.29
 -16  -1   5    4.79    1.40
 -15   1   5    0.53    0.88
 -15  -1   5    0.94    0.89
 -15  -1   5    1.04    1.06
 -14   1   5    1.85    0.95
 -14   1   5    3.48    1.06
 -14  -1   5    3.68    1.08
 -14  -1   5    2.19    1.01
 -13   1   5    6.67    1.15
 -13   1   5    6.78    1.12
 -13  -1   5    6.63    1.15
 -13  -1   5    5.06    1.17
 -12   1   5    6.39    1.08
 -12  -1   5    5.26    1.02
 -12   1   5    4.57    0.88
 -12  -1   5    6.40    1.14
 -11  -1   5    3.15    0.88
 -11   1   5    0.98    0.68
 -11   1   5    2.35    0.73
 -10  -1   5    7.36    0.99
 -10   1   5    7.26    0.90
 -10   1   5    5.46    1.00
 -10  -1   5    6.04    0.94
   9  -1  -5   51.56    1.78
  -9   1   5   56.72    2.44
  -9  -1   5   62.17    2.52
  -9   1   5   59.76    2.02
  -9  -1   5   60.52    2.31
   8  -1  -5    5.56    0.59
  -8  -1   5    7.40    0.96
  -8   1   5    6.22    0.73
  -8   1   5    6.18    0.94
  -8  -1   5    7.17    0.92
   7  -1  -5   32.17    1.14
  -7   1   5   37.18    1.87
   7   1  -5   34.68    1.36
  -7  -1   5   40.50    1.90
  -7   1   5   41.87    1.46
  -7  -1   5   42.51    1.74
  -6  -1   5  299.66    4.04
  -6   1   5  310.51    3.33
   6  -1  -5  266.58    2.72
  -6   1   5  279.57    4.63
   6   1  -5  285.08    3.79
  -6  -1   5  270.91    4.73
   5  -1  -5   22.92    0.73
   5  -1  -5   25.32    0.76
  -5   1   5   29.78    1.52
   5   1  -5   35.08    1.37
  -5  -1   5   29.85    1.55
  -4  -1   5    5.28    0.84
   4   1  -5    3.81    0.51
   4  -1  -5    3.09    0.31
   4   1  -5    3.99    0.57
  -4   1   5    4.26    0.70
   3   1  -5  225.84    2.83
   3  -1  -5  220.97    1.90
   3  -1  -5  233.97    2.39
  -3  -1   5  226.93    4.00
   3   1  -5  243.85    3.40
   2  -1  -5  257.49    2.79
   2   1  -5  242.61    3.50
   2   1  -5  230.99    2.95
   2  -1  -5  252.79    2.26
  -2   1   5  233.73    3.82
  -2  -1   5  242.88    4.27
  -1  -1   5  282.47    4.51
  -1  -1   5  321.04    4.13
  -1   1   5  307.09    3.23
   1   1  -5  298.01    3.42
   1  -1  -5  322.33    2.98
  -1   1   5  267.33    3.96
   0  -1   5  405.84    5.43
   0  -1   5  443.75    5.20
   0   1   5  468.36    4.38
   0   1  -5  417.44    4.27
   0  -1  -5  458.88    3.94
   0   1   5  445.02    5.10
   1   1   5  132.90    2.84
   1  -1   5  132.45    3.08
   1   1   5  134.31    2.57
  -1   1  -5  142.72    2.69
  -1  -1  -5  140.78    2.45
  -1  -1  -5  125.48    2.44
   2   1   5  171.22    3.15
   2  -1   5  203.06    3.79
  -2   1  -5  200.84    3.18
  -2  -1  -5  197.34    3.29
  -2  -1  -5  171.33    2.82
  -3   1  -5   34.41    1.49
  -3  -1  -5   32.26    1.50
   3   1   5   32.27    1.38
   3  -1   5   31.65    1.53
  -3  -1  -5   35.79    1.34
  -4   1  -5   44.59    1.81
  -4  -1  -5   42.12    1.88
  -4  -1  -5   40.12    1.41
   4   1   5   40.67    1.55
   4  -1   5   45.08    1.82
   5  -1   5  643.89    6.90
   5   1   5  675.31    6.26
  -5   1  -5  662.15    7.23
  -5  -1  -5  652.49    7.35
  -5  -1  -5  664.48    5.70
   6  -1   5   14.28    1.18
  -6   1  -5   16.17    1.35
  -6  -1  -5   20.56    1.48
   6   1   5   17.86    1.25
  -6  -1  -5   17.78    1.01
   7   1   5   17.87    1.21
  -7   1  -5   14.06    1.34
   7  -1   5   13.40    1.23
  -7  -1  -5   14.93    1.33
   8  -1   5   83.81    2.86
  -8   1  -5   74.48    2.96
  -8  -1  -5   71.46    2.87
   8   1   5   83.38    2.50
  -9   1  -5   11.14    1.35
   9  -1   5   10.29    1.24
  -9  -1  -5    8.25    1.15
 -10   1  -5    9.46    1.39
 -10  -1  -5    8.20    1.26
 -11   1  -5    4.46    1.08
 -11  -1  -5    7.67    1.39
 -12   1  -5   -3.61    1.20
 -12  -1  -5   -1.33    1.13
 -13   1  -5    0.73    0.97
 -13  -1  -5    1.80    1.11
 -14   1  -5    0.65    1.03
 -14  -1  -5   -0.24    1.05
 -18  -2   5    1.81    1.18
 -17  -2   5    0.48    1.06
 -17   2   5    2.35    1.07
 -16  -2   5    1.03    1.05
 -16   2   5    3.26    1.17
 -16  -2   5    0.45    1.05
 -15  -2   5   -0.80    0.90
 -15   2   5    1.45    1.02
 -15  -2   5   -0.10    1.00
 -14   2   5    4.35    1.19
 -14  -2   5    4.05    1.04
 -14  -2   5    3.09    1.05
 -13   2   5   15.74    1.62
 -13  -2   5   12.71    1.44
 -13   2   5   13.44    1.40
 -13  -2   5   15.01    1.69
 -12  -2   5    0.98    0.88
 -12   2   5    0.40    0.75
 -12   2   5    0.81    0.72
 -12  -2   5    0.83    0.76
 -11   2   5   31.47    2.01
 -11  -2   5   31.28    1.97
 -11   2   5   32.44    1.79
 -11  -2   5   38.68    2.26
 -10   2   5   46.86    2.28
 -10  -2   5   44.20    2.28
 -10   2   5   48.29    1.90
 -10  -2   5   44.71    2.20
  -9  -2   5    0.20    0.73
  -9  -2   5    0.87    0.65
   9  -2  -5    0.67    0.38
  -9   2   5    0.71    0.63
  -9   2   5    0.78    0.49
  -8   2   5    3.15    0.60
  -8  -2   5    1.92    0.77
  -8  -2   5    3.94    0.89
   8  -2  -5    3.38    0.48
   7  -2  -5   32.35    0.95
  -7   2   5   37.56    1.85
  -7  -2   5   39.84    2.02
  -7   2   5   38.05    1.24
  -7  -2   5   42.01    1.80
  -6  -2   5   17.26    1.12
  -6   2   5   11.30    0.56
   6  -2  -5    9.60    0.42
  -6   2   5   13.79    1.12
   6   2  -5   13.35    1.03
  -6  -2   5   15.15    1.20
  -5  -2   5    1.46    0.58
  -5   2   5    1.21    0.58
   5   2  -5    2.02    0.52
   4   2  -5  298.53    3.74
  -4   2   5  315.17    4.52
   4   2  -5  316.42    4.27
  -4  -2   5  312.07    4.87
   3   2  -5    1.43    0.51
   3   2  -5    0.95    0.42
  -3  -2   5    2.83    0.64
  -3   2   5    2.01    0.54
   2   2  -5   44.80    1.67
   2   2  -5   44.89    1.46
   2  -2  -5   37.38    0.80
  -2   2   5   37.75    1.52
   2  -2  -5   34.22    0.91
  -2  -2   5   46.77    1.93
  -1  -2   5   41.62    1.86
   1   2  -5   39.23    1.68
  -1   2   5   39.19    1.07
   1   2  -5   41.59    1.40
   1  -2  -5   40.05    1.03
  -1   2   5   37.71    1.50
   0  -2   5  124.03    3.16
   0   2   5  120.56    2.13
   0   2  -5  124.29    2.46
   0  -2  -5  107.67    2.16
   0  -2  -5  117.20    2.05
   0   2   5  115.37    2.47
   1   2   5  223.96    3.44
   1  -2   5  210.08    4.02
   1   2   5  233.91    3.32
  -1   2  -5  225.83    3.35
  -1  -2  -5  227.20    3.10
  -1  -2  -5  233.75    3.24
   2   2   5  171.27    3.14
   2   2   5  182.55    3.07
  -2   2  -5  168.61    3.02
   2  -2   5  172.71    3.65
  -2  -2  -5  189.67    3.23
  -2  -2  -5  185.00    2.74
   3   2   5    2.56    0.52
   3  -2   5    3.10    0.72
  -3   2  -5    1.52    0.52
  -3  -2  -5    2.62    0.62
  -3  -2  -5    2.01    0.41
  -4   2  -5    2.16    0.63
   4  -2   5    2.78    0.71
  -4  -2  -5    4.38    0.52
  -4  -2  -5    3.66    0.70
   4   2   5    4.75    0.60
  -5  -2  -5    0.42    0.36
   5   2   5    1.25    0.51
  -5   2  -5    1.99    0.68
  -5  -2  -5    0.51    0.62
   5  -2   5    0.69    0.57
   6  -2   5   40.31    1.92
  -6   2  -5   41.61    1.94
  -6  -2  -5   43.58    2.12
   6   2   5   48.11    1.60
  -6  -2  -5   46.56    1.36
   7   2   5   15.75    1.00
  -7   2  -5   13.20    1.27
  -7  -2  -5   11.79    1.27
   7  -2   5   14.91    1.36
  -8   2  -5   11.70    1.30
  -8  -2  -5   10.31    1.30
   8  -2   5   10.84    1.27
   9  -2   5   13.27    1.39
  -9   2  -5   11.86    1.39
  -9  -2  -5   14.04    1.52
  10  -2   5   -0.39    0.88
 -10   2  -5    1.12    0.93
 -10  -2  -5   -0.28    0.83
 -11   2  -5   -0.45    0.96
 -11  -2  -5   -0.64    1.02
 -12   2  -5    1.19    1.00
 -12  -2  -5   -0.16    0.94
 -13   2  -5    2.82    1.13
 -13  -2  -5    4.51    1.26
 -14   2  -5   -0.21    1.09
 -14  -2  -5    1.84    1.19
 -18  -3   5    1.14    1.05
 -17  -3   5    1.67    1.22
 -17  -3   5   -0.58    1.05
 -17   3   5   -0.59    1.08
 -16  -3   5    0.96    1.07
 -16  -3   5   -0.06    0.86
 -16   3   5   -1.54    1.15
 -15   3   5   16.62    1.79
 -15  -3   5   17.38    1.82
 -15  -3   5   15.41    2.01
 -14  -3   5   -0.21    0.93
 -14  -3   5    0.21    0.82
 -14   3   5   -0.41    0.88
 -13  -3   5    1.30    0.95
 -13  -3   5    2.68    0.95
 -13   3   5    3.79    1.04
 -12   3   5   15.90    1.54
 -12  -3   5   13.26    1.40
 -12   3   5   12.12    1.24
 -12  -3   5   14.12    1.62
 -11   3   5    7.02    1.11
 -11  -3   5    9.28    1.22
 -11   3   5    8.77    1.06
 -11  -3   5   11.11    1.32
 -10  -3   5    0.02    0.75
 -10  -3   5    0.24    0.74
 -10   3   5    0.30    0.71
 -10   3   5    0.53    0.55
   9  -3  -5   13.15    0.82
  -9   3   5   15.31    1.39
  -9  -3   5   19.19    1.50
  -9   3   5   15.78    1.00
  -9  -3   5   19.60    1.61
   8  -3  -5  127.14    1.96
  -8   3   5  132.74    3.55
  -8  -3   5  134.33    3.60
  -8   3   5  135.11    2.30
  -8  -3   5  144.66    3.68
   7  -3  -5  206.96    2.01
  -7   3   5  242.60    4.50
  -7  -3   5  262.48    4.88
  -7   3   5  206.22    2.30
  -7  -3   5  264.67    4.58
  -6  -3   5   10.32    1.03
  -6   3   5    7.10    0.86
  -6  -3   5    7.69    0.99
  -5  -3   5  322.57    4.87
  -5   3   5  333.08    4.88
  -5  -3   5  337.14    5.31
   4   3  -5   84.07    2.17
  -4   3   5   92.02    2.48
  -4  -3   5   96.57    2.90
   3   3  -5  257.17    3.77
  -3   3   5  272.39    3.95
  -3  -3   5  270.09    4.81
  -2  -3   5 1251.63   10.09
   2   3  -5 1218.79    7.96
  -2   3   5 1235.42    8.23
  -1  -3   5  333.54    5.24
   1  -3  -5  317.90    2.61
  -1   3   5  323.53    4.10
   0  -3   5   51.71    2.18
   0   3  -5   49.97    1.66
   0   3   5   47.48    1.31
   0  -3  -5   45.87    1.44
   0  -3  -5   50.18    1.27
   0   3   5   46.02    1.53
  -1   3  -5  438.08    5.05
   1   3   5  412.54    4.22
   1  -3   5  429.27    5.99
  -1  -3  -5  445.97    4.16
  -1  -3  -5  458.96    4.51
   1   3   5  446.47    4.60
   2   3   5  218.23    3.11
  -2   3  -5  214.17    3.58
   2   3   5  206.57    3.45
  -2  -3  -5  225.96    2.84
   2  -3   5  212.19    4.29
  -2  -3  -5  215.83    3.46
  -3   3  -5  156.17    3.09
   3   3   5  176.11    2.78
  -3  -3  -5  166.82    2.29
  -3  -3  -5  149.35    3.13
   3  -3   5  164.15    3.83
  -4   3  -5 1054.49    8.57
  -4  -3  -5 1034.75    5.54
  -4  -3  -5  957.31    8.42
   4   3   5 1042.24    6.28
   4  -3   5  971.50    9.13
   5   3   5    5.54    0.60
  -5   3  -5    6.85    0.97
  -5  -3  -5    3.39    0.41
  -5  -3  -5    2.15    0.79
   5  -3   5    5.60    0.92
   6  -3   5    0.95    0.67
  -6   3  -5    0.93    0.68
  -6  -3  -5    1.09    0.74
   6   3   5    0.49    0.38
  -6  -3  -5    0.30    0.25
  -7  -3  -5   27.83    0.80
  -7   3  -5   31.31    1.80
  -7  -3  -5   32.07    1.91
   7  -3   5   31.15    2.04
   8  -3   5    0.42    0.79
  -8   3  -5    1.50    0.80
  -8  -3  -5    0.35    0.76
  -9   3  -5   21.66    1.87
  -9  -3  -5   25.35    1.93
 -10   3  -5    7.24    1.25
  10  -3   5    7.37    1.24
 -10  -3  -5    6.48    1.22
  11  -3   5    0.21    0.92
 -11   3  -5    1.36    0.94
 -11  -3  -5   -0.23    0.94
 -12   3  -5    1.57    0.86
 -12   3  -5    1.92    1.11
 -12  -3  -5    2.48    1.13
 -13   3  -5    0.62    0.96
 -13  -3  -5    0.28    1.00
 -14   3  -5    0.91    1.06
 -14  -3  -5    2.08    1.23
 -18  -4   5    1.07    1.10
 -17  -4   5    1.83    1.36
 -17  -4   5    0.16    0.92
 -17   4   5    0.85    1.09
 -16  -4   5   -1.97    1.32
 -16  -4   5    0.93    0.91
 -16   4   5   -0.81    1.07
 -15  -4   5    1.19    1.19
 -15  -4   5    0.60    0.90
 -15   4   5   -0.60    1.02
 -14  -4   5   -0.39    1.08
 -14  -4   5    0.63    0.79
 -14   4   5    0.98    0.93
 -13  -4   5    4.09    1.13
 -13  -4   5    6.00    1.16
 -13   4   5    4.89    1.03
 -12  -4   5    2.31    1.03
 -12  -4   5    0.72    0.76
 -12   4   5    2.44    0.84
 -11   4   5   13.11    1.44
 -11   4   5   10.19    0.99
 -11  -4   5   14.17    1.45
 -11  -4   5   16.35    1.57
 -10  -4   5    3.42    0.93
 -10  -4   5    5.19    1.07
 -10   4   5    3.76    0.86
 -10   4   5    3.45    0.67
  -9   4   5    8.04    1.05
  -9   4   5    9.65    0.78
  -9  -4   5    7.72    1.10
  -9  -4   5    8.34    1.24
  -8  -4   5    1.19    0.75
  -8  -4   5    0.98    0.64
   8  -4  -5    0.78    0.29
  -8   4   5    0.86    0.64
  -8   4   5    0.25    0.33
  -7  -4   5   21.92    1.54
  -7  -4   5   23.52    1.54
  -6  -4   5   16.90    1.29
  -6   4   5   19.06    1.32
  -6  -4   5   16.08    1.33
  -5  -4   5   48.77    2.08
  -5   4   5   46.24    1.91
  -5  -4   5   50.69    2.18
   4   4  -5   64.69    2.10
  -4   4   5   67.83    2.14
  -4  -4   5   69.04    2.46
   3   4  -5    3.39    0.67
  -3  -4   5    3.75    0.79
  -3   4   5    2.18    0.54
   2   4  -5    4.45    0.67
  -2   4   5    4.31    0.60
  -2  -4   5    4.22    0.84
  -1  -4   5   16.96    1.38
  -1   4   5   18.54    0.66
   1   4  -5   16.52    1.10
  -1   4   5   19.47    1.02
   1  -4  -5   17.20    0.66
   0  -4  -5  169.72    2.65
   0   4  -5  163.04    3.17
   0  -4   5  168.81    3.90
   0   4   5  164.40    2.27
   0  -4  -5  163.16    2.40
   0   4   5  173.20    2.79
  -1  -4  -5   78.89    1.72
  -1   4  -5   84.50    2.28
   1   4   5   72.74    1.79
   1  -4   5   87.27    2.86
  -1  -4  -5   75.68    1.86
   1   4   5   83.76    1.93
   2   4   5   19.90    0.96
  -2  -4  -5   20.47    0.85
  -2   4  -5   24.20    1.27
   2   4   5   18.82    1.08
   2  -4   5   22.62    1.54
  -2  -4  -5   18.84    1.08
  -3  -4  -5   36.23    1.01
   3   4   5   38.74    1.18
  -3   4  -5   44.29    1.76
  -3  -4  -5   36.71    1.59
  -4  -4  -5  522.40    3.31
  -4   4  -5  560.73    6.34
  -4  -4  -5  493.52    5.94
   4   4   5  525.26    3.97
   4  -4   5  564.16    7.36
   5  -4   5   48.18    2.23
  -5  -4  -5   35.03    0.72
  -5   4  -5   47.01    1.98
  -5  -4  -5   41.50    1.95
   5   4   5   30.94    0.86
   6  -4   5  149.38    3.90
  -6   4  -5  156.22    3.65
  -7   4  -5   11.84    1.21
  -7  -4  -5   10.59    1.16
   7  -4   5   12.96    1.52
  -8   4  -5   16.26    1.43
  -8  -4  -5   16.71    1.62
   8  -4   5   17.02    1.61
  -9   4  -5    4.01    0.96
  -9  -4  -5    4.40    1.12
   9  -4   5    3.46    1.07
 -10   4  -5    0.64    0.81
 -10  -4  -5    1.48    1.00
  10  -4   5    1.09    0.97
  11  -4   5   -0.40    0.98
 -11   4  -5   -1.14    0.89
 -11  -4  -5    0.12    0.97
 -12   4  -5   -1.12    1.02
 -12  -4  -5    0.30    1.02
 -13   4  -5    1.21    1.11
 -13  -4  -5    0.90    1.16
 -14  -4  -5    0.41    1.26
 -17  -5   5    1.46    1.39
 -17  -5   5    2.22    1.07
 -16  -5   5    2.17    1.28
 -16  -5   5   -0.37    0.89
 -16   5   5    0.23    0.96
 -15  -5   5    0.86    1.07
 -15  -5   5    0.85    0.91
 -15   5   5    1.36    0.99
 -14  -5   5    0.05    0.95
 -14  -5   5    1.57    0.91
 -14   5   5    0.58    0.89
 -13  -5   5    2.23    0.99
 -13  -5   5    1.41    0.88
 -13   5   5    0.38    0.85
 -12  -5   5    3.29    1.19
 -12  -5   5    5.41    1.11
 -12   5   5    3.53    0.97
 -11  -5   5   -0.64    0.85
 -11  -5   5    0.01    0.72
 -11   5   5    0.90    0.75
 -10   5   5   13.53    1.36
 -10   5   5   12.52    0.96
 -10  -5   5   10.33    1.29
 -10  -5   5   12.20    1.58
  -9   5   5   15.02    1.38
  -9   5   5   12.53    0.82
  -9  -5   5   18.39    1.53
  -9  -5   5   15.92    1.51
  -8  -5   5    2.36    0.93
  -8  -5   5    2.64    0.78
  -8   5   5    2.00    0.81
   8  -5  -5    0.98    0.26
  -8   5   5    0.70    0.28
  -7  -5   5    1.73    0.81
  -7  -5   5    0.72    0.76
  -7   5   5    0.54    0.60
  -6  -5   5   11.15    1.22
  -6   5   5   10.45    1.09
  -6  -5   5    8.96    1.12
  -5  -5   5  291.56    5.35
  -5   5   5  299.02    4.62
   4   5  -5  297.15    4.70
  -4   5   5  305.93    4.46
  -3  -5   5   86.27    2.89
   3   5  -5   81.17    2.40
   2   5  -5    1.62    0.62
  -2  -5   5    1.84    0.80
  -2   5   5    0.86    0.47
   1   5  -5  138.28    3.11
  -1  -5   5  133.57    3.62
  -1   5   5  133.36    1.72
   0   5  -5  331.75    4.73
   0  -5   5  333.19    5.64
   0   5   5  338.68    3.42
   0  -5  -5  297.10    3.73
   0   5   5  345.78    3.91
   0  -5  -5  310.90    3.53
  -1  -5  -5  299.20    3.37
  -1   5  -5  310.25    4.71
   1   5   5  298.62    3.78
   1  -5   5  303.15    5.43
   1   5   5  314.48    3.50
  -2  -5  -5  101.87    1.75
  -2   5  -5  103.10    2.68
  -2  -5  -5   90.86    2.37
   2  -5   5  101.35    3.17
   2   5   5  102.68    1.92
  -3  -5  -5   65.71    1.24
   3   5   5   62.04    1.36
  -3   5  -5   77.30    2.38
  -3  -5  -5   66.06    2.22
   3  -5   5   75.49    2.73
   4  -5   5  696.17    8.42
  -4   5  -5  719.64    7.50
  -4  -5  -5  685.94    7.42
   5  -5   5   95.76    3.26
  -5   5  -5   99.36    2.97
  -5  -5  -5   95.74    2.96
   6  -5   5  221.64    4.90
  -6   5  -5  225.25    4.34
  -7   5  -5   41.90    2.14
   7  -5   5   42.75    2.47
   8  -5   5    4.61    1.12
  -8   5  -5    3.73    0.95
  -8  -5  -5    3.68    0.93
   9  -5   5    8.48    1.38
  -9   5  -5   10.16    1.29
  -9  -5  -5    9.84    1.38
  10  -5   5    1.70    1.05
 -10   5  -5    1.21    0.81
 -10  -5  -5    2.50    0.98
  11  -5   5    9.15    1.55
 -11   5  -5   10.56    1.50
 -11  -5  -5   10.45    1.67
  12  -5   5    5.78    1.46
 -12   5  -5    3.91    1.19
 -12  -5  -5    6.01    1.51
 -13   5  -5    0.49    0.79
 -13   5  -5    1.43    1.15
 -13  -5  -5    0.88    1.38
 -17  -6   5    0.42    1.35
 -17  -6   5   -0.26    1.01
 -16  -6   5    1.78    1.32
 -16  -6   5    3.36    1.19
 -16   6   5    2.29    1.09
 -15  -6   5   -1.40    1.22
 -15  -6   5    0.63    0.88
 -15   6   5    0.43    0.94
 -14  -6   5    4.88    1.31
 -14  -6   5    5.20    1.31
 -14   6   5    3.96    1.08
 -13  -6   5    0.37    0.98
 -13  -6   5    0.17    0.81
 -13   6   5    1.51    0.99
 -12  -6   5   -0.08    0.93
 -12  -6   5    1.08    0.91
 -12   6   5    0.00    0.81
 -11  -6   5   -0.67    0.99
 -11  -6   5    0.49    0.78
 -11   6   5   -0.34    0.78
 -10   6   5    8.80    1.23
 -10  -6   5   11.54    1.35
 -10  -6   5   10.21    1.45
  -9   6   5   25.50    1.74
  -9  -6   5   31.53    2.04
  -9  -6   5   30.64    2.09
  -8  -6   5    4.38    1.00
  -8  -6   5    4.64    0.94
  -8   6   5    2.52    0.41
  -7  -6   5   84.33    3.14
  -7   6   5   74.16    2.68
  -7  -6   5   76.04    2.89
  -6  -6   5   17.26    1.47
  -6  -6   5   21.75    1.68
  -6   6   5   21.21    1.41
  -5  -6   5    6.24    1.05
  -5   6   5    8.36    0.90
   4   6  -5    1.28    0.63
  -4  -6   5    0.81    0.68
  -4   6   5    0.94    0.58
  -3  -6   5   71.60    2.77
   3   6  -5   67.33    2.29
  -3   6   5   66.10    1.99
   2   6  -5    9.53    1.05
  -2  -6   5    8.18    1.14
  -2   6   5    9.63    0.82
   1   6  -5   43.37    1.88
  -1  -6   5   49.69    2.40
  -1   6   5   43.64    1.13
  -1   6   5   49.20    1.57
   1  -6  -5   41.73    1.18
   0  -6   5    5.64    0.97
   0  -6  -5    5.04    0.59
   0   6  -5    5.55    0.86
   0   6   5    4.52    0.59
   0   6   5    6.83    0.67
   0  -6  -5    6.00    0.68
  -1   6  -5   49.27    1.92
   1   6   5   33.86    1.50
   1  -6   5   52.31    2.37
   1   6   5   46.43    1.36
  -1  -6  -5   38.39    1.51
  -2   6  -5   94.63    2.71
  -2  -6  -5   82.91    2.35
   2  -6   5   92.78    3.23
   2   6   5   92.75    1.73
   2   6   5   79.55    1.97
   3   6   5   12.25    0.65
   3   6   5   11.82    0.53
  -3   6  -5   22.08    1.47
  -3  -6  -5   15.48    1.15
   3  -6   5   20.31    1.58
   4  -6   5  191.77    4.63
  -4   6  -5  188.30    3.86
   5  -6   5    1.95    0.87
  -5   6  -5    0.97    0.67
  -5  -6  -5    0.49    0.75
  -6   6  -5   38.10    1.90
   6  -6   5   37.82    2.20
  -6  -6  -5   33.46    2.02
  -7   6  -5  110.31    3.30
  -7  -6  -5  104.78    3.58
   8  -6   5    1.04    1.02
  -8   6  -5    1.22    0.79
  -8  -6  -5   -0.47    0.81
  -9   6  -5   -0.32    0.77
   9  -6   5   -0.44    0.92
  -9  -6  -5    1.58    0.98
  10  -6   5   16.86    1.84
 -10   6  -5   17.13    1.62
 -10  -6  -5   12.36    1.57
 -11   6  -5    3.78    1.21
 -11  -6  -5    2.24    1.13
  11  -6   5    0.73    1.05
  12  -6   5    1.58    1.18
 -12   6  -5    1.65    1.05
 -12  -6  -5    1.16    1.13
 -13   6  -5    0.87    0.91
 -13   6  -5    1.50    1.18
 -13  -6  -5    1.26    1.34
 -17  -7   5    2.66    1.58
 -17  -7   5   -2.05    1.19
 -16  -7   5    2.07    1.42
 -16  -7   5    3.24    1.37
 -15  -7   5   -0.62    1.18
 -15  -7   5    0.21    1.00
 -15   7   5    0.56    0.94
 -14  -7   5    2.51    1.34
 -14  -7   5    2.78    1.10
 -14   7   5    2.15    1.04
 -13  -7   5    0.58    1.04
 -13  -7   5   -0.58    0.95
 -13   7   5   -0.03    0.96
 -12   7   5   17.35    1.68
 -12  -7   5   20.42    2.13
 -12  -7   5   17.82    1.78
 -11  -7   5    3.63    1.10
 -11  -7   5    4.66    1.12
 -11   7   5    3.71    1.02
 -10   7   5    9.49    1.18
 -10  -7   5    8.80    1.40
 -10  -7   5    8.50    1.26
  -9   7   5   18.30    1.51
  -9  -7   5   21.21    1.89
  -9  -7   5   20.86    1.71
  -8  -7   5    3.67    0.95
  -8  -7   5    3.72    0.93
  -8   7   5    3.59    0.88
  -7  -7   5   15.36    1.56
  -7  -7   5   14.90    1.50
  -7   7   5   12.59    1.26
  -6  -7   5  107.19    3.59
  -6  -7   5  101.89    3.52
  -6   7   5   96.12    2.93
  -5  -7   5   17.52    1.53
  -5   7   5   18.43    1.33
   4   7  -5   85.62    2.82
  -4  -7   5   87.98    3.16
  -4   7   5   81.53    2.46
   3   7  -5  490.25    6.39
  -3  -7   5  507.51    7.45
  -3   7   5  507.39    5.67
   2   7  -5  411.80    5.90
  -2   7   5  414.01    4.67
   1  -7  -5  473.76    4.26
   1   7  -5  541.71    6.67
  -1  -7   5  608.78    8.35
  -1   7   5  420.04    3.95
  -1   7   5  491.48    4.87
   0   7  -5   61.92    2.32
   0   7   5   61.85    1.70
   0  -7   5   65.23    2.74
   0   7   5   60.44    2.14
   0  -7  -5   54.90    1.78
  -1   7  -5   45.22    1.94
   1   7   5   47.92    1.76
   1   7   5   45.76    1.31
   1  -7   5   49.62    2.40
  -1  -7  -5   45.79    1.75
  -2   7  -5   17.74    1.27
  -2  -7  -5   14.50    1.14
   2   7   5   14.95    0.70
   2  -7   5   17.99    1.55
   2   7   5   15.05    0.90
  -3   7  -5  370.33    5.56
   3  -7   5  363.52    6.45
   4  -7   5   35.65    2.10
  -4   7  -5   32.76    1.73
  -4  -7  -5   32.53    1.94
   5  -7   5   57.39    2.71
  -5   7  -5   61.20    2.42
  -5  -7  -5   52.34    2.48
  -6   7  -5   77.75    2.71
   6  -7   5   76.36    3.20
  -6  -7  -5   68.64    2.86
  -7   7  -5   31.76    1.92
   7  -7   5   36.16    2.40
  -7  -7  -5   30.51    2.15
  -8   7  -5   43.65    2.26
   8  -7   5   45.58    2.69
  -9   7  -5    6.45    1.06
   9  -7   5    4.48    1.10
  -9  -7  -5    5.49    1.34
  10  -7   5   -1.53    1.16
 -10   7  -5    0.15    0.87
 -10  -7  -5    0.34    1.00
 -11   7  -5    1.55    0.94
  11  -7   5    3.27    1.23
 -12   7  -5   -1.47    1.08
  12  -7   5    1.78    1.24
 -12  -7  -5   -1.71    1.27
 -13  -7  -5   -0.49    1.22
 -16  -8   5    4.13    1.70
 -16  -8   5    1.86    1.09
 -15  -8   5   -0.37    1.29
 -15  -8   5    0.09    0.99
 -15   8   5    1.75    1.15
 -14  -8   5    6.95    1.69
 -14  -8   5    7.56    1.50
 -14   8   5    6.93    1.34
 -13  -8   5    1.84    1.18
 -13  -8   5    0.67    0.88
 -13   8   5    2.20    1.03
 -12  -8   5    0.11    1.05
 -12  -8   5    1.75    0.93
 -12   8   5    0.36    0.84
 -11  -8   5   -0.32    1.00
 -11  -8   5    0.75    0.93
 -11   8   5    0.63    0.81
 -10  -8   5   17.84    1.78
 -10   8   5   20.19    1.72
 -10  -8   5   21.58    2.10
  -9  -8   5   14.99    1.64
  -9   8   5   12.10    1.33
  -9  -8   5   15.30    1.65
  -8  -8   5   32.18    2.20
  -8  -8   5   33.66    2.24
  -8   8   5   27.26    1.77
  -7  -8   5    5.59    1.14
  -7  -8   5    6.25    1.11
  -7   8   5    4.19    0.89
  -6  -8   5   -0.47    0.77
  -6   8   5   -1.33    0.76
  -6  -8   5    0.11    0.83
   5   8  -5    2.37    0.81
  -5   8   5    2.35    0.73
  -5  -8   5    2.42    0.87
   4   8  -5   30.19    1.82
  -4  -8   5   29.55    1.96
  -4   8   5   30.67    1.55
   3   8  -5   52.13    2.25
  -3  -8   5   58.55    2.69
  -3   8   5   55.39    1.97
  -2   8   5   11.79    0.65
   2   8  -5   11.91    1.16
  -2   8   5   11.06    0.93
  -2  -8   5   12.76    1.40
   1  -8  -5   24.19    1.12
   1   8  -5   23.06    1.55
  -1   8   5   25.29    1.18
  -1  -8   5   28.00    1.89
   0  -8  -5    3.08    0.62
   0   8  -5    2.66    0.75
   0  -8   5    4.11    1.03
   0   8   5    2.39    0.45
  -1  -8  -5    4.99    0.78
  -1   8  -5    4.27    0.86
   1  -8   5    5.69    1.18
   1   8   5    4.77    0.55
  -2   8  -5   38.25    1.88
  -2  -8  -5   36.34    1.86
   2  -8   5   40.31    2.25
   3  -8   5  159.85    4.48
  -3   8  -5  164.20    3.85
   4  -8   5    8.18    1.29
  -4   8  -5    8.93    1.08
  -4  -8  -5    8.34    1.16
  -5   8  -5   82.74    2.76
  -5  -8  -5   75.64    3.04
  -6   8  -5    3.80    0.86
   6  -8   5    5.62    1.23
   7  -8   5    6.82    1.36
  -7   8  -5    8.27    1.22
  -7  -8  -5    6.84    1.33
   8  -8   5    5.64    1.28
  -8   8  -5    4.67    1.00
  -8  -8  -5    4.82    1.27
  -9   8  -5    4.45    1.06
   9  -8   5    4.36    1.26
  -9  -8  -5    2.73    1.17
  10  -8   5    8.99    1.63
 -10   8  -5    7.55    1.29
 -10  -8  -5    5.24    1.36
 -11   8  -5   -0.47    0.99
  11  -8   5   -0.45    1.13
 -11  -8  -5   -0.38    1.11
  12  -8   5    0.45    1.20
 -12   8  -5    2.68    1.11
 -12  -8  -5   -1.52    1.28
 -13  -8  -5    1.28    1.52
 -15  -9   5    0.84    1.37
 -15  -9   5   -0.16    1.03
 -14  -9   5   -0.53    1.26
 -14  -9   5   -0.52    1.07
 -14   9   5    0.72    1.08
 -13  -9   5    1.33    1.15
 -13  -9   5    2.93    1.18
 -13   9   5    2.14    1.06
 -12  -9   5    5.73    1.47
 -12  -9   5    4.83    1.26
 -12   9   5    3.99    1.00
 -11  -9   5    3.37    1.22
 -11  -9   5    1.81    0.95
 -11   9   5    2.80    1.00
 -10  -9   5   10.71    1.55
 -10   9   5    8.47    1.25
 -10  -9   5   11.72    1.61
  -9  -9   5   10.24    1.52
  -9  -9   5    8.19    1.30
  -9   9   5    5.49    1.06
  -8  -9   5   23.01    2.04
  -8  -9   5   23.12    1.95
  -8   9   5   17.43    1.47
  -7  -9   5    2.48    1.05
  -7   9   5    0.85    0.64
  -7  -9   5    0.16    0.78
  -6  -9   5    7.38    1.26
  -6  -9   5    9.04    1.31
  -6   9   5    6.61    1.01
   5   9  -5  159.93    4.29
  -5  -9   5  158.99    4.46
  -5   9   5  149.09    3.62
   4   9  -5  169.98    4.23
  -4   9   5  160.73    3.57
  -4  -9   5  175.85    4.74
   3   9  -5    9.05    1.13
  -3   9   5    9.97    0.61
  -3   9   5    9.46    0.96
  -3  -9   5    9.18    1.26
  -2   9   5   25.33    1.05
   2   9  -5   23.94    1.70
  -2   9   5   26.48    1.35
  -2  -9   5   26.79    1.94
   1   9  -5   23.24    1.61
  -1   9   5   19.25    1.10
  -1  -9   5   22.28    1.76
   0   9  -5  136.00    3.57
   0   9   5  136.80    2.50
   0  -9   5  149.37    4.34
   0  -9  -5  143.38    3.14
  -1   9  -5  174.83    4.15
   1   9   5  160.07    2.51
   1  -9   5  175.70    4.64
  -1  -9  -5  168.39    3.74
  -2   9  -5   27.31    1.68
  -2  -9  -5   24.96    1.58
   2  -9   5   26.63    1.91
   3  -9   5   81.63    3.31
  -3   9  -5   84.34    2.90
  -3  -9  -5   80.67    2.95
   4  -9   5    1.01    0.86
  -4   9  -5    1.07    0.73
  -4  -9  -5   -0.32    0.74
   5  -9   5   17.30    1.69
  -5   9  -5   19.34    1.47
  -5  -9  -5   14.14    1.42
  -6   9  -5   17.89    1.54
   6  -9   5   19.21    1.86
  -6  -9  -5   17.19    1.65
  -7   9  -5   22.05    1.67
   7  -9   5   25.54    2.25
  -7  -9  -5   21.32    2.00
   8  -9   5    1.07    0.92
  -8   9  -5    1.67    0.90
  -8  -9  -5    0.84    1.06
  -9   9  -5    5.72    1.13
   9  -9   5    6.99    1.41
  -9  -9  -5    6.10    1.36
  10  -9   5    8.18    1.60
 -10   9  -5   11.17    1.53
 -10  -9  -5    7.30    1.54
 -11   9  -5    0.86    1.02
  11  -9   5    2.91    1.30
 -11  -9  -5   -0.64    1.09
  12  -9   5    0.64    1.17
 -12  -9  -5    1.77    1.31
 -15 -10   5    0.94    1.37
 -15 -10   5    0.82    1.10
 -14 -10   5   -1.59    1.32
 -14 -10   5    0.96    1.09
 -14  10   5   -0.51    1.00
 -13 -10   5   -0.79    1.39
 -13 -10   5   -0.60    0.97
 -13  10   5    1.26    0.98
 -12 -10   5   -1.11    1.24
 -12  10   5   -1.73    1.00
 -12 -10   5    0.65    1.02
 -11 -10   5    2.07    1.16
 -11  10   5    2.86    1.12
 -11 -10   5    2.81    1.22
 -10 -10   5   -2.69    1.23
 -10  10   5   -0.25    0.84
 -10 -10   5   -0.94    1.05
  -9 -10   5    1.05    1.10
  -9  10   5    1.57    0.89
  -9 -10   5    1.33    0.92
  -8 -10   5   21.03    2.00
  -8 -10   5   20.09    1.86
  -8  10   5   16.93    1.55
  -7 -10   5   10.12    1.42
  -7 -10   5   11.20    1.49
  -7  10   5    8.33    1.17
  -6  10   5   -0.41    0.74
  -6 -10   5    0.98    0.84
   5  10  -5    0.44    0.81
  -5  10   5   -0.01    0.69
  -5 -10   5   -0.54    0.84
   4  10  -5    6.94    1.05
  -4  10   5    7.17    0.98
  -4 -10   5    9.66    1.39
  -3 -10   5    5.38    1.10
   3  10  -5    4.04    0.87
  -3  10   5    5.12    0.82
   2  10  -5   27.31    1.85
  -2  10   5   23.63    1.37
  -2  10   5   24.18    1.10
  -2 -10   5   25.04    1.89
  -1  10   5   78.84    2.10
   1  10  -5   78.95    2.90
  -1  10   5   77.24    2.16
  -1 -10   5   84.01    3.36
   0 -10  -5   36.88    1.74
   0  10   5   35.32    1.38
   0  10  -5   37.98    2.08
   0 -10   5   37.59    2.31
  -1  10  -5   48.16    2.24
   1 -10   5   51.11    2.62
  -1 -10  -5   44.44    2.07
  -2 -10  -5    2.75    0.86
  -2  10  -5    1.29    0.79
   2 -10   5    1.50    0.91
  -3  10  -5   10.22    1.15
  -3 -10  -5    7.55    1.15
  -4 -10  -5    3.49    1.05
   4 -10   5    5.31    1.12
  -4  10  -5    3.11    0.81
  -5  10  -5   25.06    1.73
   5 -10   5   23.55    1.99
  -5 -10  -5   19.90    1.77
  -6  10  -5    3.69    0.97
   6 -10   5    1.65    0.98
  -6 -10  -5    2.59    1.03
   7 -10   5    0.75    1.14
  -7  10  -5   -0.30    0.77
  -7 -10  -5   -0.18    1.02
   8 -10   5    0.20    1.05
  -8  10  -5    0.19    0.79
  -8 -10  -5    0.36    0.98
  -9  10  -5    3.12    1.00
   9 -10   5    1.99    1.11
  -9 -10  -5    4.28    1.36
  10 -10   5   -0.13    1.28
 -10  10  -5    2.16    1.12
 -10 -10  -5    0.27    1.14
 -11  10  -5    0.18    0.98
  11 -10   5   -0.23    1.20
 -11 -10  -5    1.72    1.20
  12 -10   5    0.55    1.21
 -12 -10  -5   -0.34    1.22
 -14 -11   5    1.12    1.51
 -14 -11   5    0.01    1.09
 -13 -11   5    1.01    1.37
 -13  11   5   -1.91    1.06
 -13 -11   5   -1.54    1.19
 -12 -11   5    0.99    1.23
 -12  11   5    1.06    0.97
 -12 -11   5    0.84    1.14
 -11 -11   5    0.32    1.08
 -11  11   5    1.45    0.99
 -11 -11   5    1.46    1.21
 -10 -11   5    1.83    1.12
 -10  11   5    0.98    0.88
 -10 -11   5    0.32    1.05
  -9 -11   5    1.39    1.17
  -9  11   5    1.61    0.90
  -9 -11   5    2.02    0.98
  -8 -11   5   18.64    1.96
  -8 -11   5   16.23    1.75
  -7 -11   5   32.37    2.39
  -7  11   5   28.22    1.88
  -7 -11   5   33.76    2.45
   6  11  -5    4.00    1.16
  -6  11   5    1.89    0.80
  -6 -11   5    2.61    1.05
   5  11  -5   48.48    2.66
  -5 -11   5   49.88    2.76
   4  11  -5    8.83    1.22
  -4  11   5    9.58    1.09
  -4 -11   5   12.06    1.46
   3  11  -5   17.97    1.69
  -3  11   5   12.64    1.15
  -3 -11   5   17.40    1.69
   2  11  -5   66.68    2.81
  -2  11   5   61.47    2.11
  -2 -11   5   68.52    3.13
  -1  11   5   45.99    1.67
   1  11  -5   40.70    2.22
  -1  11   5   40.79    1.63
  -1 -11   5   48.71    2.81
   0 -11  -5   24.64    1.53
   0  11  -5   28.48    1.91
   0  11   5   24.42    1.23
   0 -11   5   30.45    2.11
  -1 -11  -5   -0.57    0.73
  -1  11  -5    0.85    0.77
   1 -11   5    0.17    0.87
  -2 -11  -5    7.51    1.13
  -2  11  -5    6.93    1.06
   2 -11   5    7.00    1.21
   3 -11   5   49.79    2.77
  -3  11  -5   47.26    2.28
  -3 -11  -5   42.79    2.36
   4 -11   5   57.02    3.06
  -4  11  -5   55.80    2.50
  -4 -11  -5   52.49    2.68
  -5  11  -5    8.35    1.20
   5 -11   5    8.03    1.54
  -5 -11  -5    8.21    1.31
  -6 -11  -5    3.16    1.06
  -6  11  -5    2.17    0.84
   6 -11   5    2.94    1.11
  -7  11  -5   12.83    1.39
   7 -11   5   15.35    1.89
  -7 -11  -5   13.59    1.72
  -8 -11  -5    6.85    1.42
  -8  11  -5    9.60    1.45
   8 -11   5    8.40    1.55
  -9  11  -5    3.87    1.18
   9 -11   5    6.20    1.54
  -9 -11  -5    3.07    1.23
  10 -11   5    4.21    1.56
 -10  11  -5    3.69    1.25
 -10 -11  -5    1.10    1.20
  11 -11   5    1.49    1.34
 -11 -11  -5   -0.13    1.35
 -13 -12   5    0.51    1.38
 -13 -12   5    1.58    1.13
 -12 -12   5   -0.70    1.26
 -12  12   5   -0.60    1.09
 -12 -12   5    1.05    1.00
 -11 -12   5    5.65    1.60
 -11  12   5    3.51    1.18
 -11 -12   5    0.94    1.06
 -10 -12   5    0.96    1.09
 -10  12   5   -0.45    0.92
 -10 -12   5    1.13    1.11
  -9 -12   5    0.65    1.15
  -9  12   5   -0.82    0.86
  -9 -12   5    0.89    0.99
  -8 -12   5    1.09    1.07
  -8  12   5   -0.07    0.89
  -8 -12   5    2.11    1.16
  -7 -12   5    0.81    1.06
  -7  12   5    0.33    0.81
   6  12  -5   14.89    1.67
  -6  12   5   12.50    1.37
  -6 -12   5   17.25    1.81
   5  12  -5   20.02    1.85
  -5  12   5   17.79    1.51
  -5 -12   5   20.08    1.89
   4  12  -5   13.56    1.56
  -4  12   5   10.32    1.14
  -4 -12   5   14.73    1.72
   3  12  -5    0.63    0.89
  -3 -12   5    0.47    0.92
  -3  12   5    0.07    0.59
   2  12  -5   -0.05    0.87
  -2 -12   5    0.75    0.94
  -2  12   5    0.02    0.53
   1  12  -5    5.60    1.04
  -1 -12   5    5.73    1.23
  -1  12   5    4.10    0.72
   0  12  -5   48.73    2.51
   0 -12   5   55.64    2.95
  -1 -12  -5   28.54    1.87
   1 -12   5   29.58    2.25
  -1  12  -5   27.45    1.93
   2 -12   5   34.73    2.47
  -2  12  -5   33.99    2.09
  -2 -12  -5   29.65    1.99
   3 -12   5   25.41    2.16
  -3  12  -5   26.20    1.92
  -3 -12  -5   20.71    1.80
  -4 -12  -5    7.79    1.30
  -4  12  -5    9.17    1.22
   4 -12   5    5.81    1.24
  -5 -12  -5    0.18    0.91
  -5  12  -5    3.49    1.07
   5 -12   5    3.20    1.18
   6 -12   5    0.57    1.12
  -6 -12  -5   -0.05    1.05
  -6  12  -5   -0.26    0.83
  -7 -12  -5    8.74    1.55
   7 -12   5    9.37    1.68
  -7  12  -5    9.10    1.39
  -8 -12  -5    1.33    1.22
  -8  12  -5    0.13    0.88
   8 -12   5   -0.53    1.16
  -9 -12  -5    1.02    1.28
  -9  12  -5    1.29    1.08
   9 -12   5   -1.75    1.28
 -10 -12  -5    2.20    1.45
  10 -12   5    1.19    1.29
 -11 -12  -5    1.60    1.41
 -12 -13   5   -1.31    1.55
 -12  13   5   -0.89    1.12
 -12 -13   5    1.73    1.18
 -11 -13   5    0.10    1.30
 -11  13   5    1.43    1.12
 -11 -13   5    1.07    1.11
 -10 -13   5    0.82    1.34
 -10  13   5    0.40    0.94
 -10 -13   5   -0.01    1.06
  -9 -13   5    8.41    1.66
  -9 -13   5   11.79    1.76
  -9  13   5    9.47    1.43
  -8 -13   5   -1.42    1.07
  -8  13   5   -0.76    1.00
  -7 -13   5    5.58    1.30
   7  13  -5    2.81    1.24
  -7  13   5    2.83    0.97
   6  13  -5    6.72    1.39
  -6  13   5    5.67    1.15
  -6 -13   5   10.07    1.64
  -5 -13   5    4.66    1.15
   5  13  -5    5.89    1.24
  -5  13   5    5.49    0.97
   4  13  -5   26.59    2.12
  -4  13   5   20.16    1.54
  -4 -13   5   27.02    2.24
   3  13  -5   61.14    3.01
  -3  13   5   49.60    2.17
   2  13  -5    8.67    1.42
  -2  13   5    5.14    0.85
  -2 -13   5    9.46    1.51
   1  13  -5   36.24    2.32
  -1 -13   5   33.92    2.44
   0 -13   5   34.85    2.47
   0  13  -5   31.92    2.18
  -1 -13  -5   17.22    1.55
   1 -13   5   21.14    1.99
  -1  13  -5   18.09    1.67
  -2 -13  -5  103.99    3.74
   2 -13   5  114.07    4.38
  -2  13  -5  106.26    3.62
  -3 -13  -5    8.62    1.33
  -3  13  -5    9.54    1.35
   3 -13   5    8.12    1.46
  -4 -13  -5    5.26    1.11
  -4  13  -5    6.43    1.23
   4 -13   5    8.69    1.50
  -5 -13  -5   11.82    1.59
  -5  13  -5   17.75    1.77
   5 -13   5   14.10    1.87
  -6  13  -5   20.66    1.92
   6 -13   5   20.77    2.35
  -6 -13  -5   18.26    2.04
  -7 -13  -5    4.25    1.45
   7 -13   5    3.45    1.36
  -7  13  -5    1.34    1.01
  -8 -13  -5    3.71    1.49
  -8  13  -5    1.32    0.89
   8 -13   5    2.35    1.39
  -9 -13  -5    0.27    1.23
 -10 -13  -5   -0.85    1.34
 -11 -14   5   -1.06    1.22
 -11  14   5   -0.29    1.08
 -10 -14   5   -0.03    1.05
 -10 -14   5    1.01    1.22
 -10  14   5   -1.30    1.19
  -9 -14   5    1.49    1.18
  -9 -14   5    0.22    1.15
  -9  14   5   -0.98    1.00
  -8 -14   5    3.54    1.34
   8  14  -5    0.31    1.15
  -8  14   5    0.14    0.96
  -7 -14   5    5.57    1.38
   7  14  -5    5.36    1.38
  -7  14   5    4.83    1.17
   6  14  -5    0.33    0.96
  -6 -14   5    1.25    1.23
  -6  14   5   -0.50    0.87
   5  14  -5    1.72    1.13
  -5 -14   5    1.25    1.14
  -5  14   5   -0.12    0.82
   4  14  -5    5.79    1.28
  -4 -14   5    7.83    1.48
  -4  14   5    4.08    0.98
   3  14  -5    3.05    1.16
  -3  14   5   -0.09    0.65
  -3 -14   5    2.99    1.18
   2  14  -5    4.72    1.25
  -2 -14   5    2.84    1.16
   1  14  -5    0.22    0.90
  -1 -14   5   -0.06    0.97
   0  14  -5    0.04    0.89
   0 -14   5    1.92    1.19
   1 -14   5    7.79    1.50
  -1  14  -5    8.12    1.32
   2 -14   5    0.94    1.05
  -2  14  -5    0.58    0.88
  -3 -14  -5    2.97    1.01
  -3  14  -5    6.60    1.34
   3 -14   5    4.15    1.32
  -4 -14  -5    1.36    0.98
  -4  14  -5    1.97    1.08
   4 -14   5    1.78    1.28
   5 -14   5    4.54    1.43
  -5 -14  -5    3.48    1.20
  -5  14  -5    4.27    1.31
  -6 -14  -5    1.08    1.15
   6 -14   5    1.69    1.30
  -6  14  -5   -0.27    0.91
  -7 -14  -5    1.60    1.29
   7 -14   5    3.31    1.50
  -8 -14  -5    0.56    1.24
  -9 -14  -5    1.60    1.28
 -10 -15   5    1.33    1.12
 -10  15   5    1.15    1.26
  -9 -15   5    1.76    1.22
  -9  15   5   -1.37    1.15
  -8 -15   5    0.89    1.32
   8  15  -5   -0.06    1.14
  -8  15   5   -0.65    0.99
   7  15  -5    5.69    1.52
  -7 -15   5    6.99    1.65
  -7  15   5    3.38    1.22
   6  15  -5   23.47    2.23
  -6 -15   5   25.58    2.46
   5  15  -5   11.08    1.70
  -5  15   5    6.19    1.13
  -5 -15   5   10.72    1.69
   4  15  -5   12.85    1.86
  -4 -15   5   13.56    1.81
   3  15  -5   10.45    1.72
  -3 -15   5   10.84    1.77
  -2 -15   5   22.43    2.24
   2  15  -5   19.58    1.97
  -1 -15   5   36.09    2.74
   1  15  -5   34.30    2.45
   0 -15   5   18.28    2.07
   0  15  -5   18.82    1.89
  -1  15  -5   57.92    3.11
   1 -15   5   68.22    3.76
  -2  15  -5   50.25    2.93
   2 -15   5   50.16    3.22
  -3  15  -5    6.50    1.27
   3 -15   5    4.54    1.42
  -4  15  -5   11.78    1.57
   4 -15   5   10.09    1.79
   5 -15   5    9.84    1.85
  -5  15  -5   10.03    1.54
  -9 -16   5   -1.96    1.31
  -9  16   5    0.71    1.17
  -8 -16   5   -0.21    1.22
  -8  16   5    1.25    1.16
  -7 -16   5    0.02    1.09
  -7  16   5    1.02    1.03
   6  16  -5    1.14    1.14
  -6  16   5   -0.58    0.96
  -6 -16   5    0.05    1.06
   5  16  -5   -0.62    1.17
  -5 -16   5    0.05    1.08
   4  16  -5   -0.25    1.12
  -4 -16   5    0.02    1.13
   3  16  -5    1.25    1.17
  -3 -16   5    0.39    1.16
   2  16  -5    2.11    1.03
  -2 -16   5    1.93    1.19
  -1 -16   5    2.68    1.26
   1  16  -5    1.13    1.04
   0 -16   5    0.30    1.14
   0  16  -5    1.92    1.24
  -1  16  -5   15.13    1.83
   1 -16   5   13.87    1.98
  -2  16  -5    1.09    1.11
   2 -16   5    2.85    1.30
  -3  16  -5    1.67    1.06
   3 -16   5    2.73    1.38
  -8 -17   5    3.52    1.30
  -7  17   5    0.51    1.06
  -7 -17   5    0.35    1.12
  -6 -17   5    0.84    1.23
  -5 -17   5   -0.81    1.14
  -4 -17   5   -0.31    1.19
  -3 -17   5    3.52    1.43
  -2 -17   5   23.40    2.51
  -1 -17   5    6.35    1.65
   0 -17   5    2.06    1.17
 -17   0   6    0.84    1.17
 -16   0   6    7.63    1.46
 -15   0   6    0.63    0.93
 -14   0   6   -0.13    0.86
 -13   0   6   29.10    2.14
 -12   0   6    4.53    0.96
 -12   0   6    6.39    1.15
 -11   0   6   15.56    1.51
 -11   0   6   16.92    1.40
 -10   0   6    5.80    0.89
 -10   0   6    4.14    0.91
  -9   0   6   29.56    1.86
  -9   0   6   32.96    1.57
  -8   0   6    6.89    0.74
  -8   0   6    7.23    1.00
   7   0  -6   17.94    0.92
  -7   0   6   23.46    1.67
   6   0  -6  210.73    2.76
  -6   0   6  214.70    4.32
   5   0  -6  778.19    4.93
   5   0  -6  767.63    5.40
  -5   0   6  751.06    7.91
   4   0  -6  128.42    1.99
   4   0  -6  137.54    2.38
   3   0  -6   49.20    1.24
  -3   0   6   44.90    1.96
   2   0  -6    2.44    0.53
  -2   0   6    1.61    0.65
   2   0  -6    1.97    0.41
  -1   0   6  147.88    2.88
   1   0  -6  145.47    2.40
   0   0   6  987.92    9.00
   0   0   6 1014.25    8.14
   0   0  -6 1018.07    6.80
   1   0   6   59.70    2.20
  -1   0  -6   58.56    1.78
   2   0   6   54.36    2.14
  -2   0  -6   55.73    1.86
  -3   0  -6  332.31    4.75
   3   0   6  313.08    4.90
   4   0   6    2.45    0.68
  -4   0  -6    1.43    0.72
   5   0   6   26.17    1.51
  -5   0  -6   22.83    1.55
   6   0   6  393.14    5.52
  -6   0  -6  370.20    6.28
   7   0   6    3.28    0.82
  -7   0  -6    1.40    0.86
  -8   0  -6   -0.40    0.80
  -9   0  -6   14.02    1.49
 -10   0  -6    7.30    1.27
 -11   0  -6    7.14    1.32
 -12   0  -6   -0.54    1.09
 -13   0  -6    0.35    1.18
 -17  -1   6    2.03    1.17
 -17   1   6   -0.58    1.14
 -16  -1   6   -0.58    0.95
 -16   1   6   -0.74    0.99
 -15  -1   6    7.78    1.47
 -15   1   6    5.99    1.30
 -14   1   6    0.49    0.84
 -14  -1   6    2.18    0.98
 -13  -1   6    1.66    0.89
 -13   1   6   -0.28    0.83
 -13  -1   6    0.23    0.86
 -12  -1   6    0.61    0.72
 -12  -1   6    0.97    0.80
 -11   1   6   18.51    1.61
 -11  -1   6   17.78    1.62
 -11   1   6   18.54    1.36
 -11  -1   6   20.84    1.65
 -10   1   6    9.12    1.22
 -10  -1   6    6.92    1.17
 -10   1   6    8.22    0.93
 -10  -1   6    7.90    1.06
  -9   1   6   34.65    1.98
  -9  -1   6   33.66    2.05
  -9   1   6   38.64    1.55
  -9  -1   6   37.35    1.82
  -8  -1   6   70.72    2.22
  -8   1   6   70.08    1.83
  -8   1   6   58.81    2.52
  -8  -1   6   60.00    2.50
  -7  -1   6    0.64    0.74
  -7  -1   6    0.92    0.47
   7  -1  -6    1.67    0.36
   7  -1  -6    1.71    0.35
   7   1  -6    1.38    0.49
  -7   1   6    1.65    0.67
   6   1  -6   34.26    1.31
   6  -1  -6   28.97    0.86
  -6   1   6   35.06    1.80
   6   1  -6   32.98    1.36
  -6  -1   6   34.53    1.85
  -5   1   6    2.79    0.68
  -5  -1   6    3.87    0.77
   5   1  -6    3.49    0.47
   5  -1  -6    2.35    0.27
   5  -1  -6    1.74    0.26
   5   1  -6    3.38    0.56
   4   1  -6  230.50    3.08
   4  -1  -6  207.32    1.96
   4  -1  -6  194.96    2.14
  -4   1   6  229.47    4.31
   4   1  -6  237.21    3.58
  -4  -1   6  215.42    4.26
   3   1  -6   60.48    1.60
   3  -1  -6   59.68    1.14
  -3   1   6   54.94    2.06
   3  -1  -6   58.81    1.42
   3   1  -6   62.20    1.92
  -3  -1   6   58.85    2.29
   2   1  -6   20.01    1.18
   2   1  -6   18.75    0.95
   2  -1  -6   20.43    0.79
  -2   1   6   18.14    1.25
  -2  -1   6   18.09    1.31
   2  -1  -6   20.26    0.93
  -1  -1   6    7.81    0.97
  -1   1   6    8.24    0.72
   1   1  -6    7.77    0.68
   1  -1  -6    8.54    0.63
  -1   1   6    8.52    0.94
   0   1   6    7.38    0.88
   0  -1   6    6.63    0.93
   0   1   6    6.49    0.71
   0   1  -6    6.64    0.70
   0  -1  -6    8.55    0.71
  -1   1  -6    1.65    0.54
  -1  -1  -6    1.07    0.50
   1   1   6    2.46    0.72
   1  -1   6    1.27    0.73
   2   1   6   40.55    1.70
   2  -1   6   38.37    1.84
  -2   1  -6   41.06    1.60
  -2  -1  -6   39.27    1.66
  -3   1  -6    7.48    0.88
   3   1   6    9.40    0.92
  -3  -1  -6    9.20    1.01
   3  -1   6    7.33    0.95
  -4   1  -6   17.18    1.24
  -4  -1  -6   13.46    1.24
   4   1   6   18.25    1.29
   4  -1   6   15.52    1.24
  -5   1  -6    0.79    0.64
  -5  -1  -6    1.94    0.84
   5  -1   6    1.59    0.70
   5   1   6    2.61    0.67
   6  -1   6    0.35    0.66
   6   1   6    1.81    0.65
  -6   1  -6    1.18    0.78
  -6  -1  -6    2.22    0.84
   7   1   6    4.84    0.85
  -7   1  -6    2.12    0.81
  -7  -1  -6    1.78    0.81
   7  -1   6    2.71    0.82
   8  -1   6    1.09    0.80
  -8   1  -6    0.07    0.86
  -8  -1  -6   -0.22    0.79
  -9   1  -6   11.15    1.40
  -9  -1  -6    9.97    1.33
 -10   1  -6   14.70    1.68
 -10  -1  -6   12.74    1.59
 -11   1  -6    0.82    0.93
 -11  -1  -6    2.71    1.09
 -12   1  -6    1.77    1.10
 -12  -1  -6    1.44    1.03
 -13   1  -6   -0.92    1.12
 -13  -1  -6    1.54    1.13
 -17  -2   6    2.94    1.20
 -16  -2   6    3.24    1.24
 -16   2   6    3.80    1.25
 -15  -2   6    1.09    1.04
 -15   2   6    3.10    1.23
 -14  -2   6    0.80    0.91
 -14  -2   6    0.56    1.02
 -14   2   6    0.43    0.96
 -13  -2   6    3.24    1.11
 -13  -2   6    1.90    0.97
 -13   2   6    1.88    1.00
 -12  -2   6    1.56    0.95
 -12  -2   6    3.42    1.05
 -12   2   6    2.49    0.99
 -11  -2   6    4.78    1.02
 -11  -2   6    6.95    1.16
 -11   2   6    5.31    1.11
 -10  -2   6    1.75    0.84
 -10  -2   6    0.89    0.66
 -10   2   6   -0.38    0.90
  -9  -2   6    9.11    1.21
  -9   2   6    6.85    1.08
  -9   2   6    6.56    0.67
  -9  -2   6    8.66    1.03
  -8   2   6   77.96    1.66
  -8   2   6   84.54    2.92
  -8  -2   6   78.40    2.85
  -7  -2   6   82.67    2.49
   7  -2  -6   33.93    0.72
   7  -2  -6   39.51    0.72
  -7   2   6   72.28    2.67
  -7  -2   6   83.40    3.07
   6   2  -6    6.77    0.76
  -6   2   6    7.39    1.01
  -6  -2   6    7.26    1.01
   5   2  -6   63.14    1.89
  -5   2   6   66.54    2.38
   5   2  -6   64.18    2.10
  -5  -2   6   62.06    2.44
   4   2  -6   86.28    2.09
  -4   2   6   86.17    2.69
   4   2  -6   88.90    2.52
  -4  -2   6   86.12    2.85
   3   2  -6  117.36    2.43
  -3   2   6  112.74    2.90
   3   2  -6  117.39    2.95
  -3  -2   6  115.24    3.26
  -2  -2   6  301.98    5.24
   2   2  -6  305.38    3.88
   2  -2  -6  302.70    2.58
  -2   2   6  298.36    4.43
   2  -2  -6  310.15    3.05
  -1  -2   6  149.05    3.67
  -1   2   6  146.91    2.35
   1   2  -6  157.25    2.83
   1  -2  -6  148.69    2.27
  -1   2   6  144.06    3.14
   0  -2   6   48.37    2.15
   0   2   6   45.55    1.55
   0   2  -6   46.14    1.62
   0  -2  -6   46.93    1.46
   0   2   6   46.35    1.79
   1   2   6  236.98    4.01
   1   2   6  230.68    3.73
   1  -2   6  231.75    4.67
  -1   2  -6  233.92    3.62
  -1  -2  -6  243.79    3.64
  -2   2  -6  593.32    6.12
   2  -2   6  565.19    7.07
   2   2   6  565.47    6.00
  -2  -2  -6  584.98    6.00
  -3   2  -6  279.60    4.42
   3   2   6  272.56    4.04
  -3  -2  -6  266.03    4.30
   3  -2   6  262.80    4.84
   4   2   6    2.85    0.65
   4  -2   6    2.72    0.78
  -4   2  -6    2.10    0.69
  -4  -2  -6    2.05    0.69
   5  -2   6   65.15    2.52
   5   2   6   70.25    2.05
  -5   2  -6   68.30    2.41
  -5  -2  -6   60.36    2.38
  -6   2  -6    1.34    0.82
  -6  -2  -6    0.56    0.74
   6   2   6    0.90    0.54
  -7   2  -6   36.54    2.06
  -7  -2  -6   38.37    2.17
   7  -2   6   38.93    2.15
  -8   2  -6   24.40    1.85
  -8  -2  -6   21.45    1.79
   8  -2   6   24.53    1.75
  -9   2  -6    5.13    1.18
  -9  -2  -6    6.19    1.25
   9  -2   6    3.93    1.02
 -10   2  -6    2.54    1.10
 -10  -2  -6    2.98    1.14
 -11   2  -6    1.21    1.00
 -11  -2  -6    0.99    1.03
 -12   2  -6   -0.25    1.05
 -12  -2  -6    0.93    1.03
 -13   2  -6    0.26    1.13
 -13  -2  -6    1.77    1.20
 -17  -3   6    2.45    1.22
 -16  -3   6   -0.92    0.93
 -16   3   6   -0.98    1.13
 -15  -3   6   -0.56    0.90
 -15   3   6    2.23    1.17
 -14  -3   6    2.38    1.01
 -14  -3   6    3.38    1.10
 -14   3   6    2.54    1.04
 -13  -3   6    0.81    0.94
 -13  -3   6   -1.00    0.85
 -13   3   6   -0.37    0.91
 -12  -3   6    6.54    1.23
 -12   3   6    9.30    1.31
 -12  -3   6    7.62    1.36
 -11  -3   6    0.43    0.76
 -11  -3   6   -0.11    0.73
 -11   3   6    0.39    0.82
 -10  -3   6    2.41    0.87
 -10  -3   6    1.74    0.77
 -10   3   6    0.83    0.80
  -9  -3   6    1.44    0.80
  -9  -3   6    0.86    0.73
  -9   3   6    0.31    0.70
  -8  -3   6    1.15    0.70
  -8  -3   6    1.14    0.71
  -8   3   6    1.03    0.66
  -7  -3   6  112.67    3.08
  -7   3   6  108.10    3.27
   6   3  -6   22.43    1.31
  -6  -3   6   25.26    1.67
   5   3  -6    1.76    0.57
  -5  -3   6    3.49    0.82
  -5   3   6    1.92    0.60
   4   3  -6   63.30    2.03
  -4   3   6   60.43    2.19
  -4  -3   6   64.01    2.53
  -3  -3   6    7.94    1.14
   3   3  -6    7.66    0.79
  -3   3   6    8.70    0.97
  -2  -3   6   76.56    2.83
   2   3  -6   71.18    2.03
  -2   3   6   74.78    2.25
  -1  -3   6   17.12    1.45
  -1   3   6   14.67    0.73
   1   3  -6   14.49    1.00
   1  -3  -6   15.16    0.67
  -1   3   6   16.69    1.11
   0   3   6   12.35    0.80
   0  -3   6    7.84    1.09
   0   3  -6    9.33    0.89
   0  -3  -6   12.29    0.77
   0   3   6   14.42    1.06
   1   3   6   19.02    1.16
   1   3   6   16.69    1.04
  -1   3  -6   19.68    1.16
   1  -3   6   19.52    1.51
  -1  -3  -6   20.58    1.12
   2   3   6   26.71    1.33
  -2   3  -6   31.31    1.50
  -2  -3  -6   27.13    1.23
   2  -3   6   33.39    1.88
  -2  -3  -6   26.22    1.39
  -3   3  -6   57.74    2.09
   3   3   6   62.83    1.85
  -3  -3  -6   62.34    1.71
  -3  -3  -6   55.26    2.05
   3  -3   6   58.39    2.45
  -4   3  -6  119.34    3.09
  -4  -3  -6  114.67    2.19
  -4  -3  -6  106.01    3.04
   4   3   6  121.15    2.49
   4  -3   6  107.32    3.24
   5   3   6    1.71    0.49
  -5   3  -6    1.00    0.69
  -5  -3  -6    3.48    0.93
   5  -3   6    1.83    0.77
  -6   3  -6    7.71    1.10
   6  -3   6    7.57    1.11
  -6  -3  -6    5.62    1.03
  -7   3  -6    4.05    0.93
  -7  -3  -6    3.25    0.97
   7  -3   6    4.82    1.00
   8  -3   6    1.66    0.84
  -8   3  -6    2.55    0.96
  -8  -3  -6    0.83    0.81
  -9   3  -6   -0.61    0.83
   9  -3   6    1.49    0.98
  -9  -3  -6    0.08    0.90
 -10   3  -6   -0.67    1.05
 -10  -3  -6   -0.51    0.91
 -11   3  -6   -0.61    0.95
 -11  -3  -6   -0.20    1.02
 -12   3  -6   -0.01    1.10
 -12  -3  -6    0.07    1.05
 -13  -3  -6   -0.31    1.19
 -17  -4   6    2.01    1.05
 -16  -4   6    2.81    1.19
 -16   4   6   -0.01    1.08
 -15  -4   6    0.59    1.12
 -15  -4   6    2.32    1.16
 -15   4   6    0.74    1.08
 -14  -4   6    5.62    1.46
 -14  -4   6    7.20    1.49
 -14   4   6    6.83    1.41
 -13  -4   6   -0.08    0.97
 -13  -4   6    0.45    0.87
 -13   4   6    1.66    0.97
 -12  -4   6    5.41    1.25
 -12  -4   6    5.26    1.10
 -12   4   6    5.04    1.12
 -11  -4   6    1.25    0.82
 -11  -4   6    1.06    0.88
 -11   4   6   -0.12    0.82
 -10   4   6   29.39    1.98
 -10  -4   6   30.88    2.09
 -10  -4   6   32.06    2.17
  -9  -4   6    4.03    0.94
  -9  -4   6    4.91    1.03
  -9   4   6    4.06    0.92
  -8  -4   6    5.79    1.00
  -8  -4   6    4.46    1.02
  -8   4   6    4.25    0.91
  -7   4   6   30.28    1.84
  -7  -4   6   32.79    1.90
   6   4  -6   31.60    1.64
  -6   4   6   32.12    1.71
  -6  -4   6   34.11    1.95
   5   4  -6   48.35    1.90
  -5   4   6   51.63    2.12
  -5  -4   6   53.44    2.40
  -4  -4   6  608.42    7.96
   4   4  -6  606.03    6.49
  -4   4   6  612.07    6.72
  -3  -4   6   22.80    1.67
   3   4  -6   19.92    1.24
  -3   4   6   19.33    1.24
   2   4  -6   34.34    1.54
  -2   4   6   30.57    1.51
  -1   4   6  142.74    1.94
  -1  -4   6  178.00    4.32
   1   4  -6  178.15    3.39
   1  -4  -6  127.36    1.89
  -1   4   6  177.54    3.27
   0   4   6   59.96    1.58
   0   4  -6   64.02    2.10
   0  -4   6   64.14    2.70
   0  -4  -6   64.86    1.68
   0   4   6   67.97    2.00
   1   4   6  247.00    3.79
  -1   4  -6  261.64    4.23
   1  -4   6  264.96    5.24
  -1  -4  -6  239.53    3.51
   1   4   6  269.69    3.81
   2   4   6   94.15    2.27
  -2  -4  -6   82.69    1.89
  -2   4  -6   82.60    2.48
   2  -4   6   82.57    2.99
  -2  -4  -6   80.46    2.28
   3  -4   6    4.46    1.01
  -3   4  -6    4.68    0.78
  -3  -4  -6    2.29    0.45
  -3  -4  -6    2.86    0.70
   3   4   6    2.28    0.52
   4   4   6  205.51    2.91
   4  -4   6  213.57    4.75
   5  -4   6  197.65    4.66
  -5   4  -6  221.94    4.45
   6  -4   6    5.02    1.03
  -6   4  -6    4.60    0.92
  -6  -4  -6    2.39    0.84
  -7   4  -6   77.12    2.93
   7  -4   6   79.74    3.12
  -7  -4  -6   70.46    2.89
   8  -4   6    3.33    0.99
  -8   4  -6    4.11    1.04
  -8  -4  -6    3.89    1.09
  -9   4  -6    5.51    1.13
   9  -4   6    5.43    1.22
  -9  -4  -6    4.92    1.25
  10  -4   6   13.14    1.62
 -10   4  -6   10.27    1.53
 -10  -4  -6   10.01    1.56
 -11   4  -6   -0.74    1.09
 -11  -4  -6    0.13    1.02
 -12   4  -6   -0.15    1.06
 -12  -4  -6   -1.15    1.11
 -13  -4  -6    0.87    1.26
 -17  -5   6    1.10    1.06
 -16  -5   6    1.28    1.17
 -16   5   6    0.47    1.11
 -15  -5   6    2.36    1.36
 -15  -5   6    4.40    1.21
 -15   5   6    2.27    1.16
 -14  -5   6    2.56    1.30
 -14  -5   6    5.01    1.29
 -14   5   6    4.94    1.21
 -13  -5   6   -1.47    1.16
 -13  -5   6   -1.23    0.99
 -13   5   6   -1.61    1.06
 -12   5   6    9.80    1.38
 -12  -5   6    9.77    1.41
 -12  -5   6   11.97    1.49
 -11  -5   6    6.59    1.20
 -11   5   6    7.41    1.24
 -11  -5   6    8.81    1.45
 -10  -5   6    0.01    0.83
 -10  -5   6    0.26    0.77
 -10   5   6   -0.62    0.79
  -9  -5   6    2.69    0.91
  -9  -5   6    0.38    0.75
  -9   5   6    0.45    0.70
  -8  -5   6   84.18    3.25
  -8   5   6   72.97    2.86
  -8  -5   6   76.69    3.10
  -7  -5   6   64.24    2.73
  -7   5   6   58.95    2.42
  -7  -5   6   61.13    2.67
   6   5  -6  132.05    3.40
  -6   5   6  132.62    3.47
  -6  -5   6  123.63    3.75
   5   5  -6    2.55    0.70
  -5  -5   6    4.29    1.00
  -5   5   6    3.57    0.77
  -4  -5   6   12.84    1.36
   4   5  -6   11.78    1.09
  -4   5   6   13.80    1.14
   3   5  -6    2.99    0.68
  -3  -5   6    2.99    0.92
  -3   5   6    3.05    0.64
   2   5  -6    4.56    0.71
  -2  -5   6    4.40    0.91
  -2   5   6    5.35    0.71
  -1   5   6   34.40    0.95
   1   5  -6   40.50    1.77
  -1  -5   6   43.74    2.26
  -1   5   6   47.79    1.69
   1  -5  -6   28.70    0.90
   0   5   6    1.92    0.51
   0   5  -6    0.98    0.60
   0   5   6    1.19    0.41
   0  -5  -6    0.75    0.41
   0  -5   6    0.64    0.86
  -1  -5  -6    6.30    0.64
  -1   5  -6    7.46    0.84
   1  -5   6    8.14    1.13
  -1  -5  -6    6.84    0.70
   1   5   6    9.19    0.82
   2   5   6   74.76    1.94
  -2  -5  -6   77.91    1.78
  -2   5  -6   87.65    2.55
   2  -5   6   83.74    3.08
  -2  -5  -6   67.77    2.14
   3   5   6    6.87    0.60
  -3   5  -6    8.98    0.99
  -3  -5  -6    7.13    0.94
   3  -5   6    9.77    1.21
  -4   5  -6   25.30    1.52
  -4  -5  -6   21.33    1.49
   4  -5   6   25.28    1.83
   5  -5   6  212.94    4.97
  -5  -5  -6  191.28    4.33
   6  -5   6   -0.88    0.83
  -6   5  -6   -0.71    0.78
  -6  -5  -6   -0.33    0.72
  -7   5  -6   65.52    2.66
   7  -5   6   71.65    3.07
   8  -5   6    4.11    1.11
  -8  -5  -6    2.82    0.97
  -9   5  -6    2.95    1.05
   9  -5   6    3.48    1.20
  -9  -5  -6    3.50    1.14
  10  -5   6   -1.21    1.19
 -10   5  -6    1.15    0.92
 -10  -5  -6   -0.65    1.06
 -11   5  -6    1.80    1.16
 -11  -5  -6   -0.63    1.14
 -12   5  -6    0.54    1.13
 -12  -5  -6    0.99    1.24
 -13  -5  -6    0.72    1.32
 -17  -6   6    0.85    1.06
 -16  -6   6    2.22    1.39
 -16  -6   6    1.44    1.08
 -15  -6   6   -1.07    1.23
 -15  -6   6    0.71    1.00
 -15   6   6   -1.44    1.06
 -14  -6   6    0.83    1.06
 -14   6   6   -0.24    0.97
 -13  -6   6    2.74    1.11
 -13  -6   6    4.04    1.18
 -13   6   6    3.15    1.10
 -12  -6   6    1.81    0.98
 -12  -6   6    1.91    0.92
 -12   6   6    1.30    0.92
 -11  -6   6   -0.16    0.87
 -11  -6   6    0.26    0.91
 -11   6   6   -0.37    0.76
 -10  -6   6   10.58    1.49
 -10   6   6    8.74    1.20
 -10  -6   6    8.99    1.35
  -9  -6   6   16.57    1.66
  -9   6   6   13.00    1.33
  -9  -6   6   15.51    1.59
  -8  -6   6    1.33    0.86
  -8  -6   6    0.73    0.82
  -8   6   6    1.49    0.75
  -7  -6   6    0.15    0.75
  -7  -6   6    0.68    0.73
  -7   6   6    0.32    0.70
  -6  -6   6   41.20    2.28
   6   6  -6   42.37    2.15
  -6   6   6   42.08    2.01
   5   6  -6    0.82    0.59
  -5  -6   6   -0.01    0.75
  -5   6   6    1.26    0.63
  -4  -6   6   75.80    3.01
   4   6  -6   74.89    2.59
  -4   6   6   71.15    2.36
  -3  -6   6  327.95    6.19
   3   6  -6  334.97    5.42
  -3   6   6  328.60    4.78
   2   6  -6   77.22    2.54
  -2  -6   6   83.84    3.13
  -2   6   6   75.19    2.21
   1   6  -6   67.73    2.37
  -1  -6   6   73.99    2.99
  -1   6   6   75.65    2.08
   0   6  -6  102.24    2.82
   0  -6   6  108.18    3.55
   0   6   6   96.69    2.27
  -1   6  -6   51.91    2.11
   1  -6   6   50.80    2.50
   1   6   6   43.16    1.47
   2   6   6   54.25    1.53
  -2   6  -6   62.77    2.31
   2  -6   6   61.24    2.79
  -2  -6  -6   49.07    1.89
  -3   6  -6   74.99    2.58
  -3  -6  -6   66.44    2.42
   3  -6   6   73.64    2.99
   4  -6   6   74.85    3.07
  -4   6  -6   72.39    2.55
  -4  -6  -6   69.49    2.65
   5  -6   6   91.70    3.42
  -5   6  -6   99.74    3.19
   6  -6   6   56.89    2.75
  -6   6  -6   57.46    2.42
  -6  -6  -6   49.36    2.49
  -7   6  -6   24.79    1.78
   7  -6   6   26.99    2.07
  -8   6  -6   28.61    1.97
   8  -6   6   25.23    2.07
   9  -6   6   12.97    1.70
  -9   6  -6   15.77    1.62
  -9  -6  -6   11.30    1.54
 -10   6  -6    0.49    1.01
 -10  -6  -6   -1.22    1.10
  10  -6   6    0.97    1.07
  11  -6   6   -0.26    1.04
 -11   6  -6    1.64    1.03
 -11  -6  -6    1.70    1.17
 -12   6  -6    1.64    1.16
 -12  -6  -6    3.46    1.45
 -16  -7   6    3.48    1.54
 -16  -7   6    1.30    1.09
 -15  -7   6    1.00    1.30
 -15  -7   6   -0.44    1.04
 -15   7   6   -0.31    1.10
 -14  -7   6   -0.77    1.09
 -14  -7   6   -1.42    1.09
 -14   7   6   -0.10    0.94
 -13  -7   6   -1.74    1.18
 -13  -7   6    1.53    1.03
 -13   7   6    0.53    0.97
 -12  -7   6   -1.04    1.00
 -12  -7   6    1.38    1.04
 -12   7   6    0.61    0.93
 -11  -7   6    0.34    0.89
 -11  -7   6   -0.90    0.93
 -11   7   6   -0.27    0.88
 -10  -7   6    2.72    1.06
 -10  -7   6    0.55    0.87
 -10   7   6    2.16    0.85
  -9  -7   6    0.20    0.89
  -9   7   6   -0.07    0.74
  -8  -7   6    3.26    1.03
  -8  -7   6    2.81    0.98
  -8   7   6    1.86    0.84
  -7  -7   6   10.10    1.32
  -7   7   6    7.74    1.14
   6   7  -6    1.61    0.81
  -6  -7   6    1.10    0.75
  -6   7   6    0.54    0.63
  -5  -7   6   11.76    1.41
   5   7  -6   11.76    1.17
  -5   7   6   10.71    1.10
   4   7  -6    6.44    1.07
  -4   7   6    5.77    0.85
  -4  -7   6    4.91    1.13
   3   7  -6   76.71    2.72
  -3  -7   6   76.80    3.09
  -3   7   6   69.54    2.28
   2   7  -6    4.41    0.83
  -2   7   6    5.66    0.77
  -2  -7   6    4.97    1.06
   1   7  -6   36.33    1.85
  -1  -7   6   35.92    2.25
  -1   7   6   41.23    1.60
   0  -7   6    4.80    1.07
   0   7  -6    3.66    0.75
   0   7   6    6.08    0.72
   0  -7  -6    4.92    0.66
  -1   7  -6   11.46    1.14
   1  -7   6   12.56    1.44
   1   7   6    9.73    0.76
  -1  -7  -6    7.71    0.84
  -2   7  -6    9.02    1.06
  -2  -7  -6    7.34    0.89
   2   7   6    6.49    0.59
  -3   7  -6   56.77    2.27
   3  -7   6   54.75    2.65
  -4   7  -6    2.16    0.80
   4  -7   6    2.02    0.92
  -4  -7  -6    0.44    0.80
   5  -7   6   -0.34    0.87
  -5   7  -6    0.72    0.66
  -5  -7  -6   -0.05    0.76
   6  -7   6    1.12    0.84
  -6   7  -6    1.27    0.76
  -6  -7  -6    2.00    0.92
  -7   7  -6    3.64    0.94
   7  -7   6    2.81    0.99
  -7  -7  -6    2.91    1.15
   8  -7   6   12.69    1.65
  -8  -7  -6   10.74    1.51
   9  -7   6    0.94    1.01
  -9   7  -6    1.42    0.94
  -9  -7  -6    0.77    0.98
 -10   7  -6    0.27    0.97
 -10  -7  -6    0.02    1.05
  10  -7   6    1.24    1.11
  11  -7   6    0.50    1.12
 -11   7  -6    0.11    0.95
 -11  -7  -6    1.50    1.32
 -12  -7  -6   -0.47    1.22
 -16  -8   6    0.91    1.32
 -16  -8   6    1.36    1.17
 -15  -8   6    1.78    1.52
 -15  -8   6    0.42    1.10
 -14  -8   6    1.17    1.16
 -14  -8   6   -1.44    1.11
 -14   8   6   -0.21    1.06
 -13  -8   6    2.30    1.13
 -13  -8   6    2.66    1.09
 -13   8   6    0.85    1.02
 -12  -8   6    0.77    1.09
 -12  -8   6   -0.87    0.96
 -12   8   6   -0.12    0.94
 -11  -8   6    0.70    0.94
 -11  -8   6    1.26    1.01
 -11   8   6    0.48    0.95
 -10  -8   6    0.75    1.00
 -10  -8   6    1.25    0.98
 -10   8   6    1.19    0.90
  -9  -8   6    4.85    1.30
  -9  -8   6    3.97    1.11
  -9   8   6    3.79    0.96
  -8  -8   6    9.59    1.46
  -8  -8   6    6.28    1.20
  -8   8   6    7.48    1.13
  -7  -8   6   15.67    1.58
  -7   8   6   11.59    1.26
  -6  -8   6   26.18    2.01
   6   8  -6   25.48    1.89
   5   8  -6   32.91    2.00
  -5  -8   6   36.14    2.33
  -5   8   6   36.75    1.89
   4   8  -6   10.28    1.24
  -4  -8   6   10.94    1.36
  -4   8   6   10.63    1.06
   3   8  -6  246.40    4.96
  -3   8   6  229.58    4.03
   2   8  -6   18.74    1.48
  -2  -8   6   19.69    1.77
  -2   8   6   17.98    1.19
   1   8  -6   20.88    1.52
  -1  -8   6   21.73    1.78
  -1   8   6   16.38    1.04
   0   8  -6   46.75    2.15
   0  -8   6   45.61    2.46
   0   8   6   42.82    1.49
   0  -8  -6   41.50    1.60
  -1   8  -6   69.14    2.59
   1  -8   6   73.44    3.19
   1   8   6   73.60    1.82
  -1  -8  -6   67.89    2.23
  -2   8  -6   88.75    2.84
   2  -8   6   88.49    3.40
  -3   8  -6   21.32    1.52
   3  -8   6   23.21    1.90
  -4   8  -6    8.75    1.14
   4  -8   6    6.84    1.22
  -4  -8  -6    5.01    1.02
   5  -8   6    6.95    1.26
  -5   8  -6    6.49    1.05
  -5  -8  -6    5.07    1.09
  -6   8  -6   16.96    1.57
   6  -8   6   13.12    1.64
  -6  -8  -6   13.35    1.52
  -7   8  -6    0.50    0.79
   7  -8   6   -0.11    0.94
  -7  -8  -6    0.76    1.19
  -8   8  -6   17.98    1.69
   8  -8   6   20.99    2.02
  -9   8  -6    2.61    1.02
   9  -8   6    0.98    1.10
  -9  -8  -6   -0.04    0.99
 -10   8  -6   -0.45    1.00
 -10  -8  -6   -1.99    1.20
  10  -8   6    1.05    1.06
  11  -8   6    1.74    1.19
 -11   8  -6    1.71    1.16
 -11  -8  -6    1.41    1.20
  12  -8   6   -0.97    1.26
 -12  -8  -6    2.12    1.43
 -15  -9   6   -0.17    1.28
 -15  -9   6    0.25    1.14
 -14  -9   6    1.67    1.24
 -14  -9   6    0.85    1.15
 -14   9   6    2.09    1.34
 -13  -9   6    0.59    1.11
 -13  -9   6    1.40    1.10
 -13   9   6    0.01    0.95
 -12  -9   6    4.76    1.43
 -12  -9   6    2.67    1.12
 -12   9   6    2.71    1.23
 -11  -9   6    2.86    1.34
 -11  -9   6    3.58    1.31
 -11   9   6    1.26    0.95
 -10  -9   6   -0.09    1.04
 -10  -9   6    0.42    0.97
 -10   9   6    0.86    0.80
  -9  -9   6    3.44    1.16
  -9  -9   6    2.97    1.13
  -9   9   6    3.29    0.91
  -8  -9   6    1.06    0.91
  -8   9   6    1.28    0.88
   7   9  -6    7.46    1.30
  -7   9   6    5.64    0.98
  -7  -9   6    6.51    1.31
   6   9  -6    2.41    0.93
  -6   9   6    1.44    0.72
  -6  -9   6    1.30    0.94
   5   9  -6   11.32    1.32
  -5  -9   6   11.14    1.52
  -5   9   6   10.24    1.12
   4   9  -6    0.88    0.72
  -4   9   6    1.18    0.66
  -4  -9   6    0.94    0.89
   3   9  -6   25.61    1.78
  -3  -9   6   25.25    2.01
  -3   9   6   26.98    1.48
   2   9  -6   52.09    2.39
  -2   9   6   48.05    1.85
  -2  -9   6   56.37    2.82
   1   9  -6   42.33    2.13
  -1   9   6   44.59    1.67
  -1  -9   6   47.46    2.61
   0   9  -6   56.57    2.40
   0   9   6   53.46    1.70
   0  -9   6   58.56    2.87
   0  -9  -6   49.88    1.79
  -1   9  -6   33.92    1.88
   1  -9   6   37.58    2.38
  -1  -9  -6   33.01    1.72
  -2   9  -6   18.88    1.46
  -2  -9  -6   18.41    1.40
   2  -9   6   18.93    1.77
  -3  -9  -6   -0.08    0.75
  -3   9  -6    0.12    0.70
   3  -9   6    2.28    1.00
   4  -9   6   11.97    1.55
  -4   9  -6   12.70    1.32
  -4  -9  -6   10.64    1.33
   5  -9   6    6.77    1.43
  -5   9  -6    5.17    1.06
  -5  -9  -6    3.31    1.04
  -6   9  -6    6.81    1.13
   6  -9   6    7.03    1.36
  -6  -9  -6    6.12    1.21
  -7   9  -6   10.76    1.33
  -7  -9  -6    8.80    1.50
   8  -9   6    1.20    0.98
  -8   9  -6    2.89    1.04
  -8  -9  -6    0.59    1.06
  -9   9  -6   -0.51    0.97
   9  -9   6    0.63    1.10
  -9  -9  -6   -1.61    1.14
 -10   9  -6    0.36    0.92
 -10  -9  -6   -0.76    1.15
  10  -9   6    1.24    1.15
  11  -9   6    1.09    1.21
 -11  -9  -6    0.17    1.18
 -15 -10   6    2.27    1.32
 -14 -10   6    6.04    1.70
 -14 -10   6    1.98    1.28
 -13 -10   6    2.70    1.31
 -13 -10   6   -0.19    1.02
 -13  10   6   -0.25    1.08
 -12 -10   6   -0.39    1.24
 -12 -10   6    1.39    1.20
 -12  10   6    1.33    1.07
 -11 -10   6    0.60    1.18
 -11 -10   6   -0.60    1.06
 -11  10   6    0.82    0.91
 -10 -10   6   12.20    1.84
 -10 -10   6   11.93    1.74
 -10  10   6    6.75    1.28
  -9 -10   6    5.93    1.27
  -9  10   6    5.05    1.12
  -9 -10   6    3.47    1.15
  -8  10   6    2.13    0.93
  -8 -10   6    1.01    1.03
   7  10  -6   52.13    2.81
  -7 -10   6   50.83    2.91
  -7  10   6   43.31    2.29
   6  10  -6   13.78    1.52
  -6 -10   6   13.22    1.61
  -6  10   6   11.98    1.32
   5  10  -6   83.05    3.24
  -5 -10   6   88.28    3.69
  -5  10   6   77.18    2.79
   4  10  -6   45.49    2.45
  -4  10   6   39.98    1.95
   3  10  -6    7.38    1.06
  -3  10   6    6.31    0.90
  -3 -10   6    9.18    1.45
   2  10  -6   15.39    1.47
  -2  10   6   14.84    1.13
  -2 -10   6   14.83    1.61
   1  10  -6   18.38    1.52
  -1  10   6   15.90    1.09
  -1 -10   6   18.37    1.88
   0  10  -6   56.47    2.49
   0 -10   6   66.67    3.30
  -1  10  -6   93.01    3.18
   1 -10   6   92.89    3.69
  -2 -10  -6    5.95    1.04
  -2  10  -6    7.03    1.10
   2 -10   6    6.80    1.32
  -3 -10  -6    0.76    0.84
  -3  10  -6    1.49    0.83
   3 -10   6    0.39    0.93
   4 -10   6   51.26    2.97
  -4  10  -6   48.98    2.33
  -4 -10  -6   46.05    2.58
   5 -10   6   29.13    2.31
  -5  10  -6   26.95    1.85
  -5 -10  -6   22.31    1.83
  -6  10  -6    0.14    0.78
   6 -10   6    0.11    1.04
  -6 -10  -6    0.56    0.90
   7 -10   6    0.59    1.01
  -7  10  -6    0.42    0.85
  -7 -10  -6   -0.09    1.02
   8 -10   6    2.82    1.25
  -8  10  -6    3.29    1.14
  -8 -10  -6    1.77    1.15
  -9  10  -6   -0.32    0.95
   9 -10   6    1.82    1.23
  -9 -10  -6    2.39    1.40
 -10 -10  -6    1.83    1.26
  10 -10   6    0.34    1.25
  11 -10   6   -0.66    1.27
 -11 -10  -6   -0.03    1.18
 -14 -11   6   -2.08    1.33
 -13 -11   6    0.11    1.20
 -13 -11   6    0.43    1.11
 -12 -11   6    3.10    1.25
 -12  11   6    2.74    1.22
 -12 -11   6    2.02    1.17
 -11 -11   6   -2.86    1.49
 -11  11   6   -0.16    0.94
 -11 -11   6   -0.17    1.16
 -10 -11   6    2.20    1.25
 -10  11   6   -0.81    0.98
 -10 -11   6    0.28    1.03
  -9 -11   6    0.67    1.03
  -9  11   6    0.19    0.85
  -9 -11   6    1.40    1.14
   8  11  -6    0.86    0.94
  -8  11   6   -0.36    0.79
  -8 -11   6   -0.19    0.95
   7  11  -6    0.32    0.96
  -7  11   6   -0.30    0.81
  -7 -11   6    0.89    1.02
   6  11  -6   -0.24    0.90
  -6  11   6    0.39    0.72
  -6 -11   6    0.48    0.89
   5  11  -6   29.28    2.09
  -5  11   6   30.94    1.87
  -5 -11   6   34.05    2.42
  -4 -11   6    1.89    1.00
   4  11  -6    2.15    0.95
  -4  11   6    1.58    0.78
  -3 -11   6    1.22    0.98
   3  11  -6   -0.26    0.84
  -3  11   6    0.61    0.61
   2  11  -6   24.42    1.83
  -2 -11   6   22.56    1.93
   1  11  -6   14.05    1.42
  -1 -11   6   14.52    1.81
   0  11  -6    1.27    0.79
   0 -11   6    0.81    0.91
  -1  11  -6   14.96    1.48
   1 -11   6   15.04    1.68
   2 -11   6   12.09    1.65
  -2  11  -6   12.43    1.44
  -2 -11  -6    8.90    1.21
   3 -11   6   -0.63    1.03
  -3 -11  -6    0.11    0.85
  -3  11  -6    0.43    0.80
  -4 -11  -6    2.67    0.99
   4 -11   6    1.83    1.02
  -4  11  -6    5.15    1.08
  -5 -11  -6    0.35    0.96
  -5  11  -6   -0.95    0.80
   5 -11   6    1.29    0.99
  -6 -11  -6    3.92    1.15
  -6  11  -6    2.71    0.99
   6 -11   6    4.22    1.23
  -7 -11  -6   -0.83    1.05
   7 -11   6    0.46    1.21
  -7  11  -6    1.03    0.84
   8 -11   6    0.20    1.08
  -8  11  -6    3.26    1.18
  -8 -11  -6    0.25    1.10
  -9  11  -6    1.07    0.98
   9 -11   6    1.78    1.26
  -9 -11  -6    2.27    1.23
 -10 -11  -6   -0.23    1.26
 -13 -12   6    0.89    1.22
 -12 -12   6   -0.05    1.35
 -12  12   6   -0.10    1.05
 -12 -12   6   -1.46    1.21
 -11 -12   6    0.55    1.21
 -11  12   6    1.11    1.04
 -11 -12   6   -0.63    1.15
 -10  12   6    2.40    1.14
 -10 -12   6    0.84    1.11
  -9  12   6    2.98    1.05
  -9 -12   6    3.33    1.24
   8  12  -6    7.18    1.50
  -8  12   6    3.25    1.03
  -8 -12   6    7.84    1.47
   7  12  -6    0.90    0.99
  -7  12   6    2.20    0.93
  -6 -12   6    1.05    0.98
   6  12  -6    0.75    0.91
  -6  12   6    0.31    0.73
  -5 -12   6   -0.85    0.93
   5  12  -6    0.65    0.92
  -5  12   6    0.08    0.74
   4  12  -6   20.88    1.89
  -4  12   6   14.82    1.32
  -4 -12   6   20.71    2.00
   3  12  -6   40.06    2.52
  -3 -12   6   41.67    2.71
   2  12  -6   81.12    3.32
  -2 -12   6   88.19    3.96
   1  12  -6    2.16    0.90
  -1 -12   6   -0.71    1.06
   0  12  -6   26.83    1.95
   0 -12   6   22.83    2.03
   1 -12   6   32.39    2.48
  -1  12  -6   32.12    2.08
   2 -12   6   15.87    1.89
  -2  12  -6   14.10    1.47
   3 -12   6   46.88    2.91
  -3  12  -6   44.79    2.49
   4 -12   6   10.63    1.61
  -4  12  -6   10.87    1.47
  -5 -12  -6    1.57    1.13
  -5  12  -6    0.63    0.82
   5 -12   6    1.12    1.09
  -6 -12  -6    3.58    1.22
  -6  12  -6    5.17    1.23
   6 -12   6    7.35    1.69
  -7 -12  -6   12.37    1.75
  -7  12  -6   17.45    1.69
   7 -12   6   15.57    2.02
  -8 -12  -6    6.11    1.59
   8 -12   6    7.72    1.75
  -8  12  -6    6.78    1.34
  -9 -12  -6   -0.61    1.36
 -12 -13   6   -0.31    1.15
 -11 -13   6    0.11    1.22
 -11  13   6    0.14    1.12
 -11 -13   6    1.07    1.24
 -10  13   6   -0.58    0.98
 -10 -13   6    0.08    1.11
  -9 -13   6    2.38    1.29
   9  13  -6    2.30    1.34
  -9  13   6   -0.56    0.96
  -8 -13   6   -0.80    1.16
   8  13  -6   -0.23    1.10
  -8  13   6   -0.56    0.88
  -7 -13   6    5.66    1.35
   7  13  -6    2.45    1.10
  -7  13   6    2.44    1.05
   6  13  -6    6.44    1.31
  -6 -13   6    8.73    1.74
  -6  13   6    4.72    1.05
  -5 -13   6   -0.39    0.98
   5  13  -6    0.51    0.96
  -5  13   6    0.14    0.81
   4  13  -6    0.93    0.95
  -4 -13   6   -0.96    1.07
  -4  13   6    0.71    0.69
   3  13  -6    3.34    1.10
  -3 -13   6    3.20    1.32
   2  13  -6   20.05    1.83
  -2 -13   6   21.36    2.09
   1  13  -6    2.29    0.98
  -1 -13   6    0.64    1.03
   0  13  -6    0.77    0.93
   0 -13   6    0.62    1.07
  -1  13  -6    0.19    0.81
   1 -13   6    0.38    1.05
   2 -13   6   -0.84    1.07
  -2  13  -6    1.17    0.86
   3 -13   6    6.83    1.56
  -3  13  -6    7.73    1.29
  -4  13  -6   10.02    1.47
   4 -13   6    8.95    1.60
  -5  13  -6    0.76    0.92
   5 -13   6    1.05    1.07
   6 -13   6    0.23    1.22
  -6  13  -6    0.70    1.01
   7 -13   6   11.97    1.92
 -11 -14   6    0.29    1.15
 -10 -14   6   -1.44    1.23
 -10  14   6   -0.24    1.19
  -9 -14   6    2.63    1.36
   9  14  -6    1.66    1.34
  -9  14   6    0.92    1.09
  -8 -14   6    1.33    1.13
   8  14  -6   -0.82    1.20
  -8  14   6    1.28    0.98
  -7 -14   6    2.72    1.69
   7  14  -6   -0.20    1.05
  -7  14   6    0.27    0.87
   6  14  -6   30.72    2.46
  -6 -14   6   36.59    2.83
   5  14  -6   24.18    2.31
  -5 -14   6   27.44    2.52
   4  14  -6    9.41    1.51
  -4 -14   6   13.00    1.93
   3  14  -6    3.60    1.24
  -3 -14   6    3.75    1.11
   2  14  -6    9.24    1.54
  -2 -14   6    9.68    1.64
   1  14  -6   23.56    2.04
  -1 -14   6   24.62    2.30
   0 -14   6   38.08    2.84
   0  14  -6   35.28    2.43
   1 -14   6    7.55    1.44
  -1  14  -6    7.40    1.31
   2 -14   6    3.47    1.43
  -2  14  -6    4.07    1.14
   3 -14   6    9.11    1.70
  -3  14  -6    9.02    1.42
  -4  14  -6    3.18    1.11
   4 -14   6    2.50    1.30
  -5  14  -6   10.17    1.53
   5 -14   6   11.00    1.91
 -10 -15   6    3.36    1.38
  -9 -15   6    2.67    1.29
  -9  15   6    0.14    1.15
  -8 -15   6    1.51    1.16
  -8  15   6   -0.87    1.08
   7  15  -6    3.37    1.35
  -7 -15   6    0.85    1.20
  -7  15   6    1.31    0.94
   6  15  -6    1.26    1.23
  -6 -15   6    0.42    1.25
  -6  15   6    0.70    0.91
   5  15  -6    0.17    1.09
  -5 -15   6    0.43    1.13
   4  15  -6    4.24    1.31
  -4 -15   6    5.19    1.40
   3  15  -6    1.82    1.20
  -3 -15   6    0.61    1.06
   2  15  -6   -1.18    0.99
  -2 -15   6    1.10    1.24
   1  15  -6    6.33    1.38
  -1 -15   6    2.89    1.24
   0  15  -6   -0.87    1.00
   0 -15   6   -0.95    1.24
   1 -15   6    4.66    1.51
  -1  15  -6    1.67    1.08
   2 -15   6    1.08    1.19
  -2  15  -6    3.62    1.16
  -3  15  -6    2.20    1.11
   3 -15   6    3.00    1.29
  -8  16   6   -0.09    1.05
  -7 -16   6    1.72    1.36
  -6 -16   6   -1.82    1.30
  -5 -16   6   -0.33    1.11
  -4 -16   6    1.07    1.16
   3  16  -6    1.54    1.23
  -3 -16   6   -0.09    1.21
   2  16  -6    1.75    1.17
  -2 -16   6    3.74    1.47
  -1 -16   6   21.81    2.41
   1  16  -6   19.19    2.05
 -16   0   7   -2.08    1.14
 -15   0   7    0.20    0.94
 -14   0   7   -0.92    1.04
 -13   0   7    1.62    0.99
 -12   0   7    0.62    0.85
 -11   0   7    0.17    0.77
 -10   0   7    0.87    0.84
  -9   0   7    0.31    0.69
  -8   0   7   -0.76    0.82
   8   0  -7   -0.30    0.39
  -7   0   7    1.76    0.83
   7   0  -7    0.43    0.33
  -6   0   7   -0.20    0.71
   6   0  -7    0.14    0.30
  -5   0   7    0.13    0.73
   5   0  -7   -0.18    0.32
   5   0  -7    0.01    0.37
   4   0  -7    1.97    0.38
   4   0  -7    1.77    0.49
   3   0  -7    0.04    0.45
  -3   0   7    0.33    0.69
   3   0  -7   -0.05    0.38
   2   0  -7    1.67    0.60
  -2   0   7    1.15    0.63
   2   0  -7    1.40    0.41
  -1   0   7    0.45    0.63
   1   0  -7    1.19    0.46
   0   0  -7    0.13    0.48
   0   0   7    0.30    0.62
  -1   0  -7   -0.38    0.56
   1   0   7   -0.22    0.67
  -2   0  -7    1.43    0.57
   2   0   7    1.30    0.73
   3   0   7    0.59    0.61
  -3   0  -7   -0.18    0.68
   4   0   7   -1.10    0.72
  -4   0  -7    1.09    0.75
  -5   0  -7    0.28    0.72
   5   0   7    0.82    0.65
   6   0   7    0.08    0.60
  -6   0  -7    0.04    0.76
  -7   0  -7    0.68    0.83
  -8   0  -7   -0.01    0.84
  -9   0  -7    1.69    0.97
 -10   0  -7    0.85    1.03
 -11   0  -7    1.32    1.11
 -12   0  -7    0.40    1.09
 -16  -1   7    3.06    1.26
 -16   1   7    0.52    1.08
 -15  -1   7    5.52    1.38
 -15   1   7    4.55    1.31
 -14  -1   7    0.06    0.98
 -14   1   7    0.74    0.96
 -13  -1   7    3.98    1.19
 -13   1   7    3.45    1.26
 -12  -1   7    0.30    0.85
 -12   1   7    0.95    0.89
 -11  -1   7    3.98    1.07
 -11   1   7    5.08    1.14
 -10  -1   7    2.11    0.95
 -10   1   7   -0.59    0.86
  -9   1   7    0.47    0.77
  -9  -1   7    0.62    0.70
   8   1  -7   26.01    1.31
  -8   1   7   29.83    2.02
  -8  -1   7   25.70    1.80
   7   1  -7   38.60    1.45
  -7   1   7   40.43    2.15
  -7  -1   7   38.82    2.13
   6   1  -7   22.01    1.08
  -6   1   7   17.07    1.43
  -6  -1   7   19.14    1.52
   5   1  -7   55.05    1.59
   5   1  -7   54.41    1.81
  -5   1   7   48.87    2.22
  -5  -1   7   54.16    2.40
   4   1  -7   52.13    1.54
   4  -1  -7   39.27    0.91
   4  -1  -7   35.10    0.98
  -4   1   7   48.55    2.16
   4   1  -7   48.86    1.78
  -4  -1   7   48.51    2.26
   3   1  -7   42.44    1.39
   3  -1  -7   45.72    1.11
   3  -1  -7   37.25    1.23
  -3   1   7   41.44    2.00
   3   1  -7   43.13    1.77
  -3  -1   7   41.28    2.12
   2   1  -7  214.83    3.22
   2  -1  -7  231.53    2.89
  -2   1   7  210.65    4.36
   2  -1  -7  221.40    3.37
  -1   1   7   51.06    2.20
  -1  -1   7   50.03    2.32
   1   1  -7   54.90    1.75
   1  -1  -7   55.99    1.59
   0  -1   7  325.50    5.72
   0   1  -7  328.69    4.27
   0  -1  -7  334.28    4.24
   1   1   7   52.89    2.18
   1  -1   7   54.99    2.34
  -1   1  -7   56.99    1.92
  -1  -1  -7   54.66    1.92
   2   1   7   22.48    1.47
   2  -1   7   20.20    1.50
  -2   1  -7   18.79    1.26
  -2  -1  -7   18.45    1.32
  -3   1  -7  146.31    3.44
  -3  -1  -7  142.70    3.56
   3   1   7  144.85    3.45
   3  -1   7  136.23    3.56
  -4   1  -7   87.93    2.81
  -4  -1  -7   88.52    2.93
   4  -1   7   85.43    2.88
   5  -1   7   30.96    1.79
   5   1   7   30.81    1.64
  -5   1  -7   31.12    1.84
  -5  -1  -7   29.41    1.84
   6  -1   7   17.20    1.47
  -6   1  -7   14.03    1.40
  -6  -1  -7   13.31    1.36
  -7   1  -7    2.32    0.90
  -7  -1  -7    3.89    0.96
  -8   1  -7    0.06    0.85
  -8  -1  -7    1.67    0.98
  -9   1  -7    2.47    0.96
  -9  -1  -7    1.58    1.04
 -10   1  -7    1.15    0.86
 -10  -1  -7   -1.32    0.99
 -11   1  -7    0.40    1.08
 -11  -1  -7    1.10    1.10
 -12   1  -7   -1.04    1.28
 -12  -1  -7    0.04    1.16
 -16  -2   7    1.21    1.15
 -15  -2   7    0.26    0.99
 -15   2   7    1.58    1.12
 -14  -2   7   -1.52    0.99
 -14   2   7   -1.40    1.06
 -13  -2   7    8.70    1.40
 -13   2   7    5.92    1.27
 -12  -2   7    5.50    1.27
 -12   2   7    6.69    1.28
 -11  -2   7   -0.34    0.84
 -11   2   7   -1.23    0.85
 -10  -2   7    4.75    1.12
 -10  -2   7    4.25    0.94
 -10   2   7    4.04    1.10
  -9   2   7   16.77    1.59
  -9  -2   7   13.89    1.46
   8   2  -7   17.10    1.20
  -8   2   7   13.20    1.37
  -8  -2   7   15.89    1.50
   7   2  -7   13.11    1.02
  -7   2   7   10.65    1.22
  -7  -2   7   12.65    1.38
   6   2  -7  115.74    2.69
  -6   2   7  111.31    3.39
  -6  -2   7  106.76    3.45
   5   2  -7   54.02    1.80
  -5   2   7   52.71    2.27
  -5  -2   7   50.93    2.40
   4   2  -7   19.28    1.08
  -4   2   7   16.89    1.34
  -4  -2   7   20.24    1.61
  -3  -2   7   65.99    2.66
   3   2  -7   70.11    1.99
   3  -2  -7   27.68    0.63
   3  -2  -7   26.93    0.78
  -3   2   7   65.00    2.43
  -2  -2   7   21.66    1.65
   2   2  -7   20.54    1.15
   2  -2  -7   18.98    0.76
   2  -2  -7   17.92    0.85
  -1   2   7    0.42    0.59
   1   2  -7    1.59    0.52
  -1  -2   7    1.85    0.83
   1  -2  -7    1.56    0.41
   0   2   7   16.68    1.29
   0  -2   7   14.19    1.45
   0   2  -7   13.25    0.97
   0  -2  -7   12.95    0.89
  -1   2  -7    0.58    0.54
   1   2   7    0.96    0.64
  -1  -2  -7    1.89    0.57
   2  -2   7    1.61    0.76
  -2   2  -7    2.73    0.67
  -2  -2  -7    1.61    0.62
   2   2   7    1.38    0.60
  -3   2  -7   24.94    1.51
   3   2   7   23.47    1.39
  -3  -2  -7   22.38    1.45
   3  -2   7   23.66    1.69
  -4   2  -7    8.02    1.05
  -4  -2  -7    5.16    0.89
   4   2   7    7.44    0.94
   4  -2   7    7.58    1.05
   5  -2   7    9.53    1.17
  -5   2  -7   11.56    1.27
  -5  -2  -7   10.82    1.23
   6  -2   7    7.25    1.11
  -6   2  -7    7.98    1.14
  -6  -2  -7    7.03    1.12
  -7   2  -7   13.48    1.56
   7  -2   7   12.01    1.34
  -7  -2  -7   12.70    1.36
  -8   2  -7   -0.39    0.96
  -8  -2  -7    1.89    0.98
  -9   2  -7    1.42    1.04
  -9  -2  -7    1.58    1.02
 -10   2  -7    2.65    1.19
 -10  -2  -7    1.55    1.02
 -11   2  -7   -0.16    1.00
 -11  -2  -7    1.16    1.14
 -12   2  -7    1.09    1.14
 -12  -2  -7    1.20    1.11
 -16  -3   7    3.51    1.42
 -15  -3   7   -0.32    1.05
 -15   3   7    0.26    1.00
 -14  -3   7    7.66    1.57
 -14   3   7    6.70    1.44
 -13  -3   7    0.41    1.03
 -13   3   7    0.72    0.89
 -12  -3   7   -0.49    0.86
 -12   3   7    0.31    0.81
 -11  -3   7   17.43    1.65
 -11   3   7   13.84    1.53
 -11  -3   7   15.37    1.69
 -10  -3   7   14.82    1.44
 -10   3   7   12.01    1.45
 -10  -3   7   11.33    1.47
  -9  -3   7   15.59    1.42
  -9   3   7   12.62    1.43
  -9  -3   7   13.85    1.54
   8   3  -7    0.97    0.60
  -8  -3   7    1.21    0.84
  -8   3   7    0.28    0.78
   7   3  -7   57.99    2.11
  -7   3   7   55.65    2.51
  -7  -3   7   55.77    2.59
   6   3  -7    4.01    0.74
  -6  -3   7    3.69    1.03
  -6   3   7    4.56    0.87
  -5   3   7    4.06    0.89
   5   3  -7    6.33    0.79
  -5  -3   7    7.24    1.14
  -4  -3   7  123.86    3.75
   4   3  -7  129.35    2.90
  -4   3   7  129.57    3.39
  -3  -3   7   86.08    3.15
   3   3  -7   88.49    2.38
  -3   3   7   83.28    2.68
  -2   3   7    4.95    0.80
   2   3  -7    4.29    0.70
  -2  -3   7    3.91    0.92
   2  -3  -7    1.95    0.23
   2  -3  -7    2.63    0.29
  -1  -3   7  110.26    3.57
   1   3  -7  118.45    2.78
   1  -3  -7   90.83    1.75
  -1   3   7  100.02    2.88
   0  -3   7   10.18    1.26
   0   3  -7   11.02    0.98
   0  -3  -7   11.43    0.80
   0   3   7   13.03    1.12
   1   3   7  110.74    2.84
  -1   3  -7  107.34    2.74
   1  -3   7  105.57    3.45
  -1  -3  -7  100.13    2.47
   2   3   7  142.56    3.17
  -2   3  -7  148.48    3.31
   2  -3   7  148.29    4.09
  -2  -3  -7  132.30    3.12
   3   3   7    3.34    0.64
   3  -3   7    4.15    1.01
  -3   3  -7    4.43    0.84
  -3  -3  -7    2.45    0.78
  -4   3  -7    5.89    1.00
   4  -3   7    5.30    0.97
  -4  -3  -7    5.16    0.89
   5  -3   7   14.57    1.42
  -5   3  -7   18.25    1.48
  -5  -3  -7   17.09    1.51
   6  -3   7   -0.14    0.71
  -6   3  -7   -0.65    0.75
  -6  -3  -7    0.30    0.79
  -7   3  -7    8.38    1.23
   7  -3   7    9.57    1.34
  -7  -3  -7    8.58    1.23
  -8   3  -7   21.42    1.88
  -8  -3  -7   17.18    1.75
   8  -3   7   18.47    1.72
  -9   3  -7    0.31    0.95
  -9  -3  -7    0.09    0.92
 -10   3  -7    0.87    1.08
 -10  -3  -7    0.98    1.08
 -11   3  -7    0.61    1.09
 -11  -3  -7    3.68    1.33
 -12  -3  -7    2.10    1.22
 -16  -4   7    3.22    1.28
 -15  -4   7    0.22    0.99
 -15   4   7    0.65    1.10
 -14  -4   7    1.31    1.06
 -14   4   7   -0.72    0.98
 -13  -4   7    1.97    1.12
 -13   4   7    1.53    1.04
 -12  -4   7    0.60    0.85
 -12  -4   7    0.88    0.92
 -12   4   7   -0.07    0.92
 -11  -4   7    0.62    0.87
 -11  -4   7   -1.18    0.99
 -11   4   7    1.06    0.89
 -10  -4   7   -0.07    0.82
 -10  -4   7   -0.13    0.90
 -10   4   7   -1.06    0.82
  -9  -4   7    0.37    0.70
  -9  -4   7    2.65    1.03
  -9   4   7    1.33    0.84
   8   4  -7    3.57    0.87
  -8  -4   7    3.16    0.93
  -8   4   7    4.36    0.95
   7   4  -7   13.18    1.16
  -7   4   7    9.41    1.20
  -7  -4   7   13.37    1.45
   6   4  -7   14.87    1.21
  -6   4   7   14.73    1.30
  -6  -4   7   14.22    1.45
  -5  -4   7   89.20    3.25
   5   4  -7   89.78    2.63
  -5   4   7   81.04    2.78
  -4   4   7    2.85    0.76
   4   4  -7    3.97    0.73
  -4  -4   7    3.74    0.90
  -3  -4   7   33.25    2.09
   3   4  -7   31.61    1.59
  -3   4   7   37.86    1.84
  -2  -4   7   54.72    2.64
   2   4  -7   55.21    1.99
  -2   4   7   59.74    2.29
  -1   4   7    4.50    0.81
   1   4  -7    2.78    0.69
  -1  -4   7    1.99    0.85
   1  -4  -7    2.46    0.37
   0   4  -7   65.68    2.19
   0  -4   7   72.03    3.09
   0   4   7   71.47    2.26
   1  -4   7    6.06    1.13
   1   4   7    6.63    0.81
  -1   4  -7    5.67    0.85
  -1  -4  -7    5.00    0.72
   2  -4   7    3.61    1.01
   2   4   7    4.62    0.75
  -2   4  -7    3.82    0.76
  -2  -4  -7    1.85    0.59
   3   4   7    0.60    0.46
   3  -4   7    0.19    0.85
  -3   4  -7    0.40    0.64
  -3  -4  -7    1.07    0.62
  -4   4  -7    0.92    0.70
   4  -4   7   -0.15    0.76
  -4  -4  -7    2.00    0.77
  -5   4  -7    2.14    0.81
  -5  -4  -7    1.25    0.73
   5  -4   7    1.90    0.80
   6  -4   7   -0.82    0.92
  -6   4  -7    0.20    0.77
  -6  -4  -7   -0.26    0.87
  -7   4  -7   11.95    1.41
   7  -4   7    9.87    1.33
  -7  -4  -7   10.90    1.40
  -8   4  -7   13.15    1.52
  -8  -4  -7   11.10    1.50
   8  -4   7   12.18    1.61
  -9   4  -7    1.16    1.04
  -9  -4  -7    1.05    0.93
 -10   4  -7    0.52    0.97
 -10  -4  -7   -0.12    1.07
 -11   4  -7    2.39    1.21
 -11  -4  -7    3.10    1.36
 -12  -4  -7   -0.77    1.13
 -15  -5   7   -0.14    0.96
 -15   5   7    0.93    1.20
 -14  -5   7    4.52    1.36
 -14   5   7    2.95    1.40
 -13  -5   7    0.31    0.97
 -13  -5   7    0.64    1.06
 -13   5   7   -0.21    1.01
 -12  -5   7    0.81    0.96
 -12  -5   7    0.96    0.93
 -12   5   7   -0.60    0.89
 -11  -5   7   -0.87    0.97
 -11  -5   7   -0.18    0.86
 -11   5   7    0.94    0.90
 -10  -5   7    1.80    0.87
 -10  -5   7   -0.98    0.90
 -10   5   7    0.93    0.90
  -9  -5   7   -1.14    0.84
  -9  -5   7    1.80    0.97
  -9   5   7    1.54    0.87
   8   5  -7    1.77    0.77
  -8  -5   7    2.29    1.02
  -8   5   7    2.62    0.90
   7   5  -7    0.92    0.64
  -7  -5   7    1.32    0.89
  -7   5   7    2.01    0.81
  -6  -5   7   34.04    2.19
   6   5  -7   36.13    1.87
  -6   5   7   31.59    1.85
  -5  -5   7    9.86    1.34
   5   5  -7    8.20    1.00
   4   5  -7   -0.51    0.57
  -4  -5   7    0.20    0.76
  -4   5   7    0.01    0.62
  -3  -5   7   80.17    3.24
   3   5  -7   84.16    2.61
  -3   5   7   91.18    2.79
  -2  -5   7   95.47    3.50
   2   5  -7   90.99    2.64
  -2   5   7   91.24    2.64
   1   5  -7  325.39    4.93
  -1  -5   7  333.34    6.53
  -1   5   7  322.17    4.80
   0   5  -7   61.25    2.23
   0  -5   7   59.64    2.79
   0   5   7   60.06    2.06
   1   5   7   19.42    1.21
  -1   5  -7   22.94    1.41
   2  -5   7    5.08    1.09
  -2   5  -7    5.05    0.85
   2   5   7    4.07    0.63
  -2  -5  -7    2.39    0.70
   3  -5   7    2.07    0.94
  -3   5  -7    1.09    0.65
  -3  -5  -7    2.35    0.76
  -4   5  -7  133.48    3.54
   4  -5   7  129.63    4.05
   5  -5   7   95.41    3.57
  -5   5  -7  101.89    3.28
   6  -5   7   39.79    2.47
  -6   5  -7   36.82    2.15
  -7   5  -7    4.58    1.14
   7  -5   7    3.76    1.08
  -7  -5  -7    4.78    1.11
   8  -5   7    4.60    1.25
  -8   5  -7    3.28    1.16
  -8  -5  -7    3.36    1.09
  -9   5  -7    9.71    1.47
   9  -5   7    8.30    1.42
  -9  -5  -7    8.57    1.52
 -10   5  -7    6.37    1.41
 -10  -5  -7    4.74    1.51
 -11   5  -7   -0.20    1.19
 -11  -5  -7   -0.49    1.20
 -12  -5  -7    0.66    1.26
 -15  -6   7   -1.59    1.25
 -14  -6   7    3.42    1.40
 -14   6   7    0.13    1.01
 -13  -6   7    0.88    0.99
 -13  -6   7    0.74    0.98
 -13   6   7   -0.13    0.95
 -12  -6   7    3.29    1.13
 -12  -6   7    3.27    1.23
 -12   6   7    0.70    0.90
 -11  -6   7    0.77    0.93
 -11  -6   7    0.62    0.90
 -11   6   7    0.94    1.04
 -10  -6   7   15.22    1.64
 -10   6   7   11.23    1.58
 -10  -6   7   13.12    1.75
  -9  -6   7    2.51    1.03
  -9   6   7    1.39    0.87
   8   6  -7   -0.36    0.72
  -8  -6   7    2.26    0.90
  -8   6   7    1.74    0.81
   7   6  -7    1.37    0.75
  -7  -6   7    1.09    0.90
  -7   6   7    1.70    0.78
   6   6  -7    7.83    1.05
  -6  -6   7    6.66    1.22
  -6   6   7    5.61    0.98
  -5  -6   7   10.89    1.39
   5   6  -7    9.47    1.12
  -5   6   7    9.14    1.06
  -4  -6   7   32.13    2.18
   4   6  -7   33.57    1.82
  -4   6   7   30.45    1.73
   3   6  -7    0.89    0.64
  -3  -6   7    2.05    0.94
  -3   6   7    2.06    0.69
  -2   6   7    0.39    0.60
   2   6  -7   -0.43    0.64
  -2  -6   7    1.26    0.94
   1   6  -7   13.25    1.21
  -1  -6   7   14.42    1.57
  -1   6   7   15.36    1.14
   0   6  -7   27.17    1.59
   0  -6   7   27.72    2.02
   0   6   7   27.47    1.41
  -1   6  -7   18.44    1.39
   1  -6   7   19.85    1.77
   1   6   7   16.05    1.04
   2  -6   7    0.33    0.82
  -2   6  -7    2.50    0.83
  -2  -6  -7    0.95    0.64
  -3   6  -7   25.51    1.65
   3  -6   7   23.08    1.86
  -4   6  -7    3.68    0.97
   4  -6   7    1.92    0.96
  -4  -6  -7    1.22    0.84
   5  -6   7   20.16    1.81
  -5   6  -7   19.59    1.54
   6  -6   7    9.62    1.40
  -6   6  -7    9.60    1.27
  -6  -6  -7    7.66    1.27
  -7   6  -7    0.25    0.85
   7  -6   7   -0.02    0.86
  -7  -6  -7    0.51    0.94
   8  -6   7    2.91    1.16
  -8   6  -7    2.76    1.06
  -8  -6  -7    2.19    1.03
   9  -6   7    0.76    1.06
  -9   6  -7   -0.22    0.95
  -9  -6  -7    1.23    1.11
 -10   6  -7   -1.45    1.14
 -10  -6  -7    0.26    1.04
 -11  -6  -7   -0.36    1.15
 -15  -7   7   -0.64    1.08
 -14  -7   7    1.29    1.17
 -14  -7   7    0.28    1.06
 -14   7   7   -0.33    1.13
 -13  -7   7    2.61    1.26
 -13  -7   7    1.59    1.11
 -13   7   7    3.18    1.28
 -12  -7   7    6.51    1.37
 -12  -7   7    5.37    1.35
 -12   7   7    2.57    1.15
 -11  -7   7    1.51    1.14
 -11  -7   7    1.57    1.04
 -11   7   7    0.48    0.92
 -10  -7   7    2.27    1.08
 -10  -7   7    1.31    1.01
 -10   7   7    0.87    0.88
  -9  -7   7    7.74    1.42
  -9   7   7    5.84    1.07
  -8  -7   7   35.53    2.43
   8   7  -7   31.97    2.14
  -8   7   7   31.85    2.06
  -7  -7   7   13.35    1.56
   7   7  -7   15.18    1.45
  -7   7   7   12.92    1.33
   6   7  -7    3.28    0.92
  -6  -7   7    3.45    1.02
  -6   7   7    2.10    0.85
  -5  -7   7   69.24    3.17
   5   7  -7   72.11    2.76
  -5   7   7   69.29    2.59
   4   7  -7    6.06    0.99
  -4  -7   7    4.48    1.15
  -4   7   7    4.20    0.74
   3   7  -7   75.20    2.80
  -3  -7   7   74.99    3.21
  -3   7   7   73.37    2.46
   2   7  -7  141.18    3.63
  -2  -7   7  147.28    4.52
  -2   7   7  136.51    3.17
   1   7  -7    4.93    0.88
  -1   7   7    6.45    0.86
   0   7  -7   13.30    1.24
   0  -7   7   11.41    1.48
   0   7   7   12.59    0.99
  -1   7  -7   39.87    1.93
   1  -7   7   36.55    2.36
  -2   7  -7   59.36    2.39
   2  -7   7   63.03    3.22
  -3   7  -7   69.07    2.59
   3  -7   7   64.40    3.01
  -4   7  -7    7.24    1.07
   4  -7   7    7.50    1.30
  -4  -7  -7    6.04    1.11
   5  -7   7    2.84    1.04
  -5   7  -7    3.30    0.99
  -5  -7  -7    4.42    1.18
   6  -7   7   72.36    3.40
  -6   7  -7   73.05    2.93
   7  -7   7   19.88    1.98
  -7  -7  -7   16.81    1.72
   8  -7   7   -1.13    1.04
  -8   7  -7   -0.14    0.93
  -8  -7  -7    1.96    1.09
   9  -7   7    1.31    1.11
  -9   7  -7    0.30    0.95
  -9  -7  -7    1.30    1.23
 -10   7  -7    0.18    1.02
  10  -7   7   -1.44    1.14
 -10  -7  -7   -1.67    1.25
 -11  -7  -7    0.72    1.27
 -14  -8   7    2.19    1.22
 -14  -8   7    0.01    1.09
 -13  -8   7   -0.70    1.23
 -13  -8   7    1.76    1.26
 -13   8   7    0.39    1.11
 -12  -8   7    2.97    1.35
 -12  -8   7    3.25    1.35
 -12   8   7    0.67    1.11
 -11  -8   7   -1.18    1.16
 -11   8   7    0.74    0.91
 -10  -8   7    6.26    1.40
 -10  -8   7    7.47    1.47
 -10   8   7    4.85    1.24
  -9  -8   7    3.67    1.24
  -9   8   7    1.96    0.93
   8   8  -7    6.11    1.21
  -8  -8   7    5.00    1.30
  -8   8   7    5.32    1.12
   7   8  -7    4.53    1.03
  -7  -8   7    4.68    1.34
  -7   8   7    2.60    0.83
   6   8  -7    4.07    1.07
  -6  -8   7    6.01    1.32
  -6   8   7    4.84    0.91
   5   8  -7    2.63    0.85
  -5  -8   7    3.61    1.08
  -5   8   7    3.13    0.86
   4   8  -7    8.90    1.17
  -4   8   7    6.17    0.96
  -4  -8   7    5.99    1.21
   3   8  -7   41.32    2.10
  -3  -8   7   43.65    2.67
  -3   8   7   40.43    1.87
   2   8  -7    5.76    0.99
  -2   8   7    5.26    0.81
  -2  -8   7    4.88    1.18
   1   8  -7   39.43    1.99
  -1  -8   7   41.59    2.50
  -1   8   7   35.83    1.61
   0   8  -7   23.49    1.59
   0  -8   7   23.92    1.99
  -1   8  -7   49.98    2.31
   1  -8   7   55.31    2.94
  -2   8  -7   18.27    1.46
   2  -8   7   15.80    1.72
  -3   8  -7   24.16    1.68
   3  -8   7   22.74    1.99
  -4   8  -7    2.22    0.91
   4  -8   7    1.81    1.04
  -4  -8  -7    1.64    0.91
   5  -8   7    5.82    1.35
  -5   8  -7    6.64    1.15
  -5  -8  -7    2.97    1.01
   6  -8   7    1.76    1.06
  -6  -8  -7    3.01    1.16
  -7   8  -7    4.16    1.14
   7  -8   7    3.85    1.23
  -7  -8  -7    3.30    1.15
   8  -8   7    1.04    1.03
  -8   8  -7    0.84    0.92
  -8  -8  -7    0.90    1.17
   9  -8   7    0.37    1.08
  -9   8  -7    1.83    1.06
  -9  -8  -7    0.06    1.15
  10  -8   7    1.05    1.13
 -10  -8  -7    1.83    1.19
 -11  -8  -7   -0.95    1.42
 -14  -9   7    1.88    1.38
 -14  -9   7    4.10    1.50
 -13  -9   7    1.55    1.31
 -13  -9   7    2.53    1.32
 -13   9   7    0.56    1.16
 -12  -9   7    1.35    1.19
 -12  -9   7   -2.00    1.27
 -12   9   7    0.06    1.01
 -11  -9   7    1.23    1.23
 -11  -9   7   -1.80    1.14
 -11   9   7   -1.33    0.94
 -10  -9   7   -0.25    1.14
 -10   9   7   -1.24    1.07
   9   9  -7    1.07    0.95
  -9  -9   7    0.22    1.09
  -9   9   7    0.53    0.86
   8   9  -7    2.45    1.09
  -8  -9   7    1.63    0.97
  -8   9   7    1.18    0.88
   7   9  -7   24.19    1.92
  -7  -9   7   28.09    2.39
  -7   9   7   23.37    1.76
   6   9  -7   44.45    2.43
  -6  -9   7   45.21    2.71
  -6   9   7   36.87    2.12
   5   9  -7   45.64    2.47
  -5  -9   7   44.96    2.70
  -5   9   7   41.70    2.15
   4   9  -7   15.88    1.51
  -4  -9   7   17.66    1.84
  -4   9   7   14.61    1.28
   3   9  -7    0.17    0.70
  -3   9   7   -0.16    0.65
  -3  -9   7   -0.53    0.98
   2   9  -7   92.77    3.24
  -2  -9   7   93.49    3.84
   1   9  -7   51.31    2.35
  -1  -9   7   52.58    2.89
   0   9  -7   28.37    1.85
   0  -9   7   29.53    2.29
  -1   9  -7    0.42    0.73
   1  -9   7    1.74    1.19
  -2   9  -7    8.88    1.20
   2  -9   7    9.70    1.46
   3  -9   7    9.88    1.56
  -3   9  -7    8.74    1.14
  -4   9  -7    8.97    1.26
   4  -9   7    6.65    1.37
   5  -9   7   35.30    2.62
  -5   9  -7   33.69    2.05
   6  -9   7    1.16    1.04
  -6   9  -7    3.39    1.08
  -6  -9  -7    2.41    1.06
  -7   9  -7    0.28    0.86
   7  -9   7   -0.51    1.09
  -7  -9  -7    0.29    1.04
   8  -9   7   -0.24    1.06
  -8   9  -7   -1.02    0.99
  -8  -9  -7    1.47    1.26
   9  -9   7    4.23    1.42
  -9   9  -7    2.14    1.11
  -9  -9  -7    0.77    1.28
  10  -9   7    2.67    1.35
 -10  -9  -7    1.07    1.25
 -14 -10   7   -0.58    1.40
 -13 -10   7    0.82    1.32
 -13 -10   7    1.90    1.26
 -12 -10   7   -0.26    1.11
 -12 -10   7    0.21    1.18
 -12  10   7    1.35    1.10
 -11 -10   7   -0.34    1.10
 -11 -10   7    0.50    1.07
 -11  10   7   -0.26    0.93
 -10 -10   7    3.20    1.31
 -10  10   7    0.77    0.89
   9  10  -7    1.52    1.04
  -9 -10   7    1.38    1.36
  -9  10   7   -0.18    0.84
   8  10  -7    1.85    1.08
  -8  10   7    0.57    0.80
  -8 -10   7    0.20    1.01
   7  10  -7    3.30    1.10
  -7  10   7    1.69    0.88
  -7 -10   7    3.25    1.14
   6  10  -7    1.38    0.90
  -6  10   7    0.27    0.72
  -6 -10   7    1.12    1.12
   5  10  -7    4.87    1.14
  -5  10   7    5.07    0.91
  -5 -10   7    5.81    1.30
   4  10  -7   10.62    1.33
  -4 -10   7   11.71    1.69
  -4  10   7   11.90    1.24
   3  10  -7   19.32    1.66
  -3 -10   7   17.25    1.86
  -3  10   7   16.23    1.26
  -2 -10   7    0.21    0.91
   2  10  -7    0.76    0.80
  -2  10   7    0.70    0.58
  -1 -10   7   -0.46    0.94
   1  10  -7    0.57    0.74
   0  10  -7    0.89    0.74
   0 -10   7    0.48    1.14
  -1  10  -7    5.02    1.00
   1 -10   7    3.24    1.10
  -2  10  -7    0.82    0.76
   2 -10   7   -0.25    1.04
  -3  10  -7    2.89    0.89
   3 -10   7    1.81    1.18
   4 -10   7    0.46    0.97
  -4  10  -7    2.00    0.88
   5 -10   7    4.50    1.32
  -5  10  -7    3.97    1.05
  -6  10  -7    3.87    1.12
   6 -10   7    4.48    1.39
  -7  10  -7   -0.11    0.91
   7 -10   7    2.11    1.34
   8 -10   7   -0.10    1.25
  -8  10  -7   -1.56    1.06
   9 -10   7    0.78    1.21
 -13 -11   7    2.00    1.41
 -12 -11   7   -0.48    1.21
 -12  11   7   -1.25    1.22
 -12 -11   7    0.26    1.20
 -11  11   7   -0.36    0.99
 -11 -11   7    4.56    1.52
  10  11  -7    0.94    1.20
 -10  11   7   -0.56    1.03
 -10 -11   7    2.75    1.22
   9  11  -7    5.71    1.41
  -9  11   7    2.99    1.19
  -9 -11   7    5.14    1.42
   8  11  -7    0.97    1.01
  -8  11   7   -0.69    0.84
  -8 -11   7   -0.71    1.12
   7  11  -7    6.22    1.29
  -7  11   7    4.16    1.05
  -7 -11   7    5.51    1.35
   6  11  -7   -0.79    0.94
  -6  11   7    0.10    0.75
  -6 -11   7    0.08    0.96
  -5 -11   7    3.51    1.12
   5  11  -7    4.67    1.19
  -5  11   7    2.83    0.80
   4  11  -7   40.47    2.37
  -4 -11   7   45.96    2.98
   3  11  -7   17.36    1.67
  -3  11   7   13.81    1.31
  -3 -11   7   17.10    1.89
   2  11  -7   15.28    1.61
  -2 -11   7   14.93    1.80
   1  11  -7   33.76    2.18
  -1 -11   7   43.06    2.88
   0  11  -7   12.29    1.45
   0 -11   7   13.09    1.75
  -1  11  -7   51.93    2.56
   1 -11   7   52.68    3.11
   2 -11   7   48.74    3.06
  -2  11  -7   47.64    2.49
   3 -11   7   13.81    1.83
  -3  11  -7   12.92    1.49
   4 -11   7    8.50    1.59
  -4  11  -7    6.95    1.19
  -5  11  -7   12.67    1.59
   5 -11   7   10.77    1.70
  -6  11  -7    3.52    1.07
   6 -11   7    4.89    1.44
   7 -11   7    4.16    1.46
  -7  11  -7    3.89    1.18
   8 -11   7    1.08    1.21
  11  12  -7    0.23    1.31
 -11  12   7    0.26    1.08
 -11 -12   7    0.75    1.15
  10  12  -7    1.31    1.27
 -10  12   7    0.20    1.01
 -10 -12   7    0.70    1.24
   9  12  -7    1.98    1.16
  -9  12   7    0.48    1.01
  -9 -12   7    1.92    1.30
   8  12  -7    2.35    1.02
  -8  12   7    1.43    1.07
  -8 -12   7    2.05    1.21
   7  12  -7    3.87    1.24
  -7  12   7    2.41    1.04
  -7 -12   7    2.60    1.26
  -6 -12   7    1.87    1.16
   6  12  -7    0.89    1.02
  -6  12   7   -0.59    0.81
  -5 -12   7    1.25    1.07
   5  12  -7    2.29    1.04
  -5  12   7    1.10    0.77
  -4 -12   7    6.35    1.34
   4  12  -7    5.00    1.17
  -3 -12   7    4.99    1.40
   3  12  -7    4.83    1.04
   2  12  -7    3.53    1.03
  -2 -12   7    4.56    1.50
   1  12  -7   13.70    1.57
  -1 -12   7   15.21    1.99
   0  12  -7    6.66    1.17
   0 -12   7    5.74    1.35
  -1  12  -7    0.34    0.86
   1 -12   7    1.97    1.28
  -2  12  -7   -1.57    0.97
   2 -12   7    2.97    1.40
   3 -12   7    4.60    1.48
  -3  12  -7    3.71    1.14
   4 -12   7    4.43    1.51
  -4  12  -7    6.20    1.17
  -5  12  -7   -0.06    0.91
   5 -12   7    3.14    1.35
  -6  12  -7   -1.06    0.96
   6 -12   7    1.57    1.41
  10  13  -7   -0.08    1.29
 -10  13   7    0.14    1.13
 -10 -13   7   -0.35    1.18
   9  13  -7   -0.67    1.09
  -9  13   7    0.37    0.97
  -9 -13   7    0.89    1.20
  -8 -13   7    2.30    1.27
   8  13  -7    1.21    1.16
  -8  13   7   -0.08    0.89
  -7 -13   7   -0.09    1.14
   7  13  -7    0.42    1.03
  -7  13   7    0.62    0.97
  -6 -13   7    4.96    1.53
   6  13  -7    6.21    1.36
  -6  13   7    3.16    1.00
  -5 -13   7   11.53    1.71
   5  13  -7   10.19    1.55
   4  13  -7    4.80    1.22
  -4 -13   7    7.57    1.77
   3  13  -7   12.67    1.61
  -3 -13   7   15.97    2.11
   2  13  -7   11.05    1.52
  -2 -13   7    9.27    1.70
   1  13  -7   34.14    2.37
  -1 -13   7   34.55    2.77
   0  13  -7   11.54    1.51
   0 -13   7   10.46    1.82
  -1  13  -7    7.48    1.35
   1 -13   7    7.58    1.61
   2 -13   7    1.35    1.12
  -2  13  -7   -1.77    0.99
   3 -13   7    7.27    1.61
  -3  13  -7    4.23    1.22
   4 -13   7    9.73    1.80
  -4  13  -7    7.55    1.29
  -9  14   7   -0.33    1.06
  -8 -14   7   -0.55    1.25
   8  14  -7   -0.63    1.18
  -8  14   7   -1.73    1.17
  -7 -14   7   -1.17    1.23
   7  14  -7    0.85    1.09
  -7  14   7    0.66    0.93
  -6 -14   7    2.89    1.39
   6  14  -7   -0.96    1.13
   5  14  -7    5.60    1.41
  -5 -14   7    3.84    1.49
   4  14  -7    3.36    1.19
  -4 -14   7    3.06    1.52
   3  14  -7    0.52    1.03
  -3 -14   7   -0.98    1.30
   2  14  -7   10.64    1.64
  -2 -14   7    8.62    1.72
   1  14  -7    1.72    1.00
  -1 -14   7    3.26    1.37
   0  14  -7   11.27    1.55
   0 -14   7    7.10    1.54
  -1  14  -7    0.37    0.95
   1 -14   7    2.44    1.41
   2 -14   7    0.47    1.20
  -2  14  -7    0.28    0.99
   4  15  -7    0.74    1.05
   3  15  -7    2.66    1.17
   2  15  -7   -0.51    1.00
   1  15  -7    6.77    1.44
 -14   0   8   -0.78    0.99
 -13   0   8    0.95    1.00
 -12   0   8    2.11    1.01
 -11   0   8    0.61    0.85
 -10   0   8    0.91    0.88
  -9   0   8   11.58    1.41
  -8   0   8   34.21    2.32
  -7   0   8   26.51    1.89
  -6   0   8    6.26    1.07
  -5   0   8   53.40    2.51
  -4   0   8    2.44    0.88
   4   0  -8    1.44    0.38
   3   0  -8   37.40    1.26
  -3   0   8   33.76    2.06
  -2   0   8  351.79    6.25
   2   0  -8  380.29    4.13
  -1   0   8   91.82    3.20
   1   0  -8  102.40    2.34
   0   0  -8    3.56    0.72
   0   0   8    2.10    0.84
   1   0   8   73.07    2.79
  -1   0  -8   75.13    2.34
   2   0   8   20.36    1.58
  -2   0  -8   19.66    1.40
  -3   0  -8  124.49    3.37
   3   0   8  131.72    3.62
  -4   0  -8  128.98    3.76
   4   0   8  132.57    3.58
  -5   0  -8    0.86    0.76
  -6   0  -8    7.96    1.33
  -7   0  -8    4.08    1.12
  -8   0  -8    0.76    0.87
  -9   0  -8    1.60    1.01
 -10   0  -8    2.68    1.23
 -11   0  -8    1.01    1.09
 -14   1   8   -1.22    1.12
 -14  -1   8    1.54    1.04
 -13   1   8    0.47    1.02
 -13  -1   8    3.78    1.21
 -12   1   8    1.74    0.96
 -12  -1   8   -0.03    0.90
 -11   1   8    7.13    1.38
 -11  -1   8    6.55    1.31
 -10   1   8    4.16    1.11
 -10  -1   8    3.75    1.07
  -9   1   8    1.58    0.99
  -9  -1   8    0.65    0.84
  -8   1   8   -0.17    0.79
  -8  -1   8    0.61    0.84
  -7   1   8    1.31    0.80
  -7  -1   8    1.60    0.79
   6   1  -8   25.34    1.12
  -6   1   8   27.34    1.83
  -6  -1   8   24.58    1.86
   5   1  -8   21.89    1.04
  -5   1   8   22.50    1.72
  -5  -1   8   20.54    1.74
   4   1  -8   36.89    1.31
  -4   1   8   36.18    2.06
  -4  -1   8   37.68    2.15
  -3   1   8    1.49    0.72
  -3  -1   8    1.07    0.82
   3   1  -8    1.15    0.45
  -2   1   8    8.98    1.16
   2   1  -8    9.32    0.81
   2  -1  -8    7.82    0.72
  -1   1   8   24.59    1.76
  -1  -1   8   26.31    1.88
   1   1  -8   26.17    1.30
   1  -1  -8   23.39    1.22
   0   1   8   13.65    1.36
   0  -1   8   11.93    1.36
   0   1  -8   12.22    0.98
   0  -1  -8   10.46    1.00
  -1   1  -8    2.18    0.67
  -1  -1  -8    1.61    0.68
   1   1   8    1.06    0.72
   1  -1   8    2.06    0.90
   2   1   8    9.30    1.15
  -2   1  -8    8.85    1.01
   2  -1   8    9.48    1.25
  -2  -1  -8    6.23    0.95
  -3   1  -8   12.74    1.23
  -3  -1  -8   11.05    1.17
   3   1   8   11.45    1.18
   3  -1   8   12.61    1.32
  -4   1  -8    8.03    1.12
   4  -1   8    7.64    1.07
  -4  -1  -8    7.11    1.10
  -5   1  -8    3.08    0.95
  -5  -1  -8    2.68    0.87
   5  -1   8    2.62    0.85
  -6   1  -8    1.10    0.92
  -6  -1  -8    0.23    0.78
  -7   1  -8    9.74    1.42
  -7  -1  -8    7.31    1.27
  -8   1  -8    2.21    0.99
  -8  -1  -8    3.18    1.23
  -9   1  -8    0.37    0.92
  -9  -1  -8    0.65    1.01
 -10   1  -8   -0.36    0.99
 -10  -1  -8    0.74    1.06
 -11  -1  -8    1.22    1.19
 -14  -2   8    2.06    1.26
 -14   2   8    2.02    1.06
 -13  -2   8    4.53    1.29
 -13   2   8    2.29    1.01
 -12   2   8    1.35    1.08
 -12  -2   8    1.11    0.89
 -11   2   8    1.48    0.99
 -11  -2   8    0.82    0.93
 -10   2   8    4.03    1.18
 -10  -2   8    3.04    1.02
  -9   2   8    8.95    1.39
  -9  -2   8    9.23    1.33
  -8   2   8    0.88    0.72
  -8  -2   8    1.14    0.83
  -7   2   8    0.82    0.81
  -7  -2   8    1.58    0.81
   7   2  -8    0.43    0.49
   6   2  -8   30.41    1.40
  -6   2   8   26.92    1.79
  -6  -2   8   32.34    2.13
   5   2  -8   34.34    1.43
  -5   2   8   31.76    1.88
  -5  -2   8   33.56    2.14
  -4  -2   8   31.93    2.08
   4   2  -8   35.20    1.46
  -4   2   8   37.34    2.05
  -3  -2   8   31.77    2.08
   3   2  -8   31.00    1.39
  -3   2   8   29.84    1.78
   2   2  -8    5.55    0.75
  -2  -2   8    5.24    1.06
  -2   2   8    6.92    1.08
  -1   2   8    2.62    0.75
   1   2  -8    3.46    0.71
   1  -2  -8    2.47    0.50
  -1  -2   8    3.53    1.01
   0   2   8   24.93    1.67
   0  -2   8   27.52    1.89
   0   2  -8   26.66    1.39
   0  -2  -8   21.92    1.23
   1   2   8   89.74    2.91
   1  -2   8   90.37    3.33
  -1   2  -8   90.11    2.63
   2   2   8   93.61    2.87
  -2   2  -8   96.28    2.81
   2  -2   8   90.85    3.36
  -2  -2  -8   86.18    2.70
  -3   2  -8   31.18    1.78
   3   2   8   27.88    1.59
  -3  -2  -8   26.63    1.64
   3  -2   8   33.76    2.08
  -4   2  -8   10.22    1.24
  -4  -2  -8    7.42    1.08
   4  -2   8   10.93    1.30
   5  -2   8   10.23    1.28
  -5   2  -8    9.04    1.24
  -5  -2  -8    7.10    1.11
  -6   2  -8   12.47    1.52
  -6  -2  -8   11.01    1.39
  -7  -2  -8   11.05    1.43
  -7   2  -8    8.69    1.38
  -8   2  -8    4.38    1.41
  -8  -2  -8    3.03    1.05
  -9   2  -8    0.56    1.01
  -9  -2  -8    1.17    0.97
 -10   2  -8    0.72    1.00
 -10  -2  -8    0.70    1.17
 -11  -2  -8    2.09    1.03
 -14  -3   8    2.70    1.29
 -14   3   8    1.21    1.31
 -13  -3   8   -0.94    1.07
 -13   3   8    0.36    0.98
 -12  -3   8    1.19    1.04
 -12   3   8   -0.26    0.96
 -11  -3   8    0.01    0.89
 -11   3   8   -0.45    0.93
 -10  -3   8    2.14    1.05
 -10   3   8    1.70    1.05
  -9  -3   8    0.92    0.84
  -9   3   8    1.39    0.85
  -8   3   8    4.63    1.05
   8   3  -8    2.51    0.72
  -8  -3   8    3.54    1.05
  -7   3   8    4.67    1.06
   7   3  -8    6.13    0.88
  -7  -3   8    6.77    1.23
   6   3  -8   19.60    1.25
  -6   3   8   20.97    1.70
  -6  -3   8   18.56    1.67
  -5  -3   8    9.84    1.39
   5   3  -8   10.46    0.96
  -5   3   8    8.18    1.14
   4   3  -8    6.67    0.85
  -4  -3   8    6.03    1.13
  -4   3   8    6.36    1.00
  -3  -3   8   11.31    1.37
   3   3  -8   11.80    1.00
  -3   3   8   11.31    1.16
  -2  -3   8   20.60    1.81
   2   3  -8   20.36    1.27
  -2   3   8   24.33    1.65
  -1   3   8    3.82    0.86
   1   3  -8    3.95    0.69
  -1  -3   8    2.03    0.93
   0   3   8   32.49    1.81
   0  -3   8   29.34    2.04
   0   3  -8   27.77    1.48
   0  -3  -8   24.32    1.17
   1   3   8    7.16    0.97
  -1   3  -8    8.10    0.94
   1  -3   8    9.76    1.33
  -1  -3  -8    6.59    0.80
   2  -3   8    0.62    0.81
  -2   3  -8    1.61    0.73
  -2  -3  -8    0.04    0.60
   2   3   8    1.19    0.69
   3  -3   8   -0.01    0.90
  -3   3  -8    1.13    0.77
  -3  -3  -8    0.36    0.64
  -4   3  -8    9.76    1.16
   4  -3   8    9.49    1.27
  -5   3  -8    0.36    0.79
  -5  -3  -8    0.57    0.76
   5  -3   8    1.01    0.82
   6  -3   8    0.10    0.79
  -6   3  -8    1.89    0.99
  -6  -3  -8    0.09    0.78
  -7   3  -8    2.67    0.96
  -7  -3  -8    2.02    0.99
  -8   3  -8    4.63    1.16
  -8  -3  -8    3.20    1.08
  -9   3  -8   -0.61    1.05
  -9  -3  -8    0.85    1.00
 -10   3  -8    1.33    1.22
 -10  -3  -8    0.20    1.08
 -11  -3  -8    0.95    1.15
 -14  -4   8    3.65    1.29
 -14   4   8    0.20    1.13
 -13  -4   8    0.17    1.00
 -13   4   8    0.03    1.01
 -12  -4   8    3.13    1.17
 -12   4   8    2.99    1.22
 -11  -4   8    2.70    1.01
 -11   4   8    0.88    1.00
 -10  -4   8    1.53    0.96
 -10   4   8    3.02    1.16
   9   4  -8    4.89    0.92
  -9  -4   8    5.30    1.31
  -9   4   8    4.77    1.13
   8   4  -8    0.52    0.68
  -8  -4   8   -0.61    1.03
  -8   4   8   -1.39    0.98
   7   4  -8   15.05    1.32
  -7   4   8   12.83    1.39
  -7  -4   8   12.74    1.53
  -6  -4   8   27.49    2.10
   6   4  -8   28.13    1.63
  -6   4   8   27.98    1.91
   5   4  -8    8.49    0.97
  -5  -4   8    7.69    1.29
  -5   4   8    9.11    1.20
  -4   4   8    0.32    0.75
   4   4  -8    1.33    0.61
  -4  -4   8    0.64    0.88
  -3  -4   8   29.71    2.17
   3   4  -8   29.10    1.50
  -3   4   8   27.06    1.71
  -2  -4   8   13.35    1.54
   2   4  -8   13.80    1.16
  -2   4   8   12.56    1.19
  -1  -4   8   41.06    2.45
   1   4  -8   43.04    1.85
  -1   4   8   42.29    1.99
   0   4   8   42.51    1.97
   0   4  -8   45.56    1.97
   0  -4   8   45.12    2.52
   1  -4   8    1.81    0.97
  -1   4  -8    1.99    0.70
   1   4   8    1.16    0.67
  -2   4  -8   58.59    2.33
   2  -4   8   60.02    2.82
  -3   4  -8   14.85    1.37
  -3  -4  -8   11.12    1.17
   3  -4   8   16.30    1.76
  -4   4  -8    0.38    0.73
   4  -4   8    0.92    0.83
  -4  -4  -8    0.03    0.78
  -5   4  -8    1.67    0.89
  -5  -4  -8    0.96    0.86
   5  -4   8   -0.50    0.87
   6  -4   8    0.32    0.87
  -6   4  -8    0.09    0.82
  -6  -4  -8   -0.12    0.82
  -7   4  -8    1.40    0.96
   7  -4   8    3.12    1.06
  -7  -4  -8    0.80    0.86
  -8   4  -8   13.48    1.71
  -8  -4  -8    9.35    1.50
  -9   4  -8    9.57    1.67
  -9  -4  -8    7.39    1.42
 -10   4  -8    0.96    1.14
 -10  -4  -8   -0.36    1.19
 -11  -4  -8   -1.55    1.29
 -14  -5   8    1.30    1.23
 -14   5   8   -0.33    1.05
 -13  -5   8    0.42    1.07
 -13   5   8   -0.25    0.96
 -12  -5   8    0.08    1.05
 -12   5   8   -0.32    0.91
 -11  -5   8    2.71    1.17
 -11   5   8   -0.10    1.03
  10   5  -8    5.70    1.18
 -10  -5   8    6.38    1.37
 -10   5   8    5.38    1.37
   9   5  -8    0.64    0.80
  -9  -5   8    0.87    1.01
  -9   5   8   -0.36    0.85
   8   5  -8    2.18    0.85
  -8  -5   8    3.68    1.11
  -8   5   8    2.86    0.96
  -7  -5   8    9.75    1.46
   7   5  -8    8.32    1.09
  -7   5   8    7.55    1.23
   6   5  -8    0.64    0.69
  -6  -5   8    0.19    0.90
  -6   5   8   -0.14    0.68
  -5   5   8    2.35    0.82
   5   5  -8    3.21    0.77
  -5  -5   8    3.43    1.17
  -4   5   8    2.15    0.82
   4   5  -8    0.64    0.64
  -4  -5   8    0.59    0.87
  -3  -5   8   34.98    2.35
   3   5  -8   35.07    1.80
  -3   5   8   32.94    1.84
   2   5  -8   12.74    1.19
  -2  -5   8    8.99    1.33
  -2   5   8    8.99    1.09
   1   5  -8  104.89    3.01
  -1  -5   8  103.60    4.01
  -1   5   8  100.00    3.03
   0  -5   8    3.70    1.13
   0   5   8    5.77    0.85
   0   5  -8    4.64    0.88
   1  -5   8    4.78    1.24
  -1   5  -8    3.89    0.87
   2  -5   8    1.06    0.90
  -2   5  -8    1.81    0.72
   3  -5   8    2.93    1.01
  -3   5  -8    1.59    0.81
  -3  -5  -8    1.03    0.68
  -4   5  -8   22.74    1.70
   4  -5   8   21.16    1.93
   5  -5   8    9.54    1.43
  -5   5  -8   12.49    1.40
  -5  -5  -8    8.55    1.28
   6  -5   8    8.78    1.45
  -6   5  -8   10.37    1.32
  -7   5  -8   -0.74    0.91
   7  -5   8    1.35    1.01
  -7  -5  -8    1.72    0.99
  -8   5  -8    1.64    0.91
  -8  -5  -8    1.44    1.05
  -9   5  -8    2.59    1.28
  -9  -5  -8    2.29    1.14
 -10  -5  -8    1.43    1.19
 -14  -6   8    0.64    1.06
 -13  -6   8   -0.80    1.28
 -13   6   8   -0.51    1.20
 -12  -6   8    5.35    1.49
 -12   6   8    2.86    1.34
  11   6  -8    0.79    0.98
 -11  -6   8   -1.37    1.05
 -11   6   8    0.22    1.00
  10   6  -8    0.88    0.90
 -10  -6   8    1.19    0.99
 -10   6   8    0.34    0.88
   9   6  -8    0.22    0.72
  -9  -6   8    0.75    1.07
  -9   6   8    0.29    0.83
   8   6  -8    4.43    1.08
  -8  -6   8    4.74    1.23
  -8   6   8    2.55    0.90
   7   6  -8    3.11    0.90
  -7  -6   8    1.04    0.94
  -7   6   8    1.77    0.80
   6   6  -8   -0.19    0.71
  -6  -6   8    0.07    0.91
  -6   6   8    1.50    0.84
  -5  -6   8   45.74    2.77
   5   6  -8   43.81    2.14
  -5   6   8   39.60    2.09
  -4  -6   8   49.41    2.85
   4   6  -8   49.85    2.21
  -4   6   8   47.28    2.23
  -3  -6   8   19.30    1.92
   3   6  -8   20.37    1.46
  -3   6   8   18.78    1.41
   2   6  -8   28.21    1.72
  -2  -6   8   29.39    2.20
  -2   6   8   24.81    1.53
   1   6  -8   20.70    1.46
  -1  -6   8   22.22    1.95
  -1   6   8   17.37    1.29
   0   6  -8   18.58    1.44
   0  -6   8   18.80    1.83
  -1   6  -8   26.54    1.69
   1  -6   8   22.68    1.93
  -2   6  -8   19.59    1.52
   2  -6   8   20.38    1.95
  -3   6  -8   27.02    1.82
   3  -6   8   24.99    2.07
   4  -6   8   14.86    1.72
  -4   6  -8   14.83    1.40
   5  -6   8   16.15    1.81
  -5   6  -8   14.76    1.47
   6  -6   8   16.88    1.86
  -6   6  -8   18.97    1.73
  -6  -6  -8   13.14    1.59
  -7   6  -8    7.56    1.28
   7  -6   8    9.21    1.53
  -7  -6  -8    5.82    1.37
   8  -6   8    3.15    1.28
  -8   6  -8    1.88    1.02
  -8  -6  -8   -0.34    1.01
  -9   6  -8    1.64    1.08
  -9  -6  -8    0.03    1.06
 -10  -6  -8   -0.61    1.15
 -13  -7   8    0.02    1.19
 -13   7   8   -0.29    1.02
 -12  -7   8    0.09    1.09
 -12   7   8   -0.25    0.98
  11   7  -8    0.99    1.12
 -11  -7   8    0.06    1.07
 -11   7   8    0.24    1.01
  10   7  -8    0.36    0.94
 -10  -7   8    0.24    1.03
 -10   7   8    0.90    0.98
   9   7  -8   -0.81    0.90
  -9  -7   8    0.47    1.02
  -9   7   8   -0.06    0.92
   8   7  -8    4.22    1.05
  -8  -7   8    2.37    1.18
  -8   7   8    2.80    1.05
   7   7  -8   -0.23    0.81
  -7  -7   8    0.95    0.97
  -7   7   8    0.68    0.84
   6   7  -8    2.64    0.86
  -6  -7   8    2.13    1.05
  -6   7   8   -0.37    0.77
   5   7  -8    1.03    0.77
  -5  -7   8   -0.30    1.12
  -5   7   8    0.13    0.69
  -4   7   8    0.31    0.67
   4   7  -8    1.74    0.80
  -4  -7   8    1.45    0.99
  -3   7   8    0.26    0.62
   3   7  -8    1.17    0.79
  -3  -7   8    0.64    1.01
  -2   7   8    4.33    0.82
   2   7  -8    4.09    0.91
  -2  -7   8    4.92    1.22
  -1  -7   8    0.85    0.91
  -1   7   8    0.12    0.60
   1   7  -8    2.31    0.85
   0  -7   8    7.35    1.34
   0   7  -8    3.79    0.89
  -1   7  -8   24.80    1.64
   1  -7   8   24.23    2.13
  -2   7  -8   12.57    1.30
   2  -7   8   13.21    1.73
  -3   7  -8    6.59    1.11
   3  -7   8    4.33    1.17
  -4   7  -8    3.53    0.98
   4  -7   8    5.16    1.32
   5  -7   8   14.16    1.70
  -5   7  -8   14.10    1.49
   6  -7   8   14.86    1.78
  -6   7  -8   16.78    1.67
  -7   7  -8    6.83    1.26
   7  -7   8    4.77    1.29
   8  -7   8    2.85    1.19
  -8   7  -8    0.49    0.93
 -13  -8   8    0.44    1.17
 -12  -8   8    2.78    1.28
 -12   8   8    0.27    1.05
  11   8  -8    2.97    1.14
 -11  -8   8    1.19    1.22
 -11   8   8    1.33    1.10
  10   8  -8    0.00    0.97
 -10  -8   8   -0.57    1.14
 -10   8   8    0.43    0.87
   9   8  -8    1.40    0.94
  -9  -8   8   -1.47    1.06
  -9   8   8    1.15    1.00
   8   8  -8    0.69    0.82
  -8  -8   8    0.56    1.03
  -8   8   8    1.11    0.97
   7   8  -8    0.91    0.78
  -7  -8   8    1.83    1.08
  -7   8   8    1.33    0.84
   6   8  -8    2.40    0.95
  -6   8   8    0.62    0.73
   5   8  -8   30.13    1.98
  -5  -8   8   29.15    2.39
  -5   8   8   27.82    1.78
   4   8  -8   36.85    2.12
  -4  -8   8   41.45    2.75
   3   8  -8   15.45    1.49
  -3  -8   8   16.17    1.84
  -2  -8   8    6.30    1.33
  -2   8   8    4.65    0.82
   2   8  -8    6.52    1.07
   1   8  -8    9.86    1.18
  -1  -8   8   11.04    1.65
   0  -8   8    2.52    1.08
   0   8  -8    2.53    0.81
   1  -8   8    2.51    1.27
  -1   8  -8    1.74    0.85
  -2   8  -8    2.93    0.86
   2  -8   8    2.51    1.08
  -3   8  -8   18.38    1.67
   3  -8   8   21.31    2.07
  -4   8  -8    0.82    0.81
   4  -8   8    3.51    1.24
   5  -8   8    5.69    1.40
  -5   8  -8    2.64    0.97
   6  -8   8    7.10    1.51
  -6   8  -8    8.27    1.36
  -7   8  -8    5.79    1.25
   7  -8   8    5.63    1.43
   8  -8   8    1.14    1.20
  -8   8  -8    0.76    1.05
   9  -8   8   -0.55    1.24
  12   9  -8    1.10    1.35
 -12  -9   8   -0.14    1.16
 -12   9   8   -0.22    1.02
  11   9  -8   -0.05    1.18
 -11  -9   8    1.39    1.30
 -11   9   8    1.11    1.14
  10   9  -8    2.86    1.08
 -10  -9   8    1.04    1.21
 -10   9   8   -0.96    1.08
   9   9  -8    0.15    0.95
  -9   9   8    0.37    1.01
   8   9  -8    2.61    1.10
  -8  -9   8   -0.18    1.10
  -8   9   8    0.50    0.91
   7   9  -8    2.50    0.94
  -7  -9   8    2.70    1.17
  -7   9   8    1.83    0.94
   6   9  -8    1.89    0.97
  -6  -9   8    0.41    0.94
  -6   9   8   -0.06    0.85
   5   9  -8    3.54    0.98
  -5  -9   8    3.05    1.27
  -5   9   8    3.24    0.90
   4   9  -8   -0.30    0.74
  -4  -9   8    0.04    1.00
  -4   9   8   -0.28    0.69
   3   9  -8   17.04    1.57
  -3  -9   8   15.54    1.88
  -3   9   8   12.85    1.22
  -2  -9   8    0.95    1.11
   2   9  -8    1.35    0.80
  -1  -9   8    2.46    1.12
   1   9  -8    1.56    0.73
   0  -9   8   -0.82    1.22
   0   9  -8    1.69    0.82
  -1   9  -8    1.10    0.86
   1  -9   8    0.65    1.03
  -2   9  -8    0.70    0.82
   2  -9   8    2.60    1.13
   3  -9   8   16.29    1.93
  -3   9  -8   16.21    1.58
  -4   9  -8    0.26    0.83
   4  -9   8   -0.28    1.12
   5  -9   8    3.05    1.30
  -5   9  -8   -1.55    1.01
   6  -9   8    3.99    1.26
  -6   9  -8    4.36    1.10
  -7   9  -8    1.30    1.12
   7  -9   8    1.36    1.18
   8  -9   8    0.93    1.22
  12  10  -8    0.36    1.13
  11  10  -8    0.64    1.17
 -11 -10   8    0.63    1.24
 -11  10   8    0.48    1.11
  10  10  -8    1.20    1.04
 -10 -10   8    0.03    1.17
 -10  10   8   -0.04    1.04
   9  10  -8    1.07    1.00
  -9 -10   8    0.02    1.19
  -9  10   8    0.80    0.96
   8  10  -8    2.42    1.19
  -8 -10   8    1.08    1.28
  -8  10   8   -0.29    0.96
   7  10  -8    3.18    1.17
  -7 -10   8    1.68    1.08
  -7  10   8    2.42    1.01
   6  10  -8    7.04    1.34
  -6 -10   8    8.94    1.64
   5  10  -8    0.61    0.88
  -5  10   8    1.55    0.82
  -5 -10   8    1.27    1.23
   4  10  -8   23.75    1.95
  -4 -10   8   24.31    2.26
  -4  10   8   17.44    1.46
   3  10  -8   25.69    1.90
  -3 -10   8   26.27    2.37
  -2 -10   8    3.18    1.36
   2  10  -8    4.73    1.11
   1  10  -8   22.10    1.76
  -1 -10   8   22.38    2.23
   0  10  -8   33.85    2.11
   0 -10   8   39.90    2.97
  -1  10  -8   20.51    1.68
   1 -10   8   21.30    2.24
  -2  10  -8   27.45    1.94
   2 -10   8   32.11    2.59
  -3  10  -8   11.04    1.39
   3 -10   8   11.27    1.78
   4 -10   8    6.16    1.46
  -4  10  -8    4.86    1.16
   5 -10   8    8.37    1.66
  -5  10  -8    8.60    1.33
  -6  10  -8    2.88    1.07
   6 -10   8    1.95    1.27
   7 -10   8    1.72    1.43
  12  11  -8    1.88    1.36
  11  11  -8   -0.02    1.15
  10  11  -8   -0.01    1.03
 -10 -11   8   -0.84    1.16
 -10  11   8    0.52    1.02
   9  11  -8    0.15    0.96
  -9  11   8    1.20    1.02
  -9 -11   8    1.45    1.22
   8  11  -8    2.02    1.15
  -8  11   8    0.94    0.93
  -8 -11   8    2.26    1.27
   7  11  -8    3.12    1.08
  -7  11   8    1.92    0.99
  -7 -11   8    4.53    1.36
   6  11  -8    0.29    0.93
  -6  11   8   -0.63    0.83
  -6 -11   8   -0.28    1.18
  -5 -11   8    2.20    1.09
   5  11  -8    1.18    0.96
  -4 -11   8    0.32    1.14
   4  11  -8   -0.15    1.03
  -3 -11   8    1.63    1.18
   3  11  -8    0.88    0.91
  -2 -11   8   -0.37    1.09
   2  11  -8    1.28    0.96
  -1 -11   8    6.25    1.58
   1  11  -8    6.77    1.26
   0  11  -8   -0.09    0.85
   0 -11   8   -2.68    1.24
  -1  11  -8    5.36    1.08
   1 -11   8    3.94    1.29
  -2  11  -8    0.81    0.87
   2 -11   8    2.34    1.25
  -3  11  -8    0.96    1.02
   3 -11   8   -1.03    1.18
   4 -11   8    4.32    1.48
  -4  11  -8    3.11    1.07
   5 -11   8    3.02    1.35
  -5  11  -8    2.02    1.02
  10  12  -8    0.89    1.09
 -10  12   8    1.12    1.19
   9  12  -8   -0.36    1.04
  -9  12   8   -0.12    0.96
   8  12  -8   -0.02    1.02
  -8  12   8    1.33    1.04
  -8 -12   8    2.42    1.28
  -7 -12   8    0.31    1.12
   7  12  -8   -0.56    0.99
  -7  12   8    0.08    0.89
  -6 -12   8    0.08    1.14
   6  12  -8    0.91    0.99
   5  12  -8   12.90    1.67
  -5 -12   8   11.93    1.93
   4  12  -8   19.66    2.00
  -4 -12   8   19.76    2.19
  -3 -12   8    4.36    1.44
   3  12  -8    5.28    1.18
   2  12  -8    2.50    0.93
  -2 -12   8    2.50    1.40
   1  12  -8    1.81    1.01
  -1 -12   8    1.40    1.12
   0  12  -8   15.17    1.63
   0 -12   8   15.95    2.09
  -1  12  -8   30.59    2.17
   1 -12   8   32.85    2.86
  -2  12  -8    8.85    1.38
   2 -12   8    6.56    1.66
   3 -12   8    1.19    1.22
  -3  12  -8    0.23    0.90
  -9  13   8    2.15    1.17
   8  13  -8   -0.72    1.06
  -8  13   8   -0.35    0.96
   7  13  -8    0.31    1.02
   6  13  -8    0.08    0.97
  -5 -13   8   -2.95    1.40
   5  13  -8    0.41    0.97
  -4 -13   8    8.88    1.75
   4  13  -8    7.57    1.45
   3  13  -8    6.10    1.24
  -3 -13   8    7.55    1.76
   2  13  -8    0.23    1.03
  -2 -13   8    0.34    1.17
   1  13  -8    2.65    1.11
  -1 -13   8    3.27    1.37
   0  13  -8    1.71    0.95
   0 -13   8    0.62    1.25
  -1  13  -8    0.83    0.98
   4  14  -8   -0.02    1.00
   3  14  -8    0.33    1.00
 -13   0   9    0.60    1.16
 -12   0   9    0.25    1.04
 -11   0   9   -0.15    0.95
 -10   0   9    0.56    0.90
  -9   0   9   -0.95    0.98
  -8   0   9   -1.15    0.91
  -7   0   9    0.29    0.84
  -6   0   9   -0.87    0.95
  -5   0   9    0.03    0.80
  -4   0   9    1.23    0.85
  -3   0   9    0.39    0.81
  -2   0   9   -0.42    0.81
  -1   0   9   -0.45    0.82
   0   0   9    0.17    0.80
  -1   0  -9   -0.11    0.59
   1   0   9    0.00    0.75
   2   0   9   -0.28    0.76
  -2   0  -9    1.17    0.77
  -3   0  -9    0.43    0.84
  -4   0  -9   -0.47    0.83
  -5   0  -9    0.14    0.79
  -6   0  -9   -0.31    0.81
  -7   0  -9    0.81    0.92
  -8   0  -9   -0.67    0.91
  -9   0  -9   -1.46    1.16
 -13   1   9    1.49    1.06
 -13  -1   9    0.70    1.11
 -12   1   9    3.38    1.29
 -12  -1   9    4.41    1.32
 -11   1   9    0.35    0.96
 -11  -1   9    0.58    0.93
 -10   1   9    1.61    1.08
 -10  -1   9    0.98    1.10
  -9   1   9   -0.17    1.00
  -9  -1   9    1.08    1.07
  -8   1   9    0.92    0.80
  -8  -1   9    1.08    0.90
  -7   1   9    8.65    1.34
  -7  -1   9   10.69    1.49
  -6   1   9    2.35    0.86
  -6  -1   9    2.31    0.89
  -5   1   9    6.21    1.21
  -5  -1   9    5.15    1.12
  -4  -1   9   17.83    1.77
  -4   1   9   20.53    1.70
  -3   1   9    5.58    1.00
  -3  -1   9    5.42    1.20
  -2   1   9   22.79    1.79
  -2  -1   9   25.01    1.94
  -1   1   9   68.87    2.90
  -1  -1   9   73.03    3.23
   1   1  -9   69.10    2.11
   0   1   9   41.82    2.32
   0  -1   9   36.50    2.28
   0   1  -9   35.38    1.69
  -1   1  -9    3.60    0.79
   1   1   9    5.60    1.05
   1  -1   9    4.20    1.08
   2   1   9   15.47    1.42
  -2   1  -9   14.21    1.31
   2  -1   9   16.35    1.58
   3  -1   9    5.93    1.15
  -3   1  -9    8.83    1.19
  -3  -1  -9    6.05    0.95
  -4   1  -9   16.08    1.59
  -4  -1  -9   13.29    1.36
  -5   1  -9   31.89    2.19
  -5  -1  -9   28.44    1.98
  -6   1  -9    0.10    0.89
  -6  -1  -9   -0.88    0.91
  -7   1  -9   -0.06    0.87
  -7  -1  -9    0.68    0.94
  -8   1  -9    1.56    1.03
  -8  -1  -9    1.80    1.09
  -9   1  -9    0.38    1.05
  -9  -1  -9   -0.81    1.06
 -13   2   9    0.17    1.10
 -13  -2   9   -0.15    1.07
 -12   2   9   -1.47    1.08
 -12  -2   9    0.67    1.02
 -11   2   9    1.94    1.10
 -11  -2   9    1.63    0.99
 -10   2   9   -1.03    0.99
 -10  -2   9    1.57    1.03
  -9   2   9    2.47    1.03
  -9  -2   9    1.06    0.88
  -8   2   9    4.86    1.10
  -8  -2   9    4.46    1.25
  -7   2   9   -0.73    0.81
  -7  -2   9    0.11    0.86
  -6   2   9    0.58    0.85
  -6  -2   9    0.94    1.03
  -5   2   9   -0.23    0.76
  -5  -2   9    2.30    1.07
  -4  -2   9   29.22    2.17
  -4   2   9   27.83    2.01
  -3   2   9    6.00    1.14
  -3  -2   9    7.76    1.31
  -2   2   9   12.84    1.38
   2   2  -9   12.16    1.04
   1   2  -9    1.53    0.60
  -1   2   9    1.25    0.79
  -1  -2   9    1.25    0.84
   0   2  -9    0.00    0.60
   0   2   9   -0.44    0.75
   0  -2   9   -0.36    0.91
   1  -2   9   -0.07    0.84
  -1   2  -9    1.08    0.67
  -2   2  -9   15.18    1.30
   2  -2   9   16.77    1.70
   3  -2   9    6.59    1.29
  -3   2  -9    4.33    0.95
   4  -2   9   -0.57    0.83
  -4   2  -9    0.25    0.75
  -5   2  -9    5.75    1.16
  -5  -2  -9    5.94    1.17
  -6   2  -9    2.49    1.06
  -6  -2  -9    3.10    0.97
  -7   2  -9    1.88    1.05
  -7  -2  -9    0.82    0.89
  -8   2  -9   -0.37    1.02
  -8  -2  -9    0.69    0.90
  -9   2  -9    0.83    1.00
  -9  -2  -9    1.30    0.98
 -13   3   9    1.61    1.54
 -13  -3   9    4.10    1.44
 -12   3   9   -1.05    1.10
 -12  -3   9   -0.47    1.13
 -11   3   9    0.41    1.03
 -11  -3   9    0.17    1.00
 -10   3   9    0.16    0.88
 -10  -3   9    2.21    1.14
  -9   3   9    1.67    1.07
  -9  -3   9    2.13    1.09
  -8   3   9    0.06    0.82
  -8  -3   9    0.29    0.95
  -7   3   9   -0.82    0.86
  -7  -3   9    2.10    1.07
  -6  -3   9   25.67    2.17
  -6   3   9   21.51    1.67
  -5   3   9    4.63    1.02
  -5  -3   9    7.83    1.39
  -4   3   9    2.60    0.86
  -4  -3   9    3.00    1.07
  -3   3   9    2.27    0.77
   3   3  -9    3.82    0.71
  -3  -3   9    4.45    1.15
  -2   3   9    2.75    0.90
   2   3  -9    1.89    0.60
  -2  -3   9    2.94    1.13
  -1   3   9   22.34    1.70
  -1  -3   9   22.14    1.97
   1   3  -9   22.00    1.39
   0   3   9   57.47    2.58
   0  -3   9   64.26    3.05
   0   3  -9   61.74    2.22
  -1   3  -9   20.30    1.41
   1  -3   9   23.93    1.99
   2  -3   9    0.80    0.90
  -2   3  -9    0.34    0.68
   3  -3   9    2.28    1.04
  -3   3  -9    2.90    0.94
  -4   3  -9    2.84    1.02
   4  -3   9    3.49    1.06
  -5   3  -9    8.23    1.30
  -6   3  -9   10.66    1.51
  -7   3  -9    0.20    1.01
  -8   3  -9    0.85    1.13
  -9   3  -9    1.68    1.09
 -12   4   9   -0.25    0.96
 -12  -4   9   -0.97    1.22
 -11   4   9   -0.11    1.02
 -11  -4   9    1.52    1.14
 -10  -4   9   -0.88    1.00
 -10   4   9    0.75    2.94
  -9   4   9    1.20    1.01
  -9  -4   9    3.23    1.16
  -8   4   9    2.32    1.04
  -8  -4   9    1.88    1.12
  -7   4   9    0.40    0.79
  -7  -4   9    1.63    0.98
  -6   4   9    0.37    0.79
  -6  -4   9    0.71    0.98
  -5   4   9    2.52    0.75
   5   4  -9    3.05    0.72
  -5  -4   9    2.59    0.99
  -4   4   9   -0.12    0.72
   4   4  -9   -0.15    0.59
  -4  -4   9    1.12    1.06
  -3   4   9    0.55    0.75
   3   4  -9    0.45    0.61
  -2   4   9    2.13    0.82
   2   4  -9    3.85    0.78
  -2  -4   9    2.68    1.05
  -1   4   9    1.64    0.75
   1   4  -9    3.28    0.77
  -1  -4   9    2.06    1.05
   0   4  -9   34.94    1.85
   0  -4   9   32.15    2.34
   1  -4   9    6.39    1.28
  -1   4  -9    5.50    0.91
   2  -4   9    0.14    0.97
  -2   4  -9   -0.50    0.72
   3  -4   9    2.26    1.07
  -3   4  -9    1.43    0.89
  -4   4  -9   15.02    1.59
   4  -4   9   14.77    1.66
  -5   4  -9    1.31    0.94
   5  -4   9    0.86    0.89
  -6   4  -9    6.21    1.25
  -7   4  -9    1.18    1.11
  -8   4  -9   -1.29    1.12
 -12  -5   9    0.29    1.11
 -12   5   9    0.02    0.97
 -11  -5   9    0.95    1.16
 -11   5   9    0.14    1.06
 -10  -5   9    0.54    1.09
 -10   5   9    0.03    0.92
  -9   5   9    0.06    0.93
  -9  -5   9    0.08    0.98
  -8   5   9    7.18    1.30
  -8  -5   9    6.79    1.44
  -7   5   9    4.27    1.03
  -7  -5   9    4.10    1.29
  -6   5   9    2.10    0.91
   6   5  -9    0.85    0.75
  -6  -5   9    0.36    0.90
  -5   5   9    1.44    0.76
   5   5  -9    1.74    0.71
  -5  -5   9    0.82    1.08
  -4   5   9    6.86    1.13
   4   5  -9    8.85    1.04
  -4  -5   9    6.88    1.29
  -3  -5   9   12.56    1.64
   3   5  -9   15.17    1.22
  -3   5   9   13.34    1.37
  -2  -5   9   21.52    2.10
   2   5  -9   19.09    1.38
  -2   5   9   16.16    1.43
   1   5  -9    7.30    1.06
  -1  -5   9    5.91    1.16
   0  -5   9    2.10    0.95
   0   5  -9    2.60    0.79
  -1   5  -9   24.96    1.77
   1  -5   9   23.40    2.15
   2  -5   9    6.14    1.36
  -2   5  -9    6.47    1.04
  -3   5  -9   10.17    1.30
   3  -5   9   10.29    1.48
  -4   5  -9   15.96    1.48
   4  -5   9   15.01    1.80
  -5   5  -9    0.06    0.81
   5  -5   9    1.01    1.08
  -6   5  -9    2.06    1.15
  -7   5  -9    1.65    1.08
  -8   5  -9    1.08    1.01
 -12   6   9    0.03    1.06
 -11  -6   9   -0.75    1.27
 -11   6   9   -0.01    1.04
 -10  -6   9   -0.97    1.07
 -10   6   9    0.53    1.02
  -9  -6   9   -1.68    1.18
  -9   6   9    1.73    1.00
  -8   6   9    0.39    0.87
  -8  -6   9   -1.35    1.17
  -7   6   9    5.35    1.23
  -7  -6   9    8.44    1.65
   7   6  -9    6.71    1.04
  -6   6   9    5.60    1.12
   6   6  -9    6.73    1.08
  -6  -6   9    6.54    1.35
  -5   6   9    2.75    0.90
   5   6  -9    2.77    0.87
  -5  -6   9    0.89    0.98
  -4   6   9   -0.11    0.72
   4   6  -9    0.23    0.70
  -4  -6   9   -1.09    0.99
  -3   6   9    0.44    0.70
   3   6  -9    0.80    0.74
  -3  -6   9    1.20    1.09
  -2   6   9    0.27    0.70
   2   6  -9    0.70    0.74
  -2  -6   9    1.41    1.12
   1   6  -9   11.52    1.18
  -1  -6   9   11.90    1.62
   0  -6   9    0.53    1.11
   0   6  -9    1.14    0.82
  -1   6  -9   22.33    1.61
   1  -6   9   20.44    2.08
   2  -6   9    4.86    1.51
  -2   6  -9    4.56    1.03
  -3   6  -9    1.06    0.89
   3  -6   9   -2.18    1.08
  -4   6  -9    5.86    1.25
   4  -6   9    3.76    1.15
   5  -6   9    4.89    1.30
  -5   6  -9    4.06    1.06
   6  -6   9    6.30    1.36
  -6   6  -9    6.87    1.33
  -7   6  -9   -0.08    1.00
 -11  -7   9   -1.42    1.31
 -11   7   9   -0.74    1.10
 -10  -7   9    4.09    1.53
 -10   7   9    2.83    1.29
  -9  -7   9   -0.14    1.17
  -9   7   9    0.24    0.93
   8   7  -9    0.03    0.79
  -8  -7   9    1.75    1.21
  -8   7   9   -0.98    0.92
  -7   7   9    1.97    0.90
   7   7  -9    1.24    0.86
  -7  -7   9    1.75    1.12
  -6   7   9    1.79    0.89
   6   7  -9    1.14    0.80
  -6  -7   9    2.43    1.27
  -5  -7   9   20.22    2.13
   5   7  -9   19.93    1.63
  -5   7   9   15.52    1.55
   4   7  -9   25.28    1.75
  -4  -7   9   29.33    2.46
  -3   7   9    1.76    0.81
   3   7  -9    0.94    0.73
  -3  -7   9    0.91    1.08
   2   7  -9   27.07    1.78
  -2  -7   9   27.56    2.47
   1   7  -9   25.40    1.73
  -1  -7   9   26.98    2.40
   0  -7   9    6.68    1.47
   0   7  -9    6.10    0.99
   1  -7   9    4.33    1.43
  -1   7  -9    3.00    0.98
   2  -7   9    2.46    1.17
  -2   7  -9    2.54    0.94
  -3   7  -9   -0.44    0.84
   3  -7   9    0.10    1.00
   4  -7   9   12.10    1.75
  -4   7  -9   10.03    1.40
   5  -7   9    6.14    1.46
  -5   7  -9    2.43    1.05
   6  -7   9   10.51    1.69
  -6   7  -9   10.76    1.49
  -7   7  -9    4.54    1.29
 -11   8   9   -0.48    1.17
 -10  -8   9   -0.23    1.12
 -10   8   9   -0.40    1.24
  -9  -8   9    1.27    1.16
  -9   8   9    0.88    1.07
   8   8  -9    0.87    0.92
  -8  -8   9    2.29    1.22
  -8   8   9    0.59    0.96
   7   8  -9    0.74    0.92
  -7  -8   9    3.10    1.27
  -7   8   9    1.41    0.96
  -6   8   9    0.73    0.81
   6   8  -9    0.80    0.83
  -6  -8   9    0.71    1.07
   5   8  -9    9.89    1.30
  -5   8   9    8.93    1.31
  -5  -8   9    8.09    1.55
  -4   8   9    5.27    1.03
   4   8  -9    4.43    0.97
  -4  -8   9    7.30    1.68
   3   8  -9   -0.54    0.74
  -3  -8   9   -0.27    1.10
  -2  -8   9   -0.49    1.04
   2   8  -9    0.46    0.82
  -1  -8   9    4.90    1.38
   1   8  -9    5.18    1.02
   0  -8   9    0.06    1.05
   0   8  -9    0.14    0.85
  -1   8  -9   13.76    1.44
   1  -8   9   13.31    1.98
  -2   8  -9    2.77    0.98
   2  -8   9    2.78    1.26
  -3   8  -9    5.31    1.19
   3  -8   9    6.22    1.55
  -4   8  -9   -0.55    0.93
   4  -8   9    1.97    1.27
   5  -8   9    3.59    1.36
  -5   8  -9    1.53    1.00
   6  -8   9    0.98    1.20
  -6   8  -9    0.56    0.94
 -10   9   9   -0.29    1.10
   9   9  -9    0.78    0.93
  -9  -9   9    0.37    1.22
  -9   9   9    0.35    1.02
   8   9  -9    3.16    1.06
  -8  -9   9    2.13    1.27
  -8   9   9    2.70    1.12
   7   9  -9    1.05    0.85
  -7  -9   9    1.49    1.24
  -7   9   9    0.16    0.95
   6   9  -9   -0.25    0.88
  -6  -9   9    0.10    1.08
  -6   9   9    0.03    0.80
  -5   9   9   -0.14    0.77
   5   9  -9   -0.13    0.80
  -5  -9   9    0.71    1.23
   4   9  -9    2.17    0.88
  -4  -9   9    2.98    1.39
   3   9  -9   24.33    1.88
  -3  -9   9   29.52    2.59
   2   9  -9   14.86    1.54
  -2  -9   9   17.81    2.15
  -1  -9   9    4.03    1.35
   1   9  -9    1.23    0.78
   0   9  -9    7.90    1.26
   0  -9   9    6.83    1.52
  -1   9  -9    3.25    0.91
   1  -9   9    5.58    1.52
  -2   9  -9   12.78    1.54
   2  -9   9   14.02    1.89
   3  -9   9   23.08    2.46
  -3   9  -9   17.06    1.62
  -4   9  -9    0.98    1.01
   4  -9   9    0.05    1.09
   5  -9   9   -0.81    1.25
  -5   9  -9    0.83    0.98
 -10  10   9    0.63    1.07
   9  10  -9    1.04    1.08
  -9  10   9    0.13    1.02
   8  10  -9   -1.10    1.04
  -8  10   9   -1.52    1.06
   7  10  -9    1.06    1.07
  -7 -10   9   -1.47    1.32
  -7  10   9    0.02    0.88
   6  10  -9    0.88    0.98
  -6 -10   9   -1.26    1.23
   5  10  -9    1.01    0.96
  -5 -10   9    2.10    1.31
  -4 -10   9   -0.13    1.21
   4  10  -9    0.60    0.86
  -3 -10   9    0.33    1.14
   3  10  -9   -0.18    0.80
  -2 -10   9    1.15    1.13
   2  10  -9   -0.89    0.90
  -1 -10   9    1.15    1.20
   1  10  -9    2.93    1.02
   0  10  -9    0.06    0.84
   0 -10   9    1.34    1.41
  -1  10  -9    0.19    0.83
   1 -10   9    0.52    1.17
  -2  10  -9   -0.59    0.93
   2 -10   9    1.14    1.22
  -3  10  -9    1.26    0.90
   3 -10   9    0.61    1.16
  -4  10  -9    2.18    1.14
   9  11  -9   -0.49    1.05
  -9  11   9    0.20    1.10
   8  11  -9   -1.76    1.16
  -8  11   9    0.51    0.97
   7  11  -9   -1.03    1.00
   6  11  -9    5.52    1.37
  -5 -11   9    5.33    1.48
   5  11  -9    5.01    1.24
  -4 -11   9    5.09    1.62
   4  11  -9    4.74    1.20
   3  11  -9   10.97    1.50
  -3 -11   9   12.13    1.94
  -2 -11   9    3.94    1.52
   2  11  -9    2.35    0.98
   1  11  -9    8.27    1.33
  -1 -11   9    6.36    1.67
   0  11  -9   16.70    1.71
   0 -11   9   14.33    2.11
  -1  11  -9    3.45    1.12
  -2  11  -9    8.56    1.40
   8  12  -9    0.73    1.08
   7  12  -9    0.51    1.15
   6  12  -9   -1.42    1.12
   5  12  -9   -0.97    0.95
   4  12  -9    1.88    1.07
   3  12  -9    0.58    0.97
   2  12  -9    1.09    0.94
   1  12  -9    0.74    0.97
   0  12  -9   -0.53    0.91
 -11   0  10    5.08    1.35
 -10   0  10    0.87    1.08
  -9   0  10    5.09    1.42
  -8   0  10    0.05    1.00
  -7   0  10    0.40    0.93
  -6   0  10    0.58    0.93
  -5   0  10   11.24    1.60
  -4   0  10   18.00    1.86
  -3   0  10    9.71    1.48
  -2   0  10    0.59    0.97
  -1   0  10   10.14    1.50
   0   0  10    7.75    1.28
   1   0  10    5.89    1.19
 -11   1  10    0.31    1.04
 -11  -1  10   -0.41    1.17
 -10   1  10    0.05    1.11
 -10  -1  10   -1.34    1.13
  -9   1  10    0.75    0.96
  -9  -1  10    1.26    1.13
  -8   1  10    3.83    1.19
  -8  -1  10    3.98    1.21
  -7   1  10    2.41    1.07
  -7  -1  10    3.86    1.19
  -6   1  10    3.85    1.14
  -6  -1  10    6.16    1.36
  -5   1  10    2.25    1.04
  -5  -1  10    2.34    1.04
  -4   1  10    2.22    1.14
  -4  -1  10    0.29    0.93
  -3   1  10    6.07    1.29
  -3  -1  10    5.49    1.33
  -2   1  10    3.33    1.05
  -2  -1  10    3.52    1.14
  -1   1  10    0.21    0.86
  -1  -1  10    0.52    0.93
   0   1  10    8.40    1.32
   0  -1  10   10.37    1.52
   1  -1  10    2.09    0.97
 -11   2  10   -1.07    1.29
 -11  -2  10   -0.91    1.27
 -10   2  10    0.32    0.96
 -10  -2  10    1.10    1.23
  -9   2  10    0.46    1.06
  -9  -2  10   -0.20    1.02
  -8   2  10   -0.35    0.89
  -8  -2  10   -0.11    1.10
  -7   2  10    1.64    0.96
  -7  -2  10    1.76    1.08
  -6  -2  10    6.93    1.37
  -6   2  10    6.45    1.41
  -5   2  10    6.16    1.28
  -5  -2  10    8.83    1.54
  -4   2  10    1.20    0.81
  -4  -2  10    1.48    1.16
  -3   2  10    0.85    0.90
  -3  -2  10    0.24    0.98
  -2   2  10    9.96    1.41
  -2  -2  10   11.04    1.56
  -1   2  10   18.55    1.76
  -1  -2  10   16.63    1.88
   0  -2  10   12.78    1.60
   1  -2  10    4.79    1.19
   2  -2  10    3.46    1.09
 -11   3  10    1.07    1.16
 -10   3  10    1.56    1.20
 -10  -3  10    1.64    1.14
  -9   3  10    0.30    0.95
  -9  -3  10   -0.77    1.08
  -8   3  10    0.71    1.01
  -8  -3  10    2.10    1.24
  -7   3  10    0.15    0.86
  -7  -3  10   -0.46    1.07
  -6   3  10    0.49    0.90
  -6  -3  10   -0.24    1.03
  -5   3  10    2.59    1.00
  -5  -3  10    1.28    0.99
  -4   3  10    0.62    0.97
  -4  -3  10    1.63    1.17
  -3   3  10   17.99    1.75
  -3  -3  10   19.26    2.09
  -2   3  10    4.13    1.13
  -2  -3  10    1.06    0.99
  -1  -3  10    0.59    1.00
   0  -3  10   12.51    1.69
   1  -3  10    4.29    1.21
   2  -3  10    2.00    1.12
   3  -3  10   -0.47    0.90
  -5   3 -10   -0.25    0.92
  -6   3 -10    0.55    1.02
 -11   4  10    0.00    1.18
 -10   4  10    0.01    1.06
 -10  -4  10   -0.51    1.16
  -9   4  10   -0.35    1.02
  -9  -4  10    1.23    1.27
  -8   4  10    4.10    1.32
  -8  -4  10    1.27    1.12
  -7   4  10   -1.23    1.05
  -7  -4  10    1.28    1.13
  -6   4  10    1.26    1.07
  -6  -4  10    3.78    1.29
  -5   4  10    3.21    0.97
  -5  -4  10    5.02    1.45
  -4  -4  10   12.90    1.83
  -4   4  10   11.11    1.47
  -3   4  10    6.63    1.29
  -3  -4  10    6.32    1.42
  -2  -4  10    7.14    1.47
  -1  -4  10    0.20    0.99
   0  -4  10    1.89    1.05
   1  -4  10   22.19    2.10
  -2   4 -10   11.46    1.33
   2  -4  10   13.98    1.88
   3  -4  10    8.11    1.41
  -3   4 -10    5.14    1.13
  -4   4 -10    3.36    1.09
  -5   4 -10    0.49    0.90
  -6   4 -10    2.55    1.24
 -10   5  10    2.08    1.22
  -9   5  10    0.68    1.04
  -9  -5  10    0.46    1.11
  -8   5  10    0.32    0.92
  -8  -5  10   -0.91    1.20
  -7   5  10   -0.08    0.87
  -7  -5  10    1.16    1.28
  -6   5  10   -0.69    1.03
  -6  -5  10    0.80    1.22
  -5   5  10    1.10    0.85
  -5  -5  10    1.66    1.05
  -4   5  10    1.03    0.90
  -4  -5  10    1.85    1.30
  -3  -5  10    3.67    1.26
  -2  -5  10    0.67    1.02
  -1  -5  10    5.56    1.37
   0  -5  10    4.54    1.32
   1  -5  10    4.19    1.27
  -1   5 -10    4.39    0.96
   2  -5  10    3.86    1.38
  -2   5 -10    4.08    0.95
  -3   5 -10    0.81    0.83
   3  -5  10   -0.31    1.04
  -4   5 -10    0.61    0.86
   4  -5  10    0.00    1.02
  -5   5 -10    0.37    0.99
  -6   5 -10    0.80    1.09
 -10   6  10    0.11    1.08
  -9   6  10    1.71    1.07
  -9  -6  10    0.45    1.20
  -8   6  10    0.93    0.96
  -8  -6  10    2.94    1.37
  -7   6  10    1.85    0.93
  -7  -6  10    3.97    1.34
  -6   6  10    3.52    1.01
  -6  -6  10    2.63    1.14
  -5   6  10    0.43    0.84
  -5  -6  10    0.24    1.11
  -4  -6  10   14.94    1.95
  -3  -6  10   10.75    1.78
  -2  -6  10    2.83    1.27
   1   6 -10    7.35    1.03
  -1  -6  10   10.99    1.79
   0  -6  10    1.36    1.21
   0   6 -10    0.77    0.84
   1  -6  10    0.84    1.11
  -1   6 -10    1.15    0.88
   2  -6  10    1.54    1.11
  -2   6 -10   -0.57    0.86
  -3   6 -10   -0.20    0.82
   3  -6  10    1.25    1.18
  -4   6 -10    1.57    0.94
   4  -6  10    3.87    1.36
  -5   6 -10    1.96    1.11
 -10   7  10   -0.07    1.11
  -9   7  10    0.06    1.01
  -8   7  10   -0.55    1.09
  -7   7  10    0.11    0.96
  -7  -7  10   -0.92    1.33
  -6   7  10    0.14    0.86
  -6  -7  10    1.81    1.35
  -5  -7  10   -1.07    1.18
  -4  -7  10    1.46    1.32
  -3  -7  10    0.27    1.18
  -2  -7  10    0.68    1.10
   2   7 -10    0.83    0.76
  -1  -7  10    1.72    1.38
   1   7 -10    2.34    0.87
   0  -7  10    0.23    1.09
   0   7 -10   -0.84    0.73
   1  -7  10    0.41    1.28
  -1   7 -10   -0.52    0.87
  -2   7 -10    1.05    0.87
   2  -7  10   -1.35    1.29
  -3   7 -10   -0.40    0.85
   3  -7  10    0.86    1.17
  -4   7 -10    1.32    0.95
   4  -7  10   -1.55    1.22
  -5   7 -10    0.59    1.02
  -9   8  10    0.21    1.11
  -8   8  10    1.18    1.02
  -7   8  10    0.69    0.92
  -6  -8  10   -0.41    1.25
  -5  -8  10   -0.52    1.39
  -4  -8  10    3.77    1.43
   3   8 -10   16.04    1.56
  -3  -8  10   16.43    2.11
  -2  -8  10    7.57    1.72
   2   8 -10    5.25    1.12
  -1  -8  10    6.48    1.52
   1   8 -10    5.93    1.13
   0  -8  10    8.23    1.71
   0   8 -10    4.92    1.16
   1  -8  10    2.53    1.35
  -1   8 -10    3.51    0.95
  -2   8 -10    2.79    1.02
   2  -8  10    6.11    1.56
  -3   8 -10    4.11    1.16
   3  -8  10    5.97    1.61
  -4   8 -10    2.76    1.14
  -9   9  10    1.07    1.03
  -8   9  10   -0.97    1.12
   4   9 -10   -0.40    0.83
  -3  -9  10    0.54    1.20
   3   9 -10    0.46    0.84
  -2  -9  10    0.10    1.19
   2   9 -10   -0.44    0.90
  -1  -9  10   -0.20    1.28
   1   9 -10    0.78    0.86
   0   9 -10    0.61    0.86
  -1   9 -10    0.01    0.83
  -2   9 -10    0.29    1.01
  -3   9 -10    1.15    0.93
   4  10 -10   -0.78    0.99
   3  10 -10    5.77    1.20
   2  10 -10    2.50    1.05
   1  10 -10    0.02    0.83
   0  10 -10    2.88    1.03
  -1  10 -10    4.33    1.20
   4  11 -10   -0.68    0.92
   3  11 -10    2.14    0.98
   2  11 -10    2.31    1.03
   1  11 -10    0.24    1.01
  -8   0  11   -2.19    1.11
  -7   0  11    0.32    1.07
  -6   0  11   -0.36    1.00
  -5   0  11    0.68    1.00
  -4   0  11    1.09    1.06
  -3   0  11   -2.57    1.27
  -2   0  11    0.47    1.04
  -8   1  11   -1.74    1.20
  -8  -1  11    2.69    1.36
  -7   1  11    0.86    1.08
  -7  -1  11   -0.55    1.03
  -6   1  11    0.24    1.01
  -6  -1  11    0.72    1.18
  -5   1  11    1.35    1.07
  -5  -1  11    2.03    1.15
  -4   1  11    2.75    1.16
  -4  -1  11    5.06    1.42
  -3   1  11    0.77    0.97
  -3  -1  11   -1.10    1.23
  -2   1  11    1.12    1.13
  -2  -1  11    0.61    1.01
  -1  -1  11   -1.72    1.18
  -8   2  11   -0.60    1.08
  -8  -2  11    0.98    1.15
  -7   2  11    0.48    0.97
  -7  -2  11    1.41    1.19
  -6   2  11    0.66    1.03
  -6  -2  11    0.67    1.15
  -5   2  11    0.95    1.04
  -5  -2  11    1.14    1.04
  -4   2  11    2.34    1.17
  -4  -2  11    0.69    1.10
  -3   2  11    2.35    1.06
  -3  -2  11    1.84    1.19
  -2  -2  11    0.73    1.07
  -1  -2  11   -0.12    1.10
   0  -2  11    3.11    1.30
  -8   3  11    0.52    1.04
  -7   3  11    0.47    1.07
  -7  -3  11    1.74    1.18
  -6   3  11   -0.71    0.98
  -6  -3  11    0.29    1.09
  -5   3  11    1.78    1.08
  -5  -3  11    2.69    1.33
  -4   3  11    0.89    0.97
  -4  -3  11    1.49    1.16
  -3  -3  11    0.65    1.08
  -2  -3  11    1.47    1.22
  -1  -3  11    7.33    1.69
   0  -3  11    3.97    1.40
  -8   4  11    0.08    0.98
  -7   4  11   -0.11    0.94
  -6   4  11    1.62    1.04
  -6  -4  11    2.24    1.40
  -5   4  11    0.36    0.99
  -5  -4  11   -0.43    1.13
  -4  -4  11    2.95    1.36
  -3  -4  11    0.14    1.20
  -2  -4  11    1.22    1.07
  -1  -4  11    2.08    1.32
   0  -4  11    0.96    1.14
   1  -4  11    5.25    1.49
  -8   5  11   -0.38    1.11
  -7   5  11    0.38    0.95
  -6   5  11    0.09    0.96
  -5  -5  11    3.97    1.50
  -4  -5  11    9.89    1.82
  -3  -5  11    1.76    1.24
  -2  -5  11    1.55    1.48
  -1  -5  11    9.19    1.73
   0  -5  11    1.74    1.25
   1  -5  11    3.51    1.38
  -8   6  11    1.15    1.25
  -7   6  11   -0.76    1.04
  -3  -6  11    6.31    1.46
  -2  -6  11    4.31    1.60
  -1  -6  11    0.37    1.19
   0  -6  11    1.47    1.24
   1  -6  11   -0.14    1.37


TITL 160318-3 in P2/c
REM P2/c (#13 in standard setting)
CELL 0.71073  13.161901  13.863515   8.276222  90.0000 101.2296  90.0000
ZERR    2.00   0.000750   0.000383   0.000298   0.0000   0.0048   0.0000
LATT  1
SYMM -x, y,-z+1/2
SFAC C H N Ni Br
UNIT 72.00 58.00 8.00 2.00 2.00
TREF
HKLF 4
END
_computing_structure_solution     'SHELXT 2014/4 (Sheldrick, 2014)'
;
_shelx_hkl_checksum              41544
loop_
_space_group_symop_operation_xyz
'x, y, z'
'-x, y+1/2, -z+1/2'
'-x, -y, -z'
'x, -y-1/2, z-1/2'
loop_
_atom_site_label
_atom_site_type_symbol
_atom_site_fract_x
_atom_site_fract_y
_atom_site_fract_z
_atom_site_U_iso_or_equiv
_atom_site_adp_type
_atom_site_occupancy
_atom_site_site_symmetry_order
_atom_site_calc_flag
_atom_site_refinement_flags_posn
_atom_site_refinement_flags_adp
_atom_site_refinement_flags_occupancy
_atom_site_disorder_assembly
_atom_site_disorder_group
C1 C 0.3770(4) 0.3433(2) 0.4547(5) 0.0860(12) Uani 1 1 d . . . . .
C2 C 0.2891(4) 0.3010(3) 0.4980(5) 0.0959(14) Uani 1 1 d . . . . .
H1 H 0.2607 0.2389 0.4698 0.115 Uiso 1 1 calc R U . . .
C3 C 0.2547(4) 0.3696(3) 0.5890(5) 0.0950(13) Uani 1 1 d D . . . .
H14 H 0.1953 0.3611 0.6369 0.114 Uiso 0.75 1 calc R U P A 3
C4 C 0.3124(4) 0.4534(3) 0.6072(4) 0.0875(12) Uani 1 1 d . . . . .
C5 C 0.3113(4) 0.5454(3) 0.6881(4) 0.0851(12) Uani 1 1 d . . . . .
C6 C 0.3868(4) 0.6166(3) 0.6886(4) 0.0876(12) Uani 1 1 d . . . . .
C7 C 0.4010(4) 0.7146(3) 0.7473(5) 0.0929(14) Uani 1 1 d D . . . .
H15 H 0.3554 0.7483 0.8034 0.111 Uiso 0.75 1 calc R U P B 4
C8 C 0.4892(4) 0.7515(3) 0.7104(5) 0.0920(13) Uani 1 1 d . . . . .
H2 H 0.5160 0.8146 0.7342 0.110 Uiso 1 1 calc R U . . .
C9 C 0.5340(4) 0.6763(2) 0.6285(4) 0.0876(12) Uani 1 1 d . . . . .
C10 C 0.2250(4) 0.5659(3) 0.7785(4) 0.0851(12) Uani 1 1 d . . . . .
C11 C 0.1288(4) 0.5985(3) 0.6923(4) 0.0914(13) Uani 1 1 d . . . . .
C12 C 0.0526(4) 0.6210(3) 0.7794(5) 0.0951(13) Uani 1 1 d . . . . .
H3 H -0.0128 0.6427 0.7212 0.114 Uiso 1 1 calc R U . . .
C13 C 0.0688(4) 0.6130(3) 0.9497(5) 0.0940(13) Uani 1 1 d . . . . .
C14 C 0.1643(4) 0.5788(3) 1.0313(5) 0.0979(14) Uani 1 1 d . . . . .
H4 H 0.1763 0.5720 1.1477 0.117 Uiso 1 1 calc R U . . .
C15 C 0.2424(4) 0.5544(3) 0.9491(5) 0.0906(12) Uani 1 1 d . . . . .
C16 C 0.1084(4) 0.6103(4) 0.5060(5) 0.1132(17) Uani 1 1 d . . . . .
H5 H 0.0356 0.6275 0.4663 0.170 Uiso 1 1 calc R U . . .
H6 H 0.1236 0.5495 0.4550 0.170 Uiso 1 1 calc R U . . .
H7 H 0.1530 0.6614 0.4766 0.170 Uiso 1 1 calc R U . . .
C17 C -0.0163(5) 0.6397(4) 1.0424(7) 0.1168(17) Uani 1 1 d . . . . .
H8 H -0.0313 0.5843 1.1075 0.175 Uiso 1 1 calc R U . . .
H9 H -0.0790 0.6578 0.9635 0.175 Uiso 1 1 calc R U . . .
H10 H 0.0065 0.6942 1.1160 0.175 Uiso 1 1 calc R U . . .
C18 C 0.3443(4) 0.5150(4) 1.0445(5) 0.1104(16) Uani 1 1 d . . . . .
H11 H 0.3397 0.5069 1.1605 0.166 Uiso 1 1 calc R U . . .
H12 H 0.4003 0.5601 1.0361 0.166 Uiso 1 1 calc R U . . .
H13 H 0.3586 0.4524 0.9985 0.166 Uiso 1 1 calc R U . . .
N1 N 0.3876(3) 0.4335(2) 0.5195(4) 0.0856(10) Uani 1 1 d . . . . .
N2 N 0.4722(3) 0.6003(2) 0.6187(4) 0.0877(10) Uani 1 1 d . . . . .
Ni1 Ni 0.5000 0.5000 0.5000 0.0858(3) Uani 1 2 d S . P . .
Br1 Br 0.15327(9) 0.35171(10) 0.66808(16) 0.0735(4) Uani 0.2896(10) 1 d D . P C
1
Br2 Br 0.31062(13) 0.78278(11) 0.83004(18) 0.0656(5) Uani 0.2104(10) 1 d D . P
C 2
loop_
_atom_site_aniso_label
_atom_site_aniso_U_11
_atom_site_aniso_U_22
_atom_site_aniso_U_33
_atom_site_aniso_U_23
_atom_site_aniso_U_13
_atom_site_aniso_U_12
C1 0.134(4) 0.0477(17) 0.0628(19) -0.0051(15) -0.014(2) 0.008(2)
C2 0.137(4) 0.0526(19) 0.081(2) -0.0069(18) -0.022(2) 0.002(2)
C3 0.131(4) 0.065(2) 0.074(2) 0.0007(18) -0.018(2) 0.005(2)
C4 0.138(4) 0.0523(18) 0.0604(19) -0.0001(15) -0.010(2) 0.011(2)
C5 0.134(3) 0.0557(19) 0.0541(18) -0.0002(14) -0.0105(19) 0.018(2)
C6 0.143(4) 0.0511(18) 0.0583(19) -0.0037(14) -0.007(2) 0.013(2)
C7 0.145(4) 0.0539(19) 0.064(2) -0.0094(16) -0.018(2) 0.017(2)
C8 0.143(4) 0.0499(18) 0.069(2) -0.0107(16) -0.016(2) 0.007(2)
C9 0.141(4) 0.0466(16) 0.0614(19) -0.0044(14) -0.015(2) 0.009(2)
C10 0.133(3) 0.0549(18) 0.0567(18) -0.0016(15) -0.008(2) 0.011(2)
C11 0.141(4) 0.065(2) 0.0572(19) -0.0033(16) -0.008(2) 0.025(2)
C12 0.137(4) 0.060(2) 0.078(2) -0.0042(18) -0.003(2) 0.020(2)
C13 0.149(4) 0.0561(19) 0.074(2) -0.0057(17) 0.014(3) -0.004(2)
C14 0.157(4) 0.069(2) 0.059(2) 0.0022(18) -0.001(2) -0.012(3)
C15 0.141(4) 0.062(2) 0.0565(19) 0.0039(16) -0.010(2) -0.001(2)
C16 0.160(4) 0.109(3) 0.058(2) 0.003(2) -0.009(2) 0.050(3)
C17 0.173(5) 0.080(3) 0.101(3) -0.008(3) 0.037(3) -0.011(3)
C18 0.150(4) 0.095(3) 0.068(2) 0.018(2) -0.024(3) -0.003(3)
N1 0.141(3) 0.0430(13) 0.0645(16) -0.0018(12) -0.0007(18) 0.0052(16)
N2 0.138(3) 0.0469(15) 0.0692(18) -0.0076(13) -0.0023(19) 0.0084(17)
Ni1 0.1460(7) 0.0424(3) 0.0610(4) -0.0033(2) 0.0004(4) 0.0064(3)
Br1 0.0602(6) 0.0819(8) 0.0809(8) -0.0089(6) 0.0196(5) -0.0118(5)
Br2 0.0839(10) 0.0547(8) 0.0562(8) -0.0086(6) 0.0092(7) 0.0080(7)
loop_
_atom_type_symbol
_atom_type_description
_atom_type_scat_dispersion_real
_atom_type_scat_dispersion_imag
_atom_type_scat_source
C C 0.0033 0.0016 'International Tables Vol C Tables 4.2.6.8 and 6.1.1.4'
H H 0.0000 0.0000 'International Tables Vol C Tables 4.2.6.8 and 6.1.1.4'
N N 0.0061 0.0033 'International Tables Vol C Tables 4.2.6.8 and 6.1.1.4'
Ni Ni 0.3393 1.1124 'International Tables Vol C Tables 4.2.6.8 and 6.1.1.4'
Br Br -0.2901 2.4595 'International Tables Vol C Tables 4.2.6.8 and 6.1.1.4'
loop_
_geom_angle_atom_site_label_1
_geom_angle_atom_site_label_2
_geom_angle_atom_site_label_3
_geom_angle
_geom_angle_site_symmetry_1
_geom_angle_site_symmetry_3
N1 C1 C2 108.0(4) . .
N1 C1 C9 108.7(4) . 3_666
C2 C1 C9 143.2(3) . 3_666
C3 C2 C1 103.4(4) . .
C3 C2 H1 128.3 . .
C1 C2 H1 128.3 . .
C2 C3 C4 114.7(5) . .
C2 C3 Br1 120.8(4) . .
C4 C3 Br1 124.5(4) . .
C2 C3 H14 122.6 . .
C4 C3 H14 122.6 . .
N1 C4 C3 102.3(3) . .
N1 C4 C5 120.0(4) . .
C3 C4 C5 137.7(5) . .
C6 C5 C4 123.6(4) . .
C6 C5 C10 118.0(3) . .
C4 C5 C10 118.4(4) . .
N2 C6 C5 121.3(3) . .
N2 C6 C7 103.5(4) . .
C5 C6 C7 135.2(5) . .
C8 C7 C6 109.8(4) . .
C8 C7 Br2 124.0(3) . .
C6 C7 Br2 125.7(4) . .
C8 C7 H15 125.1 . .
C6 C7 H15 125.1 . .
C7 C8 C9 106.4(4) . .
C7 C8 H2 126.8 . .
C9 C8 H2 126.8 . .
N2 C9 C8 107.7(4) . .
N2 C9 C1 110.8(3) . 3_666
C8 C9 C1 141.5(4) . 3_666
C15 C10 C11 120.4(4) . .
C15 C10 C5 119.4(4) . .
C11 C10 C5 120.2(3) . .
C12 C11 C10 118.9(4) . .
C12 C11 C16 120.2(4) . .
C10 C11 C16 120.9(4) . .
C11 C12 C13 121.9(4) . .
C11 C12 H3 119.0 . .
C13 C12 H3 119.0 . .
C12 C13 C14 117.8(5) . .
C12 C13 C17 120.6(5) . .
C14 C13 C17 121.5(4) . .
C15 C14 C13 122.3(4) . .
C15 C14 H4 118.9 . .
C13 C14 H4 118.9 . .
C14 C15 C10 118.7(4) . .
C14 C15 C18 119.9(4) . .
C10 C15 C18 121.4(5) . .
C11 C16 H5 109.5 . .
C11 C16 H6 109.5 . .
H5 C16 H6 109.5 . .
C11 C16 H7 109.5 . .
H5 C16 H7 109.5 . .
H6 C16 H7 109.5 . .
C13 C17 H8 109.5 . .
C13 C17 H9 109.5 . .
H8 C17 H9 109.5 . .
C13 C17 H10 109.5 . .
H8 C17 H10 109.5 . .
H9 C17 H10 109.5 . .
C15 C18 H11 109.5 . .
C15 C18 H12 109.5 . .
H11 C18 H12 109.5 . .
C15 C18 H13 109.5 . .
H11 C18 H13 109.5 . .
H12 C18 H13 109.5 . .
C1 N1 C4 111.6(4) . .
C1 N1 Ni1 117.7(3) . .
C4 N1 Ni1 130.2(3) . .
C9 N2 C6 112.7(3) . .
C9 N2 Ni1 117.7(3) . .
C6 N2 Ni1 129.1(3) . .
N1 Ni1 N1 180.0 3_666 .
N1 Ni1 N2 84.78(17) 3_666 .
N1 Ni1 N2 95.22(17) . .
N1 Ni1 N2 95.22(17) 3_666 3_666
N1 Ni1 N2 84.79(17) . 3_666
N2 Ni1 N2 180.0 . 3_666
loop_
_geom_bond_atom_site_label_1
_geom_bond_atom_site_label_2
_geom_bond_distance
_geom_bond_site_symmetry_2
C1 N1 1.357(4) .
C1 C2 1.405(6) .
C1 C9 1.495(7) 3_666
C2 C3 1.345(6) .
C2 H1 0.9500 .
C3 C4 1.380(6) .
C3 Br1 1.616(5) .
C3 H14 0.9500 .
C4 N1 1.364(6) .
C4 C5 1.442(5) .
C5 C6 1.400(6) .
C5 C10 1.504(6) .
C6 N2 1.378(6) .
C6 C7 1.443(5) .
C7 C8 1.357(6) .
C7 Br2 1.759(5) .
C7 H15 0.9500 .
C8 C9 1.431(5) .
C8 H2 0.9500 .
C9 N2 1.324(5) .
C9 C1 1.495(7) 3_666
C10 C15 1.395(5) .
C10 C11 1.402(6) .
C11 C12 1.380(6) .
C11 C16 1.521(5) .
C12 C13 1.388(6) .
C12 H3 0.9500 .
C13 C14 1.389(7) .
C13 C17 1.522(7) .
C14 C15 1.381(7) .
C14 H4 0.9500 .
C15 C18 1.519(6) .
C16 H5 0.9800 .
C16 H6 0.9800 .
C16 H7 0.9800 .
C17 H8 0.9800 .
C17 H9 0.9800 .
C17 H10 0.9800 .
C18 H11 0.9800 .
C18 H12 0.9800 .
C18 H13 0.9800 .
N1 Ni1 1.777(4) .
N2 Ni1 1.782(3) .
Ni1 N1 1.777(4) 3_666
Ni1 N2 1.782(3) 3_666
loop_
_geom_torsion_atom_site_label_1
_geom_torsion_atom_site_label_2
_geom_torsion_atom_site_label_3
_geom_torsion_atom_site_label_4
_geom_torsion
_geom_torsion_site_symmetry_1
_geom_torsion_site_symmetry_4
N1 C1 C2 C3 -1.1(4) . .
C9 C1 C2 C3 174.3(5) 3_666 .
C1 C2 C3 C4 0.6(5) . .
C1 C2 C3 Br1 -179.4(3) . .
C2 C3 C4 N1 0.2(4) . .
Br1 C3 C4 N1 -179.9(3) . .
C2 C3 C4 C5 -179.8(4) . .
Br1 C3 C4 C5 0.2(7) . .
N1 C4 C5 C6 -2.8(5) . .
C3 C4 C5 C6 177.1(4) . .
N1 C4 C5 C10 177.9(3) . .
C3 C4 C5 C10 -2.2(6) . .
C4 C5 C6 N2 -4.0(5) . .
C10 C5 C6 N2 175.3(3) . .
C4 C5 C6 C7 174.8(4) . .
C10 C5 C6 C7 -5.9(6) . .
N2 C6 C7 C8 0.6(4) . .
C5 C6 C7 C8 -178.3(4) . .
N2 C6 C7 Br2 172.9(3) . .
C5 C6 C7 Br2 -6.1(6) . .
C6 C7 C8 C9 -0.7(4) . .
Br2 C7 C8 C9 -173.2(3) . .
C7 C8 C9 N2 0.6(4) . .
C7 C8 C9 C1 176.8(4) . 3_666
C6 C5 C10 C15 -80.3(4) . .
C4 C5 C10 C15 99.0(4) . .
C6 C5 C10 C11 98.3(4) . .
C4 C5 C10 C11 -82.4(4) . .
C15 C10 C11 C12 1.6(6) . .
C5 C10 C11 C12 -177.0(4) . .
C15 C10 C11 C16 -179.3(4) . .
C5 C10 C11 C16 2.1(6) . .
C10 C11 C12 C13 0.4(6) . .
C16 C11 C12 C13 -178.7(4) . .
C11 C12 C13 C14 -1.6(6) . .
C11 C12 C13 C17 179.2(4) . .
C12 C13 C14 C15 0.9(6) . .
C17 C13 C14 C15 -179.9(4) . .
C13 C14 C15 C10 1.0(6) . .
C13 C14 C15 C18 -178.4(4) . .
C11 C10 C15 C14 -2.2(6) . .
C5 C10 C15 C14 176.3(4) . .
C11 C10 C15 C18 177.2(4) . .
C5 C10 C15 C18 -4.2(6) . .
C2 C1 N1 C4 1.3(4) . .
C9 C1 N1 C4 -175.8(3) 3_666 .
C2 C1 N1 Ni1 174.3(2) . .
C9 C1 N1 Ni1 -2.7(4) 3_666 .
C3 C4 N1 C1 -0.9(4) . .
C5 C4 N1 C1 179.1(3) . .
C3 C4 N1 Ni1 -172.8(3) . .
C5 C4 N1 Ni1 7.1(5) . .
C8 C9 N2 C6 -0.2(4) . .
C1 C9 N2 C6 -177.7(3) 3_666 .
C8 C9 N2 Ni1 172.5(2) . .
C1 C9 N2 Ni1 -5.0(4) 3_666 .
C5 C6 N2 C9 178.9(3) . .
C7 C6 N2 C9 -0.2(4) . .
C5 C6 N2 Ni1 7.2(5) . .
C7 C6 N2 Ni1 -171.9(3) . .
C1 N1 Ni1 N2 -175.5(3) . .
C4 N1 Ni1 N2 -4.0(3) . .
C1 N1 Ni1 N2 4.5(3) . 3_666
C4 N1 Ni1 N2 176.0(3) . 3_666
C9 N2 Ni1 N1 5.4(3) . 3_666
C6 N2 Ni1 N1 176.7(3) . 3_666
C9 N2 Ni1 N1 -174.6(3) . .
C6 N2 Ni1 N1 -3.3(3) . .
