#------------------------------------------------------------------------------
#$Date: 2019-11-23 07:51:43 +0200 (Sat, 23 Nov 2019) $
#$Revision: 232481 $
#$URL: file:///home/coder/svn-repositories/cod/cif/4/34/77/4347742.cif $
#------------------------------------------------------------------------------
#
# This file is available in the Crystallography Open Database (COD),
# http://www.crystallography.net/
#
# All data on this site have been placed in the public domain by the
# contributors.
#
data_4347742
loop_
_publ_author_name
'Vestfrid, Jenya'
'Kothari, Rashmi'
'Kostenko, Arseni'
'Goldberg, Israel'
'Tumanskii, Boris'
'Gross, Zeev'
_publ_section_title
;
 Intriguing Physical and Chemical Properties of Phosphorus Corroles.
;
_journal_issue                   12
_journal_name_full               'Inorganic chemistry'
_journal_page_first              6061
_journal_page_last               6067
_journal_paper_doi               10.1021/acs.inorgchem.6b00544
_journal_volume                  55
_journal_year                    2016
_chemical_formula_moiety         'C37 H17 F8 N4 P, C H2 Cl2'
_chemical_formula_sum            'C38 H19 Cl2 F8 N4 P'
_chemical_formula_weight         785.44
_space_group_crystal_system      monoclinic
_space_group_IT_number           14
_space_group_name_Hall           '-P 2yn'
_space_group_name_H-M_alt        'P 1 21/n 1'
_atom_sites_solution_hydrogens   geom
_atom_sites_solution_primary     direct
_atom_sites_solution_secondary   difmap
_audit_creation_method           SHELXL-2014/7
_cell_angle_alpha                90
_cell_angle_beta                 101.942(2)
_cell_angle_gamma                90
_cell_formula_units_Z            4
_cell_length_a                   15.8026(7)
_cell_length_b                   12.6026(5)
_cell_length_c                   16.4580(7)
_cell_measurement_reflns_used    6282
_cell_measurement_temperature    110(2)
_cell_measurement_theta_max      28.34
_cell_measurement_theta_min      2.00
_cell_volume                     3206.7(2)
_computing_cell_refinement       'Saint, Bruker-AXS'
_computing_data_collection       'Apex2, Bruker-AXS'
_computing_data_reduction        'Saint, Bruker-AXS'
_computing_structure_refinement  'SHELXL-2014/7 (Sheldrick, 2015)'
_computing_structure_solution    'SHELXTL-2014 (Sheldrick, 2015)'
_diffrn_ambient_temperature      110(2)
_diffrn_detector_area_resol_mean 1.75
_diffrn_measured_fraction_theta_full 0.999
_diffrn_measured_fraction_theta_max 0.997
_diffrn_measurement_device_type  'ApexDuo, Bruker-AXS'
_diffrn_measurement_method       '1 deg. \f and \w scans'
_diffrn_radiation_type           MoK\a
_diffrn_radiation_wavelength     0.71073
_diffrn_reflns_av_R_equivalents  0.0374
_diffrn_reflns_av_unetI/netI     0.0367
_diffrn_reflns_Laue_measured_fraction_full 0.999
_diffrn_reflns_Laue_measured_fraction_max 0.997
_diffrn_reflns_limit_h_max       21
_diffrn_reflns_limit_h_min       -21
_diffrn_reflns_limit_k_max       16
_diffrn_reflns_limit_k_min       -16
_diffrn_reflns_limit_l_max       21
_diffrn_reflns_limit_l_min       -21
_diffrn_reflns_number            31478
_diffrn_reflns_point_group_measured_fraction_full 0.999
_diffrn_reflns_point_group_measured_fraction_max 0.997
_diffrn_reflns_theta_full        25.242
_diffrn_reflns_theta_max         28.339
_diffrn_reflns_theta_min         2.006
_diffrn_source                   'ImuS micro-focus'
_exptl_absorpt_coefficient_mu    0.337
_exptl_absorpt_correction_T_max  0.936
_exptl_absorpt_correction_T_min  0.900
_exptl_absorpt_correction_type   multi-scan
_exptl_absorpt_process_details   'Sadabs, Bruker-AXS'
_exptl_crystal_colour            red
_exptl_crystal_density_diffrn    1.627
_exptl_crystal_description       prism
_exptl_crystal_F_000             1584
_exptl_crystal_size_max          0.320
_exptl_crystal_size_mid          0.240
_exptl_crystal_size_min          0.200
_refine_diff_density_max         0.377
_refine_diff_density_min         -0.689
_refine_diff_density_rms         0.060
_refine_ls_extinction_method     none
_refine_ls_goodness_of_fit_ref   1.013
_refine_ls_hydrogen_treatment    constr
_refine_ls_matrix_type           full
_refine_ls_number_parameters     478
_refine_ls_number_reflns         7966
_refine_ls_number_restraints     0
_refine_ls_restrained_S_all      1.013
_refine_ls_R_factor_all          0.0560
_refine_ls_R_factor_gt           0.0396
_refine_ls_shift/su_max          0.001
_refine_ls_shift/su_mean         0.000
_refine_ls_structure_factor_coef Fsqd
_refine_ls_weighting_details
'w=1/[\s^2^(Fo^2^)+(0.0391P)^2^+2.4086P] where P=(Fo^2^+2Fc^2^)/3'
_refine_ls_weighting_scheme      calc
_refine_ls_wR_factor_gt          0.0912
_refine_ls_wR_factor_ref         0.1001
_reflns_Friedel_coverage         0.000
_reflns_number_gt                6282
_reflns_number_total             7966
_reflns_threshold_expression     'I > 2\s(I)'
_cod_data_source_file            ic6b00544_si_003.cif
_cod_data_source_block           tx108
_cod_depositor_comments
;
The following automatic conversions were performed:

data item '_atom_sites_solution_secondary' value 'diffmap' was
changed to 'difmap'.

Automatic conversion script
Id: cif_fix_values 6909 2019-04-08 15:41:33Z antanas 
;
_cod_original_sg_symbol_H-M      'P 21/n'
_cod_database_code               4347742
_shelx_shelxl_version_number     2014/7
_shelx_space_group_comment
;
The symmetry employed for this shelxl refinement is uniquely defined
by the following loop, which should always be used as a source of
symmetry information in preference to the above space-group names.
They are only intended as comments.
;
_shelx_estimated_absorpt_t_min   0.900
_shelx_estimated_absorpt_t_max   0.936
_shelx_res_file
;

    tx108.res created by SHELXL-2014/7


TITL mo_tx108_0m_a.res in P2(1)/n
REM Old TITL mo_tx108_0m in P2(1)/n

REM SHELXT solution in P2(1)/n
REM R1 0.122,  Rweak 0.004,  Alpha 0.028,  Orientation as input
REM Formula found by SHELXT:  C38 N4 F8 P3

CELL  0.71073  15.8026  12.6026  16.4580   90.000  101.942   90.000
ZERR    4.000   0.0007   0.0005   0.0007    0.000    0.002    0.000
LATT  1
SYMM 1/2-X, 1/2+Y, 1/2-Z
SFAC C N F P Cl H
UNIT 152 16 32 4 8 76
TEMP -163.00
size 0.32 0.24 0.20
L.S. 5
BOND $H
LIST 4
FMAP 2
PLAN -20
acta
omit -1 0 1
WGHT    0.039100    2.408600
FVAR       0.31906
P1    4    0.621295    0.512007    0.354115    11.00000    0.01360    0.01027 =
         0.01494    0.00061    0.00285   -0.00015
CL1   5    0.361593    0.788963    0.289945    11.00000    0.04649    0.03772 =
         0.03391    0.00188    0.00593   -0.00596
CL2   5    0.503537    0.926775    0.366544    11.00000    0.06993    0.03896 =
         0.05541    0.01454   -0.01975   -0.01651
F1    3    0.527923    0.572503    0.337333    11.00000    0.01358    0.01328 =
         0.02023    0.00081    0.00333    0.00065
F2    3    0.714135    0.453866    0.367541    11.00000    0.01514    0.01550 =
         0.01982    0.00074    0.00280    0.00296
F3    3    0.350879    0.238170    0.255035    11.00000    0.02267    0.03339 =
         0.03183   -0.00850    0.00757   -0.00367
F4    3    0.894034    0.708522    0.521399    11.00000    0.02036    0.03102 =
         0.04097   -0.00333    0.00347   -0.00052
F5    3    0.575145    0.794820    0.095957    11.00000    0.02787    0.02994 =
         0.03658    0.01100    0.00940    0.00939
F6    3    0.611811    0.141164    0.181308    11.00000    0.03096    0.02476 =
         0.04927   -0.00647    0.01628    0.00117
F7    3    0.639985    0.884995    0.546432    11.00000    0.02522    0.03228 =
         0.04617   -0.01509    0.01010   -0.00260
F8    3    0.793849    0.539859    0.114036    11.00000    0.03811    0.02840 =
         0.05455    0.01267    0.02640    0.01320
N1    2    0.596964    0.467062    0.246166    11.00000    0.01661    0.01034 =
         0.01623    0.00026    0.00325   -0.00097
N2    2    0.638684    0.543493    0.463200    11.00000    0.01610    0.01350 =
         0.01540    0.00048    0.00264   -0.00126
N3    2    0.571987    0.394908    0.385749    11.00000    0.01778    0.01146 =
         0.01720    0.00149    0.00304   -0.00064
N4    2    0.671025    0.636245    0.333946    11.00000    0.01546    0.01212 =
         0.01594   -0.00069    0.00326   -0.00213
C1    1    0.682036    0.673038    0.257025    11.00000    0.01405    0.01474 =
         0.01904    0.00156    0.00497   -0.00090
C2    1    0.680379    0.623890    0.512475    11.00000    0.01310    0.01566 =
         0.01833   -0.00161    0.00210    0.00099
C3    1    0.570456    0.385123    0.468658    11.00000    0.01629    0.01547 =
         0.01832    0.00241    0.00380    0.00159
C4    1    0.615853    0.520864    0.178370    11.00000    0.01442    0.01375 =
         0.01676    0.00158    0.00335    0.00296
C5    1    0.658104    0.617838    0.183282    11.00000    0.01589    0.01306 =
         0.01822    0.00210    0.00416    0.00160
C6    1    0.610453    0.471162    0.513921    11.00000    0.01551    0.01415 =
         0.01883    0.00329    0.00515    0.00140
C7    1    0.677747    0.599924    0.595962    11.00000    0.01566    0.01933 =
         0.01712   -0.00194    0.00174    0.00060
AFIX  43
H7    6    0.701923    0.641780    0.643059    11.00000   -1.20000
AFIX   0
C8    1    0.534172    0.305808    0.345697    11.00000    0.01694    0.01190 =
         0.02286    0.00002    0.00257    0.00053
C9    1    0.634162    0.505600    0.597180    11.00000    0.01730    0.01944 =
         0.01630    0.00257    0.00328    0.00142
AFIX  43
H9    6    0.622342    0.470534    0.644707    11.00000   -1.20000
AFIX   0
C10   1    0.554104    0.372885    0.214140    11.00000    0.01644    0.01113 =
         0.01964   -0.00168    0.00197    0.00028
C11   1    0.545776    0.372695    0.126877    11.00000    0.02048    0.01390 =
         0.01930   -0.00236    0.00248    0.00106
AFIX  43
H11   6    0.518534    0.319070    0.089986    11.00000   -1.20000
AFIX   0
C12   1    0.764310    0.792070    0.532262    11.00000    0.02222    0.01908 =
         0.01608    0.00054    0.00238   -0.00736
C13   1    0.681766    0.663102    0.107439    11.00000    0.01993    0.01526 =
         0.01694   -0.00085    0.00348   -0.00419
C14   1    0.722134    0.774449    0.266923    11.00000    0.02019    0.01564 =
         0.02124    0.00250    0.00633   -0.00522
AFIX  43
H14   6    0.736086    0.817133    0.223959    11.00000   -1.20000
AFIX   0
C15   1    0.714556    0.709367    0.477278    11.00000    0.01539    0.01557 =
         0.01943   -0.00165    0.00263   -0.00135
C16   1    0.707155    0.714281    0.392064    11.00000    0.01440    0.01382 =
         0.02053   -0.00227    0.00271   -0.00263
C17   1    0.736850    0.799212    0.348669    11.00000    0.02093    0.01456 =
         0.02377   -0.00125    0.00538   -0.00587
AFIX  43
H17   6    0.762742    0.862840    0.372955    11.00000   -1.20000
AFIX   0
C18   1    0.583456    0.462479    0.104693    11.00000    0.01952    0.01639 =
         0.01643   -0.00126    0.00345    0.00312
AFIX  43
H18   6    0.587338    0.482378    0.049909    11.00000   -1.20000
AFIX   0
C19   1    0.530302    0.289074    0.481860    11.00000    0.02088    0.01670 =
         0.02109    0.00448    0.00396   -0.00119
AFIX  43
H19   6    0.520029    0.263425    0.533233    11.00000   -1.20000
AFIX   0
C20   1    0.484095    0.195345    0.220469    11.00000    0.02502    0.01296 =
         0.01853    0.00044    0.00365   -0.00266
C21   1    0.525024    0.294186    0.260437    11.00000    0.01733    0.01264 =
         0.02211   -0.00122    0.00347   -0.00055
C22   1    0.508742    0.239363    0.406049    11.00000    0.02155    0.01291 =
         0.02502    0.00345    0.00337   -0.00279
AFIX  43
H22   6    0.481500    0.172089    0.395808    11.00000   -1.20000
AFIX   0
C23   1    0.640809    0.750913    0.066016    11.00000    0.01993    0.02138 =
         0.02163    0.00200    0.00264   -0.00150
C24   1    0.726948    0.874863    0.567158    11.00000    0.02427    0.02387 =
         0.02254   -0.00256    0.00556   -0.00599
C25   1    0.854056    0.787801    0.554164    11.00000    0.02467    0.02288 =
         0.02061    0.00305    0.00343   -0.00497
C26   1    0.749907    0.623249    0.075324    11.00000    0.02590    0.01900 =
         0.02765   -0.00054    0.00968   -0.00213
C27   1    0.399023    0.168125    0.221759    11.00000    0.02694    0.02132 =
         0.01730    0.00026    0.00383   -0.00321
C28   1    0.528486    0.121299    0.182976    11.00000    0.02787    0.01631 =
         0.02674    0.00139    0.00678   -0.00048
C29   1    0.360095    0.075105    0.189727    11.00000    0.03179    0.02447 =
         0.02065    0.00310    0.00081   -0.01230
AFIX  43
H29   6    0.302289    0.059249    0.193595    11.00000   -1.20000
AFIX   0
C30   1    0.407343    0.005361    0.151778    11.00000    0.04718    0.01515 =
         0.02286    0.00041   -0.00147   -0.00981
AFIX  43
H30   6    0.381317   -0.058564    0.128219    11.00000   -1.20000
AFIX   0
C31   1    0.731788    0.751961   -0.031785    11.00000    0.03365    0.03844 =
         0.01772    0.00142    0.00625   -0.01505
AFIX  43
H31   6    0.748519    0.781854   -0.079066    11.00000   -1.20000
AFIX   0
C32   1    0.775778    0.665178    0.006793    11.00000    0.03054    0.02918 =
         0.02783   -0.00558    0.01532   -0.00841
AFIX  43
H32   6    0.822646    0.634989   -0.013206    11.00000   -1.20000
AFIX   0
C33   1    0.663763    0.796087   -0.002720    11.00000    0.03091    0.02911 =
         0.02249    0.00913    0.00046   -0.00488
AFIX  43
H33   6    0.633553    0.855959   -0.029329    11.00000   -1.20000
AFIX   0
C34   1    0.773258    0.948138    0.621472    11.00000    0.04085    0.02271 =
         0.02335   -0.00558    0.00833   -0.00842
AFIX  43
H34   6    0.744642    1.003205    0.644618    11.00000   -1.20000
AFIX   0
C35   1    0.492300    0.027747    0.147750    11.00000    0.04629    0.01205 =
         0.02701   -0.00211    0.00769    0.00104
AFIX  43
H35   6    0.524808   -0.019874    0.121504    11.00000   -1.20000
AFIX   0
C36   1    0.903599    0.858781    0.607504    11.00000    0.02476    0.03308 =
         0.02662    0.00460   -0.00154   -0.01189
AFIX  43
H36   6    0.964827    0.852602    0.620827    11.00000   -1.20000
AFIX   0
C37   1    0.862383    0.938878    0.641073    11.00000    0.03982    0.02958 =
         0.02107   -0.00074   -0.00094   -0.01873
AFIX  43
H37   6    0.895549    0.988330    0.678114    11.00000   -1.20000
AFIX   0
C38   1    0.472307    0.818997    0.299594    11.00000    0.04224    0.03048 =
         0.04639    0.01343    0.01561    0.00757
AFIX  23
H38A  6    0.507334    0.756082    0.321207    11.00000   -1.20000
H38B  6    0.483791    0.835933    0.244136    11.00000   -1.20000
AFIX   0
HKLF 4

REM  mo_tx108_0m_a.res in P2(1)/n
REM R1 =  0.0396 for    6282 Fo > 4sig(Fo)  and  0.0560 for all    7966 data
REM    478 parameters refined using      0 restraints

END

WGHT      0.0365      2.4394

REM Highest difference peak  0.377,  deepest hole -0.689,  1-sigma level  0.060
Q1    1   0.5185  0.8721  0.3551  11.00000  0.05    0.38
Q2    1   0.6313  0.5302  0.4178  11.00000  0.05    0.35
Q3    1   0.4163  0.7869  0.2891  11.00000  0.05    0.34
Q4    1   0.7223  0.7657  0.3784  11.00000  0.05    0.33
Q5    1   0.5413  0.4368  0.1158  11.00000  0.05    0.33
Q6    1   0.7063  0.7266  0.2598  11.00000  0.05    0.32
Q7    1   0.5039  0.2421  0.2364  11.00000  0.05    0.32
Q8    1   0.6795  0.6388  0.2202  11.00000  0.05    0.32
Q9    1   0.6136  0.4830  0.5557  11.00000  0.05    0.31
Q10   1   0.5876  0.4495  0.3673  11.00000  0.05    0.31
Q11   1   0.7182  0.7958  0.3072  11.00000  0.05    0.31
Q12   1   0.4561  0.9355  0.3943  11.00000  0.05    0.30
Q13   1   0.6570  0.5593  0.1892  11.00000  0.05    0.30
Q14   1   0.6744  0.6427  0.1476  11.00000  0.05    0.30
Q15   1   0.5289  0.3025  0.3009  11.00000  0.05    0.30
Q16   1   0.7170  0.7095  0.4367  11.00000  0.05    0.30
Q17   1   0.5169  0.2673  0.3718  11.00000  0.05    0.29
Q18   1   0.5726  0.4228  0.2365  11.00000  0.05    0.29
Q19   1   0.6007  0.4956  0.1350  11.00000  0.05    0.29
Q20   1   0.7169  0.6475  0.5002  11.00000  0.05    0.29
;
_shelx_res_checksum              99458
_shelx_hkl_file
;
  -1   0   0   -0.10    0.10
  -1   0   0    0.00    0.10
   1   0   0    0.10    0.10
   1   0   0    0.60    0.20
  -2   0   0    6.00    0.80
  -2   0   0    6.30    0.70
   2   0   0    5.10    0.70
  -3   0   0    0.00    0.70
  -3   0   0   -0.20    0.60
   3   0   0   -0.40    0.50
   3   0   0   -0.70    0.20
  -4   0   0  584.24   16.60
  -4   0   0  575.14   16.30
   4   0   0  583.14   16.30
  -5   0   0    0.20    0.80
  -5   0   0    0.80    0.80
   5   0   0   -0.10    0.20
  -6   0   0  296.37   10.00
  -6   0   0  315.87    9.70
   7   0   0   -0.30    0.30
  -7   0   0    1.30    1.10
  -7   0   0    0.50    1.00
  -8   0   0 2642.14   71.29
  -8   0   0 2644.94   70.59
  -9   0   0    2.50    1.50
  -9   0   0   -0.70    1.00
 -10   0   0   15.40    2.30
 -10   0   0   15.10    2.60
 -11   0   0    0.70    1.30
 -11   0   0   -0.10    1.50
 -12   0   0  149.49    7.50
 -12   0   0  142.29    6.60
 -13   0   0    1.00    1.80
  13   0   0    1.20    2.00
 -13   0   0   -1.20    1.30
 -14   0   0   38.70    4.10
  14   0   0   44.90    5.20
 -14   0   0   37.40    4.60
  15   0   0    3.70    2.60
 -15   0   0    1.10    1.80
 -16   0   0   19.90    3.30
  16   0   0   28.10    4.80
 -17   0   0   -1.20    1.70
  17   0   0    1.70    2.80
  18   0   0    2.60    3.00
  19   0   0    0.60    3.00
  20   0   0   85.59    8.90
   0  -1   0   -0.70    0.20
   0  -1   0   -0.90    0.10
   0   1   0   -0.90    0.10
   0   1   0   -1.00    0.10
   1  -1   0 1254.97   33.60
  -1  -1   0 1290.77   35.60
   1  -1   0 1392.46   35.50
  -1   1   0 1225.98   34.70
   1   1   0 1228.28   34.60
  -1   1   0 1243.88   34.40
   2  -1   0   36.90    1.70
   2  -1   0   35.70    1.90
  -2  -1   0   36.70    1.80
  -2   1   0   37.80    1.90
  -2   1   0   37.60    1.70
   2   1   0   35.00    1.80
   3  -1   0 2560.74   67.59
   3  -1   0 2487.05   67.69
  -3  -1   0 2502.35   68.29
   3  -1   0 2466.35   68.69
  -3   1   0 2484.75   66.19
   3   1   0 2463.35   67.09
   4  -1   0 5064.09  211.48
   4  -1   0 5369.96  142.89
   4  -1   0 5088.69  141.49
  -4  -1   0 5327.07  143.49
   4   1   0 5506.55  143.79
  -4   1   0 5147.79  143.39
  -4   1   0 5268.67  143.69
  -5  -1   0  841.62   23.30
   5  -1   0  813.72   22.90
   5  -1   0  819.92   23.40
  -5   1   0  789.42   22.80
   5   1   0  839.02   23.40
  -5   1   0  827.42   23.10
   6  -1   0   38.30    2.50
  -6  -1   0   33.00    2.90
   6  -1   0   34.80    2.80
  -6  -1   0   41.10    2.40
   6   1   0   37.60    2.70
  -6   1   0   36.70    2.60
  -6   1   0   41.30    2.60
  -7  -1   0  243.38    8.80
   7  -1   0  235.18    8.90
   7  -1   0  236.68    8.30
  -7  -1   0  235.08    8.10
   7  -1   0  253.97    8.80
  -7   1   0  248.08    8.70
   7   1   0  226.48    8.70
  -7   1   0  240.78    8.20
  -8  -1   0    6.70    1.50
   8  -1   0    5.60    1.80
  -8  -1   0    6.30    1.70
   8  -1   0    8.30    1.80
  -8   1   0    4.80    1.60
   8   1   0    4.60    1.60
  -8   1   0    3.70    1.30
   9  -1   0  128.19    6.40
  -9  -1   0  127.59    5.60
  -9  -1   0  137.69    6.40
  -9   1   0  137.69    6.30
  -9   1   0  123.79    5.60
 -10  -1   0  339.77   12.70
 -10  -1   0  359.66   12.00
  10  -1   0  361.76   13.20
 -10   1   0  355.76   12.00
 -10   1   0  363.86   12.70
  11  -1   0   53.49    5.10
 -11  -1   0   67.49    4.20
 -11  -1   0   60.09    5.10
 -11   1   0   62.49    4.60
 -11   1   0   61.79    4.10
  12  -1   0   71.79    5.40
 -12  -1   0   72.39    4.50
 -12  -1   0   66.89    5.10
 -12   1   0   71.59    4.60
 -13  -1   0  217.58    9.90
  13  -1   0  217.28   10.20
 -13  -1   0  211.18    8.80
 -13   1   0  217.58    8.90
  14  -1   0   32.60    4.80
 -14  -1   0   39.60    4.90
 -14  -1   0   33.10    3.70
 -14   1   0   33.50    3.70
 -15  -1   0   12.20    2.70
 -15  -1   0   13.80    3.50
  15  -1   0   11.50    3.40
 -15   1   0   12.50    2.60
 -16  -1   0   -0.40    1.80
 -16  -1   0   -2.00    2.00
  16  -1   0    0.70    2.40
 -16   1   0   -2.90    1.50
  16   1   0   -2.00    2.10
 -17  -1   0   30.70    4.10
  17  -1   0   39.60    5.90
 -17   1   0   40.40    4.50
  17   1   0   33.60    5.20
  18  -1   0   22.70    5.00
  18   1   0   20.10    4.50
 -18   1   0   20.20    3.60
  19  -1   0   21.10    5.20
  19   1   0   35.00    5.60
  20  -1   0    0.10    3.20
  20   1   0   -4.10    2.90
   0  -2   0  599.44   16.50
   0  -2   0  590.04   16.20
  -1  -2   0   46.10    2.00
   1  -2   0   44.80    1.90
  -1  -2   0   46.50    1.80
   1  -2   0   43.10    2.30
  -1   2   0   42.10    2.20
   1   2   0   45.40    1.80
   1   2   0   47.50    2.20
  -1   2   0   44.80    1.90
   1   2   0   48.00    2.00
  -2  -2   0  396.86   11.70
   2  -2   0  395.96   12.00
   2  -2   0  418.86   11.60
  -2   2   0  383.36   11.50
  -2   2   0  426.56   10.80
   2   2   0  393.46   11.70
  -2   2   0  424.06   12.10
   3  -2   0 1238.68   33.90
   3  -2   0 1284.27   33.40
  -3  -2   0 1248.78   33.60
   3   2   0 1229.08   33.50
  -3   2   0 1198.88   33.30
  -3   2   0 1243.18   33.80
  -4  -2   0  715.43   20.40
   4  -2   0  692.83   20.00
   4  -2   0  717.53   20.20
   4  -2   0  712.23   20.70
  -4   2   0  694.03   20.00
  -4   2   0  738.33   20.70
   4   2   0  754.62   20.60
  -5  -2   0 1647.64   45.90
   5  -2   0 1659.23   46.30
   5  -2   0 1726.53   45.70
  -5   2   0 1715.23   45.60
   5   2   0 1729.03   46.10
  -6  -2   0  127.79    5.70
   6  -2   0  140.89    5.60
   6  -2   0  138.99    5.50
   6  -2   0  138.69    6.10
  -6   2   0  142.29    5.50
   6   2   0  145.59    6.00
   7  -2   0  338.87   11.90
  -7  -2   0  349.27   11.60
   7  -2   0  351.36   11.40
  -7   2   0  335.27   11.00
   7   2   0  335.87   11.70
  -8  -2   0   64.59    4.10
  -8  -2   0   55.09    3.40
   8  -2   0   64.19    3.90
   8  -2   0   67.09    4.40
  -8   2   0   62.99    3.60
   8   2   0   69.79    4.30
  -9  -2   0    4.90    1.60
  -9  -2   0    6.70    2.00
   9  -2   0    6.00    2.00
  -9   2   0    7.70    1.70
 -10  -2   0  499.25   17.20
 -10  -2   0  499.35   16.20
  10  -2   0  542.55   17.90
 -10   2   0  542.85   16.50
 -11  -2   0  130.39    6.20
 -11  -2   0  124.29    6.80
  11  -2   0  132.79    7.40
 -11   2   0  132.99    6.20
  12  -2   0  113.59    7.00
 -12  -2   0  120.39    6.80
 -12  -2   0  106.99    5.70
 -12   2   0  107.99    5.70
 -13  -2   0  138.49    7.70
  13  -2   0  145.99    8.20
 -13  -2   0  123.99    6.50
 -13   2   0  139.49    6.70
 -14  -2   0    1.40    2.10
 -14  -2   0    2.00    1.80
  14  -2   0    4.70    2.60
 -14   2   0    4.40    2.00
  15  -2   0  160.38    9.60
 -15  -2   0  174.58    8.10
 -15  -2   0  165.28    9.20
 -15   2   0  172.88    8.10
 -16  -2   0  117.89    6.60
 -16  -2   0  118.09    8.00
  16  -2   0  119.69    8.40
 -16   2   0  130.89    7.00
 -17  -2   0   -1.80    2.30
  17  -2   0    1.70    3.00
 -17  -2   0    1.00    2.10
 -17   2   0   -3.00    1.60
  18  -2   0   23.10    5.00
 -18  -2   0   17.70    4.10
 -18   2   0   18.60    3.60
  18   2   0   17.10    4.20
  19  -2   0    8.70    3.80
  19   2   0    9.30    3.70
  20  -2   0   10.10    4.30
  20   2   0   12.30    4.20
   0  -3   0    1.20    0.60
   0  -3   0    0.60    0.80
   0  -3   0    0.00    0.70
   0   3   0    0.20    0.60
   0   3   0    0.30    0.60
  -1  -3   0 1067.39   29.30
  -1  -3   0 1064.09   29.70
   1  -3   0 1085.99   30.00
  -1  -3   0 1092.49   29.10
   1   3   0 1105.29   29.70
   1   3   0 1085.59   29.10
  -1   3   0 1078.99   29.20
   1   3   0 1106.59   29.30
   2  -3   0   11.10    1.40
  -2  -3   0   11.80    1.20
   2  -3   0   10.80    0.60
   2  -3   0    7.30    1.60
  -2  -3   0   12.50    1.50
   2   3   0   13.10    1.70
  -2   3   0   10.30    1.30
   2   3   0   11.10    1.50
  -2   3   0   10.90    1.70
   3  -3   0 1180.18   33.10
  -3  -3   0 1216.28   33.30
   3  -3   0 1181.98   33.80
  -3   3   0 1292.67   34.10
  -3   3   0 1200.68   33.00
   3   3   0 1235.38   33.30
  -3   3   0 1236.48   33.20
  -4  -3   0   56.39    3.10
   4  -3   0   54.89    2.90
   4  -3   0   47.80    3.30
   4   3   0   56.29    3.10
  -4   3   0   55.39    2.90
  -5  -3   0 3260.87   89.79
   5  -3   0 3426.76   89.69
   5  -3   0 3416.26   90.49
   5   3   0 3451.85   89.99
  -5   3   0 3371.26   91.39
  -6  -3   0  705.23   21.10
   6  -3   0  696.03   21.60
   6  -3   0  730.53   20.70
  -6   3   0  709.63   20.60
   6   3   0  724.53   21.30
  -7  -3   0  469.35   15.40
   7  -3   0  501.85   15.10
   7  -3   0  490.55   16.10
  -7   3   0  482.85   14.90
   7   3   0  465.45   15.50
  -8  -3   0 1966.70   53.69
   8  -3   0 1907.81   54.19
   8  -3   0 1904.51   53.19
   8   3   0 1922.91   54.99
  -8   3   0 1991.90   52.89
   9  -3   0 1635.84   46.70
  -9  -3   0 1660.43   46.10
  -9   3   0 1599.84   45.10
 -10  -3   0  143.69    7.40
  10  -3   0  172.88    8.30
 -10  -3   0  163.78    6.90
 -10   3   0  168.58    7.10
  11  -3   0  405.96   15.20
 -11  -3   0  400.76   13.40
 -11  -3   0  382.86   14.30
 -11   3   0  386.76   13.40
 -12  -3   0  232.48   10.30
  12  -3   0  232.28   10.90
 -12  -3   0  229.68    9.20
 -12   3   0  236.48    9.40
 -13  -3   0   -1.10    1.80
 -13  -3   0   -2.00    1.40
  13  -3   0    3.50    2.60
 -13   3   0    1.70    1.80
 -14  -3   0   -1.70    1.70
 -14  -3   0    3.10    2.40
  14  -3   0    3.40    2.60
 -14   3   0    1.90    1.80
 -15  -3   0   -0.40    1.80
  15  -3   0    4.60    3.10
 -15  -3   0    4.40    2.70
 -15   3   0   11.00    2.70
  16  -3   0    3.10    3.20
 -16  -3   0   -0.40    1.80
 -16  -3   0    3.10    2.60
 -16   3   0   -0.40    2.10
  17  -3   0    4.40    3.50
 -17  -3   0    5.20    3.30
 -17   3   0    8.30    2.70
  18  -3   0   49.90    7.10
 -18  -3   0   40.90    6.00
 -18   3   0   53.09    5.30
 -19  -3   0    1.20    3.10
  19  -3   0    1.70    3.30
  19   3   0    4.20    3.20
  20  -3   0   33.00    6.40
  20   3   0   24.50    5.50
   0  -4   0  795.62   22.30
   0  -4   0  779.02   22.90
   0  -4   0  801.12   22.10
   0   4   0  822.82   22.20
   1  -4   0  265.97    9.30
  -1  -4   0  267.97    9.10
  -1  -4   0  271.97    8.60
  -1  -4   0  270.37    8.30
   1   4   0  285.47    8.70
  -1   4   0  266.17    8.50
   1   4   0  265.07    8.30
   2  -4   0   64.29    2.10
   2  -4   0   61.99    3.70
  -2  -4   0   66.69    2.80
  -2  -4   0   63.09    3.30
   2   4   0   57.59    3.10
  -2   4   0   63.19    3.10
  -3  -4   0    4.70    1.30
   3  -4   0    3.80    1.30
   3  -4   0    5.80    1.60
  -3  -4   0    6.00    1.00
   3   4   0    5.00    1.30
  -3   4   0    5.90    1.20
   4  -4   0  383.86   12.70
  -4  -4   0  377.36   11.00
  -4  -4   0  372.56   11.90
  -4   4   0  344.37   11.50
  -4   4   0  381.96   10.20
   4   4   0  373.36   11.90
   5  -4   0  405.56   13.90
  -5  -4   0  418.36   13.30
   5   4   0  413.06   13.30
  -5   4   0  413.46   11.40
  -5   4   0  411.26   12.80
  -6  -4   0   50.69    3.50
   6  -4   0   47.40    4.40
   6  -4   0   48.60    3.00
  -6   4   0   44.30    2.10
   6   4   0   46.00    3.30
  -6   4   0   48.80    3.10
   7  -4   0  241.68   10.00
  -7  -4   0  248.58    9.40
   7  -4   0  250.87    8.90
   7   4   0  256.87    9.60
  -7   4   0  240.88    8.80
   8  -4   0 1240.38   37.30
  -8  -4   0 1266.37   36.60
  -8   4   0 1305.57   35.90
  -9  -4   0  275.87   10.60
   9  -4   0  264.77   11.20
  -9   4   0  264.87    9.80
  10  -4   0   89.09    6.20
 -10  -4   0   96.19    5.80
 -10   4   0   96.09    5.30
 -11  -4   0   10.30    2.70
  11  -4   0    6.00    2.80
 -11   4   0    8.80    2.30
 -12  -4   0  270.77   10.30
  12  -4   0  242.18   11.80
 -12  -4   0  261.77   11.30
 -12   4   0  277.47   10.60
 -13  -4   0   77.69    5.20
  13  -4   0   94.39    8.30
 -13  -4   0   80.69    6.20
 -13   4   0   84.29    5.30
 -14  -4   0  139.29    7.40
  14  -4   0  162.78    9.70
 -14  -4   0  156.08    8.80
 -14   4   0  172.08    8.00
 -15  -4   0    2.90    2.20
  15  -4   0    3.90    3.10
 -15  -4   0    7.90    3.10
 -15   4   0    3.20    2.30
 -16  -4   0    3.00    2.80
 -16  -4   0   -0.60    1.90
  16  -4   0    6.60    3.50
 -16   4   0    3.20    2.30
  17  -4   0    6.50    3.50
 -17  -4   0    4.90    3.20
 -17   4   0    6.00    2.80
  18  -4   0   -1.80    3.30
 -18  -4   0   -1.00    2.70
 -18   4   0    3.40    2.50
  19  -4   0    4.60    4.00
 -19  -4   0    0.50    3.10
 -19   4   0    0.90    3.00
  20  -4   0    2.60    3.60
   0  -5   0    2.30    1.00
   0  -5   0    0.60    1.10
   0   5   0   -1.70    0.70
  -1  -5   0   96.99    4.80
   1  -5   0  102.19    5.00
  -1  -5   0   97.19    4.30
  -1   5   0   96.19    4.20
   1   5   0   91.09    4.00
   2  -5   0    0.90    1.40
  -2  -5   0    1.00    1.00
   2   5   0    1.40    1.00
  -2   5   0   -0.10    0.90
   3  -5   0    5.00    1.80
  -3  -5   0    6.10    1.40
  -3   5   0    6.20    1.40
   3   5   0    2.50    1.20
  -4  -5   0  802.82   24.00
   4  -5   0  841.52   25.30
  -4   5   0  863.21   23.90
   4   5   0  811.02   24.00
  -5  -5   0   15.20    2.30
   5  -5   0   14.10    2.60
  -5   5   0   15.10    2.10
   5   5   0   13.60    2.20
  -5   5   0   15.60    0.90
  -6  -5   0   38.90    3.60
   6  -5   0   48.40    4.60
   6   5   0   48.40    3.50
  -6   5   0   45.00    3.20
  -6   5   0   51.19    2.10
   7  -5   0  294.87   12.10
  -7  -5   0  294.27   11.20
   7  -5   0  331.57   10.90
   7   5   0  328.47   11.70
  -7   5   0  319.57    9.30
  -7   5   0  307.27   10.80
  -8  -5   0  206.38    8.70
   8  -5   0  202.48    9.50
  -8   5   0  203.58    8.10
  -8   5   0  210.98    6.80
  -9  -5   0  512.95   17.10
   9  -5   0  506.85   18.00
  -9   5   0  494.05   16.20
  -9   5   0  495.85   14.70
 -10  -5   0  186.38    8.80
  10  -5   0  192.58    9.90
 -10   5   0  209.78    8.40
 -11  -5   0   91.09    6.20
  11  -5   0  105.59    7.20
 -11   5   0   94.49    5.50
  12  -5   0   52.79    6.20
 -12  -5   0   49.99    5.30
 -12   5   0   40.00    4.20
 -13  -5   0  217.08    9.40
 -13  -5   0  227.28   10.70
  13  -5   0  224.38   11.50
 -13   5   0  201.88    9.30
 -14  -5   0   19.50    4.00
 -14  -5   0   17.80    3.20
  14  -5   0   12.90    3.90
 -14   5   0   18.90    3.30
 -15  -5   0    8.30    2.60
  15  -5   0   12.70    4.10
 -15  -5   0   13.50    3.70
 -15   5   0   10.80    3.10
 -16  -5   0    2.00    2.90
  16  -5   0    6.70    3.60
 -16  -5   0    2.30    2.10
 -16   5   0    4.50    2.60
 -17  -5   0   -0.20    2.60
  17  -5   0    0.10    3.40
 -17   5   0   -0.30    2.10
 -17   5   0   -1.80    2.10
  18  -5   0    0.20    3.60
 -18  -5   0    5.00    3.20
 -18   5   0    0.40    2.40
  19  -5   0    4.80    4.30
 -19  -5   0    5.10    3.40
 -19   5   0    1.30    2.60
   0  -6   0   10.10    1.90
   0  -6   0   14.30    2.40
   0   6   0    9.50    1.70
   1  -6   0  185.78    8.00
  -1  -6   0  195.88    8.10
  -1  -6   0  209.08    7.40
  -1   6   0  179.18    7.00
   1   6   0  201.08    7.10
   2  -6   0   24.40    3.20
  -2  -6   0   25.60    2.70
   2   6   0   25.80    2.70
  -2   6   0   26.60    2.60
  -3  -6   0  234.28    8.60
   3  -6   0  234.48    6.40
   3  -6   0  228.38    9.50
  -3   6   0  235.38    8.40
   3   6   0  231.48    8.50
  -4  -6   0  536.55   17.20
   4  -6   0  574.64   18.70
  -4   6   0  552.64   17.00
   4   6   0  572.24   17.40
   5  -6   0  186.48    8.60
  -5  -6   0  190.08    7.70
  -5   6   0  174.68    7.20
   5   6   0  185.88    7.60
  -6  -6   0  461.85   15.50
   6  -6   0  465.15   12.40
   6  -6   0  459.95   16.60
   6   6   0  480.95   15.60
  -6   6   0  466.05   15.00
  -7  -6   0   68.79    4.60
   7  -6   0   76.19    5.50
  -7   6   0   67.79    2.60
  -7   6   0   61.49    4.10
  -8  -6   0    1.40    1.70
   8  -6   0    0.40    1.90
  -8   6   0    1.00    0.70
  -8   6   0    0.00    1.40
   9  -6   0    6.00    2.60
  -9  -6   0    6.90    2.20
  -9   6   0    5.60    1.10
  -9   6   0    9.50    2.40
 -10  -6   0  170.38    8.40
  10  -6   0  171.18    9.50
 -10   6   0  166.88    6.00
 -10   6   0  157.88    7.50
 -11  -6   0   50.39    5.20
  11  -6   0   49.90    6.00
 -11   6   0   55.59    4.90
 -11   6   0   47.90    3.10
 -12  -6   0   50.39    5.60
  12  -6   0   42.40    5.80
 -12   6   0   49.20    3.30
 -12   6   0   55.09    5.00
  13  -6   0  621.94   22.80
 -13  -6   0  612.74   21.40
 -13   6   0  603.14   20.10
 -13   6   0  591.04   18.30
  14  -6   0  297.87   14.60
 -14  -6   0  303.87   12.20
 -14  -6   0  314.77   13.80
 -14   6   0  311.87   11.00
 -14   6   0  335.67   12.80
 -15  -6   0   21.30    4.30
  15  -6   0   18.30    4.70
 -15  -6   0   17.60    3.20
 -15   6   0   24.20    3.80
 -15   6   0   22.30    3.00
 -16  -6   0   24.60    4.50
  16  -6   0   20.60    4.90
 -16   6   0   14.30    3.40
  17  -6   0   24.00    5.70
 -17  -6   0   20.90    4.70
 -17   6   0   12.60    3.60
 -18  -6   0   26.90    5.20
  18  -6   0   22.90    5.70
 -18   6   0   26.60    4.50
  19  -6   0   -0.50    3.50
 -19   6   0    2.10    2.90
   0  -7   0    2.60    1.30
   0  -7   0    3.20    1.80
   0   7   0    2.80    1.10
  -1  -7   0  599.84   18.20
   1  -7   0  592.64   18.20
   1  -7   0  576.74   19.30
  -1  -7   0  602.84   19.30
  -1   7   0  589.34   17.90
   1   7   0  605.14   17.90
   2  -7   0  153.58    7.50
  -2  -7   0  160.28    6.60
  -2   7   0  152.48    4.30
  -2   7   0  157.38    6.50
  -3  -7   0  364.26   12.30
   3  -7   0  360.06    9.80
   3  -7   0  366.46   13.60
   3   7   0  353.76   12.20
  -3   7   0  357.46   12.10
   4  -7   0  686.03   22.30
  -4  -7   0  650.83   20.70
  -4   7   0  702.03   20.70
   4   7   0  677.03   20.80
   5  -7   0  230.58   10.40
  -5  -7   0  238.78    9.40
   5   7   0  240.78    9.40
  -5   7   0  242.68    9.10
   6  -7   0   50.89    5.40
  -6  -7   0   40.20    4.00
  -6   7   0   47.70    4.10
  -7  -7   0  358.86   12.90
   7  -7   0  345.97   14.10
  -7   7   0  337.17   12.30
  -8  -7   0    5.50    2.20
   8  -7   0    8.40    2.90
   8  -7   0    6.80    0.80
  -8   7   0    5.20    2.10
  -9  -7   0    0.80    1.80
   9  -7   0    3.70    2.60
  -9   7   0    4.80    0.90
  -9   7   0    3.10    1.80
  10  -7   0   69.49    7.10
 -10  -7   0   72.79    5.50
 -10   7   0   66.59    3.10
 -10   7   0   62.29    4.80
  11  -7   0   53.89    6.60
 -11   7   0   49.80    2.90
 -11   7   0   55.59    5.10
  12  -7   0   37.40    5.80
 -12  -7   0   53.09    5.80
 -12   7   0   42.00    4.70
 -12   7   0   49.10    3.10
  13  -7   0    3.30    3.10
 -13   7   0    2.00    2.10
  14  -7   0  119.09    9.10
 -14  -7   0  119.89    8.10
 -14   7   0  123.19    7.20
 -15  -7   0   92.09    8.30
 -15  -7   0   75.69    5.80
  15  -7   0   86.39    9.10
 -15   7   0   92.49    6.60
 -16  -7   0    2.60    3.10
  16  -7   0    2.00    3.60
 -16   7   0    6.80    2.90
  17  -7   0  205.08   13.10
 -17  -7   0  235.68   12.40
 -17   7   0  217.78   10.70
  18  -7   0  104.69   10.70
 -18  -7   0  107.79    9.70
 -18   7   0  108.09    7.70
   0  -8   0   19.50    3.20
   0  -8   0   22.90    2.90
   0   8   0   17.40    2.40
   1  -8   0  139.89    6.40
   1  -8   0  137.89    7.40
  -1  -8   0  131.49    7.20
  -1  -8   0  136.89    6.30
  -1   8   0  141.69    6.20
   1   8   0  143.79    6.20
   2  -8   0   61.29    4.90
  -2  -8   0   54.49    4.00
  -2   8   0   64.09    4.00
  -2   8   0   56.39    1.80
   3  -8   0    1.00    1.90
   3  -8   0    2.10    0.60
  -3  -8   0    3.60    1.70
  -3   8   0    3.60    1.50
   3   8   0    2.70    1.50
   4  -8   0  778.92   25.60
  -4  -8   0  777.62   23.90
  -4   8   0  774.02   23.70
   4   8   0  813.62   24.10
   5  -8   0    2.60    2.20
  -5  -8   0    3.30    1.80
  -5   8   0    1.70    1.60
  -6  -8   0   95.79    5.80
   6  -8   0   87.59    6.40
  -6   8   0  102.69    5.60
  -7  -8   0   67.99    5.00
   7  -8   0   64.29    6.60
  -7   8   0   66.89    4.70
   8  -8   0    2.70    2.70
  -8  -8   0    2.30    2.00
  -8   8   0    3.70    1.90
  -9  -8   0  116.39    6.90
   9  -8   0  113.09    8.20
  -9   8   0  121.39    6.60
 -10  -8   0   78.69    6.00
  10  -8   0   96.19    4.10
  10  -8   0   79.79    7.90
 -10   8   0   89.29    5.80
 -11  -8   0   21.80    3.90
  11  -8   0   10.30    3.80
 -11   8   0   14.70    3.20
 -12  -8   0    0.30    2.30
  12  -8   0    1.60    2.90
 -12   8   0   -0.40    2.20
  13  -8   0   18.90    4.70
 -13  -8   0   15.60    3.60
 -13   8   0   21.10    3.80
 -14  -8   0   14.40    4.10
  14  -8   0   14.40    4.70
 -14   8   0   15.50    3.80
  15  -8   0   15.40    5.30
 -15  -8   0    2.90    3.00
 -15   8   0    6.70    3.00
  16  -8   0  110.59   11.00
 -16  -8   0   85.39    8.50
 -16   8   0   90.89    6.80
  17  -8   0   60.89    8.70
 -17  -8   0   59.79    7.30
 -17   8   0   82.69    7.30
 -18  -8   0   39.10    6.20
  18  -8   0   50.29    8.20
 -18   8   0   45.20    5.90
   0  -9   0   -1.90    1.30
   0  -9   0   -2.50    1.30
   0   9   0    0.60    1.40
   1  -9   0   15.30    2.70
  -1  -9   0   15.20    2.50
   1  -9   0   20.90    3.70
  -1  -9   0   11.90    2.90
  -1   9   0   17.30    2.70
   1   9   0   15.20    2.50
  -2  -9   0   19.60    3.00
   2  -9   0   20.00    3.00
   2  -9   0   20.10    3.60
  -2   9   0   20.80    2.90
  -2   9   0   19.20    0.80
  -2   9   0   19.40    0.80
  -3  -9   0   78.69    5.10
   3  -9   0   85.09    6.20
   3  -9   0   86.29    2.90
  -3   9   0   76.79    4.90
  -4  -9   0  130.99    6.70
   4  -9   0  149.29    8.50
  -4   9   0  139.19    6.80
   5  -9   0    0.30    2.10
  -5  -9   0    1.40    1.80
  -5   9   0    3.80    1.70
  -6  -9   0  365.56   13.60
   6  -9   0  353.76   15.10
  -6   9   0  362.66   13.20
   7  -9   0    1.90    2.50
  -7  -9   0    2.70    2.10
  -7   9   0    3.40    2.10
  -8  -9   0  226.08   10.10
   8  -9   0  212.68   11.40
  -8   9   0  223.58    9.70
  -9  -9   0    5.40    2.50
   9  -9   0    6.70    3.20
  -9   9   0    0.20    2.00
 -10  -9   0   37.00    4.90
  10  -9   0   36.30    5.80
 -10   9   0   35.90    4.50
  11  -9   0    4.50    3.40
 -11  -9   0    9.60    3.00
 -11   9   0    8.60    2.80
 -12  -9   0   47.30    5.70
  12  -9   0   52.09    7.20
 -12   9   0   58.69    5.70
 -13  -9   0   55.39    6.40
  13  -9   0   58.19    7.70
 -13   9   0   57.29    5.90
 -14  -9   0   21.10    4.60
  14  -9   0   20.80    5.50
 -14   9   0   21.20    4.10
 -15  -9   0   14.10    3.90
  15  -9   0   20.30    5.60
 -15   9   0    6.90    3.10
 -16  -9   0    0.00    3.00
  16  -9   0    0.90    3.70
 -16   9   0   -1.60    2.50
 -17  -9   0   35.50    6.10
  17  -9   0   54.49    8.50
 -17   9   0   45.00    5.90
   0 -10   0  170.58    9.30
   0 -10   0  175.38    8.00
   0  10   0  185.28    8.00
   1 -10   0   10.40    2.50
   1 -10   0   11.30    3.10
  -1 -10   0   17.40    3.60
  -1 -10   0   12.20    2.50
   1  10   0    8.70    2.20
  -1  10   0   12.20    1.30
  -1  10   0   11.90    2.40
  -2 -10   0  108.89    6.10
   2 -10   0  110.59    7.40
   2 -10   0  101.19    6.00
  -2  10   0  104.49    5.80
   3 -10   0    2.80    0.70
   3 -10   0    0.70    2.20
  -3 -10   0    2.50    1.80
   3 -10   0    2.30    1.70
  -3  10   0    4.40    2.00
  -4 -10   0   64.49    4.80
   4 -10   0   60.09    6.70
  -4  10   0   60.79    4.50
   5 -10   0  378.76   16.10
  -5 -10   0  391.26   14.40
  -5  10   0  400.16   14.30
   6 -10   0    8.50    3.00
  -6 -10   0    9.40    2.60
  -6  10   0    4.60    2.10
   7 -10   0   77.39    7.90
  -7 -10   0   86.99    6.20
  -7  10   0   85.99    5.80
  -8 -10   0   20.20    3.70
   8 -10   0   19.20    4.50
  -8  10   0   15.60    3.30
   9 -10   0   17.20    4.40
  -9 -10   0   21.40    3.80
  -9  10   0   27.00    4.00
 -10 -10   0   63.59    6.20
  10 -10   0   71.69    8.10
 -10  10   0   59.19    5.90
 -11 -10   0   55.69    6.10
  11 -10   0   58.49    7.60
 -11  10   0   54.19    5.70
 -12 -10   0    6.40    3.00
  12 -10   0   10.90    4.30
 -12  10   0    6.10    3.00
  13 -10   0    4.10    3.90
 -13 -10   0    8.70    3.30
 -13  10   0    2.50    2.60
 -14 -10   0    4.60    3.00
  14 -10   0   13.40    4.80
 -14  10   0    6.70    3.10
  15 -10   0   30.00    6.60
 -15 -10   0   30.50    5.30
 -15  10   0   24.90    4.50
  16 -10   0    6.60    4.80
 -16 -10   0   -0.70    2.90
 -16  10   0    6.30    3.20
   0 -11   0    0.90    1.60
   0 -11   0    3.10    2.60
   0  11   0    0.80    1.70
  -1 -11   0    2.60    2.50
  -1 -11   0    3.50    2.00
   1 -11   0    2.30    1.90
   1 -11   0    2.70    2.20
  -1  11   0    1.90    1.80
  -1  11   0   -0.20    0.70
   2 -11   0   27.30    3.60
  -2 -11   0   25.60    3.80
   2 -11   0   24.40    4.60
  -2  11   0   24.50    3.50
  -3 -11   0   23.20    3.60
   3 -11   0   24.90    3.60
   3 -11   0   26.80    4.80
  -3  11   0   30.60    3.90
  -4 -11   0  152.08    8.20
   4 -11   0  181.78   10.40
  -4  11   0  176.78    8.40
  -5 -11   0   13.60    3.20
   5 -11   0   22.50    4.60
  -5  11   0   17.50    3.30
  -6 -11   0   26.80    3.90
   6 -11   0   22.00    4.80
  -6  11   0   22.60    3.70
  -7 -11   0   78.09    5.90
   7 -11   0   80.99    8.30
  -7  11   0   65.09    6.00
  -8 -11   0   94.09    6.50
   8 -11   0   81.09    8.50
  -8  11   0   80.39    6.10
  -9 -11   0   14.10    3.50
   9 -11   0    8.30    3.80
  -9  11   0   11.30    3.20
 -10 -11   0    1.90    2.50
  10 -11   0    7.20    3.90
 -10  11   0    1.50    2.50
 -11 -11   0   16.10    4.00
  11 -11   0   10.20    4.30
 -11  11   0   10.30    3.30
  12 -11   0    0.60    3.10
 -12 -11   0   -1.60    2.40
 -12  11   0    2.00    2.70
  13 -11   0   41.70    7.40
 -13 -11   0   59.09    6.80
 -13  11   0   39.30    5.50
 -14 -11   0   12.80    3.90
  14 -11   0   17.30    5.40
 -14  11   0   12.30    3.90
 -15 -11   0   25.80    5.20
  15 -11   0   28.70    6.60
 -15  11   0   21.40    4.40
   0 -12   0  787.42   27.10
   0 -12   0  791.12   24.70
   0  12   0  750.42   24.40
   0  12   0  741.23   22.00
   1 -12   0   13.40    3.10
   1 -12   0   21.60    4.30
  -1 -12   0   17.80    3.40
  -1  12   0   18.60    3.30
   2 -12   0   73.29    7.70
   2 -12   0   73.49    5.60
  -2 -12   0   67.09    6.00
  -2  12   0   64.39    5.80
   3 -12   0   24.50    4.90
   3 -12   0   33.80    4.40
  -3 -12   0   28.00    4.10
  -3  12   0   39.10    4.60
   4 -12   0   11.50    3.90
   4 -12   0   11.90    3.00
  -4 -12   0   11.20    3.00
  -4  12   0    9.00    2.90
  -5 -12   0   79.59    5.90
   5 -12   0   88.99    8.80
  -5  12   0   81.79    6.00
   6 -12   0   59.79    7.50
  -6 -12   0   67.89    6.30
  -6  12   0   61.19    6.00
  -7 -12   0   18.80    3.90
   7 -12   0   21.30    5.00
  -7  12   0   21.10    3.90
  -8 -12   0   26.50    4.40
   8 -12   0   38.70    6.50
  -8  12   0   31.90    4.60
  -9 -12   0   15.40    3.60
   9 -12   0   11.40    4.40
  -9  12   0    9.50    3.40
 -10 -12   0   45.10    5.60
  10 -12   0   49.10    7.50
 -10  12   0   44.10    5.60
  11 -12   0   -2.60    3.10
 -11 -12   0    0.20    2.60
 -11  12   0    0.80    2.60
 -12 -12   0    3.80    3.20
  12 -12   0    6.50    4.40
 -12  12   0    2.40    3.00
  13 -12   0   61.39    9.00
 -13 -12   0   62.29    7.00
 -13  12   0   77.29    7.70
 -14 -12   0    8.10    3.60
  14 -12   0   20.10    5.90
 -14  12   0   12.70    3.90
   0 -13   0    1.10    2.80
   0 -13   0    0.30    2.10
   1 -13   0   57.99    5.60
   1 -13   0   53.49    7.10
  -1 -13   0   65.69    5.90
  -1  13   0   53.59    5.70
   2 -13   0  373.96   16.80
  -2 -13   0  356.46   14.10
   2 -13   0  339.47   13.90
  -2  13   0  364.46   14.30
  -3 -13   0   -2.70    1.60
   3 -13   0    0.00    2.10
   3 -13   0    3.60    3.30
  -3  13   0   -1.60    2.00
  -4 -13   0   -0.50    2.20
   4 -13   0    3.00    3.20
   4 -13   0    3.30    2.50
  -4  13   0    3.30    2.60
   5 -13   0   -0.90    2.90
  -5 -13   0   -0.20    2.10
   5 -13   0    4.90    2.60
  -5  13   0    0.70    2.40
   6 -13   0  141.09   10.60
  -6 -13   0  157.18    8.70
   6 -13   0  150.88    8.60
  -6  13   0  159.78    8.90
  -7 -13   0   23.70    4.20
   7 -13   0   21.60    5.30
  -7  13   0   12.60    3.50
   8 -13   0   41.80    7.00
  -8 -13   0   30.20    4.80
  -8  13   0   38.40    5.30
   9 -13   0    0.90    3.40
  -9 -13   0    3.80    2.60
  -9  13   0    1.90    2.70
 -10 -13   0  159.28    9.60
  10 -13   0  152.98   11.50
 -10  13   0  144.49    9.30
 -11 -13   0    7.20    3.70
  11 -13   0    9.70    4.60
 -11  13   0    9.50    3.70
  12 -13   0   22.20    6.30
 -12 -13   0   14.30    4.30
 -12  13   0    8.90    3.90
  13 -13   0   70.79    9.70
 -13 -13   0   68.29    7.40
 -13  13   0   47.80    6.30
   0 -14   0   74.29    6.70
   1 -14   0   50.59    5.50
   1 -14   0   39.50    6.50
  -1 -14   0   48.50    5.50
  -1  14   0   53.99    5.80
   2 -14   0   13.40    4.50
   2 -14   0    7.00    2.90
  -2 -14   0    7.40    2.90
  -2  14   0   10.90    3.30
   3 -14   0    8.80    4.10
  -3 -14   0    8.40    3.10
   3 -14   0    5.70    2.90
  -3  14   0    8.00    3.20
  -4 -14   0    1.20    2.40
   4 -14   0    0.70    2.20
   4 -14   0    0.20    3.20
  -4  14   0    3.10    2.60
  -5 -14   0   31.80    4.70
   5 -14   0   28.30    4.40
   5 -14   0   36.60    6.60
  -5  14   0   28.00    4.70
   6 -14   0   10.60    4.80
  -6 -14   0   12.70    3.30
   6 -14   0   13.30    3.60
  -6  14   0    8.60    3.30
   7 -14   0   -0.40    3.30
   7 -14   0   -0.40    2.00
  -7 -14   0   -0.60    2.40
  -7  14   0    6.10    3.10
  -8 -14   0   73.79    7.20
   8 -14   0   86.59   10.20
  -8  14   0   79.29    7.60
   9 -14   0   15.90    5.30
  -9 -14   0   16.00    4.10
  -9  14   0   10.90    4.00
 -10 -14   0    2.80    3.00
  10 -14   0   -0.50    3.50
 -10  14   0    2.90    3.10
  11 -14   0   23.20    6.40
 -11 -14   0   16.50    6.10
 -11  14   0   22.40    4.80
   2 -15   0    1.50    3.80
  -2  15   0   10.50    3.20
   3 -15   0   18.60    5.40
  -3  15   0   11.70    3.70
   4 -15   0   22.30    5.70
  -4  15   0   34.30    5.30
   5 -15   0   47.80    8.00
  -5  15   0   57.59    6.50
   6 -15   0   92.19   10.60
  -6  15   0   82.99    7.80
   7 -15   0    6.10    4.30
  -7  15   0    5.00    3.10
   8 -15   0   29.20    6.70
  -8  15   0   38.00    5.70
   9 -15   0   -0.10    3.90
  -9  15   0   -0.70    3.20
   2 -16   0   35.40    6.90
   3 -16   0   41.00    7.50
   4 -16   0   12.40    5.40
  -4  16   0   13.60    4.00
   5 -16   0   35.70    7.20
  -5  16   0   27.10    5.10
   6 -16   0   32.40    7.20
  -6  16   0   26.00    5.00
  20   0  -1   10.10    4.10
  19   0  -1  217.18   12.50
  18   0  -1    1.00    2.70
 -17   0   1   12.00    2.70
  17   0  -1   10.00    3.60
 -16   0   1   -2.40    1.40
  16   0  -1    3.50    2.80
  15   0  -1  447.56   17.60
 -15   0   1  445.06   15.00
 -14   0   1    0.60    1.40
  14   0  -1   -1.00    1.80
 -13   0   1  109.89    5.50
 -12   0   1   -0.20    1.20
 -12   0   1    1.50    1.80
 -11   0   1  943.91   26.80
 -11   0   1  916.51   28.00
 -10   0   1   -0.80    1.50
 -10   0   1    0.80    1.10
  -9   0   1  847.02   24.10
  -9   0   1  847.62   25.10
   8   0  -1    1.00    1.10
  -8   0   1   -0.10    0.80
  -8   0   1    2.50    1.30
  -7   0   1   87.19    4.40
   7   0  -1  100.09    4.60
  -7   0   1   93.89    3.90
  -6   0   1    0.10    0.60
   6   0  -1    1.00    0.70
  -6   0   1    0.40    0.80
   6   0  -1    0.60    0.90
  -5   0   1    4.00    0.90
   5   0  -1    5.90    1.20
  -5   0   1    5.90    1.20
   5   0  -1    7.20    1.00
  -4   0   1   -0.20    0.70
   4   0  -1   -0.20    0.50
   4   0  -1    0.20    0.70
  -4   0   1    0.40    0.50
  -3   0   1  116.39    4.00
  -3   0   1  104.49    3.40
   3   0  -1  107.19    3.50
   3   0  -1  105.89    3.90
   2   0  -1   -0.40    0.20
  -2   0   1   -0.50    0.20
   2   0  -1   -0.20    0.40
   1   0  -1    0.00    0.10
   0   0  -1   -0.20    0.20
   0   0  -1   -0.10    0.10
   0   0   1   -0.20    0.10
   0   0  -1    0.00    0.10
   0   0   1   -0.10    0.10
   0   0   1   -0.10    0.10
  -1   0  -1 3625.54  108.99
   1   0   1 3527.35   94.09
  -1   0  -1 3614.54   96.29
  -2   0  -1   -0.20    0.50
   2   0   1    0.40    0.40
  -2   0  -1    0.30    0.50
   3   0   1    4.90    0.90
  -3   0  -1    5.30    0.90
  -3   0  -1    3.10    0.90
   4   0   1   -1.30    0.60
  -4   0  -1   -0.70    0.80
  -4   0  -1   -1.80    0.70
  -5   0  -1 9999.00  267.97
  -5   0  -1 9952.70  269.87
   6   0   1   -0.50    0.40
  -6   0  -1    2.20    1.10
  -6   0  -1   -0.10    0.90
   7   0   1  445.36   14.30
  -7   0  -1  452.25   14.20
  -7   0  -1  442.16   13.90
  -8   0  -1   -0.30    1.00
  -8   0  -1    0.20    1.20
   8   0   1    4.00    1.40
  -9   0  -1    3.70    1.60
  -9   0  -1    4.80    1.60
 -10   0  -1    1.50    1.60
 -10   0  -1    2.00    1.40
 -11   0  -1   28.30    3.60
 -11   0  -1   24.60    3.00
  11   0   1   30.80    3.70
 -12   0  -1   -1.10    1.50
 -12   0  -1    1.80    1.80
  12   0   1   -1.60    1.60
 -13   0  -1    1.60    2.00
  13   0   1    2.20    2.10
 -13   0  -1    2.60    1.90
  14   0   1   -2.70    1.50
 -14   0  -1    0.30    1.80
 -14   0  -1   -0.70    1.80
 -15   0  -1    5.70    2.80
  15   0   1    5.20    2.80
 -15   0  -1    5.20    2.40
  16   0   1    1.10    2.50
 -16   0  -1    1.90    2.10
  17   0   1    6.20    3.20
 -17   0  -1    4.00    2.40
 -18   0  -1   -2.10    1.80
  18   0   1    1.70    2.90
  19   0   1   31.70    5.50
  20   0   1   -0.10    3.40
  20  -1  -1   89.89    9.60
  20   1  -1   78.99    8.70
  19  -1  -1   27.70    5.90
  19   1  -1   24.70    5.30
  18  -1  -1    2.10    3.00
  18   1  -1    5.30    3.40
 -17  -1   1   10.50    2.50
  17  -1  -1   21.70    4.60
  17   1  -1   15.50    4.20
 -17   1   1   16.20    2.90
 -16  -1   1   19.30    3.00
  16  -1  -1   25.50    4.80
 -16   1   1   19.30    3.10
 -15  -1   1    1.90    1.80
  15  -1  -1   -1.10    2.10
 -15  -1   1   -0.50    2.20
 -15   1   1    4.50    2.00
 -14  -1   1   14.70    2.60
  14  -1  -1   17.90    3.70
 -14  -1   1   16.00    3.30
 -14   1   1   16.90    2.70
 -13  -1   1   26.80    3.70
  13  -1  -1   25.40    4.10
 -13  -1   1   32.50    3.30
 -13   1   1   33.00    3.40
 -12  -1   1  144.59    7.50
 -12  -1   1  144.39    6.40
  12  -1  -1  154.18    8.20
 -12   1   1  147.39    6.40
  11  -1  -1   80.89    5.60
 -11  -1   1   68.69    4.00
 -11  -1   1   77.39    5.00
 -11   1   1   74.99    4.20
 -10  -1   1    2.30    1.30
 -10  -1   1    3.20    1.70
  10  -1  -1    2.30    1.90
 -10   1   1    2.80    1.30
  -9  -1   1   -0.30    1.30
  -9  -1   1   -1.90    0.90
  -9   1   1   -1.30    0.80
  -8  -1   1   92.69    4.80
   8  -1  -1   87.19    4.20
  -8  -1   1   94.09    4.00
   8   1  -1   86.39    4.70
  -8   1   1   89.79    4.10
  -7  -1   1   78.09    4.20
   7  -1  -1   83.99    3.80
  -7  -1   1   82.89    3.60
   7   1  -1   83.89    4.30
  -7   1   1   82.29    3.70
  -6  -1   1   35.70    2.00
  -6  -1   1   30.90    2.30
   6  -1  -1   31.50    2.10
   6   1  -1   30.50    2.70
  -6   1   1   34.00    2.10
  -5  -1   1   16.60    1.80
   5  -1  -1   17.90    1.70
  -5  -1   1   19.90    1.40
   5   1  -1   17.80    1.90
  -5   1   1   18.40    1.60
   4  -1  -1 2940.21   76.49
  -4  -1   1 2842.62   77.59
   4   1  -1 2909.81   77.79
  -4   1   1 2871.91   78.89
   3  -1  -1 1859.11   48.90
   3  -1  -1 1859.91   49.70
  -3  -1   1 1863.31   50.19
  -3   1   1 1829.42   50.29
   3   1  -1 1893.01   51.59
  -2  -1   1 1462.55   40.20
   2  -1  -1 1488.75   40.00
   2  -1  -1 1426.56   40.10
  -2   1   1 1413.56   39.20
  -2   1   1 1483.45   40.00
   2   1  -1 1447.56   39.10
   1  -1  -1   25.80    1.10
   1  -1  -1   25.80    1.40
   1  -1  -1   27.60    1.10
   1  -1  -1   26.80    1.10
  -1  -1   1   23.50    1.00
  -1  -1   1   25.90    1.00
   1   1  -1   24.90    1.00
  -1   1   1   27.80    1.20
  -1   1   1   26.10    1.10
  -1   1   1   24.60    1.00
   1   1  -1   24.80    1.00
   0  -1   1  319.87    8.70
   0  -1   1  314.47    9.00
   0  -1  -1  333.97    9.10
   0  -1  -1  319.17    8.90
   0  -1   1  319.37    8.70
   0   1  -1  320.47    9.00
   0   1   1  331.57    8.90
   0   1   1  342.87    9.20
   0   1   1  330.37    8.90
   0   1  -1  325.67    8.70
   0   1  -1  314.87    8.70
   0   1  -1  317.37    8.90
  -1  -1  -1  374.36   10.70
   1  -1   1  371.86   10.30
   1  -1   1  382.86   10.30
   1  -1   1  372.06   10.60
   1   1   1  384.66   10.30
  -1   1  -1  389.06   10.70
  -1   1  -1  374.76   10.30
  -1   1  -1  378.56   10.60
   1   1   1  394.36   10.80
   2  -1   1 4892.71  132.49
  -2  -1  -1 4996.90  133.39
   2  -1   1 4713.23  132.49
   2  -1   1 5008.30  131.99
  -2   1  -1 4995.20  131.39
  -2   1  -1 4927.01  131.69
  -2   1  -1 5040.70  133.19
   2   1   1 4770.52  133.69
  -3  -1  -1  737.03   21.00
   3  -1   1  767.32   20.70
   3  -1   1  744.83   20.80
   3  -1   1  733.63   20.80
  -3   1  -1  748.23   20.80
  -3   1  -1  759.72   20.70
  -3   1  -1  781.02   20.70
   3   1   1  754.72   21.00
   4  -1   1  304.67    9.60
  -4  -1  -1  313.77    9.80
   4  -1   1  303.87    9.60
   4  -1   1  306.47    9.50
  -4   1  -1  310.27    9.60
  -4   1  -1  314.97    9.50
  -5  -1  -1  443.66   13.40
   5  -1   1  451.95   13.30
   5  -1   1  440.46   13.20
   5  -1   1  386.56   13.00
  -5   1  -1  450.85   13.20
  -5   1  -1  444.66   13.20
   6  -1   1    1.20    1.00
  -6  -1  -1    2.20    1.10
   6  -1   1    4.00    1.40
   6  -1   1    3.00    1.10
  -6  -1  -1    2.90    1.30
   6   1   1    0.30    0.50
  -6   1  -1    0.20    1.00
  -6   1  -1    3.10    1.10
   7  -1   1  175.88    7.20
  -7  -1  -1  202.08    7.60
  -7  -1  -1  172.08    6.90
   7  -1   1  200.78    7.50
  -7   1  -1  190.48    7.30
  -7   1  -1  181.88    7.10
  -8  -1  -1    0.80    1.20
  -8  -1  -1    4.30    1.40
   8  -1   1    1.40    1.40
   8  -1   1    1.90    1.40
  -8   1  -1    2.20    1.30
   8   1   1   -0.40    0.30
  -8   1  -1    1.00    1.20
  -9  -1  -1    2.20    1.60
   9  -1   1    1.30    1.30
  -9  -1  -1    1.50    1.30
  -9   1  -1    1.30    1.20
  -9   1  -1    0.80    1.30
 -10  -1  -1  120.79    6.50
 -10  -1  -1  127.59    6.10
  10  -1   1  128.59    6.60
 -10   1  -1  126.99    6.40
 -10   1  -1  135.09    6.30
 -11  -1  -1  126.29    6.70
 -11  -1  -1  126.79    6.20
  11  -1   1  120.49    6.70
 -11   1  -1  117.39    6.00
 -11   1  -1  120.49    6.50
  12  -1   1   36.90    4.40
 -12  -1  -1   32.10    3.70
 -12  -1  -1   33.40    4.10
 -12   1  -1   26.10    3.30
 -12   1  -1   35.60    4.10
  13  -1   1   29.00    4.10
 -13  -1  -1   28.00    3.60
 -13  -1  -1   27.40    4.00
 -13   1  -1   25.00    3.90
 -13   1  -1   31.70    3.80
  14  -1   1   39.10    5.20
 -14  -1  -1   35.70    4.70
 -14  -1  -1   41.20    4.30
  14   1   1   35.30    4.60
 -14   1  -1   47.40    4.80
 -15  -1  -1   49.50    5.60
  15  -1   1   55.29    6.00
 -15  -1  -1   49.30    4.90
 -15   1  -1   58.19    5.40
  15   1   1   48.50    5.60
 -16  -1  -1   -0.50    2.50
  16  -1   1    1.40    2.70
 -16  -1  -1    1.60    2.20
  16   1   1    6.40    3.20
 -16   1  -1    7.40    2.60
 -17  -1  -1   63.19    5.80
  17  -1   1   45.50    6.20
 -17  -1  -1   64.89    6.80
 -17   1  -1   45.90    5.20
  17   1   1   54.59    6.20
  18  -1   1    6.20    3.60
 -18  -1  -1    1.70    2.70
  18   1   1    4.80    3.00
 -18   1  -1    1.50    2.40
  19  -1   1    6.10    3.30
  19   1   1    4.40    3.30
  20  -1   1   28.10    5.50
  20  -2  -1   17.10    5.00
  20   2  -1    4.70    3.80
  19  -2  -1    3.10    3.70
  19   2  -1    1.30    3.00
  18  -2  -1   -5.90    2.30
 -18   2   1    1.70    2.10
  17  -2  -1   35.00    5.70
 -17   2   1   28.10    3.70
 -16  -2   1   14.70    2.80
  16  -2  -1    7.30    3.70
 -16  -2   1   14.90    3.70
 -16   2   1   12.50    2.70
 -15  -2   1    7.60    3.00
  15  -2  -1    7.20    3.30
 -15  -2   1    8.10    2.20
 -15   2   1    6.70    2.20
  14  -2  -1   75.29    7.20
 -14  -2   1   86.99    6.10
 -14  -2   1   79.39    4.70
 -14   2   1   68.09    4.70
 -13  -2   1    9.30    2.80
 -13  -2   1   13.00    2.30
  13  -2  -1    6.80    2.80
 -13   2   1    9.50    2.20
 -12  -2   1   -1.80    1.60
  12  -2  -1    0.80    1.90
 -12  -2   1   -2.90    1.10
 -12   2   1    2.90    1.50
 -11  -2   1  200.88    8.70
 -11  -2   1  189.18    7.40
  11  -2  -1  201.08    9.30
 -11   2   1  187.88    7.60
 -10  -2   1   -0.50    1.00
 -10  -2   1   -1.10    1.40
  10  -2  -1    0.80    1.70
 -10   2   1    0.60    1.10
   9  -2  -1   10.10    2.60
  -9  -2   1   12.10    1.80
  -9  -2   1   15.20    2.50
  -9   2   1   12.40    1.80
   8  -2  -1  200.08    8.80
   8  -2  -1  202.88    8.10
  -8  -2   1  216.98    7.40
  -8  -2   1  220.48    8.40
  -8   2   1  226.38    7.70
   8   2  -1  212.08    8.40
   7  -2  -1  390.26   12.20
  -7  -2   1  391.86   12.70
   7  -2  -1  379.66   13.20
   7  -2  -1  394.76   12.60
   7   2  -1  408.06   12.90
  -7   2   1  377.36   11.90
  -6  -2   1  614.24   18.40
   6  -2  -1  641.64   18.30
   6  -2  -1  622.44   19.00
   6  -2  -1  636.94   18.00
   6   2  -1  619.14   18.50
  -6   2   1  604.64   17.70
   5  -2  -1   16.70    1.80
   5  -2  -1   20.80    2.40
  -5  -2   1   17.00    1.90
  -5   2   1   19.10    1.80
   5   2  -1   19.30    2.00
   4  -2  -1 2140.09   57.89
   4  -2  -1 2169.38   56.99
  -4  -2   1 2133.59   57.19
  -4   2   1 2146.09   57.79
   4   2  -1 2144.99   57.29
  -4   2   1 2189.18   58.19
   3  -2  -1 4594.54  128.99
  -3  -2   1 4595.54  128.39
   3  -2  -1 4739.93  125.89
   3   2  -1 4680.63  128.79
  -3   2   1 4764.62  126.59
  -3   2   1 4984.20  129.89
  -2  -2   1  275.07    7.70
   2  -2  -1  284.07    7.60
  -2  -2   1  269.07    8.00
   2  -2  -1  284.37    7.70
   2  -2  -1  269.67    8.70
   2  -2  -1  278.27    8.00
  -2   2   1  272.37    7.70
   2   2  -1  272.17    8.00
  -2   2   1  262.87    8.00
   2   2  -1  273.77    7.70
  -1  -2   1   84.99    2.80
   1  -2  -1   91.39    3.10
   1  -2  -1   85.89    2.80
   1  -2  -1   85.69    2.70
  -1  -2   1   89.79    2.90
   1  -2  -1   84.89    3.40
  -1   2   1   86.49    2.70
   1   2  -1   84.59    2.80
  -1   2   1   92.09    3.50
  -1   2   1   85.19    3.00
   1   2  -1   86.59    2.90
   0  -2  -1  419.06   12.20
   0  -2  -1  413.46   12.10
   0  -2   1  434.46   11.90
   0  -2   1  431.66   12.30
   0   2  -1  442.26   12.30
   0   2   1  422.86   12.20
   0   2  -1  431.56   11.90
  -1  -2  -1 1666.13   44.20
   1  -2   1 1593.84   43.40
  -1  -2  -1 1635.04   43.20
   1  -2   1 1618.24   43.30
  -1   2  -1 1630.04   43.10
  -1   2  -1 1612.74   44.20
   1   2   1 1615.64   43.20
  -1   2  -1 1603.74   43.30
   1   2   1 1653.43   44.00
  -2  -2  -1 1741.03   48.20
   2  -2   1 1822.92   48.10
   2  -2   1 1858.11   48.40
  -2   2  -1 1722.13   48.00
  -2   2  -1 1907.21   48.40
   2   2   1 1820.92   48.30
   3  -2   1   66.49    3.10
   3  -2   1   63.39    2.70
  -3  -2  -1   63.89    3.20
   3  -2   1   60.69    3.10
  -3   2  -1   66.69    3.00
  -3   2  -1   64.49    3.10
   3   2   1   60.89    3.20
   4  -2   1   32.20    2.40
   4  -2   1   36.80    2.40
   4  -2   1   35.90    2.20
  -4  -2  -1   30.40    2.60
   4   2   1   33.70    2.50
  -4   2  -1   38.40    2.40
  -4   2  -1   39.70    2.60
  -5  -2  -1 1485.95   40.70
   5  -2   1 1447.86   40.50
   5  -2   1 1471.65   40.70
  -5   2  -1 1490.55   40.40
   5   2   1 1512.35   40.80
   6  -2   1    4.40    1.20
  -6  -2  -1    2.70    1.40
   6  -2   1    5.30    1.60
  -6   2  -1    3.70    1.20
   6   2   1    3.80    1.40
  -6   2  -1    4.00    1.30
   7  -2   1    5.80    1.50
   7  -2   1    3.30    1.50
  -7  -2  -1    2.20    1.40
  -7   2  -1    4.60    1.50
   7   2   1    3.00    1.30
  -7   2  -1    5.00    1.50
   8  -2   1   32.20    3.20
  -8  -2  -1   29.60    3.20
   8  -2   1   31.70    3.60
  -8   2  -1   34.30    3.30
  -8   2  -1   29.90    3.00
  -9  -2  -1  310.07   10.80
  -9  -2  -1  288.87   11.20
   9  -2   1  301.17   11.40
  -9   2  -1  308.57   10.80
 -10  -2  -1   42.70    3.90
  10  -2   1   49.70    4.70
 -10  -2  -1   47.70    4.50
 -10   2  -1   53.99    3.80
 -11  -2  -1   20.50    2.90
 -11  -2  -1   21.30    3.30
  11  -2   1   23.80    3.50
 -11   2  -1   22.40    3.00
 -12  -2  -1    1.30    1.90
 -12  -2  -1    5.10    2.00
  12  -2   1    3.80    2.30
 -12   2  -1    1.10    1.60
 -13  -2  -1   49.99    5.20
  13  -2   1   50.09    5.60
 -13  -2  -1   48.40    4.60
 -13   2  -1   51.59    4.70
  14  -2   1   86.49    6.50
 -14  -2  -1   98.09    6.70
 -14  -2  -1   88.29    5.70
 -14   2  -1   85.59    5.70
  15  -2   1   15.90    3.60
 -15  -2  -1   17.60    3.10
 -15  -2  -1   12.40    3.40
 -15   2  -1    9.80    2.80
  16  -2   1   -2.80    1.90
 -16  -2  -1    1.70    2.00
 -16  -2  -1    0.10    2.40
 -16   2  -1   -0.80    1.80
 -17  -2  -1   34.10    4.40
 -17  -2  -1   36.80    5.50
  17  -2   1   30.30    5.10
  17   2   1   29.50    4.90
 -17   2  -1   30.10    4.40
  18  -2   1    5.00    3.40
 -18  -2  -1    2.40    2.80
 -18   2  -1   -1.70    2.20
  18   2   1    0.20    2.70
 -19  -2  -1    3.50    3.00
  19  -2   1    2.40    3.00
  19   2   1    0.30    2.50
  20  -2   1    5.40    4.20
  20  -3  -1    6.40    4.00
  20   3  -1    7.70    4.00
  19  -3  -1    1.80    3.70
 -18  -3   1   19.50    4.30
  18  -3  -1   10.40    4.00
 -18   3   1   18.20    3.30
  17  -3  -1   23.10    5.00
 -17  -3   1   26.50    4.70
 -17   3   1   32.60    4.00
  16  -3  -1   81.19    8.20
 -16  -3   1   86.09    5.30
 -16  -3   1   79.19    7.30
 -16   3   1   89.69    5.60
 -15  -3   1   25.50    3.30
 -15  -3   1   24.40    4.20
  15  -3  -1   17.80    4.20
 -15   3   1   26.70    3.50
 -14  -3   1   14.30    2.60
  14  -3  -1   11.10    3.50
 -14  -3   1   11.80    3.20
 -14   3   1   13.40    2.60
 -13  -3   1   16.40    3.40
  13  -3  -1   20.20    4.10
 -13  -3   1   15.80    2.60
 -13   3   1   14.20    2.60
  12  -3  -1  184.78    9.50
 -12  -3   1  184.78    8.60
 -12  -3   1  157.58    7.10
 -12   3   1  179.88    7.60
 -11  -3   1   61.39    3.80
 -11  -3   1   53.19    4.90
  11  -3  -1   56.69    5.80
 -11   3   1   55.79    3.80
 -10  -3   1  362.36   12.10
 -10  -3   1  379.96   13.40
  10  -3  -1  376.26   14.30
 -10   3   1  378.46   12.40
   9  -3  -1  382.66   14.20
  -9  -3   1  402.36   13.50
  -9   3   1  373.46   12.40
   8  -3  -1 3550.34   94.89
   8  -3  -1 3612.04   94.79
  -8  -3   1 3390.76   93.49
  -8   3   1 3429.96   92.69
   8   3  -1 3514.95   93.89
  -7  -3   1 2375.46   65.09
   7  -3  -1 2424.96   66.19
   7  -3  -1 2362.36   64.89
   7   3  -1 2480.75   65.49
  -7   3   1 2417.76   64.49
   6  -3  -1  567.84   17.30
  -6  -3   1  562.34   16.80
   6  -3  -1  531.95   17.50
   6   3  -1  553.54   16.80
  -6   3   1  546.75   16.20
  -5  -3   1   24.50    2.40
   5  -3  -1   22.60    2.20
   5  -3  -1   26.30    2.90
   5   3  -1   23.80    2.40
  -5   3   1   22.10    2.00
  -5   3   1   27.20    1.60
  -4  -3   1  497.15   15.00
  -4  -3   1  503.95   14.20
   4  -3  -1  510.35   14.90
   4  -3  -1  547.65   16.10
   4   3  -1  505.05   15.10
  -4   3   1  512.55   14.20
  -4   3   1  519.85   14.80
  -3  -3   1 3019.80   81.09
   3  -3  -1 3118.59   81.69
   3  -3  -1 3096.19   80.49
   3  -3  -1 3201.88   82.09
  -3  -3   1 2900.31   80.99
   3  -3  -1 3031.20   80.59
   3   3  -1 2903.21   80.99
  -3   3   1 3015.60   82.09
  -3   3   1 2928.31   80.89
   2  -3  -1  102.99    3.10
   2  -3  -1  106.49    3.40
   2  -3  -1  109.09    4.60
   2  -3  -1  113.19    3.90
  -2  -3   1   99.09    3.80
  -2  -3   1  100.89    3.60
  -2   3   1  103.29    3.90
   2   3  -1  102.29    3.80
   2   3  -1  101.29    3.60
  -2   3   1  106.09    3.10
  -1  -3   1   96.49    3.40
  -1  -3   1   99.59    3.50
   1  -3  -1   92.99    4.10
   1  -3  -1   92.79    3.50
   1   3  -1   90.49    3.40
  -1   3   1   93.39    3.00
  -1   3   1  102.59    4.20
   1   3  -1   95.89    3.40
  -1   3   1   98.99    3.60
   0  -3   1  245.18    7.50
   0  -3   1  245.08    8.10
   0  -3  -1  242.78    7.90
   0  -3  -1  252.57    8.00
   0  -3   1  244.28    7.30
   0   3   1  249.68    8.00
   0   3  -1  250.27    7.50
   0   3   1  247.28    7.50
   1  -3   1  166.88    6.10
  -1  -3  -1  164.68    5.70
  -1  -3  -1  164.88    5.30
  -1  -3  -1  155.78    5.70
  -1   3  -1  164.58    5.50
  -1   3  -1  157.18    6.00
  -1   3  -1  163.58    4.60
   1   3   1  169.08    5.80
   1   3   1  179.08    5.80
   2  -3   1  434.36   13.30
  -2  -3  -1  436.36   13.00
   2  -3   1  415.36   12.70
   2  -3   1  426.56   11.50
   2   3   1  439.36   12.80
  -2   3  -1  431.36   12.70
   2   3   1  439.26   13.00
  -2   3  -1  452.25   13.30
   3  -3   1   76.79    4.00
  -3  -3  -1   81.59    3.90
   3  -3   1   88.19    3.90
   3   3   1   89.69    4.00
  -3   3  -1   90.39    4.20
  -3   3  -1   87.19    3.80
   4  -3   1  179.58    7.10
   4  -3   1  181.08    6.20
   4  -3   1  191.18    6.80
  -4  -3  -1  177.88    6.80
  -4   3  -1  193.28    6.70
   4   3   1  178.58    6.80
   5  -3   1  669.53   20.20
  -5  -3  -1  668.03   20.00
  -5   3  -1  645.64   19.50
   5   3   1  708.13   20.20
  -6  -3  -1  342.27   11.60
   6  -3   1  331.67   11.70
   6  -3   1  327.97   10.80
   6   3   1  332.77   11.50
  -6   3  -1  337.87   11.10
   7  -3   1  207.88    7.70
   7  -3   1  204.18    8.40
  -7  -3  -1  191.38    8.00
   7   3   1  204.58    8.30
  -7   3  -1  195.48    7.70
   8  -3   1   11.70    2.40
  -8  -3  -1   12.20    2.50
   8  -3   1   13.70    2.60
  -8   3  -1   13.10    2.20
   9  -3   1  440.76   15.80
  -9  -3  -1  455.45   15.60
  -9   3  -1  483.15   15.20
  10  -3   1   30.90    4.20
 -10  -3  -1   35.00    4.10
 -10   3  -1   27.60    3.30
  11  -3   1   90.59    6.10
 -11  -3  -1   92.29    6.00
 -11  -3  -1   94.69    5.40
 -11   3  -1   87.89    5.30
 -12  -3  -1    5.90    2.10
  12  -3   1    3.90    2.40
 -12  -3  -1    8.20    2.70
 -12   3  -1    6.20    2.30
 -13  -3  -1   30.60    4.40
 -13  -3  -1   27.80    3.80
  13  -3   1   31.50    4.80
 -13   3  -1   30.40    3.90
  14  -3   1    1.30    2.20
 -14  -3  -1   -0.20    2.20
 -14  -3  -1   -3.10    1.60
 -14   3  -1    0.10    2.00
 -15  -3  -1   51.09    5.90
  15  -3   1   38.20    5.60
 -15  -3  -1   40.80    4.50
 -15   3  -1   45.70    4.80
 -16  -3  -1    5.30    3.00
  16  -3   1    2.70    3.10
 -16  -3  -1   -2.90    1.70
 -16   3  -1    2.40    2.30
  17  -3   1   14.20    4.20
 -17  -3  -1   12.70    3.90
 -17  -3  -1    3.60    2.50
 -17   3  -1    8.50    3.00
 -18  -3  -1    4.80    3.20
  18  -3   1    3.40    3.60
 -18   3  -1    2.10    2.70
  18   3   1    3.40    2.60
 -19  -3  -1   -1.60    2.90
  19  -3   1   -0.90    3.00
  19   3   1   -1.40    2.70
 -19   3  -1   -1.00    2.40
  20  -3   1   12.40    4.30
  20  -4  -1   96.09   10.30
 -19  -4   1    0.50    3.00
  19  -4  -1    1.60    3.40
 -19   4   1    4.20    3.60
 -18  -4   1   32.40    5.50
  18  -4  -1   35.60    6.30
 -18   4   1   35.60    4.50
 -18   4   1   30.30    4.20
 -17  -4   1    3.00    2.80
  17  -4  -1   -5.60    2.40
 -17   4   1    5.30    2.40
  16  -4  -1   26.60    5.20
 -16  -4   1   20.40    4.10
 -16   4   1   28.60    3.80
  15  -4  -1   21.50    4.40
 -15  -4   1   12.70    3.40
 -15  -4   1    8.60    2.40
 -15   4   1   10.10    2.70
  14  -4  -1   10.70    3.60
 -14  -4   1    4.90    2.60
 -14  -4   1    4.20    1.90
 -14   4   1    5.50    2.20
 -13  -4   1  158.38    7.20
 -13  -4   1  160.28    8.50
  13  -4  -1  149.29    9.10
 -13   4   1  167.88    7.50
 -12  -4   1   16.10    2.50
 -12  -4   1   17.20    3.30
 -12   4   1   18.00    2.70
 -11  -4   1  516.35   17.70
  11  -4  -1  534.45   19.00
 -11   4   1  503.05   16.50
 -10  -4   1  222.28    9.30
  10  -4  -1  198.38    9.90
 -10   4   1  225.78    8.50
   9  -4  -1  541.65   18.80
  -9  -4   1  554.04   17.70
  -9   4   1  527.35   16.70
  -8  -4   1  471.75   15.50
   8  -4  -1  471.05   16.60
  -8   4   1  481.95   14.00
   8   4  -1  480.25   15.80
  -8   4   1  461.75   14.80
   7  -4  -1  689.03   21.90
  -7  -4   1  660.63   20.70
   7  -4  -1  704.13   20.50
  -7   4   1  684.93   20.20
   7   4  -1  706.73   21.00
  -7   4   1  688.23   19.30
   6  -4  -1   29.50    3.50
  -6  -4   1   24.60    2.60
   6   4  -1   32.00    3.00
  -6   4   1   25.60    1.70
  -6   4   1   29.70    2.60
  -5  -4   1   43.90    2.30
  -5  -4   1   45.90    3.00
   5  -4  -1   48.60    3.70
  -5   4   1   48.70    2.90
   5   4  -1   43.90    3.00
  -5   4   1   50.39    2.20
  -4  -4   1   15.70    1.90
  -4  -4   1   15.80    1.50
   4  -4  -1   15.20    0.90
   4  -4  -1   10.80    2.20
  -4   4   1   15.20    1.10
   4   4  -1   13.30    1.70
  -4   4   1   12.20    1.70
   3  -4  -1  456.25   12.20
  -3  -4   1  463.75   13.00
  -3  -4   1  470.35   13.60
   3  -4  -1  453.65   12.50
   3  -4  -1  437.86   14.50
   3  -4  -1  466.95   13.60
   3   4  -1  448.76   13.50
  -3   4   1  445.36   13.50
   2  -4  -1    1.80    1.30
   2  -4  -1    4.00    0.70
  -2  -4   1    2.60    0.80
  -2  -4   1    3.70    0.90
   2  -4  -1    3.90    1.00
   2   4  -1    3.70    0.90
  -2   4   1    3.80    0.50
  -2   4   1    3.70    1.00
   2   4  -1    2.90    0.90
  -1  -4   1    4.30    1.00
  -1  -4   1    4.60    1.40
  -1  -4   1    4.30    0.90
   1  -4  -1    1.80    1.20
   1   4  -1    7.10    1.10
  -1   4   1    5.60    0.70
  -1   4   1    4.90    1.10
   1   4  -1    4.70    1.00
   0  -4  -1  291.37    9.50
   0  -4   1  306.37    9.00
   0  -4  -1  289.97    9.80
   0  -4   1  295.27    9.20
   0  -4   1  291.57    9.90
   0   4   1  293.07    9.10
   0   4  -1  295.37    9.10
   0   4   1  307.57    9.90
  -1  -4  -1  134.29    5.40
   1  -4   1  144.09    5.90
  -1  -4  -1  136.39    4.90
  -1  -4  -1  136.79    5.50
   1   4   1  139.29    5.50
  -1   4  -1  147.79    5.20
   1   4   1  143.09    5.50
  -1   4  -1  143.09    4.00
  -2  -4  -1    3.00    0.90
   2  -4   1    1.10    1.00
  -2  -4  -1    2.30    1.10
   2   4   1    4.10    1.20
   2   4   1    2.10    1.20
  -2   4  -1    1.70    1.00
   3  -4   1   17.30    2.40
  -3  -4  -1   20.20    2.40
   3  -4   1   16.10    0.70
   3   4   1   19.80    2.30
  -3   4  -1   19.10    2.00
   3   4   1   15.70    2.00
  -4  -4  -1   78.39    4.20
   4  -4   1   86.79    4.70
  -4   4  -1   85.79    4.10
  -4   4  -1   82.49    2.50
   4   4   1   88.89    4.40
  -5  -4  -1   18.90    2.50
   5  -4   1   15.30    2.50
   5  -4   1   17.80    2.00
  -5   4  -1   15.40    2.10
   5   4   1   19.30    2.50
   6  -4   1   39.60    2.70
   6  -4   1   37.40    4.00
  -6  -4  -1   37.30    3.50
   6   4   1   46.80    4.00
  -6   4  -1   39.10    3.30
   7  -4   1   96.19    4.80
   7  -4   1   97.19    5.70
  -7  -4  -1   97.09    5.40
   7   4   1  112.79    5.80
  -7   4  -1  105.99    5.10
   8  -4   1    6.80    2.30
  -8  -4  -1    4.10    1.90
  -8   4  -1    8.50    1.90
  -9  -4  -1   -0.30    1.50
   9  -4   1    3.20    2.00
  -9   4  -1    8.00    2.00
 -10  -4  -1  564.04   19.20
  10  -4   1  612.24   20.10
 -10   4  -1  551.44   18.40
  11  -4   1   81.69    6.00
 -11  -4  -1   61.29    5.70
 -11   4  -1   73.89    4.90
 -12  -4  -1  645.74   20.90
 -12  -4  -1  672.73   22.30
  12  -4   1  677.73   22.90
 -12   4  -1  625.04   20.90
 -13  -4  -1  365.46   14.30
  13  -4   1  351.36   14.80
 -13  -4  -1  336.47   12.90
 -13   4  -1  328.97   13.00
  14  -4   1   19.20    4.20
 -14  -4  -1   11.50    2.90
 -14  -4  -1   10.80    3.30
 -14   4  -1   15.80    3.20
 -15  -4  -1    0.80    2.50
 -15  -4  -1   -1.70    1.90
  15  -4   1    3.90    3.00
 -15   4  -1    3.30    2.30
 -16  -4  -1    0.40    2.00
  16  -4   1   -1.10    2.70
 -16  -4  -1   -1.00    2.60
 -16   4  -1    4.20    2.50
 -17  -4  -1    5.40    3.30
  17  -4   1   11.70    4.40
 -17   4  -1    2.20    2.50
  18  -4   1   72.49    8.40
 -18  -4  -1   86.09    8.40
 -18   4  -1   79.59    6.90
 -19  -4  -1   95.09    9.00
  19  -4   1   81.39    9.20
 -19   4  -1   70.39    6.70
 -19  -5   1    6.60    3.60
  19  -5  -1   14.10    5.00
  18  -5  -1    1.00    3.20
 -18  -5   1   -2.70    2.50
 -18   5   1   -0.20    2.20
 -17  -5   1   88.49    8.10
  17  -5  -1   79.29    8.90
 -17   5   1   88.49    5.80
 -17   5   1   94.39    6.30
  16  -5  -1   17.70    4.80
 -16  -5   1    9.60    3.40
 -16   5   1   12.30    3.00
 -16   5   1   11.90    2.80
 -15  -5   1    9.60    3.20
 -15  -5   1   12.40    2.60
  15  -5  -1    2.60    3.10
 -15   5   1   15.80    3.00
 -15   5   1    7.20    2.20
 -14  -5   1   18.90    3.00
 -14  -5   1   13.90    3.50
  14  -5  -1   16.50    4.20
 -14   5   1   15.40    3.00
 -14   5   1   17.20    2.70
  13  -5  -1   45.30    6.00
 -13  -5   1   51.49    5.50
 -13  -5   1   39.10    4.00
 -13   5   1   46.10    4.40
 -13   5   1   40.00    3.70
  12  -5  -1  838.32   28.30
 -12  -5   1  855.91   26.90
 -12   5   1  845.92   25.60
 -12   5   1  829.92   24.50
 -11  -5   1  340.17   13.30
  11  -5  -1  331.37   14.40
 -11   5   1  363.36   12.50
 -11   5   1  350.86   11.40
  10  -5  -1   90.49    6.50
 -10  -5   1   95.09    5.80
 -10   5   1  103.79    5.30
 -10   5   1   88.39    4.30
   9  -5  -1  192.68    9.50
  -9  -5   1  192.88    8.30
  -9   5   1  197.28    6.70
  -9   5   1  171.48    7.50
   8  -5  -1  110.99    6.70
  -8  -5   1  111.89    5.80
  -8   5   1  104.69    5.20
  -8   5   1  114.79    4.40
  -7  -5   1   11.20    2.20
   7  -5  -1   12.60    2.70
  -7   5   1   14.80    2.20
  -7   5   1   13.20    1.50
   7   5  -1   11.20    2.20
  -6  -5   1  204.38    8.00
   6  -5  -1  199.18    8.90
   6   5  -1  198.28    7.90
  -6   5   1  212.38    6.40
  -6   5   1  197.78    7.50
   5  -5  -1  194.08    5.60
  -5  -5   1  195.48    7.40
   5  -5  -1  187.88    8.40
  -5   5   1  194.88    6.00
   5   5  -1  197.88    7.50
  -5   5   1  194.38    7.20
   4  -5  -1  180.68    7.90
   4  -5  -1  186.98    5.20
  -4  -5   1  186.78    7.00
   4   5  -1  181.78    7.00
  -4   5   1  199.78    7.00
   3  -5  -1  352.06   12.20
  -3  -5   1  336.17   10.90
   3  -5  -1  347.47    9.70
   3   5  -1  341.37   10.90
  -3   5   1  345.57   11.00
   2  -5  -1  182.38    7.50
   2  -5  -1  179.58    5.70
  -2  -5   1  171.18    6.30
   2   5  -1  183.78    6.40
  -2   5   1  191.78    6.60
  -2   5   1  177.48    5.20
   2   5  -1  182.88    6.30
   1  -5  -1   50.69    3.40
  -1  -5   1   53.39    2.80
  -1  -5   1   55.99    3.60
  -1   5   1   50.59    2.90
   1   5  -1   60.19    2.90
   0  -5  -1  928.21   25.90
   0  -5  -1  907.21   26.30
   0  -5   1  898.91   25.10
   0  -5   1  912.71   26.50
   0   5  -1  932.11   25.30
   0   5   1  872.01   25.20
   1  -5   1  512.55   16.00
  -1  -5  -1  496.25   15.20
  -1  -5  -1  503.45   15.60
  -1   5  -1  477.75   14.70
  -2  -5  -1 1317.67   37.90
  -2  -5  -1 1383.76   38.20
   2  -5   1 1339.47   38.70
   2   5   1 1400.16   38.10
  -2   5  -1 1428.56   37.80
  -3  -5  -1  278.37    9.80
   3  -5   1  303.47   10.70
  -3   5  -1  271.87    9.50
   3   5   1  279.27    9.80
  -4  -5  -1   55.69    3.70
   4  -5   1   56.49    4.00
   4   5   1   56.49    3.60
  -4   5  -1   55.79    3.40
   5  -5   1  128.89    6.60
   5  -5   1  132.29    4.10
  -5  -5  -1  140.99    6.30
   5   5   1  136.39    6.20
  -5   5  -1  136.19    3.80
  -5   5  -1  140.29    5.90
   6  -5   1  255.97    8.90
  -6  -5  -1  257.87    9.80
   6  -5   1  247.88   10.30
  -6   5  -1  259.07    9.30
   6   5   1  251.27    9.80
  -6   5  -1  256.17    7.30
   7  -5   1  159.78    6.50
   7  -5   1  150.18    7.70
  -7  -5  -1  158.48    7.40
  -7   5  -1  157.48    6.80
   8  -5   1  446.36   16.10
  -8  -5  -1  445.66   15.40
  -8   5  -1  436.06   14.70
  -9  -5  -1   80.99    5.50
   9  -5   1   79.49    5.80
  -9   5  -1   82.49    5.00
 -10  -5  -1  552.64   18.10
  10  -5   1  483.65   18.30
 -10   5  -1  499.75   16.90
  11  -5   1   44.60    5.40
 -11  -5  -1   53.49    5.40
 -11   5  -1   55.99    4.90
 -12  -5  -1   58.99    5.90
  12  -5   1   66.49    6.80
 -12   5  -1   72.09    5.30
 -13  -5  -1   31.60    4.60
  13  -5   1   29.50    4.90
 -13  -5  -1   43.10    4.70
 -13   5  -1   36.60    4.30
 -14  -5  -1   14.80    3.10
 -14  -5  -1    5.70    2.90
  14  -5   1    7.30    3.40
 -14   5  -1    1.30    2.30
  15  -5   1   -0.60    2.70
 -15  -5  -1    2.50    2.30
 -15  -5  -1    1.40    2.70
 -15   5  -1    4.60    2.50
 -16  -5  -1   -0.70    2.40
  16  -5   1    2.50    3.00
 -16  -5  -1   -2.10    1.60
 -16   5  -1   -1.60    1.90
 -17  -5  -1   -2.20    2.40
  17  -5   1   -6.00    2.50
 -17   5  -1    3.00    2.70
  18  -5   1   28.80    5.70
 -18  -5  -1   32.60    5.60
 -18   5  -1   35.60    5.10
  19  -5   1   -2.10    2.80
 -19   5  -1   -0.60    2.70
  19  -6  -1   31.50    6.80
 -19  -6   1   18.90    4.60
 -19   6   1   18.50    5.50
  18  -6  -1   44.90    7.30
 -18  -6   1   51.69    6.60
 -18   6   1   47.30    5.40
  17  -6  -1    3.30    3.80
 -17  -6   1    2.30    3.10
 -17   6   1    9.90    3.00
 -16  -6   1  618.54   22.60
  16  -6  -1  630.74   24.60
 -16   6   1  616.74   20.80
  15  -6  -1  111.79    9.00
 -15  -6   1  119.69    8.00
 -15  -6   1  120.49    6.80
 -15   6   1  123.09    6.20
 -15   6   1  127.09    7.20
  14  -6  -1   21.10    4.80
 -14  -6   1    9.50    2.40
 -14  -6   1   12.40    3.40
 -14   6   1   11.60    2.80
 -14   6   1   15.80    2.60
  13  -6  -1    4.00    3.00
 -13  -6   1   13.50    3.20
 -13   6   1   11.10    2.20
 -13   6   1   12.00    2.70
 -12  -6   1  593.64   20.70
  12  -6  -1  581.94   22.30
 -12   6   1  628.14   19.80
 -12   6   1  609.14   18.20
 -11  -6   1  255.47   10.80
  11  -6  -1  249.18   12.20
 -11   6   1  241.98    8.60
 -11   6   1  242.98   10.00
  10  -6  -1   46.40    5.60
 -10  -6   1   40.40    4.50
 -10   6   1   35.30    2.60
 -10   6   1   34.00    3.70
  -9  -6   1    4.30    2.00
   9  -6  -1    3.90    2.60
  -9   6   1    3.70    1.80
  -9   6   1    3.60    1.10
  -8  -6   1   66.79    4.50
   8  -6  -1   53.39    5.70
  -8   6   1   57.89    2.80
  -8   6   1   52.09    3.80
  -7  -6   1   70.39    4.40
   7  -6  -1   67.69    2.60
   7  -6  -1   71.09    5.40
  -7   6   1   70.89    2.90
  -7   6   1   67.59    4.20
   7   6  -1   63.69    4.30
   6  -6  -1    1.60    1.70
  -6  -6   1    3.60    1.40
   6  -6  -1    4.80    0.60
   6   6  -1    1.70    1.30
  -6   6   1    4.20    1.50
  -5  -6   1  276.27   10.00
   5  -6  -1  283.57   11.40
   5   6  -1  274.27   10.00
  -5   6   1  289.67    9.90
   4  -6  -1    0.70    1.50
  -4  -6   1    0.30    1.00
   4  -6  -1    1.20    0.50
  -4   6   1    0.90    1.20
   4   6  -1    0.10    1.00
  -3  -6   1  418.56   12.90
   3  -6  -1  394.36   14.20
   3  -6  -1  390.06   11.40
  -3   6   1  414.66   12.90
   3   6  -1  409.06   12.80
  -2  -6   1  656.23   19.00
   2  -6  -1  651.83   20.50
   2   6  -1  637.64   18.70
   2   6  -1  657.43   19.00
  -2   6   1  670.53   19.20
  -2   6   1  623.74   17.30
  -1  -6   1 1182.58   32.00
   1  -6  -1 1149.69   32.60
   1  -6  -1 1121.59   33.30
  -1  -6   1 1179.18   33.40
   1   6  -1 1162.08   31.90
  -1   6   1 1130.29   32.10
   0  -6  -1  466.95   15.20
   0  -6   1  467.95   15.30
   0  -6  -1  451.15   14.50
   0  -6   1  443.36   13.80
   0   6  -1  451.55   14.00
   0   6   1  477.05   14.20
  -1  -6  -1    3.10    1.40
  -1  -6  -1    2.60    1.50
   1  -6   1    3.00    1.60
  -1   6  -1    3.70    1.20
   2  -6   1  485.85   16.30
  -2  -6  -1  493.15   15.80
  -2  -6  -1  509.75   15.60
  -2   6  -1  482.45   15.00
   2   6   1  475.65   15.40
  -3  -6  -1  370.96   12.20
   3  -6   1  344.47   12.80
   3   6   1  352.36   12.10
  -3   6  -1  360.76   11.80
  -4  -6  -1  135.19    6.30
   4  -6   1  147.29    7.20
   4   6   1  134.89    6.30
  -4   6  -1  143.59    6.10
  -5  -6  -1 1222.98   34.60
   5  -6   1 1188.88   35.50
  -5   6  -1 1138.49   33.90
   5   6   1 1253.47   34.70
   6  -6   1   32.60    4.10
  -6  -6  -1   27.40    3.40
   6  -6   1   31.90    1.40
  -6   6  -1   32.70    3.40
  -7  -6  -1   52.69    4.70
   7  -6   1   58.79    5.50
  -7   6  -1   48.50    4.20
  -7   6  -1   49.00    1.90
   8  -6   1   47.40    5.30
  -8  -6  -1   41.20    4.40
  -8   6  -1   45.90    4.10
  -8   6  -1   48.60    2.20
   9  -6   1   24.10    4.10
  -9  -6  -1   22.10    3.50
  -9   6  -1   25.40    3.30
  -9   6  -1   26.50    1.80
 -10  -6  -1   18.50    3.50
  10  -6   1   13.20    3.40
 -10   6  -1   12.10    2.60
 -10   6  -1   16.40    1.80
 -11  -6  -1  371.86   14.50
  11  -6   1  369.06   15.40
 -11   6  -1  353.66   11.40
 -11   6  -1  387.76   13.80
  12  -6   1  143.79    9.00
 -12  -6  -1  139.39    8.20
 -12   6  -1  136.59    7.40
 -12   6  -1  142.79    5.80
  13  -6   1   78.59    8.00
 -13  -6  -1   73.69    7.00
 -13   6  -1   83.59    4.50
 -13   6  -1   90.79    6.00
 -14  -6  -1   -2.70    2.10
  14  -6   1    2.10    2.80
 -14   6  -1   -0.70    1.30
 -14   6  -1    1.60    2.20
 -15  -6  -1  135.49    7.90
  15  -6   1  156.88   10.30
 -15  -6  -1  140.69    9.10
 -15   6  -1  146.59    8.10
 -16  -6  -1   28.80    5.10
  16  -6   1   25.90    5.60
 -16  -6  -1   20.60    3.90
 -16   6  -1   30.70    4.50
  17  -6   1   -3.70    3.00
 -17  -6  -1    0.80    2.80
 -17   6  -1    1.20    2.60
  18  -6   1   -0.50    3.50
 -18  -6  -1   -3.00    2.80
 -18   6  -1    0.60    2.60
  19  -6   1    1.00    3.90
 -19   6  -1   -0.10    2.70
  18  -7  -1   31.90    6.80
 -18  -7   1   31.20    5.50
 -18   7   1   38.90    5.20
  17  -7  -1  201.68   12.90
 -17  -7   1  205.28   11.30
 -17   7   1  181.78    9.50
  16  -7  -1  489.25   21.20
 -16  -7   1  456.15   18.60
 -16   7   1  476.05   17.30
 -15  -7   1   28.10    4.80
  15  -7  -1   30.40    6.10
 -15   7   1   26.60    4.10
  14  -7  -1   23.60    5.20
 -14  -7   1   23.20    4.30
 -14   7   1   19.30    3.70
  13  -7  -1   13.00    4.10
 -13  -7   1   21.90    3.90
 -13   7   1   20.10    3.50
 -13   7   1   19.20    2.50
 -12  -7   1   28.70    4.20
  12  -7  -1   39.60    5.80
 -12   7   1   28.70    2.70
 -12   7   1   33.50    4.10
  11  -7  -1  336.47   15.10
 -11  -7   1  350.76   13.50
 -11   7   1  329.07   12.60
 -11   7   1  340.37   10.80
  10  -7  -1  121.09    8.30
 -10  -7   1  122.29    7.00
 -10   7   1  121.09    4.80
 -10   7   1  125.49    6.60
   9  -7  -1   18.60    1.60
   9  -7  -1   17.50    3.80
  -9  -7   1   16.70    3.10
  -9   7   1   21.20    3.10
  -9   7   1   16.90    1.70
  -8  -7   1  758.72   23.70
   8  -7  -1  773.32   25.60
   8  -7  -1  773.82   20.50
  -8   7   1  762.62   23.20
  -8   7   1  738.83   20.80
   7  -7  -1   31.40    4.50
  -7  -7   1   35.30    3.70
  -7   7   1   37.70    3.70
   6  -7  -1   56.79    5.70
  -6  -7   1   63.69    4.30
  -6   7   1   49.40    3.80
   6   7  -1   60.19    4.10
  -5  -7   1    6.90    1.90
   5  -7  -1    8.40    2.30
   5   7  -1   11.60    2.10
  -5   7   1    7.50    1.90
  -4  -7   1   16.40    2.40
   4  -7  -1   17.50    1.10
   4  -7  -1   16.80    3.20
   4   7  -1   15.80    2.30
  -4   7   1   16.30    2.40
  -3  -7   1    2.70    1.40
   3  -7  -1    2.70    0.70
   3  -7  -1    1.40    1.70
   3   7  -1    1.70    1.10
  -3   7   1    2.40    1.40
  -2  -7   1   19.10    2.30
   2  -7  -1   12.90    2.60
  -2   7   1   16.00    1.10
   2   7  -1   16.80    2.20
  -2   7   1   24.70    2.60
   1  -7  -1    0.60    1.50
  -1  -7   1    0.70    1.40
   1  -7  -1    1.70    1.20
  -1  -7   1    0.20    1.00
  -1   7   1    0.50    0.60
  -1   7   1    2.30    1.20
   1   7  -1    0.10    1.00
   0  -7  -1   33.50    3.20
   0  -7   1   29.50    3.60
   0  -7   1   39.20    2.80
   0  -7  -1   36.00    3.90
   0   7  -1   35.20    3.00
   0   7   1   35.70    3.10
   1  -7   1  167.38    6.60
  -1  -7  -1  161.78    7.00
  -1  -7  -1  167.38    7.60
   1  -7   1  164.48    7.80
  -1   7  -1  164.78    6.70
   2  -7   1   -1.10    1.40
  -2  -7  -1    2.20    1.60
  -2  -7  -1    1.00    1.30
  -2   7  -1    0.10    1.10
   3  -7   1  208.28    9.40
  -3  -7  -1  204.88    8.50
  -3   7  -1  215.58    8.30
   3   7   1  224.38    8.70
  -4  -7  -1  103.09    5.60
   4  -7   1   93.59    6.00
   4   7   1  100.79    5.50
  -4   7  -1  106.59    5.30
  -5  -7  -1   48.20    4.40
   5  -7   1   38.30    4.60
  -5   7  -1   40.30    3.80
   6  -7   1  138.89    7.80
  -6  -7  -1  134.49    6.90
  -6   7  -1  145.59    6.70
  -7  -7  -1  400.66   14.90
   7  -7   1  425.66   16.00
  -7   7  -1  432.26   14.50
   8  -7   1   10.70    3.20
   8  -7   1    6.50    0.90
  -8  -7  -1    5.50    2.30
  -8   7  -1   10.60    2.40
   9  -7   1  172.38    9.60
  -9  -7  -1  179.08    8.80
   9  -7   1  180.68    5.90
  -9   7  -1  179.38    5.40
  -9   7  -1  170.08    8.10
 -10  -7  -1  104.59    6.70
  10  -7   1   82.49    7.80
 -10   7  -1  108.59    6.20
 -10   7  -1   95.49    3.70
  11  -7   1   13.20    3.90
 -11  -7  -1   14.90    3.40
 -11   7  -1   10.90    2.80
 -11   7  -1   11.90    1.60
 -12  -7  -1   -0.90    2.40
  12  -7   1    6.70    3.20
 -12   7  -1   -0.50    1.80
 -12   7  -1    0.40    1.00
  13  -7   1    3.50    3.20
 -13  -7  -1    0.10    2.50
 -13   7  -1    1.20    2.10
 -14  -7  -1    2.70    2.70
  14  -7   1   -4.30    2.30
 -14   7  -1    5.80    2.60
 -15  -7  -1    0.00    2.20
  15  -7   1    6.00    3.50
 -15  -7  -1    2.00    2.80
 -15   7  -1   -0.30    2.50
  16  -7   1    3.10    3.40
 -16  -7  -1   -2.30    2.50
 -16   7  -1    3.00    2.60
  17  -7   1   -0.80    3.50
 -17  -7  -1    0.20    3.00
 -17   7  -1   -5.00    2.00
  18  -7   1   56.39    8.10
 -18  -7  -1   53.59    7.20
 -18   7  -1   57.29    6.40
 -18  -8   1   11.30    4.00
  18  -8  -1   12.20    5.20
 -18   8   1   16.50    4.10
 -17  -8   1   54.09    6.80
  17  -8  -1   62.39    8.80
 -17   8   1   52.69    5.90
 -16  -8   1  109.39    8.20
  16  -8  -1  121.09   11.30
 -16   8   1  113.19    7.40
  15  -8  -1  104.99   10.60
 -15  -8   1  124.39    8.40
 -15   8   1  119.49    7.40
 -14  -8   1    7.80    3.20
  14  -8  -1    4.50    3.50
 -14   8   1    6.30    2.80
  13  -8  -1   42.80    6.70
 -13  -8   1   43.50    5.30
 -13   8   1   30.00    4.20
 -12  -8   1    1.40    2.50
  12  -8  -1   -0.30    2.70
 -12   8   1    2.80    2.20
  11  -8  -1   10.40    3.70
 -11  -8   1    2.20    2.20
 -11   8   1    6.40    2.00
 -11   8   1    4.00    2.50
  10  -8  -1   40.20    5.80
 -10  -8   1   47.60    5.20
 -10   8   1   58.89    5.20
   9  -8  -1  170.48   10.10
  -9  -8   1  183.48    8.70
  -9   8   1  190.18    8.50
   8  -8  -1   45.80    5.80
  -8  -8   1   59.09    5.30
  -8   8   1   55.29    4.80
   7  -8  -1   63.19    6.50
  -7  -8   1   71.29    5.00
  -7   8   1   77.39    4.90
   6  -8  -1    6.30    2.60
  -6  -8   1    9.70    2.30
  -6   8   1    8.10    2.20
  -5  -8   1   33.00    3.60
   5  -8  -1   33.10    4.50
  -5   8   1   28.70    3.40
   5   8  -1   36.10    3.70
  -4  -8   1    6.10    1.80
   4  -8  -1    6.20    0.80
   4  -8  -1    4.50    2.20
  -4   8   1    4.40    1.70
   4   8  -1    3.10    1.60
   3  -8  -1  975.70   26.40
   3  -8  -1  932.11   30.10
  -3  -8   1  993.30   28.40
   3   8  -1  985.90   28.30
  -3   8   1  976.20   28.40
   2  -8  -1   33.00    4.20
   2  -8  -1   33.70    3.60
  -2  -8   1   32.90    3.10
  -2   8   1   28.10    1.50
   2   8  -1   28.00    2.90
  -2   8   1   27.60    3.10
   1  -8  -1   26.20    3.80
  -1  -8   1   23.90    2.70
  -1  -8   1   27.20    3.80
   1  -8  -1   24.60    3.20
  -1   8   1   25.90    1.70
  -1   8   1   23.90    2.80
   1   8  -1   29.80    3.00
   0  -8  -1  755.72   22.30
   0  -8   1  722.53   21.50
   0  -8   1  726.43   23.40
   0  -8  -1  695.43   23.10
   0   8  -1  713.93   21.60
   0   8   1  723.03   21.70
   1  -8   1   28.50    3.00
  -1  -8  -1   26.10    3.60
  -1  -8  -1   30.90    3.50
   1  -8   1   35.10    4.30
  -1   8  -1   40.60    3.60
  -2  -8  -1   13.60    2.90
  -2  -8  -1   15.50    2.60
   2  -8   1   17.70    3.20
  -2   8  -1   13.90    2.30
   3  -8   1   13.20    2.90
  -3  -8  -1   17.00    2.80
  -3   8  -1   13.30    2.30
   3   8   1    9.60    2.30
  -4  -8  -1  418.46   15.10
   4  -8   1  449.66   16.50
  -4   8  -1  458.05   14.90
   5  -8   1  341.87   14.40
  -5  -8  -1  393.26   13.80
  -5   8  -1  383.26   13.20
   6  -8   1   14.80    3.50
  -6  -8  -1   25.00    3.50
  -6   8  -1   21.40    3.10
  -7  -8  -1   17.20    3.40
   7  -8   1   10.80    3.20
  -7   8  -1   17.70    3.00
   8  -8   1   52.89    6.10
  -8  -8  -1   60.89    5.60
  -8   8  -1   60.29    5.30
   9  -8   1   21.10    4.30
  -9  -8  -1   24.80    4.00
  -9   8  -1   30.90    4.00
  10  -8   1   -0.70    2.50
 -10  -8  -1   -1.20    1.90
 -10   8  -1   -2.60    1.60
  11  -8   1   25.00    5.00
 -11  -8  -1   18.90    4.00
 -11   8  -1   14.50    3.20
  12  -8   1    1.40    3.20
 -12  -8  -1    6.50    3.00
 -12   8  -1    8.60    2.80
  13  -8   1    3.00    3.20
 -13  -8  -1    6.50    3.10
 -13   8  -1    1.00    2.20
  14  -8   1   23.20    5.60
 -14  -8  -1   20.10    4.50
 -14   8  -1   15.20    3.90
  15  -8   1    3.10    3.90
 -15  -8  -1    4.40    3.20
 -15   8  -1    8.30    3.20
  16  -8   1   46.00    7.50
 -16  -8  -1   37.60    5.80
 -16   8  -1   42.00    5.60
 -17  -8  -1   48.70    6.80
  17  -8   1   63.79    8.60
 -17   8  -1   56.79    6.30
 -17  -9   1   23.30    5.00
  17  -9  -1   29.90    6.90
 -17   9   1   26.10    4.80
  16  -9  -1   -3.00    3.30
 -16  -9   1    0.40    2.70
 -16   9   1    2.00    2.60
 -15  -9   1    3.70    3.00
  15  -9  -1    8.40    4.50
 -15   9   1    5.30    2.80
 -14  -9   1   29.80    4.80
  14  -9  -1   29.00    6.10
 -14   9   1   18.40    3.70
 -13  -9   1   57.09    6.10
  13  -9  -1   49.60    7.30
 -13   9   1   53.89    5.70
 -12  -9   1   78.69    7.10
 -12   9   1   84.69    6.10
  11  -9  -1   27.70    5.40
 -11  -9   1   27.10    4.30
 -11   9   1   25.80    4.10
 -10  -9   1   58.19    5.80
  10  -9  -1   60.89    7.20
 -10   9   1   67.99    5.90
  -9  -9   1   42.30    4.70
   9  -9  -1   37.00    5.80
  -9   9   1   29.40    4.00
  -8  -9   1  122.09    6.90
   8  -9  -1  125.99    8.50
  -8   9   1  139.39    7.10
   7  -9  -1   68.39    7.10
  -7  -9   1   68.99    4.90
  -7   9   1   70.19    5.00
  -6  -9   1  138.89    7.10
   6  -9  -1  132.99    8.40
  -6   9   1  145.59    7.10
   5  -9  -1  101.59    7.20
  -5  -9   1  115.69    6.10
  -5   9   1  112.89    6.10
   4  -9  -1    3.90    2.30
  -4  -9   1    0.20    1.40
   4  -9  -1    1.40    0.60
  -4   9   1    0.20    1.70
   4   9  -1    2.10    1.50
   3  -9  -1  116.09    7.20
   3  -9  -1  111.99    4.20
  -3  -9   1  122.59    6.00
  -3   9   1  113.49    5.90
   2  -9  -1   40.80    5.00
  -2  -9   1   33.40    3.50
   2  -9  -1   34.70    3.90
  -2   9   1   35.10    1.70
   2   9  -1   37.50    3.60
  -2   9   1   35.20    3.60
   1  -9  -1  346.37   12.40
   1  -9  -1  349.27   13.60
  -1  -9   1  313.17   11.50
  -1  -9   1  320.37   13.30
  -1   9   1  322.67    9.90
   1   9  -1  332.87   11.70
  -1   9   1  336.27   11.90
   0  -9   1  281.17   12.10
   0  -9   1  281.07   10.40
   0  -9  -1  281.87   11.00
   0  -9  -1  290.77   12.10
   0   9   1  287.57   10.60
   0   9  -1  286.77   10.50
   1  -9   1  122.69    7.30
  -1  -9  -1  116.99    7.00
   1  -9   1  107.79    5.70
  -1  -9  -1  126.19    6.40
  -1   9  -1  127.29    6.10
   2  -9   1  304.07   13.00
  -2  -9  -1  320.77   12.00
  -2  -9  -1  311.07   12.60
   2  -9   1  322.37   11.40
  -2   9  -1  307.47   11.40
  -3  -9  -1  356.76   13.30
   3  -9   1  376.56   14.80
  -3   9  -1  363.06   12.90
  -4  -9  -1    0.10    1.60
   4  -9   1    4.80    2.60
  -4   9  -1    3.00    1.90
  -5  -9  -1   -0.30    1.60
   5  -9   1   -2.20    1.90
  -5   9  -1    4.60    1.90
  -6  -9  -1  243.58   10.60
   6  -9   1  266.77   12.30
  -6   9  -1  238.98   10.10
   7  -9   1   -4.00    1.70
  -7  -9  -1   -0.70    2.00
  -7   9  -1    1.20    1.80
   8  -9   1   53.09    6.60
  -8  -9  -1   37.50    4.60
  -8   9  -1   38.60    4.40
  -9  -9  -1   14.00    3.50
   9  -9   1   21.70    4.50
  -9   9  -1   15.00    3.10
 -10  -9  -1  230.18   11.10
  10  -9   1  251.47   12.90
 -10   9  -1  240.58   10.70
  11  -9   1   30.90    5.60
 -11  -9  -1   40.30    5.40
 -11   9  -1   35.70    4.60
 -12  -9  -1   47.30    5.80
  12  -9   1   53.99    7.30
 -12   9  -1   53.39    5.70
 -13  -9  -1   22.10    4.40
  13  -9   1   34.60    6.20
 -13   9  -1   28.60    4.40
 -14  -9  -1   68.29    7.40
  14  -9   1   61.99    8.30
 -14   9  -1   52.79    5.90
 -15  -9  -1   -2.70    2.40
  15  -9   1   -7.30    2.50
 -15   9  -1   -2.50    2.30
 -16  -9  -1   19.80    4.80
  16  -9   1   12.90    5.10
 -16   9  -1   13.10    4.00
 -17  -9  -1   -0.60    3.00
  17  -9   1    6.90    4.40
 -17   9  -1    4.40    3.10
  16 -10  -1    9.70    5.10
 -16 -10   1    7.10    3.70
 -16  10   1    9.70    3.60
  15 -10  -1    3.50    4.20
 -15 -10   1    6.00    3.50
 -15  10   1   15.00    3.90
 -14 -10   1   10.60    3.50
  14 -10  -1    9.00    4.60
 -14  10   1    8.10    3.30
  13 -10  -1   13.20    4.80
 -13 -10   1   14.10    3.70
 -13  10   1   16.60    3.70
  12 -10  -1   -0.50    2.80
 -12 -10   1    9.90    3.30
 -12  10   1    7.80    3.00
 -11 -10   1   46.40    5.50
  11 -10  -1   39.70    6.50
 -11  10   1   39.90    5.10
 -10 -10   1    3.10    2.50
  10 -10  -1   -0.70    2.50
 -10  10   1    1.30    2.10
  -9 -10   1    9.60    2.80
   9 -10  -1   16.00    4.40
  -9  10   1   16.70    3.30
   8 -10  -1  145.29    9.50
  -8 -10   1  160.88    8.30
  -8  10   1  155.58    8.00
   7 -10  -1   11.60    3.70
  -7 -10   1   19.70    3.40
  -7  10   1   15.80    3.00
  -6 -10   1   93.79    5.90
   6 -10  -1  100.99    7.50
  -6  10   1  110.59    6.30
  -5 -10   1  139.89    7.00
   5 -10  -1  134.89    8.70
  -5  10   1  139.49    7.20
  -4 -10   1   21.00    3.10
   4 -10  -1   18.00    1.10
   4 -10  -1   11.70    3.40
  -4  10   1   18.30    3.10
   3 -10  -1   31.00    4.00
   3 -10  -1   36.90    2.10
  -3 -10   1   28.40    3.50
   3 -10  -1   46.40    5.70
  -3  10   1   38.30    4.10
  -2 -10   1   14.10    2.60
   2 -10  -1   10.40    2.70
   2 -10  -1   14.20    3.60
  -2  10   1   16.50    1.20
   2  10  -1   19.90    2.90
  -2  10   1   13.80    2.60
   1 -10  -1   74.79    5.20
   1 -10  -1   75.29    7.00
  -1 -10   1   79.39    4.80
  -1 -10   1   66.29    6.50
  -1  10   1   72.99    4.90
   1  10  -1   62.49    4.50
  -1  10   1   76.59    3.30
   0 -10   1    8.90    3.00
   0 -10  -1    8.00    2.40
   0 -10   1   14.10    2.50
   0 -10  -1   15.40    3.40
   0  10  -1   16.90    2.80
   0  10   1   12.60    2.50
   1 -10   1    0.00    1.30
   1 -10   1    1.90    2.20
  -1 -10  -1    0.20    1.60
  -1 -10  -1   -3.10    1.60
  -1  10  -1   -0.90    1.40
   2 -10   1    5.70    2.80
  -2 -10  -1    6.30    2.30
   2 -10   1    4.60    1.90
  -2  10  -1    6.70    2.20
   3 -10   1    1.50    1.60
  -3 -10  -1    3.40    2.10
   3 -10   1    2.30    2.40
  -3  10  -1    1.60    1.70
  -4 -10  -1   61.59    5.60
   4 -10   1   67.29    6.90
  -4  10  -1   72.59    5.10
   5 -10   1   16.30    3.90
  -5 -10  -1    9.80    2.60
  -5  10  -1   11.90    2.80
  -6 -10  -1   32.50    4.40
   6 -10   1   34.00    5.20
  -6  10  -1   32.30    4.10
  -7 -10  -1    1.40    2.00
   7 -10   1    1.10    2.60
  -7  10  -1    3.50    2.20
   8 -10   1  114.89    8.50
  -8 -10  -1  110.59    7.20
  -8  10  -1  111.99    6.90
   9 -10   1   13.40    4.10
  -9 -10  -1    6.90    2.80
  -9  10  -1   12.10    3.10
 -10 -10  -1   74.49    7.00
  10 -10   1   67.39    7.80
 -10  10  -1   70.49    6.40
  11 -10   1   30.60    5.90
 -11 -10  -1   36.30    5.20
 -11  10  -1   48.20    5.50
  12 -10   1    0.30    3.10
 -12 -10  -1    0.00    2.50
 -12  10  -1    0.00    2.50
  13 -10   1   14.00    4.80
 -13 -10  -1   13.10    3.80
 -13  10  -1    9.80    3.50
  14 -10   1    8.80    4.40
 -14 -10  -1   10.20    3.70
 -14  10  -1    6.00    3.20
  15 -10   1    1.90    3.90
 -15 -10  -1   -1.40    3.00
 -15  10  -1   -1.50    2.50
  16 -10   1    3.90    4.60
 -16 -10  -1   -2.80    2.80
 -16  10  -1   -2.20    2.90
  15 -11  -1    5.80    4.30
 -15 -11   1   -1.50    2.50
 -15  11   1    2.70    3.00
 -14 -11   1    2.00    3.10
  14 -11  -1   -2.00    3.50
 -14  11   1   -1.50    2.40
 -13 -11   1   10.60    3.50
  13 -11  -1   12.80    5.00
 -13  11   1    8.30    3.60
 -12 -11   1   41.80    5.50
  12 -11  -1   39.70    6.80
 -12  11   1   44.80    5.40
  11 -11  -1   15.40    4.80
 -11 -11   1   23.70    4.20
 -11  11   1   23.00    4.20
 -10 -11   1   80.69    7.00
  10 -11  -1   66.99    8.20
 -10  11   1   70.79    6.50
  -9 -11   1   35.60    4.90
   9 -11  -1   41.30    6.50
  -9  11   1   38.50    4.90
   8 -11  -1   30.20    5.50
  -8 -11   1   34.80    4.40
  -8  11   1   30.00    4.40
  -7 -11   1    4.90    2.30
   7 -11  -1    3.80    3.00
  -7  11   1   -2.10    1.80
  -6 -11   1    4.70    2.40
   6 -11  -1    8.30    3.60
  -6  11   1    6.50    2.50
  -5 -11   1  524.55   18.00
   5 -11  -1  502.05   20.30
  -5  11   1  554.44   18.50
   4 -11  -1   66.69    6.20
  -4 -11   1   71.39    5.20
   4 -11  -1   72.59    7.70
  -4  11   1   68.89    5.20
   3 -11  -1  914.61   29.40
   3 -11  -1  991.30   31.90
  -3 -11   1  946.31   28.80
  -3  11   1  945.81   29.00
   2 -11  -1    0.20    1.90
  -2 -11   1   -1.20    1.60
   2 -11  -1    2.50    2.10
  -2  11   1   -0.30    1.80
  -2  11   1    0.80    0.50
   1 -11  -1    8.10    3.30
  -1 -11   1    9.20    2.60
   1 -11  -1    7.30    2.60
  -1  11   1   11.80    2.70
  -1  11   1   10.30    1.40
   1  11  -1   12.50    2.70
   0 -11   1   50.29    6.00
   0 -11   1   37.40    4.10
   0 -11  -1   44.70    5.70
   0 -11  -1   37.50    4.40
   0  11   1   41.90    2.70
   0  11  -1   32.30    3.90
  -1 -11  -1  362.96   15.00
   1 -11   1  346.77   15.20
   1 -11   1  338.57   12.80
  -1 -11  -1  376.66   13.90
  -1  11  -1  346.17   10.10
  -1  11  -1  357.26   13.20
   2 -11   1   17.00    4.00
  -2 -11  -1   11.20    2.90
  -2  11  -1   11.90    2.70
   3 -11   1  173.78   10.30
  -3 -11  -1  178.78    8.90
   3 -11   1  193.68    8.60
  -3  11  -1  184.18    8.70
   4 -11   1    3.30    2.80
  -4 -11  -1    0.60    2.10
  -4  11  -1    3.30    2.20
  -5 -11  -1   75.49    6.50
   5 -11   1   64.59    7.40
  -5  11  -1   67.09    5.80
  -6 -11  -1   33.00    4.50
   6 -11   1   46.60    6.30
  -6  11  -1   33.20    4.30
  -7 -11  -1   59.29    5.90
   7 -11   1   58.99    7.40
  -7  11  -1   58.99    5.80
  -8 -11  -1    1.00    2.20
   8 -11   1    6.00    3.50
  -8  11  -1   -0.30    2.30
  -9 -11  -1   -1.10    2.30
   9 -11   1    0.80    2.80
  -9  11  -1    3.10    2.50
 -10 -11  -1    6.40    3.00
  10 -11   1   14.70    4.60
 -10  11  -1   11.70    3.30
  11 -11   1  145.49   10.70
 -11 -11  -1  145.29    9.10
 -11  11  -1  157.68    9.00
 -12 -11  -1   64.29    7.20
  12 -11   1   61.99    8.30
 -12  11  -1   59.79    6.50
  13 -11   1   34.80    7.00
 -13 -11  -1   37.70    5.80
 -13  11  -1   37.30    5.40
  14 -11   1    0.00    3.70
 -14 -11  -1   -3.30    2.40
 -14  11  -1    1.30    2.80
  15 -11   1   32.40    6.80
 -15 -11  -1   33.40    5.90
 -15  11  -1   33.20    5.40
 -14 -12   1    0.20    2.70
  14 -12  -1    2.80    4.00
 -14  12   1    1.10    3.10
 -13 -12   1    3.50    3.20
  13 -12  -1    4.20    4.10
 -13  12   1    6.10    3.30
  12 -12  -1    2.10    3.50
 -12 -12   1    2.10    2.80
 -12  12   1    4.10    2.90
  11 -12  -1    0.80    3.10
 -11 -12   1   -3.00    2.30
 -11  12   1    2.10    2.70
 -10 -12   1    6.20    2.90
  10 -12  -1   17.20    4.80
 -10  12   1   11.00    3.50
  -9 -12   1   19.70    3.90
   9 -12  -1   27.40    5.70
  -9  12   1   28.30    4.50
   8 -12  -1   52.69    7.50
  -8 -12   1   44.50    5.20
  -8  12   1   50.59    5.60
   7 -12  -1   55.79    7.40
  -7 -12   1   57.49    5.70
  -7  12   1   59.29    5.90
  -6 -12   1    2.40    2.00
   6 -12  -1    2.00    3.10
  -6  12   1    2.70    2.30
   5 -12  -1   17.20    4.40
   5 -12  -1   24.80    4.10
  -5 -12   1   27.40    4.00
  -5  12   1   23.00    3.80
  -4 -12   1    1.50    2.00
   4 -12  -1   -1.70    2.50
   4 -12  -1    2.30    2.40
  -4  12   1   -1.00    1.90
   3 -12  -1  144.49    9.70
  -3 -12   1  158.78    7.90
   3 -12  -1  145.59    8.30
  -3  12   1  161.88    8.20
  -2 -12   1    7.80    2.50
   2 -12  -1    9.40    2.90
   2 -12  -1   11.10    3.70
  -2  12   1    9.20    2.80
   1 -12  -1   97.29    7.90
  -1 -12   1  111.09    6.50
   1 -12  -1  119.59    7.20
   1  12  -1  117.19    6.70
  -1  12   1  122.69    7.00
   0 -12   1    1.00    2.90
   0 -12  -1    1.60    2.20
   0 -12  -1    1.70    2.70
   0 -12   1    3.70    2.10
   0  12   1    3.00    1.40
   0  12  -1    2.50    2.30
   1 -12   1   -0.30    2.80
   1 -12   1    2.50    1.90
  -1 -12  -1    2.70    2.90
  -1 -12  -1    0.00    2.20
  -1  12  -1   -1.30    1.80
   2 -12   1    9.80    3.70
  -2 -12  -1    7.90    2.90
   2 -12   1   11.10    2.70
  -2  12  -1    8.80    2.70
   3 -12   1   70.79    5.40
   3 -12   1   81.19    8.40
  -3 -12  -1   72.29    6.50
  -3  12  -1   92.59    6.00
   4 -12   1   11.30    3.00
  -4 -12  -1   19.50    3.70
   4 -12   1   22.30    4.70
  -4  12  -1   20.30    3.40
  -5 -12  -1  305.17   12.90
   5 -12   1  302.07   15.00
  -5  12  -1  303.97   12.60
  -6 -12  -1   15.60    3.50
   6 -12   1   27.00    5.10
  -6  12  -1   21.50    3.90
   7 -12   1   21.90    5.20
  -7 -12  -1   16.50    3.70
  -7  12  -1   14.70    3.50
  -8 -12  -1   85.89    7.60
   8 -12   1   90.09    9.30
  -8  12  -1   80.19    7.10
  -9 -12  -1   51.39    6.30
   9 -12   1   64.29    8.40
  -9  12  -1   51.19    5.90
  10 -12   1   30.10    6.00
 -10 -12  -1   16.80    4.00
 -10  12  -1   21.70    4.40
  11 -12   1   46.40    7.50
 -11 -12  -1   35.30    5.40
 -11  12  -1   34.50    5.20
 -12 -12  -1   47.30    6.20
  12 -12   1   55.19    8.20
 -12  12  -1   48.80    6.10
 -13 -12  -1   -1.30    2.60
  13 -12   1    2.30    3.90
 -13  12  -1    1.90    3.10
  14 -12   1   11.00    5.00
 -14 -12  -1    7.40    3.70
 -14  12  -1    9.60    4.00
  13 -13  -1  105.39   12.00
 -13 -13   1  135.39    9.20
 -13  13   1  142.79    9.30
 -12 -13   1   26.10    4.90
  12 -13  -1   30.80    6.90
 -12  13   1   21.50    4.60
 -11 -13   1    4.50    2.90
  11 -13  -1   16.70    5.50
 -11  13   1    7.40    3.50
  10 -13  -1   22.20    5.70
 -10 -13   1   25.20    4.50
 -10  13   1   21.50    4.40
  -9 -13   1    0.50    2.50
   9 -13  -1    3.20    3.80
  -9  13   1   -2.40    2.40
  -8 -13   1    9.40    3.20
   8 -13  -1   17.10    5.10
  -8  13   1   15.50    4.00
  -7 -13   1    5.40    2.70
   7 -13  -1    0.30    3.10
  -7  13   1    4.80    2.90
   6 -13  -1   -0.40    2.90
   6 -13  -1   -0.90    2.30
  -6 -13   1    2.50    2.30
  -6  13   1    2.70    2.60
   5 -13  -1   22.60    5.20
   5 -13  -1   17.30    3.80
  -5 -13   1   23.40    4.00
  -5  13   1   20.20    4.00
  -4 -13   1   -1.30    1.90
   4 -13  -1    2.80    3.20
   4 -13  -1   -1.50    2.20
  -4  13   1    0.00    2.30
   3 -13  -1   34.10    6.00
  -3 -13   1   42.90    4.80
   3 -13  -1   41.80    5.00
  -3  13   1   49.50    5.50
  -2 -13   1   30.10    4.10
   2 -13  -1   32.60    5.70
   2 -13  -1   31.70    4.50
  -2  13   1   35.00    4.60
   1 -13  -1  106.29    7.00
   1 -13  -1   94.79    9.10
  -1 -13   1   95.89    6.40
   0 -13  -1    1.80    2.90
   0 -13   1    4.40    2.30
   0 -13  -1    4.20    2.60
   0  13  -1    2.70    2.30
   1 -13   1   74.49    5.50
  -1 -13  -1   80.49    6.80
   1 -13   1   63.49    7.70
  -1  13  -1   69.79    6.30
   2 -13   1   60.79    5.60
  -2 -13  -1   59.49    6.00
   2 -13   1   50.09    6.90
  -2  13  -1   55.59    5.60
   3 -13   1   -0.90    1.90
   3 -13   1   -2.40    2.50
  -3 -13  -1    1.30    2.20
  -3  13  -1    0.60    2.30
   4 -13   1   69.29    6.20
  -4 -13  -1   76.39    6.90
   4 -13   1   78.99    8.70
  -4  13  -1   63.29    6.30
   5 -13   1    1.60    3.20
  -5 -13  -1    1.80    2.40
   5 -13   1    0.10    2.00
  -5  13  -1    7.60    2.80
   6 -13   1   81.99    9.10
  -6 -13  -1   80.69    7.20
  -6  13  -1   76.19    7.00
  -7 -13  -1   11.20    3.70
   7 -13   1   17.20    5.10
  -7  13  -1   20.30    4.20
  -8 -13  -1   12.90    3.70
   8 -13   1    8.50    4.30
  -8  13  -1   14.40    3.70
   9 -13   1   -3.00    3.00
  -9 -13  -1    2.40    2.50
  -9  13  -1   -0.20    2.60
  10 -13   1   35.10    6.90
 -10 -13  -1   29.10    4.90
 -10  13  -1   30.30    5.10
 -11 -13  -1    4.40    3.30
  11 -13   1    0.40    3.70
 -11  13  -1    5.60    3.60
 -12 -13  -1    7.80    3.90
  12 -13   1   13.60    5.20
 -12  13  -1    8.60    3.80
  11 -14  -1   36.00    7.50
 -11  14   1   44.40    6.10
  10 -14  -1   48.50    8.20
 -10  14   1   51.89    6.40
   9 -14  -1   -2.60    3.40
  -9  14   1    5.80    3.10
   8 -14  -1    1.60    3.60
  -8  14   1    0.90    2.80
   7 -14  -1   -6.00    3.00
   7 -14  -1    2.60    2.70
  -7 -14   1   -3.60    3.80
  -7  14   1    2.00    2.60
  -6 -14   1    9.40    3.30
   6 -14  -1   13.30    3.80
   6 -14  -1   10.70    4.60
  -6  14   1   10.40    3.40
   5 -14  -1    2.30    3.30
  -5 -14   1    3.80    2.60
   5 -14  -1    4.80    2.90
  -5  14   1   -0.70    2.40
   4 -14  -1   15.80    4.70
  -4 -14   1   13.30    3.20
   4 -14  -1   15.80    3.50
  -4  14   1   15.10    3.70
   3 -14  -1   45.40    6.90
  -3 -14   1   56.19    5.60
   3 -14  -1   58.69    6.10
  -3  14   1   49.70    5.80
  -2 -14   1   31.90    4.30
   2 -14  -1   27.30    4.30
   2 -14  -1   21.50    5.30
  -1 -14   1    5.60    2.50
   1 -14  -1    8.40    3.90
   1 -14  -1    7.70    2.90
   0 -14   1  103.49    6.70
   0 -14  -1  103.69    7.30
   0 -14  -1  106.09   10.10
   0  14  -1  115.79    7.30
   1 -14   1   15.40    3.40
  -1 -14  -1   20.10    3.80
   1 -14   1   18.00    4.80
  -1  14  -1   13.50    3.50
   2 -14   1   21.40    3.80
   2 -14   1    9.30    4.40
  -2 -14  -1   13.40    3.50
  -2  14  -1   21.80    4.00
   3 -14   1   11.30    4.60
   3 -14   1    5.50    3.80
  -3 -14  -1    3.10    2.70
  -3  14  -1    5.70    2.80
  -4 -14  -1   54.89    6.10
   4 -14   1   60.79    8.10
  -4  14  -1   56.09    6.20
  -5 -14  -1  145.19    8.80
   5 -14   1  150.48   11.10
  -5  14  -1  147.99    8.90
   6 -14   1    3.90    3.70
  -6 -14  -1   -3.50    2.20
  -6  14  -1    0.10    2.40
   7 -14   1   88.19   10.10
  -7 -14  -1   84.29    7.90
  -7  14  -1   81.69    7.70
   8 -14   1   18.20    5.60
  -8 -14  -1   21.10    4.50
  -8  14  -1   24.30    4.70
   9 -14   1   44.10    7.80
  -9 -14  -1   31.20    5.50
  -9  14  -1   33.90    5.50
 -10 -14  -1   28.30    5.20
  10 -14   1   21.30    6.20
 -10  14  -1   38.30    5.70
  11 -14   1   15.60    5.60
 -11 -14  -1   16.60    4.70
 -11  14  -1    9.20    3.90
   9 -15  -1   26.40    6.80
  -9  15   1   32.30    5.50
   8 -15  -1  116.29   12.00
  -8  15   1   98.19    8.80
   7 -15  -1   27.80    6.60
  -7  15   1   22.90    4.80
   6 -15  -1   17.20    5.40
  -6  15   1   12.30    3.80
   5 -15  -1    1.00    3.60
  -5  15   1    4.00    2.90
   4 -15  -1   14.10    5.60
   4 -15  -1   13.20    4.80
  -4  15   1   13.60    3.80
   3 -15  -1    5.00    3.80
   3 -15  -1   11.20    3.60
   2 -15  -1   -0.50    2.20
   2 -15  -1   -4.30    2.70
   1 -15  -1  216.98   13.30
   0 -15  -1   10.70    3.60
  -1 -15  -1   17.10    3.90
  -1  15  -1   16.60    4.00
   2 -15   1   -0.10    3.10
  -2 -15  -1    0.20    2.30
  -2  15  -1   -4.70    1.90
  -3 -15  -1   -1.70    2.40
   3 -15   1    0.90    3.70
  -3  15  -1    2.30    2.80
   4 -15   1    3.10    4.10
  -4 -15  -1    5.00    3.00
  -4  15  -1    8.60    3.50
   5 -15   1    8.60    4.50
  -5 -15  -1    7.60    3.50
  -5  15  -1    5.20    3.00
   6 -15   1   54.29    8.40
  -6 -15  -1   51.09    8.00
  -6  15  -1   59.59    6.80
   7 -15   1   13.00    5.10
  -7  15  -1    9.30    3.50
   8 -15   1   33.70    7.10
  -8  15  -1   23.90    5.00
   9 -15   1   32.90    7.40
  -9  15  -1   27.60    5.10
   6 -16  -1   36.40    7.60
  -6  16   1   33.00    5.40
   5 -16  -1   -1.60    3.80
  -5  16   1    2.70    2.90
   4 -16  -1   44.00    7.60
   3 -16  -1    3.50    4.20
   2 -16  -1   33.00    6.80
  -2  16  -1   40.00    5.70
   3 -16   1   20.30    5.90
  -3  16  -1   20.50    4.50
   4 -16   1   27.90    6.50
  -4  16  -1   18.10    4.40
   5 -16   1   -2.10    3.70
  -5  16  -1   -0.70    2.80
   6 -16   1   22.00    6.20
  -6  16  -1   18.00    4.70
  20   0  -2   59.29    7.90
  19   0  -2    3.20    3.70
  18   0  -2    0.70    3.10
  17   0  -2   -2.20    2.70
 -16   0   2   -0.80    1.40
  16   0  -2   -1.00    2.30
  15   0  -2    3.10    2.40
 -15   0   2    2.00    1.50
 -14   0   2    4.20    1.60
 -13   0   2   -0.40    1.10
 -12   0   2   -1.50    0.90
 -11   0   2    0.50    1.00
 -10   0   2  756.52   21.50
  -9   0   2   -1.20    0.70
  -8   0   2  140.29    5.10
   8   0  -2  143.39    6.20
   7   0  -2   -0.10    0.90
  -7   0   2    0.10    0.60
   7   0  -2    0.40    0.60
   6   0  -2 2779.72   77.29
  -6   0   2 2838.22   76.99
   6   0  -2 2956.20   76.09
   5   0  -2   -0.90    0.40
  -5   0   2   -0.10    0.50
   5   0  -2    0.90    0.90
   4   0  -2  451.75   13.10
  -4   0   2  461.25   12.20
   4   0  -2  447.56   12.30
  -3   0   2    0.30    0.20
   3   0  -2    0.00    0.30
  -1   0   2   -0.70    0.40
   1   0  -2   -0.80    0.30
   1   0  -2   -0.10    0.40
  -1   0   2   -0.60    0.30
   0   0  -2   67.19    2.50
   0   0   2   66.29    2.50
   0   0   2   65.09    2.40
   0   0  -2   68.09    2.40
   0   0   2   65.49    2.50
  -1   0  -2   -0.70    0.20
   1   0   2   -0.80    0.50
   1   0   2   -0.70    0.50
  -1   0  -2   -0.80    0.50
  -2   0  -2 1087.79   29.50
   2   0   2 1086.39   29.40
   2   0   2 1105.49   29.30
  -2   0  -2 1074.29   29.30
  -3   0  -2    2.20    0.90
   3   0   2   -0.50    0.70
   3   0   2    0.80    0.50
  -3   0  -2   -1.10    0.70
   4   0   2    2.90    1.00
  -4   0  -2    6.60    1.30
  -4   0  -2    8.30    1.40
   4   0   2    6.20    1.00
  -5   0  -2    0.40    1.00
  -5   0  -2    2.20    1.10
   5   0   2   -0.50    0.70
   5   0   2   -0.50    0.60
  -6   0  -2    1.50    1.20
   6   0   2    4.40    1.40
  -6   0  -2    4.70    1.40
   6   0   2    4.10    1.10
  -7   0  -2   -0.60    1.10
   7   0   2   -0.30    0.90
   7   0   2    0.20    1.00
  -7   0  -2   -0.20    1.00
  -8   0  -2  632.64   19.70
   8   0   2  633.94   19.20
  -8   0  -2  635.84   19.50
   9   0   2   -0.20    1.10
  -9   0  -2   -1.80    1.10
  -9   0  -2   -1.00    1.30
 -10   0  -2  575.24   18.50
  10   0   2  550.54   17.90
 -10   0  -2  556.14   18.10
 -11   0  -2   -1.70    1.40
 -11   0  -2   -0.80    1.40
  11   0   2   -0.20    1.50
 -12   0  -2  124.29    7.10
 -12   0  -2  144.89    7.20
  12   0   2  125.19    6.90
 -13   0  -2   -2.00    1.50
  13   0   2    0.70    1.70
 -13   0  -2   -1.70    1.20
 -14   0  -2   78.19    6.80
  14   0   2   73.19    5.70
 -14   0  -2   78.29    5.60
  15   0   2    0.80    2.20
 -15   0  -2   -0.20    2.20
 -15   0  -2   -1.90    1.90
 -16   0  -2   38.80    4.80
 -16   0  -2   36.90    5.20
  16   0   2   50.19    5.70
 -17   0  -2    0.00    2.40
  17   0   2   -2.10    2.30
 -17   0  -2    2.50    2.50
  18   0   2   10.50    3.60
 -18   0  -2    7.60    3.00
  19   0   2    1.50    3.40
  20  -1  -2    2.50    3.60
  20   1  -2    4.50    3.40
  19  -1  -2   83.69    9.20
  19   1  -2   69.49    8.40
  18  -1  -2    3.90    3.30
  18   1  -2    3.40    3.30
  17  -1  -2    3.30    2.90
 -17   1   2    1.80    1.60
  16  -1  -2   26.60    5.00
 -16  -1   2   21.30    2.80
 -16   1   2   18.20    2.80
  15  -1  -2   11.30    3.40
 -15  -1   2    9.90    2.00
 -15   1   2    3.50    1.90
  14  -1  -2  158.18    9.10
 -14  -1   2  152.78    6.60
 -14   1   2  157.18    6.80
 -13  -1   2  108.19    5.10
  13  -1  -2  107.99    7.30
 -13  -1   2  116.09    6.60
 -13   1   2  115.69    5.40
  12  -1  -2  201.48    9.60
 -12  -1   2  185.58    8.60
 -12  -1   2  175.18    7.00
 -12   1   2  191.78    7.20
 -11  -1   2   47.40    4.40
 -11  -1   2   46.90    3.00
 -11   1   2   54.59    3.30
 -10  -1   2   43.50    4.00
 -10  -1   2   43.80    2.70
  10  -1  -2   41.60    3.60
 -10   1   2   34.60    2.60
  -9  -1   2  162.88    5.80
   9  -1  -2  161.58    6.20
  -9  -1   2  170.88    7.10
  -9   1   2  162.68    6.00
  -8  -1   2  547.05   16.90
   8  -1  -2  551.64   16.90
  -8  -1   2  538.65   15.50
   8  -1  -2  547.95   16.00
   8   1  -2  523.25   16.90
  -8   1   2  555.44   15.70
  -7  -1   2  150.78    4.90
   7  -1  -2  141.59    5.20
   7  -1  -2  148.79    5.90
  -7  -1   2  141.39    5.90
   7   1  -2  155.88    6.10
  -7   1   2  134.79    5.00
   6  -1  -2   34.50    2.50
  -6  -1   2   46.20    2.10
  -6  -1   2   52.39    2.90
   6  -1  -2   52.29    2.50
  -6   1   2   49.90    2.30
   6   1  -2   46.00    2.80
   5  -1  -2   29.50    1.70
  -5  -1   2   27.40    1.30
  -5  -1   2   30.80    2.10
   5   1  -2   29.60    2.10
  -5   1   2   28.50    1.60
   4  -1  -2  165.08    5.10
  -4  -1   2  163.98    4.70
  -4  -1   2  158.88    5.50
  -4   1   2  171.88    5.50
  -4   1   2  166.68    5.00
   4   1  -2  169.08    5.60
  -3  -1   2   74.39    2.80
   3  -1  -2   72.59    2.50
   3   1  -2   75.59    2.90
  -3   1   2   71.19    2.90
  -3   1   2   73.29    2.50
  -2  -1   2  204.28    5.70
   2  -1  -2  213.78    6.30
   2  -1  -2  208.88    6.00
   2  -1  -2  206.88    6.20
   2   1  -2  215.48    5.70
   2   1  -2  206.88    6.00
  -2   1   2  201.68    6.00
  -2   1   2  229.28    6.40
   1  -1  -2    3.20    0.80
  -1  -1   2    2.50    0.60
   1  -1  -2    2.10    0.70
   1  -1  -2    2.40    0.80
  -1  -1   2    1.90    0.60
   1   1  -2    2.50    0.70
  -1   1   2    2.60    0.70
   1   1  -2    1.10    0.50
  -1   1   2    1.90    0.80
   1   1  -2    2.00    0.70
   0  -1   2   48.70    1.90
   0  -1   2   50.99    2.30
   0  -1  -2   54.89    2.50
   0  -1  -2   49.99    2.20
   0  -1   2   48.50    2.40
   0  -1   2   50.29    2.30
   0  -1  -2   49.00    2.60
   0   1  -2   49.70    2.30
   0   1  -2   48.50    1.90
   0   1  -2   51.49    2.40
   0   1   2   50.39    2.20
   0   1  -2   51.49    2.30
   0   1   2   50.39    2.50
  -1  -1  -2  522.65   14.90
   1  -1   2  519.95   14.50
   1  -1   2  525.65   14.50
  -1  -1  -2  525.75   14.00
   1  -1   2  518.35   14.30
   1   1   2  541.45   14.00
  -1   1  -2  533.75   14.30
  -1   1  -2  529.05   14.50
  -1   1  -2  543.15   14.90
  -1   1  -2  536.05   14.50
   2  -1   2   22.60    1.50
   2  -1   2   25.60    1.50
   2  -1   2   26.90    1.80
  -2  -1  -2   23.00    2.00
  -2   1  -2   26.50    1.50
  -2   1  -2   23.00    1.40
  -2   1  -2   21.70    1.90
   3  -1   2  135.39    4.80
  -3  -1  -2  134.89    5.20
   3  -1   2  136.49    4.80
   3  -1   2  141.79    5.20
  -3   1  -2  141.99    4.80
  -3   1  -2  130.09    5.10
  -3   1  -2  144.79    4.80
   4  -1   2  265.27    8.40
  -4  -1  -2  268.67    8.90
   4  -1   2  276.77    8.90
   4  -1   2  248.38    8.50
  -4   1  -2  280.07    8.40
  -4   1  -2  264.07    8.90
  -4   1  -2  265.17    8.50
  -5  -1  -2   -0.40    0.80
   5  -1   2    0.10    0.90
   5  -1   2    0.20    0.90
   5  -1   2   -0.50    0.50
   5   1   2   -0.60    0.40
  -5   1  -2    0.60    1.10
  -5   1  -2    1.30    1.00
  -6  -1  -2  138.79    5.90
   6  -1   2  146.09    5.90
  -6  -1  -2  138.59    6.00
   6  -1   2  146.79    5.80
  -6   1  -2  135.59    5.80
  -6   1  -2  137.59    5.70
   7  -1   2    1.70    1.20
  -7  -1  -2    2.10    1.30
   7  -1   2    1.90    1.20
  -7  -1  -2    1.10    1.20
   7   1   2    1.20    1.10
  -7   1  -2    1.50    1.20
  -7   1  -2    0.10    1.10
   8  -1   2    7.10    1.70
  -8  -1  -2   10.60    2.10
  -8  -1  -2    5.70    1.70
   8  -1   2    8.00    2.10
  -8   1  -2    7.00    1.80
  -8   1  -2    3.70    1.60
  -9  -1  -2  200.88    8.50
  -9  -1  -2  198.18    8.20
   9  -1   2  194.28    8.20
  -9   1  -2  201.08    8.20
  -9   1  -2  201.28    8.30
  10  -1   2    0.70    1.30
 -10  -1  -2    1.60    1.50
 -10  -1  -2    1.50    1.70
 -10   1  -2   -1.60    1.20
 -10   1  -2   -2.00    1.30
 -11  -1  -2  119.39    6.30
 -11  -1  -2  106.49    6.40
  11  -1   2  115.49    6.40
 -11   1  -2  107.19    6.00
 -11   1  -2  111.99    6.20
  12  -1   2    5.40    2.10
 -12  -1  -2    3.30    2.10
 -12  -1  -2    0.20    1.50
 -12   1  -2    4.20    2.10
 -12   1  -2    1.00    1.60
 -13  -1  -2   34.40    4.10
  13  -1   2   32.70    4.30
 -13  -1  -2   35.60    4.60
 -13   1  -2   29.80    4.00
 -13   1  -2   36.90    4.60
  13   1   2   35.10    4.30
 -14  -1  -2   20.50    3.80
 -14  -1  -2   17.00    3.30
  14  -1   2   30.30    4.40
 -14   1  -2   22.70    4.00
  14   1   2   21.00    3.60
 -14   1  -2   23.50    3.70
 -15  -1  -2   32.70    4.40
  15  -1   2   25.80    4.40
 -15  -1  -2   23.90    4.20
  15   1   2   24.30    4.00
 -15   1  -2   21.00    3.70
 -15   1  -2   26.80    4.40
 -16  -1  -2   25.70    4.50
 -16  -1  -2   22.30    3.90
  16  -1   2   32.10    4.90
 -16   1  -2   24.80    4.10
  16   1   2   24.20    4.10
 -17  -1  -2    4.10    2.90
 -17  -1  -2   -0.60    2.10
  17  -1   2    1.20    2.40
 -17   1  -2   -0.60    2.10
  17   1   2    3.10    2.60
  18  -1   2    2.90    2.90
 -18  -1  -2    3.80    2.70
 -18  -1  -2    1.00    2.90
 -18   1  -2    6.50    2.70
  18   1   2   12.20    3.50
  19  -1   2    6.30    3.50
 -19   1  -2    8.80    3.90
  20  -2  -2    5.80    4.20
  20   2  -2    3.10    3.40
  19  -2  -2    1.80    3.50
  19   2  -2   -4.00    2.50
  18  -2  -2   83.59    9.00
  17  -2  -2   26.00    5.60
 -17   2   2   25.80    3.40
 -16  -2   2   17.10    2.60
  16  -2  -2   17.30    4.30
 -16   2   2   19.10    2.90
  15  -2  -2    5.40    2.90
 -15  -2   2    2.10    1.50
 -15  -2   2    6.50    2.80
 -15   2   2    5.70    2.00
 -14  -2   2  197.88    8.00
  14  -2  -2  197.58   10.70
 -14  -2   2  240.78   10.50
 -14   2   2  222.78    8.50
 -13  -2   2    5.80    2.50
  13  -2  -2   13.50    3.40
 -13  -2   2   13.30    2.10
 -13   2   2   13.40    2.20
  12  -2  -2   -1.40    1.80
 -12  -2   2    1.00    1.20
 -12  -2   2    1.00    1.80
 -12   2   2    3.50    1.50
 -11  -2   2   15.60    2.00
  11  -2  -2    8.30    2.70
 -11  -2   2   11.90    2.50
 -11   2   2   11.00    2.00
 -10  -2   2  414.36   14.10
  10  -2  -2  406.66   15.10
 -10  -2   2  414.76   12.60
 -10   2   2  413.76   12.90
  -9  -2   2  436.56   14.40
   9  -2  -2  440.66   15.50
  -9  -2   2  423.36   12.90
  -9   2   2  439.36   13.30
  -8  -2   2    7.30    1.20
  -8  -2   2    9.20    1.90
   8  -2  -2   10.00    1.60
   8  -2  -2    8.30    1.70
   8  -2  -2    8.60    2.20
   8   2  -2    8.50    1.90
  -8   2   2    7.00    1.30
   7  -2  -2  294.97   10.90
   7  -2  -2  278.47    9.30
  -7  -2   2  296.87   10.00
   7  -2  -2  288.97    9.90
  -7   2   2  305.27    9.20
   7   2  -2  292.67   10.10
   6  -2  -2  682.63   19.00
   6  -2  -2  642.64   20.30
  -6  -2   2  672.13   19.50
   6   2  -2  697.83   19.70
  -6   2   2  656.83   18.70
  -5  -2   2   50.29    2.80
   5  -2  -2   51.49    3.40
   5  -2  -2   57.79    2.60
   5   2  -2   50.19    2.80
  -5   2   2   52.89    2.40
  -5   2   2   53.49    2.60
  -4  -2   2   41.70    2.40
   4  -2  -2   47.30    3.00
  -4  -2   2   45.50    1.60
   4  -2  -2   44.40    2.20
   4   2  -2   43.60    2.40
  -4   2   2   44.70    2.20
  -4   2   2   44.10    2.10
   3  -2  -2  284.07    9.40
   3  -2  -2  298.97    8.50
  -3  -2   2  293.47    8.50
   3  -2  -2  277.37    8.40
   3  -2  -2  292.17    8.30
  -3  -2   2  289.87    8.00
  -3   2   2  292.87    8.60
  -3   2   2  290.27    8.50
   3   2  -2  294.17    8.60
  -2  -2   2  668.53   18.00
   2  -2  -2  667.73   19.00
   2  -2  -2  663.53   18.30
   2  -2  -2  675.33   18.10
  -2  -2   2  676.03   17.90
   2  -2  -2  678.13   18.20
  -2   2   2  635.94   18.20
  -2   2   2  697.53   19.00
  -2   2   2  641.14   18.00
  -2   2   2  675.93   18.30
   2   2  -2  669.23   17.90
   2   2  -2  683.73   18.10
  -1  -2   2 1538.45   39.40
   1  -2  -2 1504.05   40.30
   1  -2  -2 1454.15   39.90
  -1  -2   2 1398.66   39.60
   1  -2  -2 1513.05   40.70
   1  -2  -2 1451.95   40.20
   1   2  -2 1513.55   40.90
  -1   2   2 1499.35   41.20
   1   2  -2 1521.55   39.80
  -1   2   2 1539.35   39.90
   0  -2   2   71.99    3.10
   0  -2   2   70.99    2.90
   0  -2  -2   71.99    2.90
   0  -2   2   73.79    2.50
   0  -2   2   74.69    2.60
   0  -2  -2   77.09    3.30
   0   2  -2   75.09    2.60
   0   2  -2   78.59    3.20
   0   2  -2   75.19    2.90
   0   2   2   70.99    2.90
   0   2   2   69.79    2.80
   0   2  -2   74.89    2.50
  -1  -2  -2  744.03   20.20
   1  -2   2  809.42   20.70
  -1  -2  -2  754.72   20.90
   1  -2   2  728.83   19.80
   1  -2   2  741.23   19.80
   1  -2   2  711.13   20.60
   1  -2   2  735.13   20.00
  -1   2  -2  747.53   20.70
  -1   2  -2  735.13   20.00
  -1   2  -2  751.62   19.80
   1   2   2  755.32   20.20
  -1   2  -2  739.03   20.60
   1   2   2  758.02   20.90
   2  -2   2 1149.98   30.80
   2  -2   2 1123.59   30.10
  -2  -2  -2 1175.58   31.10
   2  -2   2 1123.29   30.10
  -2   2  -2 1137.09   30.90
  -2   2  -2 1118.19   30.10
  -2   2  -2 1117.99   30.80
   2   2   2 1143.09   30.10
   2   2   2 1097.89   31.00
  -3  -2  -2  431.46   13.30
   3  -2   2  442.06   12.60
   3  -2   2  451.15   13.30
   3  -2   2  425.76   13.10
  -3   2  -2  446.56   13.10
  -3   2  -2  440.36   12.60
  -3   2  -2  444.56   13.20
   3   2   2  442.66   13.40
   4  -2   2  191.08    7.00
   4  -2   2  201.58    6.70
  -4  -2  -2  197.98    7.30
   4  -2   2  197.78    7.20
  -4   2  -2  206.98    6.70
  -4   2  -2  194.98    6.90
  -4   2  -2  195.88    7.10
  -5  -2  -2  367.16   12.00
   5  -2   2  373.56   11.80
  -5   2  -2  368.76   11.80
  -5   2  -2  386.66   11.70
  -5   2  -2  357.56   11.30
   5   2   2  338.57   11.90
   6  -2   2  167.28    6.80
  -6  -2  -2  180.88    7.20
   6  -2   2  167.28    6.60
  -6   2  -2  173.28    6.90
   6   2   2  180.68    7.20
  -6   2  -2  168.08    6.50
   7  -2   2   39.20    3.00
  -7  -2  -2   33.90    3.40
   7  -2   2   39.70    3.20
   7   2   2   52.89    3.60
  -7   2  -2   37.40    3.40
  -7   2  -2   43.00    3.10
  -8  -2  -2    1.00    1.50
   8  -2   2   -0.30    1.30
   8  -2   2    1.50    1.40
  -8   2  -2    0.80    1.30
  -8   2  -2    0.60    1.20
  -9  -2  -2    2.40    1.40
   9  -2   2    2.90    1.70
  -9  -2  -2    3.60    1.80
  -9   2  -2    2.60    1.60
  -9   2  -2    0.50    1.30
 -10  -2  -2    1.30    1.60
 -10  -2  -2    1.20    1.70
  10  -2   2    4.40    1.80
 -10   2  -2    3.70    1.80
 -10   2  -2    0.20    1.50
 -11  -2  -2  141.39    7.10
  11  -2   2  142.19    7.40
 -11  -2  -2  146.49    7.60
 -11   2  -2  148.59    7.30
 -11   2  -2  148.79    7.30
 -12  -2  -2   24.90    3.90
 -12  -2  -2   26.00    3.70
  12  -2   2   28.30    4.10
 -12   2  -2   30.90    3.90
 -12   2  -2   26.80    3.80
 -13  -2  -2   35.70    4.10
  13  -2   2   37.00    4.80
 -13  -2  -2   28.60    4.30
 -13   2  -2   33.10    4.10
 -14  -2  -2    5.40    2.70
 -14  -2  -2    8.70    2.70
  14  -2   2   11.40    3.40
 -14   2  -2    5.30    2.50
 -15  -2  -2    5.70    2.90
  15  -2   2    6.90    3.10
 -15  -2  -2    1.60    2.30
 -15   2  -2    4.10    2.50
  15   2   2    6.80    2.60
 -16  -2  -2   38.40    5.40
  16  -2   2   33.70    5.20
 -16  -2  -2   49.50    5.40
  16   2   2   37.50    5.10
 -16   2  -2   39.40    4.90
 -17  -2  -2   -0.30    2.30
  17  -2   2   -0.40    2.70
 -17  -2  -2    2.50    3.00
 -17   2  -2   -2.80    1.90
  17   2   2   -0.80    2.30
 -18  -2  -2   -1.10    2.20
  18  -2   2    0.00    2.80
 -18  -2  -2   -0.90    2.70
 -18   2  -2   -3.70    2.10
  18   2   2    5.00    2.80
  19  -2   2   -3.00    2.50
 -19  -2  -2    2.60    3.50
 -19   2  -2    1.50    2.60
  20  -3  -2    7.70    4.30
 -20   3   2    4.80    3.00
  19  -3  -2    7.00    4.00
 -19   3   2   17.30    3.70
  18  -3  -2    3.70    3.60
  17  -3  -2    5.00    3.50
 -17   3   2    4.90    2.20
  16  -3  -2    9.20    3.70
 -16  -3   2    7.40    3.10
 -16   3   2   10.10    2.40
  15  -3  -2  137.29    9.10
 -15  -3   2  119.09    7.70
 -15  -3   2  127.69    6.00
 -15   3   2  132.79    6.50
  14  -3  -2   15.40    3.90
 -14  -3   2   12.20    2.20
 -14  -3   2   19.70    3.60
 -14   3   2   16.70    2.60
  13  -3  -2   20.50    4.20
 -13  -3   2   17.30    3.30
 -13  -3   2   22.50    2.60
 -13   3   2   20.30    2.80
 -12  -3   2   48.70    4.80
 -12  -3   2   50.69    3.40
  12  -3  -2   58.19    6.20
 -12   3   2   51.39    3.70
 -11  -3   2    1.30    1.70
 -11  -3   2    0.00    1.00
  11  -3  -2   -0.70    2.00
 -11   3   2    2.90    1.30
  10  -3  -2   23.00    3.70
 -10  -3   2   31.90    3.50
 -10  -3   2   26.30    2.50
 -10   3   2   31.10    2.90
   9  -3  -2  442.16   15.90
  -9  -3   2  439.66   14.60
  -9   3   2  445.06   13.70
   8  -3  -2  159.78    7.60
  -8  -3   2  148.59    6.60
  -8   3   2  153.08    5.90
  -8   3   2  154.08    5.90
   8   3  -2  152.68    6.70
  -7  -3   2    2.40    1.20
   7  -3  -2    3.30    1.80
  -7   3   2    1.70    0.90
  -7   3   2    2.70    1.10
   7   3  -2    2.70    1.20
   6  -3  -2  280.87   10.50
  -6  -3   2  275.17    9.40
   6  -3  -2  296.37    9.20
   6   3  -2  275.67    9.50
  -6   3   2  276.77    8.90
  -6   3   2  279.17    8.80
   5  -3  -2   12.60    1.60
  -5  -3   2    9.50    0.90
   5  -3  -2    9.50    2.00
  -5  -3   2    9.70    1.50
  -5   3   2   10.40    1.40
  -5   3   2    9.40    1.20
   5   3  -2    9.10    1.40
   4  -3  -2   12.90    1.20
   4  -3  -2   11.00    1.10
   4  -3  -2    8.70    1.80
   4  -3  -2   10.60    1.40
  -4  -3   2    8.90    1.30
  -4  -3   2   10.40    1.00
  -4   3   2   10.60    1.30
  -4   3   2   11.50    1.40
   4   3  -2   11.90    1.50
   3  -3  -2  752.52   20.10
  -3  -3   2  759.32   20.50
  -3  -3   2  757.42   20.20
   3  -3  -2  757.22   20.60
   3  -3  -2  744.13   21.80
   3  -3  -2  748.03   20.30
  -3   3   2  743.43   20.60
  -3   3   2  726.03   20.40
   3   3  -2  736.33   20.10
   3   3  -2  745.03   20.60
  -2  -3   2 6704.33  170.58
   2  -3  -2 6573.84  169.48
   2  -3  -2 6322.67  171.28
   2  -3  -2 6058.09  174.58
   2  -3  -2 6320.37  172.68
  -2  -3   2 6428.56  171.28
  -2   3   2 6653.73  174.68
  -2   3   2 6559.24  172.98
  -2   3   2 6390.76  170.48
   2   3  -2 6153.18  169.98
   2   3  -2 6385.66  171.18
   1  -3  -2   12.30    1.60
  -1  -3   2    9.50    1.20
  -1  -3   2    8.80    0.80
   1  -3  -2   10.50    1.20
   1   3  -2    7.50    0.80
   1   3  -2    6.80    1.40
  -1   3   2   11.40    1.10
   1   3  -2   11.00    1.10
  -1   3   2   11.80    1.60
  -1   3   2    8.30    1.20
   0  -3   2   21.50    1.20
   0  -3  -2   22.30    1.80
   0  -3  -2   19.10    2.00
   0  -3   2   22.00    1.60
   0  -3   2   21.70    2.10
   0   3  -2   20.40    2.10
   0   3   2   22.10    2.00
   0   3  -2   19.90    1.20
   0   3  -2   19.40    1.70
   1  -3   2  425.56   11.70
  -1  -3  -2  408.26   12.90
   1  -3   2  423.86   11.60
   1  -3   2  460.65   12.80
   1  -3   2  420.66   13.00
  -1  -3  -2  441.36   12.60
  -1   3  -2  408.46   12.50
   1   3   2  433.76   12.60
   1   3   2  448.16   13.10
  -1   3  -2  426.86   11.80
  -1   3  -2  430.96   13.00
   2  -3   2 4431.16  119.09
   2  -3   2 4394.96  118.69
   2  -3   2 4383.56  121.39
  -2  -3  -2 4378.26  121.29
  -2   3  -2 4699.83  122.09
   2   3   2 4413.16  119.29
  -2   3  -2 4668.43  120.79
  -2   3  -2 4240.58  117.19
   2   3   2 4524.75  121.19
   3  -3   2 1217.38   34.20
  -3  -3  -2 1275.47   34.40
   3  -3   2 1207.28   33.10
   3  -3   2 1289.47   34.20
   3  -3   2 1209.58   32.80
   3   3   2 1249.68   34.30
  -3   3  -2 1168.18   33.80
  -3   3  -2 1244.18   34.20
   3   3   2 1255.17   33.40
   4  -3   2  111.79    5.10
   4  -3   2  110.89    4.30
  -4  -3  -2  108.49    5.10
   4   3   2  109.69    5.10
  -4   3  -2  120.49    5.00
   5  -3   2    3.50    1.40
  -5  -3  -2    1.30    1.30
   5  -3   2   -0.60    0.50
   5   3   2    2.30    1.40
  -5   3  -2    2.20    1.30
  -6  -3  -2  581.74   18.00
   6  -3   2  563.84   17.80
   6  -3   2  568.74   17.20
  -6   3  -2  540.55   17.40
   6   3   2  607.44   18.30
   7  -3   2    1.90    1.50
   7  -3   2    2.10    1.10
  -7  -3  -2    5.50    1.60
  -7   3  -2    4.90    1.60
   7   3   2    5.60    1.80
  -8  -3  -2  201.78    8.50
   8  -3   2  190.38    8.30
  -8   3  -2  195.18    8.00
   9  -3   2    8.10    2.30
  -9  -3  -2    7.20    2.20
  -9   3  -2    9.90    2.20
  10  -3   2    0.20    1.70
 -10  -3  -2    2.00    1.80
 -10   3  -2    2.10    1.70
 -11  -3  -2   20.00    3.10
  11  -3   2   21.20    3.50
 -11  -3  -2   31.60    4.10
 -11   3  -2   19.70    3.20
 -12  -3  -2   12.50    2.80
 -12  -3  -2    8.70    2.90
  12  -3   2   12.40    3.00
 -12   3  -2    8.80    2.40
 -13  -3  -2    1.90    1.90
 -13  -3  -2    2.50    2.20
  13  -3   2   -0.50    1.80
 -13   3  -2    1.40    2.10
  14  -3   2   37.30    5.20
 -14  -3  -2   34.60    4.40
 -14  -3  -2   43.10    5.40
 -14   3  -2   44.20    4.90
 -15  -3  -2  132.99    8.50
 -15  -3  -2  125.19    7.60
  15  -3   2  128.69    8.40
 -15   3  -2  144.39    7.90
  16  -3   2   31.50    5.50
 -16  -3  -2   35.20    5.20
 -16  -3  -2   26.40    4.30
 -16   3  -2   28.10    4.40
 -17  -3  -2    3.80    2.60
 -17  -3  -2    0.30    2.70
  17  -3   2   -2.10    2.80
 -17   3  -2   -1.40    2.00
  17   3   2    2.00    2.40
  18  -3   2   -0.90    2.90
 -18  -3  -2    0.10    2.70
 -18   3  -2    1.40    2.70
 -19  -3  -2   38.60    6.20
  19  -3   2   46.00    6.80
 -19   3  -2   45.90    5.70
  20  -4  -2    1.50    3.80
  19  -4  -2  165.98   11.60
 -19   4   2  152.38    8.50
 -18  -4   2    4.70    3.30
  18  -4  -2    1.80    3.60
 -18   4   2    4.40    2.50
 -18   4   2    1.70    2.20
  17  -4  -2    0.30    3.00
 -17  -4   2    1.60    2.70
 -17   4   2   -1.20    1.90
 -17   4   2   -1.40    1.80
  16  -4  -2   18.10    4.70
 -16  -4   2   27.30    4.60
 -16   4   2   20.90    3.50
 -16   4   2   19.20    3.20
  15  -4  -2   59.59    7.10
 -15  -4   2   70.79    4.50
 -15  -4   2   57.59    6.10
 -15   4   2   75.39    5.10
 -15   4   2   68.99    4.80
  14  -4  -2   -2.70    2.00
 -14  -4   2   -0.50    2.00
 -14  -4   2    1.60    1.50
 -14   4   2    1.80    1.70
 -14   4   2    2.00    1.80
 -13  -4   2  247.48   11.10
  13  -4  -2  287.77   13.00
 -13  -4   2  245.98    9.40
 -13   4   2  277.67   10.10
 -13   4   2  266.87   10.00
 -12  -4   2   34.40    3.20
  12  -4  -2   41.50    5.50
 -12  -4   2   28.30    3.90
 -12   4   2   26.50    3.20
 -12   4   2   32.90    3.30
 -11  -4   2  437.86   15.70
  11  -4  -2  447.26   17.20
 -11   4   2  464.95   14.80
 -11   4   2  459.95   14.50
 -10  -4   2  252.57   10.20
  10  -4  -2  263.37   11.60
 -10   4   2  258.07    9.00
 -10   4   2  264.27    9.40
  -9  -4   2    1.70    1.50
   9  -4  -2   -0.60    1.60
  -9   4   2    0.20    1.00
  -9   4   2    0.00    1.20
  -8  -4   2    2.00    1.30
   8  -4  -2    3.80    1.90
   8   4  -2    3.10    1.40
  -8   4   2    0.60    0.90
  -8   4   2   -0.10    1.10
  -7  -4   2  151.58    6.50
   7  -4  -2  146.69    7.50
  -7  -4   2  163.08    5.40
  -7   4   2  169.68    6.30
   7   4  -2  165.78    6.90
  -7   4   2  166.68    5.80
   6  -4  -2  148.79    7.30
  -6  -4   2  165.88    6.40
  -6  -4   2  156.08    5.20
  -6   4   2  148.09    5.90
  -6   4   2  168.78    5.70
   6   4  -2  169.88    6.50
   5  -4  -2 1267.07   33.50
   5  -4  -2 1329.07   36.40
  -5  -4   2 1232.58   34.60
  -5  -4   2 1235.68   33.60
  -5   4   2 1266.07   33.90
  -5   4   2 1229.08   34.40
   5   4  -2 1253.27   34.70
   4  -4  -2  626.74   19.70
   4  -4  -2  660.23   17.40
   4  -4  -2  649.74   17.60
  -4  -4   2  657.13   18.30
  -4  -4   2  648.64   17.70
   4   4  -2  593.64   18.20
  -4   4   2  636.64   17.80
  -4   4   2  633.64   18.30
  -3  -4   2    8.90    1.10
   3  -4  -2    6.90    1.70
   3  -4  -2    4.10    0.70
   3  -4  -2    6.00    1.20
  -3  -4   2    5.10    1.00
   3  -4  -2    5.70    0.90
  -3   4   2    4.90    1.10
   3   4  -2    5.00    1.00
   3   4  -2    6.30    1.00
  -2  -4   2    7.70    1.10
   2  -4  -2    9.00    1.10
   2  -4  -2    8.70    1.80
   2  -4  -2    9.90    1.30
  -2  -4   2   10.40    1.30
  -2   4   2    6.40    0.80
  -2   4   2    7.60    1.20
   2   4  -2    8.80    1.10
   2   4  -2    8.70    1.20
   1  -4  -2   46.80    2.50
  -1  -4   2   47.20    2.40
  -1  -4   2   46.40    2.10
   1  -4  -2   53.29    3.20
  -1   4   2   48.70    2.20
  -1   4   2   50.09    2.60
   1   4  -2   46.20    2.50
   0  -4  -2    8.10    1.60
   0  -4  -2    7.20    1.50
   0  -4   2    6.10    0.90
   0  -4   2    5.80    1.10
   0  -4   2    6.70    1.60
   0   4   2    6.50    1.40
   0   4  -2    5.20    1.10
   1  -4   2  136.89    5.70
   1  -4   2  127.19    3.90
  -1  -4  -2  132.69    5.20
  -1  -4  -2  138.79    5.60
  -1   4  -2  124.89    5.00
   1   4   2  129.59    5.40
  -1   4  -2  135.39    4.10
   1   4   2  135.19    5.30
  -2  -4  -2  754.42   21.30
   2  -4   2  745.93   22.00
  -2  -4  -2  746.33   21.90
   2  -4   2  755.12   19.90
  -2   4  -2  750.82   19.90
  -2   4  -2  746.93   21.30
   2   4   2  756.92   21.80
   2   4   2  723.53   21.30
   3  -4   2  104.49    3.40
   3  -4   2  108.29    5.20
  -3  -4  -2  100.59    4.90
   3  -4   2  104.29    4.00
  -3   4  -2  111.59    4.80
   3   4   2  104.19    4.90
   3   4   2  103.49    4.40
   4  -4   2  104.99    3.60
   4  -4   2  110.29    5.30
  -4  -4  -2  106.09    5.20
   4  -4   2   94.99    4.10
  -4   4  -2   99.19    4.70
   4   4   2  100.99    4.50
   4   4   2  108.99    5.20
  -5  -4  -2   87.69    4.90
   5  -4   2   88.99    5.00
  -5   4  -2   91.79    4.60
   5   4   2   97.09    5.00
  -6  -4  -2  116.99    5.80
   6  -4   2  107.19    4.90
   6  -4   2  109.79    5.70
   6   4   2  105.99    5.60
  -6   4  -2  104.29    5.20
   7  -4   2    0.00    1.20
  -7  -4  -2    4.60    1.80
   7  -4   2    4.10    1.80
  -7   4  -2    3.00    1.50
   8  -4   2   48.50    4.70
  -8  -4  -2   46.20    4.50
  -8   4  -2   52.29    3.90
   9  -4   2  125.89    7.00
  -9  -4  -2  129.29    6.90
  -9   4  -2  123.49    6.30
  10  -4   2  438.66   16.00
 -10  -4  -2  462.25   16.00
 -10   4  -2  412.76   15.00
  11  -4   2    9.80    3.00
 -11  -4  -2    9.60    2.80
 -11   4  -2    5.90    2.20
  12  -4   2    3.30    2.40
 -12  -4  -2   14.10    3.30
 -12  -4  -2    6.00    2.30
 -12   4  -2    6.30    2.50
 -13  -4  -2   62.29    6.30
 -13  -4  -2   61.19    5.70
  13  -4   2   59.19    6.30
 -13   4  -2   66.29    5.80
 -14  -4  -2   97.09    6.50
 -14  -4  -2   96.19    7.00
  14  -4   2   94.69    7.20
 -14   4  -2   99.09    6.50
 -15  -4  -2   63.39    6.80
 -15  -4  -2   63.19    6.00
  15  -4   2   59.59    6.80
 -15   4  -2   65.89    6.20
 -16  -4  -2   90.09    8.20
  16  -4   2   77.99    8.10
 -16  -4  -2   98.89    6.90
 -16   4  -2   93.89    6.90
 -17  -4  -2   70.39    6.60
  17  -4   2   79.59    8.30
 -17  -4  -2   74.99    7.80
 -17   4  -2   87.09    7.30
  18  -4   2    9.30    4.00
 -18  -4  -2   10.20    3.90
 -18   4  -2   15.10    3.90
  19  -4   2   -0.50    3.20
 -19   4  -2    3.30    2.80
  20  -5  -2   20.10    5.80
  19  -5  -2   -2.50    3.40
 -19  -5   2   -1.90    2.60
 -18  -5   2   30.20    5.30
  18  -5  -2   34.30    6.50
 -18   5   2   35.10    4.50
  17  -5  -2   64.89    8.20
 -17  -5   2   63.69    7.10
 -17   5   2   58.19    5.40
 -17   5   2   70.19    5.30
  16  -5  -2   27.80    5.60
 -16  -5   2   36.50    5.10
 -16   5   2   22.00    3.50
 -16   5   2   31.10    3.90
 -15  -5   2   70.89    7.30
 -15  -5   2   61.89    6.40
  15  -5  -2   67.89    7.90
 -15   5   2   64.49    4.80
 -15   5   2   67.79    5.00
 -14  -5   2    2.50    2.30
 -14  -5   2   -0.30    1.40
  14  -5  -2    5.10    3.40
 -14   5   2   -0.80    1.50
 -14   5   2    0.40    1.50
 -13  -5   2  243.78   10.90
 -13  -5   2  230.48    9.10
  13  -5  -2  236.78   12.30
 -13   5   2  253.57    9.40
 -13   5   2  248.28    9.70
  12  -5  -2   48.50    6.00
 -12  -5   2   38.80    4.50
 -12   5   2   30.50    3.50
 -12   5   2   35.70    3.40
 -11  -5   2  414.66   14.70
  11  -5  -2  400.46   16.30
 -11   5   2  391.36   13.60
 -11   5   2  404.56   13.00
  10  -5  -2   48.50    5.60
 -10  -5   2   53.79    4.80
 -10   5   2   60.69    4.10
 -10   5   2   61.59    3.50
  -9  -5   2   26.00    3.20
   9  -5  -2   30.10    4.40
  -9   5   2   24.80    2.40
  -9   5   2   34.80    3.30
  -8  -5   2    4.90    1.70
   8  -5  -2    6.30    2.40
   8   5  -2    3.70    1.70
  -8   5   2    6.10    1.30
  -8   5   2    6.40    1.70
  -7  -5   2   41.40    3.20
   7  -5  -2   39.90    4.50
   7  -5  -2   35.90    2.10
   7   5  -2   41.20    3.70
  -7   5   2   38.70    2.90
  -7   5   2   44.90    2.50
  -6  -5   2    1.00    0.70
  -6  -5   2    6.50    1.60
   6  -5  -2    3.90    1.90
   6  -5  -2    6.00    0.90
   6   5  -2    5.70    1.50
  -6   5   2    4.40    1.40
  -6   5   2    9.70    1.40
  -5  -5   2  327.77   10.50
  -5  -5   2  272.57    9.50
   5  -5  -2  321.57    9.10
   5  -5  -2  333.37   12.10
  -5   5   2  327.17   10.50
  -5   5   2  319.87    9.50
   5   5  -2  333.67   10.60
  -4  -5   2   16.30    1.70
   4  -5  -2   20.40    1.40
   4  -5  -2   25.40    3.30
   4  -5  -2   22.30    1.30
  -4  -5   2   21.60    2.20
  -4   5   2   21.90    2.20
   4   5  -2   23.40    2.20
   3  -5  -2   51.79    3.80
   3  -5  -2   50.69    2.40
  -3  -5   2   51.49    2.80
  -3   5   2   52.59    3.00
   3   5  -2   52.89    2.80
   3   5  -2   43.70    2.50
  -3   5   2   50.89    2.00
   2  -5  -2  187.08    6.20
   2  -5  -2  187.68    7.60
  -2  -5   2  170.98    6.20
   2   5  -2  187.58    6.40
   2   5  -2  193.08    6.30
  -2   5   2  193.98    5.80
  -2   5   2  187.68    6.70
  -1  -5   2    0.50    0.70
   1  -5  -2    0.10    1.10
  -1   5   2    0.80    0.90
   1   5  -2   -0.50    0.70
  -1   5   2    2.00    0.70
   0  -5   2   22.00    2.70
   0  -5  -2   19.50    2.40
   0  -5   2   18.40    1.70
   0  -5  -2   18.70    2.40
   0   5  -2   21.00    2.00
   1  -5   2  197.68    5.70
   1  -5   2  199.68    7.90
  -1  -5  -2  195.48    7.50
  -1  -5  -2  200.88    7.50
  -1   5  -2  186.38    6.90
   1   5   2  196.68    7.50
  -1   5  -2  192.58    5.80
  -2  -5  -2  446.06   14.10
  -2  -5  -2  441.06   14.40
   2  -5   2  470.75   15.00
  -2   5  -2  444.36   13.90
  -2   5  -2  437.36   12.20
   2   5   2  480.25   14.60
   3  -5   2   82.69    4.70
  -3  -5  -2   73.89    4.30
   3   5   2   75.29    4.30
  -3   5  -2   68.19    3.80
   4  -5   2   98.19    5.50
  -4  -5  -2  108.19    5.40
   4  -5   2  106.49    3.30
   4   5   2  108.19    5.30
  -4   5  -2   96.39    4.90
   5  -5   2    7.40    0.90
   5  -5   2    7.90    1.50
  -5  -5  -2    7.20    2.00
   5  -5   2    7.90    2.20
   5   5   2   13.00    2.30
  -5   5  -2    8.20    1.70
  -5   5  -2    8.60    0.50
   6  -5   2   24.20    2.50
   6  -5   2   22.10    3.30
   6  -5   2   30.90    1.80
  -6  -5  -2   27.40    3.40
  -6   5  -2   29.80    3.10
  -7  -5  -2  280.37   11.10
   7  -5   2  272.57   11.30
   7  -5   2  297.07   10.20
  -7   5  -2  290.37   10.60
  -8  -5  -2  261.17   10.60
   8  -5   2  247.98   10.70
  -8   5  -2  260.17   10.10
  -9  -5  -2   95.89    6.10
   9  -5   2   95.89    6.30
  -9   5  -2   96.49    5.60
  10  -5   2   74.19    5.90
 -10  -5  -2   84.09    6.00
 -10   5  -2   89.09    5.50
  11  -5   2  315.47   13.20
 -11  -5  -2  291.27   12.60
 -11   5  -2  309.17   12.10
  12  -5   2  168.28    9.40
 -12  -5  -2  172.08    9.10
 -12   5  -2  163.18    8.30
 -13  -5  -2    6.90    2.40
  13  -5   2    7.50    3.30
 -13  -5  -2    0.00    2.30
 -13   5  -2    1.80    2.10
 -14  -5  -2    8.10    3.00
  14  -5   2    4.00    3.10
 -14  -5  -2    7.70    3.30
 -14   5  -2    9.60    3.20
 -15  -5  -2    4.20    2.60
 -15  -5  -2    1.60    3.00
  15  -5   2    3.70    3.40
 -15   5  -2    1.60    2.50
 -16  -5  -2    4.20    3.00
  16  -5   2   -0.50    2.80
 -16  -5  -2   -0.60    2.40
 -16   5  -2    1.70    2.60
  17  -5   2   26.00    5.60
 -17  -5  -2   31.90    6.90
 -17  -5  -2   34.90    5.60
 -17   5  -2   34.20    4.90
 -18  -5  -2    7.20    3.90
  18  -5   2   14.90    4.50
 -18   5  -2   12.00    3.60
  19  -5   2    1.10    3.50
 -19   5  -2   -1.70    2.60
  19  -6  -2    2.20    4.10
 -19  -6   2   -2.80    2.80
  18  -6  -2   -1.60    3.20
 -18  -6   2    4.40    3.30
 -18   6   2    2.80    2.70
  17  -6  -2   38.30    6.70
 -17  -6   2   34.40    5.50
 -17   6   2   31.50    4.30
  16  -6  -2    5.20    4.00
 -16  -6   2    1.90    2.70
 -16   6   2   -1.10    1.90
 -16   6   2    6.60    2.50
  15  -6  -2  177.28   11.30
 -15  -6   2  195.38   10.10
 -15   6   2  183.28    8.10
 -15   6   2  178.88    8.70
 -14  -6   2  108.59    7.10
  14  -6  -2   87.09    8.90
 -14  -6   2   96.99    5.40
 -14   6   2   97.39    6.00
 -14   6   2   91.09    5.20
  13  -6  -2   29.10    5.30
 -13  -6   2   46.20    5.20
 -13   6   2   41.00    3.80
 -13   6   2   40.30    4.20
 -12  -6   2    7.40    2.60
  12  -6  -2    0.20    2.70
 -12   6   2   -1.90    1.80
 -12   6   2    1.10    1.40
  11  -6  -2  638.14   22.50
 -11  -6   2  590.84   20.10
 -11   6   2  614.44   18.30
 -11   6   2  592.44   19.20
  10  -6  -2   20.90    4.20
 -10  -6   2   16.50    3.00
 -10   6   2   23.20    2.50
 -10   6   2   21.60    3.00
  -9  -6   2   13.70    2.60
   9  -6  -2   13.70    1.60
   9  -6  -2   14.50    3.40
  -9   6   2   19.90    2.10
  -9   6   2   18.30    2.60
  -8  -6   2   13.20    2.40
   8  -6  -2    8.20    2.70
   8  -6  -2   14.50    1.50
  -8   6   2   14.60    2.40
  -8   6   2   12.10    1.60
  -7  -6   2  462.25   15.00
   7  -6  -2  488.95   17.20
   7  -6  -2  459.15   13.00
  -7   6   2  451.85   14.70
  -7   6   2  433.36   13.40
   7   6  -2  479.85   15.30
   6  -6  -2  342.87    9.80
   6  -6  -2  347.37   13.40
  -6  -6   2  336.77   11.60
   6   6  -2  360.06   11.90
  -6   6   2  339.27   11.50
  -5  -6   2  331.37   11.20
   5  -6  -2  343.27    9.60
   5  -6  -2  351.16    9.90
   5  -6  -2  349.77   13.00
   5   6  -2  336.17   11.40
  -5   6   2  338.07   11.40
   4  -6  -2   37.00    2.00
  -4  -6   2   39.60    2.80
   4  -6  -2   52.59    4.20
   4   6  -2   39.00    2.70
  -4   6   2   43.00    3.00
  -3  -6   2    1.70    1.10
   3  -6  -2   -0.20    1.40
   3  -6  -2   -0.30    0.60
   3   6  -2   -2.10    0.80
  -3   6   2    0.20    0.50
   3   6  -2    0.80    0.90
  -3   6   2    0.00    1.10
  -2  -6   2   41.50    2.50
   2  -6  -2   35.70    3.80
   2   6  -2   39.30    2.40
  -2   6   2   35.20    3.00
  -2   6   2   37.20    1.90
   2   6  -2   37.80    2.50
  -1  -6   2  132.09    5.10
  -1  -6   2  129.59    6.40
   1  -6  -2  127.99    6.30
   1  -6  -2  145.09    6.20
  -1   6   2  133.69    4.70
  -1   6   2  127.29    5.50
   1   6  -2  139.69    5.40
   0  -6   2  136.39    5.10
   0  -6  -2  132.69    6.00
   0  -6   2  140.59    6.60
   0  -6  -2  134.59    6.20
   0   6  -2  125.39    5.40
  -1  -6  -2   14.00    2.30
  -1  -6  -2   11.20    2.20
   1  -6   2   15.00    2.70
  -1   6  -2   16.30    2.10
  -1   6  -2   15.10    1.10
  -2  -6  -2   46.40    3.40
   2  -6   2   42.60    4.20
   2  -6   2   48.30    1.50
  -2  -6  -2   50.19    3.60
   2   6   2   47.50    3.50
  -2   6  -2   50.09    3.20
  -2   6  -2   49.20    1.70
  -3  -6  -2   71.89    4.40
   3  -6   2   70.29    4.70
   3   6   2   66.69    4.20
  -3   6  -2   67.59    3.90
  -4  -6  -2    0.50    1.40
   4  -6   2    0.10    1.40
  -4   6  -2   -0.10    1.10
   4   6   2   -1.70    1.00
   5  -6   2  513.15   13.40
   5  -6   2  490.75   17.10
  -5  -6  -2  496.45   16.60
   5  -6   2  497.25   15.10
  -5   6  -2  493.55   16.00
  -6  -6  -2   88.69    5.40
   6  -6   2   90.79    5.80
   6  -6   2   85.09    4.30
   6  -6   2   91.39    3.20
  -6   6  -2   86.99    5.00
   7  -6   2   45.00    3.30
   7  -6   2   40.80    4.70
   7  -6   2   41.40    2.20
  -7  -6  -2   46.80    4.60
  -7   6  -2   50.09    4.30
  -7   6  -2   46.10    1.70
  -8  -6  -2   14.70    2.90
   8  -6   2   17.00    3.40
   8  -6   2   16.40    1.70
  -8   6  -2   15.00    2.70
  -8   6  -2   14.50    1.20
  -9  -6  -2    1.20    1.90
   9  -6   2   -2.10    1.70
  -9   6  -2    0.20    1.70
  10  -6   2   77.29    6.20
 -10  -6  -2   67.39    6.30
 -10   6  -2   72.29    5.10
  11  -6   2   49.70    5.90
 -11  -6  -2   46.40    5.30
 -11   6  -2   49.00    5.00
  12  -6   2    0.00    2.40
 -12  -6  -2   -0.30    2.20
 -12   6  -2    1.10    2.20
 -13  -6  -2   46.70    5.70
  13  -6   2   39.50    5.90
 -13   6  -2   43.90    5.00
 -14  -6  -2    0.50    2.40
  14  -6   2    4.20    3.10
 -14   6  -2    7.10    3.00
 -15  -6  -2   36.00    5.50
  15  -6   2   30.90    5.60
 -15  -6  -2   39.20    5.00
 -15   6  -2   27.50    4.30
 -16  -6  -2  103.89    9.20
  16  -6   2  112.69   10.20
 -16  -6  -2  112.79    7.60
 -16   6  -2  113.99    7.60
  17  -6   2    3.30    3.30
 -17  -6  -2    2.50    3.30
 -17   6  -2   -2.50    2.50
 -18  -6  -2    2.70    3.40
  18  -6   2   -1.90    3.30
 -18   6  -2   -5.80    2.00
 -19  -7   2   34.30    5.90
  19  -7  -2   45.30    7.90
  18  -7  -2   54.19    8.30
 -18  -7   2   44.40    6.10
 -18   7   2   37.20    4.90
 -17  -7   2    1.70    2.80
  17  -7  -2    4.80    4.10
 -17   7   2    2.30    2.60
 -16  -7   2  205.48   11.10
  16  -7  -2  224.78   13.60
 -16   7   2  213.68   10.00
 -15  -7   2    8.20    3.10
  15  -7  -2    1.90    3.40
 -15   7   2    0.30    2.40
  14  -7  -2   43.10    6.70
 -14  -7   2   44.20    5.40
 -14   7   2   35.40    4.40
 -14   7   2   49.30    4.20
  13  -7  -2  243.48   13.00
 -13  -7   2  240.68   11.00
 -13   7   2  235.48    8.90
 -13   7   2  244.08   10.30
 -12  -7   2   18.80    3.50
  12  -7  -2   10.20    3.80
 -12   7   2   13.20    2.10
 -12   7   2   13.70    2.90
 -11  -7   2  189.48    8.90
  11  -7  -2  177.88   10.40
 -11   7   2  171.48    8.00
 -11   7   2  168.38    6.70
  10  -7  -2   60.49    3.50
 -10  -7   2   65.29    4.80
  10  -7  -2   66.89    7.00
 -10   7   2   54.69    4.70
 -10   7   2   59.49    3.30
   9  -7  -2    2.90    0.90
  -9  -7   2    5.60    2.00
   9  -7  -2    4.10    2.70
  -9   7   2    0.60    0.90
  -9   7   2    1.30    1.60
   8  -7  -2  404.56   11.40
  -8  -7   2  414.06   14.10
   8  -7  -2  366.16   15.50
  -8   7   2  395.86   11.90
  -8   7   2  404.26   13.70
   7  -7  -2   26.40    4.20
   7  -7  -2   24.20    1.30
  -7  -7   2   31.90    3.40
  -7   7   2   29.60    3.30
   7   7  -2   22.40    3.00
  -6  -7   2   -1.50    1.00
   6  -7  -2   -0.70    1.70
   6   7  -2    0.00    1.20
  -6   7   2   -1.10    1.10
  -5  -7   2    1.20    1.20
   5  -7  -2   -0.10    1.70
   5  -7  -2   -0.10    0.50
   5   7  -2   -0.50    0.90
  -5   7   2    1.80    1.40
   4  -7  -2  130.59    4.60
  -4  -7   2  128.19    5.60
   4  -7  -2  129.59    7.10
   4   7  -2  126.39    5.60
  -4   7   2  130.49    5.90
   3  -7  -2  320.37   12.60
  -3  -7   2  316.47   10.80
   3  -7  -2  338.87   10.00
   3   7  -2  352.06   11.00
   3   7  -2  317.17   10.70
  -3   7   2  330.27    9.20
  -3   7   2  332.77   11.30
  -2  -7   2   57.69    3.30
   2  -7  -2   53.99    4.20
   2   7  -2   56.39    3.40
  -2   7   2   50.89    3.40
  -2   7   2   51.99    2.40
  -1  -7   2   16.80    2.00
  -1  -7   2   17.20    3.00
   1  -7  -2   20.10    3.00
   1  -7  -2   17.40    2.70
  -1   7   2   20.30    1.70
   1   7  -2   18.10    2.20
  -1   7   2   18.90    2.40
   0  -7   2   52.69    3.10
   0  -7  -2   50.89    3.80
   0  -7   2   51.19    4.80
   0  -7  -2   49.30    4.00
   0   7  -2   52.19    3.30
   1  -7   2  111.99    4.80
  -1  -7  -2  114.99    5.80
  -1  -7  -2  117.89    6.10
   1  -7   2  105.89    6.10
  -1   7  -2  105.89    5.10
  -1   7  -2  106.39    3.60
   2  -7   2  192.18    5.40
   2  -7   2  186.78    8.70
  -2  -7  -2  195.78    8.20
  -2  -7  -2  194.78    8.20
  -2   7  -2  192.58    5.40
   2   7   2  196.58    8.10
  -2   7  -2  190.18    7.60
   3  -7   2  271.07   11.20
  -3  -7  -2  299.57   10.80
  -3   7  -2  265.97   10.00
   3   7   2  274.17   10.50
  -4  -7  -2  337.47   12.20
   4  -7   2  307.87   12.60
  -4   7  -2  335.37   11.60
   5  -7   2  444.76   16.10
  -5  -7  -2  443.16   15.30
  -5   7  -2  425.06   14.60
   6  -7   2    7.40    2.50
   6  -7   2    8.40    1.80
  -6  -7  -2   13.30    2.70
  -6   7  -2    5.90    2.00
   7  -7   2  329.47    8.80
   7  -7   2  301.37   13.00
  -7  -7  -2  313.27   12.50
  -7   7  -2  315.67   11.90
   8  -7   2    9.80    1.10
   8  -7   2    7.30    2.80
  -8  -7  -2    6.60    2.50
  -8   7  -2    8.10    2.40
   9  -7   2    7.30    1.30
  -9  -7  -2    6.90    2.60
   9  -7   2    7.00    3.00
  -9   7  -2    9.80    0.80
  -9   7  -2   10.90    2.60
  10  -7   2   13.00    1.80
 -10  -7  -2   13.60    3.30
  10  -7   2   11.50    3.50
 -10   7  -2   11.60    1.20
 -10   7  -2   11.70    2.90
 -11  -7  -2  432.16   16.90
  11  -7   2  436.86   13.70
  11  -7   2  432.66   17.70
 -11   7  -2  456.05   16.20
 -11   7  -2  444.56   12.90
 -12  -7  -2  208.98   10.70
  12  -7   2  215.78   11.60
 -12   7  -2  216.38   10.10
 -13  -7  -2    6.60    3.10
  13  -7   2    3.50    3.30
 -13   7  -2    2.30    2.30
 -14  -7  -2    2.60    2.70
  14  -7   2    0.40    2.80
 -14   7  -2    0.20    2.30
 -15  -7  -2  165.28    9.20
  15  -7   2  153.28   10.50
 -15  -7  -2  157.58    9.90
 -15   7  -2  159.78    9.00
 -16  -7  -2    3.70    3.40
 -16  -7  -2   -1.90    2.30
  16  -7   2   -4.90    2.50
 -16   7  -2    0.60    2.60
  17  -7   2    5.10    3.90
 -17  -7  -2   -1.30    2.70
 -17   7  -2   -1.60    2.70
  18  -7   2   16.60    5.10
 -18   7  -2   17.30    4.50
  18  -8  -2  186.58   13.10
 -18  -8   2  162.88   10.40
 -18   8   2  171.08    9.40
 -17  -8   2   18.20    4.30
  17  -8  -2   23.80    6.20
 -17   8   2   20.40    3.90
  16  -8  -2    8.50    4.40
 -16  -8   2   18.00    4.20
 -16   8   2   10.60    3.30
  15  -8  -2   74.79    9.00
 -15  -8   2   65.69    6.70
 -15   8   2   59.19    5.90
  14  -8  -2    1.90    3.40
 -14  -8   2    2.60    3.00
 -14   8   2    6.70    2.70
 -13  -8   2    8.90    3.00
  13  -8  -2    5.80    3.60
 -13   8   2   10.80    2.90
  12  -8  -2   11.00    4.20
 -12  -8   2   13.80    3.50
 -12   8   2   15.30    3.10
  11  -8  -2  159.98   10.30
 -11  -8   2  180.58    8.70
 -11   8   2  172.78    6.30
 -11   8   2  181.48    8.40
 -10  -8   2  214.58    9.50
  10  -8  -2  234.08   11.80
 -10   8   2  196.08    9.00
   9  -8  -2   -2.40    2.20
  -9  -8   2   -0.30    1.80
   9  -8  -2    0.70    0.60
  -9   8   2    2.60    1.90
   8  -8  -2  112.99    7.70
  -8  -8   2  118.39    6.40
  -8   8   2  117.49    6.20
   7  -8  -2   93.29    6.90
  -7   8   2   94.59    5.40
  -6  -8   2  323.17   11.40
   6  -8  -2  308.37   13.30
  -6   8   2  299.27   11.30
   6   8  -2  319.87   11.50
   5  -8  -2   10.50    2.90
   5  -8  -2   11.50    1.20
  -5  -8   2   14.00    2.40
  -5   8   2    6.40    2.00
   5   8  -2   12.00    2.10
   4  -8  -2    0.10    0.60
  -4  -8   2   -0.60    1.20
   4  -8  -2   -1.30    1.20
   4   8  -2    0.90    1.10
  -4   8   2   -0.10    1.20
   3  -8  -2    3.40    0.90
   3  -8  -2   -0.20    1.70
  -3  -8   2    3.20    1.40
  -3   8   2    1.90    1.50
  -3   8   2    1.10    0.50
   3   8  -2    1.70    1.40
  -2  -8   2   95.59    4.70
   2  -8  -2  103.79    6.30
   2  -8  -2   98.09    5.70
   2   8  -2  101.39    4.90
  -2   8   2  101.09    5.20
  -2   8   2  101.89    3.70
   1  -8  -2   63.39    4.80
  -1  -8   2   70.89    5.20
  -1  -8   2   61.89    3.60
   1  -8  -2   63.29    4.50
   1   8  -2   63.99    3.90
  -1   8   2   71.99    4.20
  -1   8   2   52.29    2.90
   0  -8  -2   42.60    4.60
   0  -8   2   56.99    3.40
   0  -8  -2   56.09    4.20
   0  -8   2   58.49    5.60
   0   8  -2   48.40    3.50
  -1  -8  -2    5.40    1.90
  -1  -8  -2    1.40    1.60
   1  -8   2    3.80    1.30
   1  -8   2    4.50    2.10
  -1   8  -2    5.00    0.80
  -1   8  -2    3.40    1.60
  -2  -8  -2   43.90    4.20
  -2  -8  -2   34.30    4.00
   2  -8   2   27.60    4.00
   2  -8   2   35.90    1.40
  -2   8  -2   36.30    3.40
  -2   8  -2   35.90    1.20
   3  -8   2   70.89    5.50
  -3  -8  -2   78.69    5.10
  -3   8  -2   73.99    4.60
   4  -8   2  339.97   13.90
  -4  -8  -2  378.86   13.40
  -4   8  -2  349.07   12.50
   5  -8   2    1.20    2.10
  -5  -8  -2    2.50    2.00
  -5   8  -2   -1.80    1.30
   6  -8   2   59.49    6.20
  -6  -8  -2   67.39    5.80
  -6   8  -2   50.99    4.60
  -7  -8  -2   48.90    5.00
   7  -8   2   53.19    5.90
  -7   8  -2   37.90    4.20
  -8  -8  -2   43.70    5.10
   8  -8   2   31.80    4.90
  -8   8  -2   36.60    4.20
   9  -8   2   81.79    2.80
  -9  -8  -2   84.09    7.20
   9  -8   2   78.89    7.60
  -9   8  -2   74.49    5.50
  10  -8   2  182.88   10.50
 -10  -8  -2  189.58    9.80
 -10   8  -2  193.18    9.20
  11  -8   2   29.50    5.40
 -11  -8  -2   23.00    4.10
 -11   8  -2   14.40    3.30
 -12  -8  -2   39.10    5.40
  12  -8   2   46.60    6.30
 -12   8  -2   37.10    5.00
 -13  -8  -2   41.90    5.70
  13  -8   2   43.60    6.50
 -13   8  -2   55.29    5.90
 -14  -8  -2    2.00    2.80
  14  -8   2    4.20    3.20
 -14   8  -2   -3.00    2.20
  15  -8   2   10.90    4.80
 -15  -8  -2   13.90    4.20
 -15   8  -2    6.80    3.30
  16  -8   2   -1.00    3.50
 -16  -8  -2   -2.70    2.70
 -16   8  -2    0.60    2.50
 -17  -8  -2   -3.00    3.10
  17  -8   2   -5.50    3.20
 -17   8  -2   -1.20    2.90
  17  -9  -2   60.19    8.90
 -17  -9   2   38.50    5.90
 -17   9   2   57.49    6.20
 -16  -9   2    2.70    2.90
  16  -9  -2   -1.80    3.50
 -16   9   2    4.70    3.00
  15  -9  -2    5.70    4.20
 -15  -9   2    7.20    3.20
 -15   9   2    8.30    3.10
 -14  -9   2   44.70    5.70
  14  -9  -2   38.80    6.80
 -14   9   2   46.40    5.20
  13  -9  -2  112.49   10.50
 -13  -9   2  103.19    7.20
 -13   9   2   99.19    6.70
 -12  -9   2    0.40    2.00
  12  -9  -2    1.30    3.10
 -12   9   2   -1.40    2.10
  11  -9  -2   26.10    5.20
 -11  -9   2   22.80    3.90
 -11   9   2   22.70    3.70
 -10  -9   2    2.80    2.20
  10  -9  -2   -1.80    2.50
 -10   9   2   -1.00    2.00
   9  -9  -2    6.70    3.40
  -9  -9   2    8.70    2.70
  -9   9   2    6.90    2.50
   8  -9  -2  102.59    7.80
  -8  -9   2  100.59    6.10
  -8   9   2  106.49    6.10
   7  -9  -2    1.10    2.50
  -7  -9   2    2.10    1.80
  -7   9   2    2.20    1.80
  -6  -9   2   42.40    4.10
   6  -9  -2   46.30    5.80
  -6   9   2   34.40    3.90
  -5  -9   2  307.07   11.20
   5  -9  -2  324.57   13.70
   5  -9  -2  310.47    9.00
  -5   9   2  314.57   11.60
   5   9  -2  289.97   11.20
   4  -9  -2  194.68    9.80
   4  -9  -2  180.48    6.10
  -4  -9   2  192.78    7.80
   4   9  -2  186.38    7.80
  -4   9   2  183.78    8.10
   3  -9  -2  175.18    6.10
  -3  -9   2  166.48    7.20
   3  -9  -2  167.08    9.00
  -3   9   2  170.58    7.60
  -3   9   2  175.58    5.10
   3   9  -2  172.28    7.20
  -2  -9   2   53.99    3.60
   2  -9  -2   52.59    5.50
   2  -9  -2   58.29    5.10
  -2   9   2   53.19    4.00
  -2   9   2   52.59    2.50
   2   9  -2   46.30    3.60
   1  -9  -2    7.00    2.30
   1  -9  -2   12.60    3.00
  -1   9   2   11.90    2.30
   1   9  -2    6.50    1.80
  -1   9   2   10.00    1.40
   0  -9  -2   10.70    2.80
   0  -9   2   10.60    1.90
   0  -9  -2   14.40    2.80
   0  -9   2    9.30    2.80
   0   9  -2   12.30    2.30
   0   9   2   11.70    1.70
   1  -9   2   27.50    2.90
  -1  -9  -2   24.20    3.70
   1  -9   2   22.50    3.80
  -1  -9  -2   22.00    3.40
  -1   9  -2   25.10    1.50
  -1   9  -2   19.90    2.90
   2  -9   2   58.59    3.80
   2  -9   2   51.39    5.60
   2  -9   2   56.19    2.00
  -2  -9  -2   63.29    5.30
  -2  -9  -2   50.49    5.20
  -2   9  -2   55.39    4.10
  -3  -9  -2   14.80    3.00
   3  -9   2   12.70    3.20
  -3   9  -2   15.40    2.70
   4  -9   2  499.55   18.70
  -4  -9  -2  506.85   17.50
  -4   9  -2  490.95   16.70
  -5  -9  -2   16.80    3.20
   5  -9   2   16.00    3.80
  -5   9  -2   14.90    2.80
   6  -9   2  137.29    8.50
  -6  -9  -2  128.19    7.50
  -6   9  -2  145.19    7.40
   7  -9   2   76.89    7.50
  -7  -9  -2   79.49    6.80
  -7   9  -2   78.99    5.50
  -8  -9  -2    7.80    2.90
   8  -9   2    8.30    3.40
  -8   9  -2   10.00    2.80
  -9  -9  -2   36.00    5.10
   9  -9   2   34.80    5.60
  -9   9  -2   34.30    4.30
  10  -9   2   26.20    5.10
 -10  -9  -2   32.70    4.80
 -10   9  -2   30.20    4.30
  11  -9   2    1.40    2.90
 -11  -9  -2    8.90    3.30
 -11   9  -2    0.20    2.10
  12  -9   2   10.90    4.20
 -12  -9  -2   10.10    3.50
 -12   9  -2    4.70    2.80
 -13  -9  -2    5.40    3.20
  13  -9   2   13.90    4.70
 -13   9  -2    1.70    2.60
  14  -9   2   79.29    9.10
 -14  -9  -2   74.19    7.70
 -14   9  -2   85.69    7.50
 -15  -9  -2    7.40    3.60
  15  -9   2    1.50    3.60
 -15   9  -2    2.70    2.80
  16  -9   2   36.20    6.90
 -16  -9  -2   24.90    5.40
 -16   9  -2   30.40    5.10
 -16 -10   2   -4.30    2.30
  16 -10  -2   -1.50    4.00
 -16  10   2    4.30    2.90
  15 -10  -2   33.60    6.90
 -15 -10   2   21.20    4.40
 -15  10   2   14.60    3.70
 -14 -10   2   -1.30    2.60
  14 -10  -2   -0.30    3.10
 -14  10   2   -1.70    2.50
 -13 -10   2   13.50    3.60
  13 -10  -2   10.80    4.50
 -13  10   2   10.80    3.20
  12 -10  -2    0.60    3.20
 -12 -10   2    0.40    2.40
 -12  10   2   -3.00    1.90
  11 -10  -2   -3.80    2.30
 -11 -10   2   -1.50    2.10
 -11  10   2   -1.80    1.90
  10 -10  -2    0.10    2.60
 -10 -10   2    1.30    2.40
 -10  10   2    0.70    2.00
  -9 -10   2    1.30    2.00
   9 -10  -2    3.70    3.10
  -9  10   2   -1.90    1.80
  -8 -10   2   30.30    4.00
   8 -10  -2   24.80    4.90
  -8  10   2   32.30    4.10
   7 -10  -2   83.39    8.30
  -7 -10   2   72.69    5.20
  -7  10   2   77.99    5.40
  -6 -10   2   -1.40    1.50
   6 -10  -2    1.00    2.00
  -6  10   2    2.00    1.90
   5 -10  -2  126.89    4.30
  -5 -10   2  130.79    6.60
   5 -10  -2  133.59    8.60
  -5  10   2  126.99    6.80
   4 -10  -2  302.07   13.40
   4 -10  -2  283.37    9.00
  -4 -10   2  324.77   11.30
  -4  10   2  286.47   11.40
   3 -10  -2  112.39    7.60
   3 -10  -2  116.39    7.00
   3 -10  -2  115.89    4.70
  -3 -10   2  109.39    5.80
  -3  10   2  120.29    6.40
   3  10  -2  119.29    6.00
  -2 -10   2   20.20    2.80
   2 -10  -2   16.40    3.60
   2 -10  -2   20.60    3.50
   2  10  -2   21.40    3.00
  -2  10   2   17.50    3.00
  -2  10   2   21.40    1.60
  -1 -10   2   19.70    2.70
   1 -10  -2   19.20    3.80
   1 -10  -2   21.70    3.50
  -1  10   2   22.60    3.20
  -1  10   2   27.50    2.30
   1  10  -2   20.80    3.00
   0 -10   2    6.40    2.80
   0 -10  -2   10.50    2.80
   0 -10   2    5.80    1.90
   0 -10  -2    7.20    2.70
   0  10  -2    9.70    2.30
   0  10   2    7.60    1.60
  -1 -10  -2  191.48    8.90
   1 -10   2  195.88    7.90
   1 -10   2  172.48    9.70
  -1 -10  -2  185.08    9.60
  -1  10  -2  190.78    5.80
  -1  10  -2  190.18    8.30
   2 -10   2    6.20    1.90
   2 -10   2    7.00    0.70
  -2 -10  -2    7.50    2.50
  -2 -10  -2    3.60    2.40
   2 -10   2    5.80    2.80
  -2  10  -2    5.30    2.10
  -3 -10  -2   22.00    3.60
   3 -10   2   23.60    4.40
   3 -10   2   25.70    3.20
  -3  10  -2   19.50    3.20
   4 -10   2   36.80    5.20
  -4 -10  -2   39.20    4.80
  -4  10  -2   49.90    4.80
  -5 -10  -2    8.10    2.70
   5 -10   2   15.10    3.70
  -5  10  -2    7.30    2.40
  -6 -10  -2   76.99    6.70
   6 -10   2   62.99    7.00
  -6  10  -2   73.09    5.40
   7 -10   2   45.80    6.10
  -7 -10  -2   27.50    4.30
  -7  10  -2   33.60    4.30
  -8 -10  -2   63.49    6.30
   8 -10   2   56.89    6.90
  -8  10  -2   64.49    6.00
  -9 -10  -2  117.99    7.70
   9 -10   2  122.49    8.80
  -9  10  -2   96.09    6.80
  10 -10   2   32.40    5.70
 -10 -10  -2   26.80    4.80
 -10  10  -2   28.30    4.30
 -11 -10  -2    2.60    2.80
  11 -10   2    0.10    3.00
 -11  10  -2   -1.50    2.20
 -12 -10  -2   60.19    6.90
  12 -10   2   67.79    8.30
 -12  10  -2   65.29    6.70
 -13 -10  -2   22.40    4.70
  13 -10   2   13.80    4.80
 -13  10  -2   22.60    4.70
  14 -10   2    6.90    4.30
 -14 -10  -2   18.00    4.60
 -14  10  -2   13.50    4.10
  15 -10   2   56.39    8.10
 -15 -10  -2   39.20    6.30
 -15  10  -2   44.90    6.00
 -16 -10  -2   11.60    4.30
  16 -10   2   22.10    6.20
 -16  10  -2   25.10    5.00
 -15 -11   2   13.70    4.00
  15 -11  -2   11.50    5.10
 -15  11   2    9.80    3.40
 -14 -11   2   -2.50    2.40
  14 -11  -2    2.50    4.10
 -14  11   2   -2.50    2.30
  13 -11  -2    3.80    3.90
 -13 -11   2    4.70    3.00
 -13  11   2    3.80    2.80
  12 -11  -2   82.89    9.60
 -12 -11   2   82.99    7.40
 -12  11   2  102.19    7.00
 -11 -11   2   22.50    3.90
  11 -11  -2   13.80    4.80
 -11  11   2   17.40    3.70
 -10 -11   2   -2.40    1.70
  10 -11  -2    5.50    3.60
 -10  11   2    4.00    2.60
  -9 -11   2   11.80    3.20
   9 -11  -2   12.80    4.30
  -9  11   2   11.50    3.20
   8 -11  -2  119.39    9.00
  -8 -11   2  126.09    7.10
  -8  11   2  111.09    7.00
   7 -11  -2   16.90    4.40
  -7 -11   2   21.50    3.40
  -7  11   2   25.30    3.90
  -6 -11   2   14.00    2.90
   6 -11  -2   12.90    3.90
  -6  11   2   18.80    3.50
  -5 -11   2   30.20    3.80
   5 -11  -2   29.90    5.30
  -5  11   2   26.50    3.90
   4 -11  -2  171.58   10.10
   4 -11  -2  151.58    8.70
  -4 -11   2  174.18    7.80
  -4  11   2  174.58    8.40
   3 -11  -2    7.60    3.30
   3 -11  -2   15.40    3.30
  -3 -11   2   23.50    3.10
  -3  11   2   18.70    3.20
  -2 -11   2   -0.30    1.40
   2 -11  -2    1.50    2.00
   2 -11  -2    1.90    2.40
  -2  11   2   -0.40    1.80
   2  11  -2   -1.40    1.40
  -2  11   2    0.50    0.70
   1 -11  -2   30.20    4.90
  -1 -11   2   32.30    3.60
   1 -11  -2   31.80    4.40
  -1  11   2   29.00    2.40
   1  11  -2   26.30    3.50
   0 -11  -2   13.10    3.50
   0 -11   2   12.30    2.40
   0 -11  -2    9.60    2.90
   0 -11   2   12.40    3.60
   0  11  -2   14.20    2.80
   0  11   2   15.10    2.00
   1 -11   2   91.39    5.40
  -1 -11  -2   96.49    6.40
   1 -11   2   84.49    8.00
  -1 -11  -2  102.79    7.20
  -1  11  -2  100.59    6.00
   2 -11   2  158.28    5.20
   2 -11   2  153.48    9.50
   2 -11   2  160.08    7.40
  -2 -11  -2  172.08    8.70
  -2  11  -2  166.38    8.00
  -3 -11  -2  158.98    8.60
   3 -11   2  171.48   10.10
   3 -11   2  179.58    8.00
  -3  11  -2  173.18    8.40
   4 -11   2    4.80    2.70
  -4 -11  -2    3.00    2.30
  -4  11  -2    2.70    2.10
   5 -11   2   46.60    6.30
  -5 -11  -2   51.19    5.80
  -5  11  -2   32.00    4.30
  -6 -11  -2   26.70    4.30
   6 -11   2   18.40    4.50
  -6  11  -2   21.10    3.70
  -7 -11  -2    6.70    2.90
   7 -11   2    2.80    3.20
  -7  11  -2    7.90    2.90
   8 -11   2   23.90    5.10
  -8 -11  -2   19.10    4.00
  -8  11  -2   19.40    3.80
   9 -11   2    3.40    3.30
  -9 -11  -2    0.40    2.40
  -9  11  -2   -0.50    2.30
  10 -11   2    7.60    3.80
 -10 -11  -2    5.10    3.00
 -10  11  -2   10.20    3.30
  11 -11   2   43.80    7.00
 -11 -11  -2   29.90    5.30
 -11  11  -2   28.90    4.80
 -12 -11  -2   33.50    5.70
  12 -11   2   30.20    6.30
 -12  11  -2   31.10    5.00
  13 -11   2   -0.60    3.30
 -13 -11  -2   -2.00    2.90
 -13  11  -2   -3.00    2.60
  14 -11   2    1.60    3.80
 -14 -11  -2    2.10    3.60
 -14  11  -2    4.00    3.30
  15 -11   2   50.89    8.30
 -15 -11  -2   50.69    6.90
 -15  11  -2   49.80    6.60
  14 -12  -2    5.20    4.40
 -14 -12   2    1.50    2.90
 -14  12   2    0.60    2.70
  13 -12  -2    9.10    4.60
 -13 -12   2    9.10    3.30
 -13  12   2   10.50    3.60
 -12 -12   2   16.70    4.00
  12 -12  -2   14.70    5.10
 -12  12   2   13.40    3.80
 -11 -12   2    3.60    2.70
  11 -12  -2    1.20    3.60
 -11  12   2    1.40    2.70
 -10 -12   2    9.80    3.30
  10 -12  -2    8.10    4.00
 -10  12   2   18.30    4.10
  -9 -12   2  101.09    6.80
   9 -12  -2   91.69    9.50
  -9  12   2   91.39    6.80
  -8 -12   2   10.30    2.80
   8 -12  -2   10.10    4.20
  -8  12   2   10.50    3.20
  -7 -12   2   16.50    3.30
   7 -12  -2   23.30    5.10
  -7  12   2   18.90    3.80
  -6 -12   2  100.49    6.30
   6 -12  -2   89.39    9.20
  -6  12   2   99.39    6.60
  -5 -12   2   16.40    3.20
   5 -12  -2   27.30    5.00
   5 -12  -2   20.20    3.90
  -5  12   2   26.10    4.00
  -4 -12   2  125.89    6.80
   4 -12  -2  111.59    7.40
   4 -12  -2  112.89    8.70
  -4  12   2  121.79    7.20
  -3 -12   2   75.49    5.20
   3 -12  -2   68.59    7.60
   3 -12  -2   68.29    6.50
  -3  12   2   72.09    6.20
  -2 -12   2    0.80    1.80
   2 -12  -2    0.60    2.60
   2 -12  -2    2.00    2.20
  -2  12   2    1.80    2.00
   2  12  -2   -0.10    1.80
  -1 -12   2   15.50    2.80
   1 -12  -2   13.90    3.30
   1 -12  -2   24.60    4.70
   1  12  -2   20.00    3.40
   0 -12  -2   74.79    6.50
   0 -12   2   67.59    4.90
   0 -12  -2   63.49    7.10
   0  12  -2   63.09    5.60
   0  12   2   65.79    3.80
  -1 -12  -2   24.90    4.80
   1 -12   2   22.50    4.70
   1 -12   2   23.30    3.30
  -1 -12  -2   22.20    3.90
  -1  12  -2   24.30    3.80
   1  12   2   22.70    2.70
   2 -12   2   89.49    8.70
  -2 -12  -2   96.29    6.80
   2 -12   2   87.59    5.70
  -2  12  -2   96.79    6.30
  -3 -12  -2   43.20    5.30
   3 -12   2   34.20    5.60
   3 -12   2   42.90    4.50
  -3  12  -2   41.90    4.80
  -4 -12  -2  300.47   13.60
   4 -12   2  345.17   13.00
   4 -12   2  344.87   15.90
  -4  12  -2  360.46   13.70
  -5 -12  -2  129.89    8.10
   5 -12   2  118.89    8.90
  -5  12  -2  131.29    7.70
   6 -12   2   40.00    6.40
  -6 -12  -2   22.50    4.40
  -6  12  -2   31.90    4.60
   7 -12   2    3.20    3.50
  -7 -12  -2    3.10    3.00
  -7  12  -2   -2.10    2.20
   8 -12   2   21.70    5.30
  -8 -12  -2   21.00    4.20
  -8  12  -2   30.70    4.60
   9 -12   2  139.99   10.40
  -9 -12  -2  125.49    8.60
  -9  12  -2  130.69    8.30
  10 -12   2    6.00    4.10
 -10 -12  -2    1.20    2.70
 -10  12  -2    4.40    2.90
 -11 -12  -2   17.40    4.60
  11 -12   2   19.20    5.30
 -11  12  -2   30.00    5.00
  12 -12   2   -1.50    3.20
 -12 -12  -2    0.00    3.10
 -12  12  -2    1.90    3.00
  13 -12   2   47.60    8.00
 -13 -12  -2   38.60    6.40
 -13  12  -2   35.10    5.60
  13 -13  -2    2.70    4.20
 -13  13   2   -2.80    2.40
  12 -13  -2   11.10    5.00
 -12  13   2    9.30    3.70
  11 -13  -2   10.60    5.10
 -11 -13   2   19.70    4.60
 -11  13   2   15.80    4.00
  10 -13  -2   -1.30    3.30
 -10 -13   2   -2.80    2.20
 -10  13   2   -0.10    2.50
   9 -13  -2   -0.10    3.20
  -9 -13   2    2.10    2.40
  -9  13   2    0.00    2.60
  -8 -13   2   33.40    4.40
   8 -13  -2   30.00    6.00
  -8  13   2   38.40    5.20
  -7 -13   2   13.10    3.10
   7 -13  -2   13.60    4.40
  -7  13   2   10.00    3.30
   6 -13  -2   14.30    4.50
   6 -13  -2   20.50    4.20
  -6  13   2   24.20    4.10
   5 -13  -2    6.00    3.40
   5 -13  -2    0.50    2.50
  -5 -13   2    3.00    2.10
  -5  13   2   24.60    4.60
   4 -13  -2    2.60    3.10
  -4 -13   2    0.20    1.90
   4 -13  -2   -1.00    2.30
  -4  13   2    2.60    2.50
   3 -13  -2   32.60    5.80
  -3 -13   2   45.60    4.60
   3 -13  -2   35.50    4.90
  -3  13   2   44.20    5.20
  -2 -13   2  110.59    6.50
   2 -13  -2  115.39    7.70
   2 -13  -2  127.89    9.20
   1 -13  -2    1.60    2.30
   1 -13  -2   -3.90    2.40
  -1 -13   2   -0.40    1.70
   1  13  -2    2.10    2.20
   0 -13  -2    1.80    2.90
   0 -13  -2    3.10    2.70
   0 -13   2    1.40    1.90
   0  13  -2    1.90    2.20
  -1 -13  -2   -1.30    2.00
   1 -13   2    2.80    2.60
   1 -13   2   -0.70    1.80
  -1  13  -2    1.40    2.20
   2 -13   2   53.09    5.00
   2 -13   2   49.60    7.00
  -2 -13  -2   46.60    5.60
  -2  13  -2   58.49    5.80
   2  13   2   52.09    4.40
   3 -13   2   21.60    3.40
   3 -13   2   17.00    4.60
  -3 -13  -2   21.90    4.10
  -3  13  -2   27.50    4.20
   4 -13   2   14.60    3.20
   4 -13   2   12.10    4.40
  -4 -13  -2   19.10    4.00
  -4  13  -2   20.70    3.90
  -5 -13  -2   29.60    4.80
   5 -13   2   28.80    5.80
   5 -13   2   28.00    4.00
  -5  13  -2   30.50    4.60
  -6 -13  -2   93.99    7.20
   6 -13   2   84.89    9.50
  -6  13  -2  108.89    7.40
   7 -13   2    7.10    4.20
  -7 -13  -2    2.10    2.80
  -7  13  -2    5.10    2.90
  -8 -13  -2   32.80    5.50
   8 -13   2   22.10    5.60
  -8  13  -2   23.90    4.60
   9 -13   2    2.30    3.60
  -9 -13  -2    2.50    2.70
  -9  13  -2   -0.60    2.60
  10 -13   2   10.60    4.60
 -10 -13  -2    7.40    3.70
 -10  13  -2    4.80    3.20
 -11 -13  -2   -3.60    2.80
  11 -13   2   -0.60    3.40
 -11  13  -2   -0.90    2.80
 -12 -13  -2    1.30    3.30
  12 -13   2    4.90    4.40
 -12  13  -2   10.40    4.00
  11 -14  -2  154.98   14.20
 -11  14   2  125.19    9.20
  10 -14  -2    6.50    4.40
 -10  14   2    6.50    3.30
   9 -14  -2   37.50    7.40
  -9  14   2   39.30    5.70
   8 -14  -2   69.79    9.10
  -8  14   2   60.79    6.50
   7 -14  -2   28.30    6.00
   7 -14  -2   22.30    4.50
  -7  14   2   15.70    4.00
   6 -14  -2    2.00    3.50
   6 -14  -2    2.70    2.80
  -6  14   2    1.60    2.60
   5 -14  -2   -1.20    2.50
   5 -14  -2   -1.90    2.90
  -5  14   2    3.00    2.80
   4 -14  -2   30.60    5.00
   4 -14  -2   29.30    5.70
  -4  14   2   30.90    4.80
   3 -14  -2    7.20    3.20
   3 -14  -2    8.50    4.10
   2 -14  -2   41.70    6.60
   2 -14  -2   33.80    5.00
   1 -14  -2   24.90    4.40
   1 -14  -2   13.50    4.50
   1  14  -2   19.40    3.80
   0 -14  -2   17.20    3.80
   0 -14  -2   26.80    5.40
   0  14  -2   27.70    4.40
  -1 -14  -2    4.50    2.60
  -1  14  -2    3.30    2.70
  -2 -14  -2   27.10    4.60
   2 -14   2   27.60    5.90
  -2  14  -2   39.90    5.10
  -3 -14  -2    0.90    2.70
   3 -14   2    1.20    3.40
  -3  14  -2    0.90    2.50
  -4 -14  -2    4.20    3.10
   4 -14   2    5.20    4.00
  -4  14  -2   10.80    3.40
  -5 -14  -2   -1.80    2.60
   5 -14   2   -4.20    3.00
  -5  14  -2    1.30    2.60
   6 -14   2   10.50    4.70
  -6 -14  -2    8.70    3.60
  -6  14  -2   10.70    3.50
  -7 -14  -2   13.70    4.00
   7 -14   2   19.20    5.60
  -7  14  -2   16.30    4.10
  -8 -14  -2    0.70    2.90
   8 -14   2    4.80    4.40
  -8  14  -2    3.30    3.30
  -9 -14  -2   40.90    6.30
   9 -14   2   53.39    8.50
  -9  14  -2   39.90    5.80
  10 -14   2   32.70    7.10
 -10 -14  -2   35.80    5.80
 -10  14  -2   39.60    5.90
   9 -15  -2   22.80    6.40
  -9  15   2   11.20    3.90
   8 -15  -2   33.70    5.80
   8 -15  -2   49.40    8.20
  -8  15   2   39.50    5.70
   7 -15  -2    4.40    4.40
   7 -15  -2    7.40    3.60
  -7  15   2    9.40    3.60
   6 -15  -2    8.40    4.50
   6 -15  -2    2.10    2.60
  -6  15   2    8.80    3.50
   5 -15  -2   30.10    5.10
   5 -15  -2   33.50    6.80
  -5  15   2   27.30    4.80
   4 -15  -2   -0.10    3.40
   4 -15  -2    8.30    3.30
   3 -15  -2   12.30    4.70
   3 -15  -2   13.60    3.80
   2 -15  -2   74.59    9.10
   2 -15  -2   68.59    7.00
   1 -15  -2   71.39    7.30
   1 -15  -2   80.69    9.30
   0 -15  -2  243.58   12.20
   0  15  -2  235.48   11.50
  -1 -15  -2   16.40    4.10
  -1  15  -2   20.70    4.20
  -2 -15  -2   -2.70    2.40
  -2  15  -2   -0.70    2.50
   3 -15   2    2.80    3.60
  -3 -15  -2    2.50    3.00
  -3  15  -2    0.90    2.50
  -4 -15  -2   -0.70    2.60
   4 -15   2   -0.60    3.40
  -4  15  -2   -1.40    2.50
  -5 -15  -2   -0.30    2.60
   5 -15   2    0.40    3.40
  -5  15  -2    1.30    2.70
   6 -15   2    7.00    4.60
  -6 -15  -2    2.00    3.10
  -6  15  -2    5.00    3.40
   7 -15   2    3.20    4.10
  -7 -15  -2    4.70    3.30
  -7  15  -2    5.80    3.50
  -8 -15  -2   47.50    6.50
   8 -15   2   53.69    8.50
  -8  15  -2   51.69    6.80
   6 -16  -2    6.50    4.60
   5 -16  -2    8.80    4.90
   4 -16  -2   15.10    5.20
   3 -16  -2   47.00    8.00
   2 -16  -2   21.00    5.70
  -1  16  -2   22.70    4.50
  -2  16  -2    5.30    3.10
  -3  16  -2   17.60    4.30
   4 -16   2   -3.50    3.30
  -4  16  -2    2.80    3.10
   5 -16   2   38.50    7.60
  -5  16  -2   33.30    5.60
  21   0  -3    3.90    4.10
  20   0  -3   -2.60    3.20
  19   0  -3   38.90    6.40
  18   0  -3   -5.90    2.30
  17   0  -3  165.98   10.40
  16   0  -3    2.50    2.60
 -16   0   3    1.90    1.30
 -15   0   3  129.79    5.70
 -14   0   3    0.20    1.20
 -13   0   3  186.28    6.90
 -12   0   3   -1.40    0.80
 -11   0   3   65.59    3.20
 -10   0   3    0.00    0.80
  -9   0   3   93.29    3.60
   8   0  -3   -0.30    0.80
  -8   0   3    0.40    0.60
   7   0  -3  460.65   13.00
   7   0  -3  449.86   14.20
  -7   0   3  466.05   12.70
  -6   0   3   -0.70    0.30
   6   0  -3   -0.90    0.40
   6   0  -3    0.00    0.90
   5   0  -3 1657.23   43.90
   5   0  -3 1627.74   44.40
  -5   0   3 1670.53   44.20
   4   0  -3    0.00    0.30
  -4   0   3    0.50    0.60
   3   0  -3  459.35   13.30
   3   0  -3  464.75   12.40
  -3   0   3  479.95   13.50
   2   0  -3    0.70    0.60
   2   0  -3    0.10    0.10
  -2   0   3    0.30    0.70
  -2   0   3    0.20    0.60
  -1   0   3   59.69    2.60
   1   0  -3   54.49    2.50
  -1   0   3   55.09    2.50
   0   0  -3   -0.70    0.60
   0   0   3   -0.50    0.60
   0   0  -3    0.40    0.60
   0   0  -3   -0.90    0.10
   0   0   3   -0.10    0.60
   1   0   3  267.67    8.30
  -1   0  -3  260.77    8.10
   1   0   3  270.47    8.20
  -1   0  -3  276.97    7.40
  -1   0  -3  284.97    8.30
  -2   0  -3    0.40    0.30
   2   0   3    0.30    0.60
  -2   0  -3    2.70    1.00
   2   0   3    0.40    0.30
   2   0   3    0.80    0.80
   3   0   3  207.48    7.00
  -3   0  -3  200.58    7.20
  -3   0  -3  204.28    6.90
   3   0   3  202.88    6.00
   4   0   3    1.40    0.60
  -4   0  -3    1.00    1.00
  -4   0  -3    0.90    1.10
   4   0   3   -0.50    0.80
   5   0   3  434.36   15.40
  -5   0  -3  555.64   16.10
   5   0   3  537.65   14.80
  -5   0  -3  532.05   15.70
   6   0   3   -0.20    1.00
  -6   0  -3   -0.90    1.00
   6   0   3   -0.10    0.70
  -6   0  -3    1.20    1.20
  -7   0  -3   -0.60    1.00
   7   0   3    2.10    1.00
  -7   0  -3    0.50    1.20
   7   0   3    0.20    1.20
   8   0   3    1.80    1.10
  -8   0  -3    2.50    1.50
  -8   0  -3    2.10    1.40
   9   0   3   87.69    4.60
  -9   0  -3   85.09    5.20
  -9   0  -3   77.39    5.00
 -10   0  -3   -0.20    1.60
 -10   0  -3   -1.10    1.30
  10   0   3    0.60    1.20
 -11   0  -3    7.80    2.30
  11   0   3    7.10    2.00
 -11   0  -3   13.10    2.80
 -12   0  -3    0.10    1.90
  12   0   3    1.90    1.80
 -12   0  -3   -1.60    1.50
 -13   0  -3  125.49    7.40
 -13   0  -3  127.79    7.20
  13   0   3  116.59    6.80
 -14   0  -3    4.60    2.10
 -14   0  -3    2.70    2.10
 -15   0  -3   98.19    6.70
 -15   0  -3   63.79    6.50
  15   0   3   84.69    6.30
  16   0   3   -0.80    2.00
 -16   0  -3    6.80    2.90
 -16   0  -3    6.50    2.70
 -17   0  -3   45.80    5.50
 -17   0  -3   47.00    6.10
  17   0   3   55.49    6.10
 -18   0  -3    2.70    2.80
 -19   0  -3    1.60    2.90
  21  -1  -3    9.30    4.50
  21   1  -3    3.80    3.70
  20  -1  -3   25.00    5.80
  20   1  -3   28.20    5.80
  19  -1  -3    1.80    3.70
  19   1  -3    1.60    3.10
  18  -1  -3   -4.20    2.40
  17  -1  -3    3.10    3.20
  16  -1  -3    2.20    2.90
 -16   1   3    0.00    1.30
 -15  -1   3    9.50    1.80
  15  -1  -3    8.90    3.40
 -15   1   3    4.80    1.60
  14  -1  -3   26.80    4.70
 -14  -1   3   39.20    2.80
 -14   1   3   38.20    3.20
  13  -1  -3   30.50    4.60
 -13  -1   3   32.60    2.70
 -13   1   3   28.20    2.70
 -12  -1   3  285.57    9.20
 -12   1   3  285.47    9.40
  11  -1  -3   41.40    2.90
 -11  -1   3   38.00    2.40
 -11   1   3   42.40    2.70
  10  -1  -3   12.20    1.80
 -10  -1   3   16.10    1.60
 -10   1   3   16.50    1.80
   9  -1  -3    3.40    1.10
  -9  -1   3    4.30    0.90
  -9   1   3    4.70    1.00
   8  -1  -3   22.20    1.90
   8  -1  -3   16.40    2.30
  -8  -1   3   22.70    1.40
   8   1  -3   23.00    2.60
  -8   1   3   20.90    1.70
   7  -1  -3    6.90    1.50
   7  -1  -3    5.50    1.00
  -7  -1   3    5.00    0.70
   7   1  -3    5.80    1.40
  -7   1   3    6.30    0.90
   6  -1  -3    5.30    0.90
  -6  -1   3    4.90    0.50
   6   1  -3    5.30    1.30
  -6   1   3    5.40    0.80
  -6   1   3    4.70    1.20
   5  -1  -3 1539.85   41.00
  -5   1   3 1563.44   42.30
   5   1  -3 1551.44   41.80
  -5   1   3 1560.74   41.80
   4  -1  -3   52.39    2.00
   4   1  -3   57.19    2.60
  -4   1   3   50.99    2.60
  -4   1   3   55.49    2.10
  -3  -1   3   90.39    3.50
   3  -1  -3   92.19    3.00
   3  -1  -3   87.29    3.40
   3  -1  -3   87.09    3.40
  -3   1   3   82.39    3.50
   3   1  -3   84.59    3.20
   3   1  -3   87.59    2.50
   2  -1  -3   57.09    2.50
   2  -1  -3   51.39    2.50
  -2  -1   3   55.29    2.50
  -2  -1   3   56.19    2.00
   2   1  -3   52.59    2.30
   2   1  -3   55.49    2.40
  -2   1   3   51.99    2.40
  -2   1   3   51.79    2.60
   2   1  -3   55.89    2.00
  -1  -1   3  395.96   11.20
  -1  -1   3  393.46   11.10
   1  -1  -3  394.56   11.20
   1  -1  -3  385.96   11.30
  -1  -1   3  380.26   11.00
  -1   1   3  389.06   11.20
   1   1  -3  379.76   11.10
   1   1  -3  392.86   11.00
  -1   1   3  393.26   11.40
   1   1  -3  387.76   11.20
   0  -1  -3   33.60    2.10
   0  -1   3   31.60    1.50
   0  -1   3   30.80    1.80
   0  -1  -3   33.30    1.90
   0  -1   3   35.70    2.00
   0  -1   3   29.40    1.80
   0  -1  -3   35.70    1.60
   0   1  -3   31.60    1.50
   0   1  -3   31.80    1.80
   0   1  -3   36.30    1.90
   0   1  -3   30.40    1.90
   0   1   3   29.50    2.00
   0   1   3   31.70    1.90
   1  -1   3  267.27    7.90
   1  -1   3  266.87    8.20
   1  -1   3  272.07    8.50
  -1  -1  -3  270.27    7.30
   1  -1   3  261.27    7.90
  -1  -1  -3  276.97    8.60
  -1   1  -3  275.07    8.20
   1   1   3  266.27    8.40
  -1   1  -3  297.07    8.60
  -1   1  -3  263.17    8.00
  -1   1  -3  272.47    7.90
   1   1   3  277.97    8.50
  -1   1  -3  274.47    7.90
  -2  -1  -3   86.69    3.80
   2  -1   3   80.79    3.30
   2  -1   3   83.29    3.40
   2  -1   3   78.19    3.10
   2   1   3   84.99    3.70
  -2   1  -3   85.79    3.10
  -2   1  -3   83.09    3.20
  -2   1  -3   85.79    3.80
  -3  -1  -3  127.19    5.10
   3  -1   3  133.29    4.80
   3  -1   3  118.79    4.30
   3  -1   3  119.39    5.00
   3   1   3  130.69    5.10
  -3   1  -3  126.09    4.70
  -3   1  -3  120.89    4.30
  -3   1  -3  128.89    5.10
  -4  -1  -3  132.89    5.60
   4  -1   3  136.39    5.60
   4  -1   3  135.29    5.20
   4  -1   3  125.39    4.80
  -4   1  -3  129.19    4.70
  -4   1  -3  138.99    5.60
  -4   1  -3  135.89    5.20
   5  -1   3   15.70    1.80
  -5  -1  -3   18.50    2.30
   5   1   3   19.20    2.40
  -5   1  -3   17.10    2.20
  -5   1  -3   18.20    2.10
  -6  -1  -3   24.20    2.80
   6  -1   3   24.20    2.60
  -6  -1  -3   18.50    2.50
   6  -1   3   25.60    2.40
  -6   1  -3   29.10    2.80
  -6   1  -3   23.90    2.80
   6   1   3   21.80    2.70
  -7  -1  -3   65.79    4.20
   7  -1   3   73.39    4.20
   7  -1   3   64.39    3.70
  -7  -1  -3   69.89    4.20
  -7   1  -3   57.59    3.80
   7   1   3   65.49    4.20
  -7   1  -3   71.49    4.30
  -8  -1  -3   82.59    4.90
   8  -1   3   75.99    4.30
  -8  -1  -3   71.29    4.60
  -8   1  -3   75.49    4.60
  -8   1  -3   91.09    5.00
  -9  -1  -3    5.50    2.00
  -9  -1  -3    9.40    2.30
   9  -1   3    5.10    1.80
  -9   1  -3    9.80    2.20
  -9   1  -3    7.90    2.00
 -10  -1  -3    3.60    1.90
 -10  -1  -3    2.60    1.80
  10  -1   3    1.00    1.40
 -10   1  -3    1.30    1.70
  10   1   3    2.30    1.40
 -10   1  -3    3.50    1.80
  11  -1   3   14.40    2.70
 -11  -1  -3   16.10    2.90
 -11  -1  -3   13.40    2.90
 -11   1  -3    8.00    2.50
  11   1   3   11.70    2.40
 -11   1  -3   13.00    2.80
 -12  -1  -3   15.50    3.10
  12  -1   3   16.70    3.00
 -12  -1  -3   21.30    3.50
  12   1   3   16.40    2.90
 -12   1  -3   13.00    3.00
 -12   1  -3   22.30    3.60
 -13  -1  -3   28.20    4.20
  13  -1   3   27.30    4.00
 -13  -1  -3   25.40    3.90
  13   1   3   27.40    3.70
 -13   1  -3   27.90    4.00
 -13   1  -3   21.80    3.80
 -14  -1  -3   -0.20    2.10
  14  -1   3   -1.40    1.80
 -14  -1  -3    1.10    1.90
 -14   1  -3    1.70    2.20
  14   1   3    3.00    2.00
 -14   1  -3   -1.40    1.90
 -15  -1  -3   24.10    4.10
 -15  -1  -3   22.80    4.30
  15  -1   3   23.30    4.00
 -15   1  -3   24.00    4.20
 -15   1  -3   30.20    4.60
  15   1   3   29.80    4.20
 -16  -1  -3    3.50    2.90
 -16  -1  -3    5.10    2.90
  16  -1   3   13.80    3.40
 -16   1  -3    5.10    2.90
 -16   1  -3    9.20    3.20
  16   1   3    6.20    2.90
 -17  -1  -3   41.60    5.30
  17  -1   3   49.60    5.90
 -17  -1  -3   47.70    6.10
 -17   1  -3   49.90    5.90
  17   1   3   59.29    6.20
 -18  -1  -3    6.60    3.20
 -18  -1  -3   11.10    4.10
  18  -1   3    9.50    3.60
 -18   1  -3   10.80    3.60
 -19  -1  -3   39.00    6.20
 -19   1  -3   39.00    5.40
  20  -2  -3   18.30    5.40
 -20   2   3   29.90    5.00
  20   2  -3   28.40    6.10
  19  -2  -3   19.50    5.30
  18  -2  -3    3.80    3.50
  17  -2  -3    3.50    3.50
 -17   2   3    1.60    1.70
  16  -2  -3   32.10    5.40
 -16   2   3   38.40    3.60
 -15  -2   3   -1.40    1.00
  15  -2  -3   -1.60    2.20
 -15   2   3    1.20    1.40
 -14  -2   3   45.60    3.10
  14  -2  -3   44.60    5.90
 -14   2   3   43.70    3.60
  13  -2  -3   86.79    6.70
 -13  -2   3   84.69    4.20
 -13  -2   3  105.19    6.30
 -13   2   3   98.59    4.70
 -12  -2   3   95.39    5.80
  12  -2  -3   86.79    6.60
 -12  -2   3   96.69    4.20
 -12   2   3  102.29    4.70
 -11  -2   3  117.79    4.50
 -11  -2   3  114.39    6.10
  11  -2  -3  110.49    7.10
 -11   2   3  110.19    4.80
  10  -2  -3  134.39    7.40
 -10  -2   3  128.99    4.70
 -10  -2   3  131.99    6.30
 -10   2   3  130.89    5.20
  -9  -2   3   53.99    3.70
   9  -2  -3   37.30    4.30
  -9  -2   3   44.80    2.30
   9  -2  -3   48.10    3.00
  -9   2   3   38.00    2.50
  -8  -2   3   55.69    3.60
   8  -2  -3   59.09    4.40
  -8  -2   3   53.69    2.40
   8  -2  -3   55.79    3.10
  -8   2   3   52.99    2.80
  -8   2   3   61.99    3.40
   8   2  -3   59.19    3.70
   7  -2  -3  292.97   10.80
  -7  -2   3  280.17    8.00
   7  -2  -3  274.57    8.90
  -7  -2   3  273.77    9.40
  -7   2   3  279.77    8.60
  -7   2   3  276.07    9.20
   7   2  -3  277.27    9.60
  -6  -2   3    6.10    1.30
  -6  -2   3    5.40    0.50
   6  -2  -3    5.20    1.70
   6  -2  -3    4.30    1.00
   6   2  -3    6.00    1.30
  -6   2   3    3.90    1.10
  -6   2   3    3.90    0.90
  -5  -2   3 1499.75   40.00
  -5  -2   3 1506.85   41.00
   5  -2  -3 1570.84   42.40
   5  -2  -3 1550.14   40.60
  -5   2   3 1506.45   41.00
   5   2  -3 1507.75   41.10
  -5   2   3 1528.85   40.50
   4  -2  -3  286.97    8.60
   4  -2  -3  286.17    8.70
  -4  -2   3  285.87    8.60
   4  -2  -3  291.67    9.90
  -4  -2   3  285.27    7.80
   4  -2  -3  294.37    8.50
  -4   2   3  272.77    8.40
   4   2  -3  292.07    8.70
  -4   2   3  282.67    8.90
   3  -2  -3    1.00    1.10
   3  -2  -3    0.80    0.70
  -3  -2   3    1.60    0.50
   3  -2  -3    0.30    0.70
   3  -2  -3    2.00    0.70
  -3  -2   3    1.60    0.70
  -3   2   3    2.40    0.90
   3   2  -3    1.90    0.50
   3   2  -3    1.20    0.70
  -3   2   3    1.40    0.70
   2  -2  -3 2476.65   64.49
  -2  -2   3 2384.46   62.39
   2  -2  -3 2392.56   64.89
   2  -2  -3 2317.17   62.69
  -2  -2   3 2474.05   66.99
   2  -2  -3 2321.47   63.49
   2   2  -3 2308.27   63.89
  -2   2   3 2354.56   64.09
   2   2  -3 2292.97   62.89
  -2   2   3 2351.96   62.69
  -2   2   3 2319.17   64.49
  -1  -2   3  820.42   22.40
  -1  -2   3  825.22   22.40
   1  -2  -3  849.02   22.70
   1  -2  -3  851.31   22.60
   1  -2  -3  839.32   22.80
   1   2  -3  832.62   22.40
   1   2  -3  829.52   22.40
   1   2  -3  823.02   21.80
  -1   2   3  813.32   22.70
  -1   2   3  837.22   22.60
   1   2  -3  767.12   22.20
   0  -2  -3   56.09    2.60
   0  -2   3   50.89    1.60
   0  -2  -3   49.99    2.90
   0  -2   3   52.79    2.30
   0  -2   3   52.39    2.30
   0  -2  -3   49.50    2.40
   0  -2   3   49.50    2.50
   0   2   3   58.49    2.60
   0   2  -3   49.30    2.50
   0   2  -3   53.69    1.60
   0   2  -3   55.89    2.70
   0   2  -3   57.69    2.40
   0   2   3   53.69    2.40
   0   2  -3   52.69    2.20
   1  -2   3   77.09    3.10
   1  -2   3   78.79    3.40
  -1  -2  -3   81.99    2.90
   1  -2   3   79.09    2.70
   1  -2   3   79.19    3.50
  -1  -2  -3   87.39    3.80
  -1   2  -3   78.99    3.40
  -1   2  -3   72.19    3.00
   1   2   3   83.59    3.50
  -1   2  -3   72.69    2.60
  -1   2  -3   79.99    2.90
   1   2   3   84.59    2.90
  -1   2  -3   77.49    3.50
   2  -2   3  211.28    6.50
   2  -2   3  210.48    7.00
   2  -2   3  212.58    6.70
  -2  -2  -3  206.58    7.40
  -2   2  -3  217.68    7.30
  -2   2  -3  211.48    6.40
  -2   2  -3  216.38    7.00
   2   2   3  214.38    6.20
  -2   2  -3  210.28    6.60
   3  -2   3 2753.02   74.79
  -3  -2  -3 2695.93   74.39
   3  -2   3 2811.82   74.79
   3  -2   3 2817.32   75.79
  -3   2  -3 2910.71   73.89
  -3   2  -3 2758.02   73.39
   3   2   3 2803.02   74.09
  -3   2  -3 2775.02   74.29
   4  -2   3  363.96   11.30
  -4  -2  -3  352.76   11.80
   4  -2   3  364.56   11.10
  -4   2  -3  357.66   11.70
  -4   2  -3  367.66   11.20
  -4   2  -3  362.26   11.00
  -5  -2  -3    6.10    1.60
   5  -2   3    6.10    1.50
  -5   2  -3    6.30    1.30
  -5   2  -3    9.90    1.50
  -5   2  -3    7.20    1.70
   6  -2   3   54.69    3.30
   6  -2   3   62.39    3.50
  -6  -2  -3   51.19    3.60
  -6   2  -3   46.80    3.50
  -6   2  -3   52.99    3.20
   7  -2   3   56.69    3.70
   7  -2   3   54.79    3.60
  -7  -2  -3   52.09    3.90
  -7   2  -3   56.19    3.90
  -7   2  -3   63.09    3.70
  -8  -2  -3  509.65   16.80
   8  -2   3  511.85   16.20
  -8   2  -3  490.55   16.40
  -8   2  -3  498.05   16.00
  -9  -2  -3  156.08    7.50
   9  -2   3  150.88    7.00
  -9  -2  -3  160.88    7.40
  -9   2  -3  164.18    7.20
  -9   2  -3  149.19    7.20
  10  -2   3   57.39    4.40
 -10  -2  -3   60.29    4.60
 -10  -2  -3   62.99    4.70
 -10   2  -3   67.99    4.70
 -10   2  -3   59.79    4.40
 -11  -2  -3    0.10    1.70
  11  -2   3    0.50    1.70
 -11  -2  -3    1.30    1.90
 -11   2  -3   -1.90    1.40
 -11   2  -3    0.30    1.60
 -12  -2  -3   78.79    5.70
 -12  -2  -3   77.79    5.80
  12  -2   3   77.49    5.60
 -12   2  -3   75.89    5.40
 -12   2  -3   58.69    5.50
 -13  -2  -3   79.29    5.90
  13  -2   3   76.89    5.70
 -13  -2  -3   72.19    6.70
 -13   2  -3   86.69    6.10
 -13   2  -3   83.29    5.90
 -14  -2  -3    1.40    2.10
 -14  -2  -3    1.80    2.50
  14  -2   3    4.50    2.60
 -14   2  -3    4.50    2.40
  14   2   3    4.60    2.30
  15  -2   3  113.89    7.50
 -15  -2  -3   97.59    7.40
 -15  -2  -3  118.09    7.40
 -15   2  -3   97.09    6.80
  15   2   3  101.89    6.60
  16  -2   3    2.10    2.40
 -16  -2  -3    1.20    2.20
 -16  -2  -3   -1.40    2.30
 -16   2  -3    4.10    2.60
  16   2   3    0.10    2.00
  17  -2   3   19.90    4.30
 -17  -2  -3   18.00    4.20
 -17  -2  -3   25.20    4.30
 -17   2  -3   22.50    4.30
  17   2   3   15.30    3.70
 -18  -2  -3   15.90    4.10
 -18  -2  -3    7.30    3.10
  18  -2   3    7.40    3.60
 -18   2  -3   15.80    3.90
 -19  -2  -3   10.30    4.50
 -19   2  -3    5.50    3.30
  20  -3  -3    3.30    4.30
 -20   3   3    8.60    3.20
  19  -3  -3   -6.40    2.80
 -19   3   3   -2.60    1.80
  18  -3  -3   29.30    6.00
 -18   3   3   34.30    4.60
  17  -3  -3   25.80    5.50
 -17   3   3   26.60    3.30
 -17   3   3   25.10    4.00
  16  -3  -3   41.70    6.30
 -16   3   3   41.70    3.90
 -16   3   3   34.80    4.30
  15  -3  -3    0.60    2.60
 -15  -3   3   -0.50    1.20
 -15  -3   3   -0.10    2.10
 -15   3   3   -0.10    1.50
 -15   3   3   -2.90    1.80
 -14  -3   3   26.70    4.00
  14  -3  -3   23.10    4.50
 -14  -3   3   20.50    2.30
 -14   3   3   24.30    3.00
 -14   3   3   19.40    3.20
 -13  -3   3  156.58    6.20
  13  -3  -3  164.28    9.50
 -13  -3   3  166.48    8.30
 -13   3   3  174.88    7.00
 -13   3   3  162.28    7.50
 -12  -3   3   22.10    2.20
  12  -3  -3   18.40    3.90
 -12  -3   3   19.40    3.20
 -12   3   3   24.50    2.90
 -12   3   3   16.80    2.20
  11  -3  -3   73.49    5.90
 -11  -3   3   82.79    5.20
 -11  -3   3   80.29    3.70
 -11   3   3   79.09    4.20
 -11   3   3   84.39    4.70
 -10  -3   3   36.80    3.70
  10  -3  -3   34.80    4.30
 -10  -3   3   30.60    2.10
 -10   3   3   26.70    2.50
 -10   3   3   26.30    2.80
  -9  -3   3   30.90    1.90
   9  -3  -3   24.50    3.60
  -9  -3   3   24.20    2.90
  -9   3   3   29.60    2.50
  -9   3   3   23.70    2.50
   8  -3  -3  105.19    6.10
  -8  -3   3  106.09    5.10
   8   3  -3  105.59    5.30
  -8   3   3  104.29    4.40
  -8   3   3  105.19    4.70
   7  -3  -3  317.47   11.90
  -7  -3   3  310.47   10.50
   7  -3  -3  325.07   10.20
  -7  -3   3  317.47    8.90
   7   3  -3  315.07   10.70
  -7   3   3  325.27   10.20
  -7   3   3  310.27    9.90
   6  -3  -3    9.60    2.00
   6  -3  -3    6.00    1.20
  -6  -3   3    9.50    1.50
   6   3  -3    8.70    1.50
  -6   3   3    9.10    1.40
  -5  -3   3  234.18    6.60
   5  -3  -3  221.98    8.80
   5  -3  -3  225.48    7.20
   5  -3  -3  231.18    7.40
  -5  -3   3  224.58    7.50
  -5   3   3  229.78    7.50
  -5   3   3  229.48    7.30
   5   3  -3  226.38    7.70
   4  -3  -3   49.20    3.40
  -4  -3   3   52.89    2.50
   4  -3  -3   52.39    2.40
  -4  -3   3   54.59    2.10
   4  -3  -3   53.49    2.50
   4  -3  -3   50.09    2.50
  -4   3   3   48.90    2.60
   4   3  -3   51.09    2.00
   4   3  -3   53.49    2.60
  -4   3   3   50.99    2.50
   3  -3  -3   59.09    2.50
  -3  -3   3   51.59    2.30
   3  -3  -3   59.99    2.70
  -3  -3   3   57.89    2.30
   3  -3  -3   57.59    2.60
   3  -3  -3   50.79    3.30
  -3   3   3   55.09    2.70
   3   3  -3   53.49    2.40
  -3   3   3   55.59    2.40
   3   3  -3   53.49    2.20
  -3   3   3   55.39    2.60
  -2  -3   3  521.35   14.30
  -2  -3   3  503.55   13.70
   2  -3  -3  513.25   15.30
   2  -3  -3  511.55   14.60
   2  -3  -3  513.35   14.40
   2  -3  -3  508.95   14.30
   2   3  -3  492.15   13.80
  -2   3   3  518.25   15.30
  -2   3   3  509.45   14.30
   2   3  -3  501.25   14.10
   1  -3  -3   26.80    1.80
   1  -3  -3   23.40    2.20
  -1  -3   3   29.70    1.80
  -1  -3   3   28.40    1.00
   1  -3  -3   32.40    1.90
  -1  -3   3   27.10    1.70
  -1   3   3   26.00    1.70
   1   3  -3   25.70    1.70
   1   3  -3   27.40    2.50
   1   3  -3   30.20    1.70
  -1   3   3   26.40    2.00
   0  -3   3  175.38    5.40
   0  -3   3  180.68    6.10
   0  -3   3  171.18    4.70
   0  -3  -3  173.98    6.50
   0  -3  -3  178.88    6.10
   0   3   3  169.68    5.90
   0   3   3  169.78    6.00
   0   3  -3  166.38    5.50
   0   3  -3  165.88    6.30
   0   3  -3  172.88    5.90
   1  -3   3   69.29    2.40
   1  -3   3   61.59    3.20
  -1  -3  -3   75.09    3.10
  -1  -3  -3   68.49    3.70
   1  -3   3   62.89    2.60
   1  -3   3   63.49    3.40
   1  -3   3   69.89    2.70
  -1   3  -3   66.59    2.50
   1   3   3   72.89    3.70
  -1   3  -3   71.19    3.50
  -1   3  -3   75.79    3.40
   1   3   3   72.59    3.10
  -1   3  -3   72.69    2.80
   2  -3   3   21.60    2.30
  -2  -3  -3   24.70    2.50
   2  -3   3   25.00    1.60
   2  -3   3   26.00    1.50
  -2  -3  -3   19.70    1.60
  -2   3  -3   25.40    1.40
   2   3   3   27.00    1.80
   2   3   3   27.40    2.70
  -2   3  -3   24.50    1.50
  -2   3  -3   28.30    2.40
  -2   3  -3   27.50    2.20
   3  -3   3 3127.99   83.19
   3  -3   3 3015.80   85.29
  -3  -3  -3 3091.19   83.49
   3  -3   3 3139.79   83.19
   3   3   3 3233.98   83.69
  -3   3  -3 3078.49   83.19
  -3   3  -3 3216.98   84.09
   3   3   3 3131.89   82.09
   4  -3   3  289.87    9.10
   4  -3   3  285.97    8.80
   4  -3   3  292.77    9.80
  -4  -3  -3  284.57   10.10
   4   3   3  283.17    8.80
  -4   3  -3  271.37    9.80
   4   3   3  289.77   10.20
   5  -3   3  151.28    6.50
  -5  -3  -3  167.38    7.00
  -5   3  -3  160.18    5.90
   5   3   3  160.58    6.90
  -5   3  -3  150.48    6.60
  -6  -3  -3  114.99    5.90
   6  -3   3  126.79    5.70
   6  -3   3  112.89    5.20
  -6   3  -3  117.29    5.10
  -6   3  -3  120.69    5.70
   6   3   3  114.89    5.80
  -7  -3  -3  229.08    9.30
   7  -3   3  223.88    8.90
   7  -3   3  228.28    8.60
  -7   3  -3  231.58    8.40
  -7   3  -3  215.98    8.90
   8  -3   3   64.09    4.30
  -8  -3  -3   59.99    4.60
  -8   3  -3   57.59    4.20
  -8   3  -3   61.09    3.90
  -9  -3  -3  423.36   15.10
   9  -3   3  430.56   14.80
  -9   3  -3  409.66   14.10
  -9   3  -3  409.76   14.60
  10  -3   3    3.00    1.80
 -10  -3  -3   -1.60    1.60
 -10   3  -3    0.30    1.80
 -11  -3  -3  132.79    7.20
 -11  -3  -3  140.89    7.80
  11  -3   3  149.59    7.80
 -11   3  -3  142.49    7.50
  12  -3   3   38.20    4.70
 -12  -3  -3   40.20    4.90
 -12  -3  -3   46.20    4.90
 -12   3  -3   53.49    5.20
 -13  -3  -3    7.90    2.90
 -13  -3  -3    4.90    2.40
  13  -3   3    3.00    2.30
 -13   3  -3    2.40    2.10
  14  -3   3    9.70    3.20
 -14  -3  -3    9.40    3.20
 -14  -3  -3    8.10    2.80
 -14   3  -3   13.30    3.20
  15  -3   3   20.80    4.40
 -15  -3  -3   26.40    4.10
 -15  -3  -3   25.40    4.70
 -15   3  -3   21.40    4.10
  16  -3   3   -0.60    2.50
 -16  -3  -3    3.60    3.10
 -16  -3  -3    3.30    2.70
 -16   3  -3    1.20    2.40
  16   3   3    0.80    2.30
 -17  -3  -3   40.90    5.50
 -17  -3  -3   31.50    5.30
  17  -3   3   32.90    5.50
 -17   3  -3   28.40    4.90
 -18  -3  -3    5.80    3.40
  18  -3   3    3.80    3.30
 -18  -3  -3    5.90    2.90
 -18   3  -3    6.80    3.40
 -19   3  -3   12.40    3.90
  20  -4  -3   19.50    5.50
  19  -4  -3   -0.50    3.40
 -19   4   3    0.60    2.20
  18  -4  -3    3.90    3.60
 -18   4   3    3.20    2.30
  17  -4  -3   28.20    5.70
 -17   4   3   27.70    3.50
 -17   4   3   29.30    4.30
  16  -4  -3   31.00    5.80
 -16  -4   3   32.50    4.80
 -16   4   3   44.30    4.70
 -16   4   3   42.50    4.10
 -15  -4   3   44.20    5.30
  15  -4  -3   38.80    5.90
 -15   4   3   46.70    4.10
 -15   4   3   35.90    4.30
 -14  -4   3   89.09    6.40
  14  -4  -3  109.39    8.10
 -14  -4   3   94.69    4.60
 -14   4   3   97.99    5.70
 -14   4   3   93.19    5.20
 -13  -4   3  177.68    8.80
  13  -4  -3  162.18    9.90
 -13  -4   3  188.28    6.90
 -13   4   3  177.78    7.50
 -13   4   3  189.48    8.00
 -12  -4   3    9.90    1.70
 -12  -4   3    8.30    2.60
  12  -4  -3    8.90    3.30
 -12   4   3   14.00    2.20
 -12   4   3   14.70    2.50
 -11  -4   3  212.98    9.40
  11  -4  -3  226.38   11.00
 -11  -4   3  226.58    7.80
 -11   4   3  234.38    8.60
 -11   4   3  237.78    8.70
  10  -4  -3   19.80    3.70
 -10  -4   3   21.10    1.50
 -10  -4   3   21.40    3.00
 -10   4   3   17.80    2.30
 -10   4   3   18.10    2.30
  -9  -4   3  192.48    8.00
   9  -4  -3  195.88    9.40
  -9  -4   3  197.88    6.20
  -9   4   3  191.38    7.30
  -9   4   3  193.68    7.30
  -8  -4   3    7.50    1.80
  -8  -4   3    9.40    1.10
   8  -4  -3   12.10    2.80
  -8   4   3    7.40    1.70
   8   4  -3   11.10    2.10
  -8   4   3    7.50    1.50
   7  -4  -3  148.39    7.40
  -7  -4   3  146.59    4.80
  -7  -4   3  150.68    6.20
  -7   4   3  152.58    5.80
   7   4  -3  154.38    6.40
  -7   4   3  142.39    5.70
  -6  -4   3  551.24   16.50
   6  -4  -3  553.44   15.70
  -6  -4   3  538.95   15.30
   6  -4  -3  530.95   18.00
  -6   4   3  550.04   16.10
   6   4  -3  581.64   16.80
  -6   4   3  565.84   16.30
   5  -4  -3 1043.60   28.10
   5  -4  -3 1061.69   28.30
  -5  -4   3 1055.49   28.70
  -5  -4   3 1038.70   27.90
   5  -4  -3 1038.80   30.50
  -5   4   3 1027.70   28.70
  -5   4   3 1010.00   28.50
   5   4  -3 1020.40   28.80
   4  -4  -3   30.20    3.20
  -4  -4   3   28.50    1.70
   4  -4  -3   29.30    1.90
   4  -4  -3   32.30    1.80
  -4  -4   3   26.20    1.90
  -4   4   3   32.10    2.10
   4   4  -3   27.30    1.70
   4   4  -3   25.70    1.90
  -4   4   3   30.60    2.10
   3  -4  -3  650.33   17.60
   3  -4  -3  597.54   16.40
  -3  -4   3  574.84   16.30
  -3  -4   3  580.54   16.40
   3  -4  -3  581.84   16.60
   3  -4  -3  589.94   18.10
   3   4  -3  581.64   16.30
  -3   4   3  579.64   16.80
  -3   4   3  581.04   16.20
   3   4  -3  549.35   16.30
  -2  -4   3   16.10    1.60
   2  -4  -3   12.90    2.00
  -2  -4   3   14.90    1.20
   2  -4  -3   14.40    1.60
   2  -4  -3   14.60    1.40
   2  -4  -3   16.70    1.70
   2   4  -3   11.50    1.30
  -2   4   3   14.20    1.70
  -2   4   3   13.50    1.40
   2   4  -3   13.90    1.20
   1  -4  -3 2007.20   51.49
  -1  -4   3 1951.50   50.49
  -1  -4   3 1939.61   50.89
   1  -4  -3 1832.72   51.59
   1   4  -3 1809.62   50.59
  -1   4   3 1880.61   50.59
   0  -4   3  129.09    4.30
   0  -4   3  131.19    5.10
   0  -4  -3  126.49    5.30
   0  -4   3  136.49    4.00
   0  -4  -3  135.99    5.80
   0  -4   3  147.99    5.90
   0   4  -3  132.19    5.00
   0   4   3  131.19    5.30
   0   4   3  122.79    4.80
   0   4  -3  129.69    4.40
  -1  -4  -3    6.20    1.30
   1  -4   3    6.80    1.60
  -1  -4  -3   10.10    1.80
   1  -4   3    7.90    0.90
   1   4   3    5.60    1.30
   1   4   3    7.20    1.70
  -1   4  -3    7.70    1.40
  -1   4  -3    9.40    1.10
  -2  -4  -3   56.99    3.00
   2  -4   3   69.39    3.90
  -2  -4  -3   56.99    3.70
   2  -4   3   58.29    2.50
   2  -4   3   59.59    2.50
  -2   4  -3   64.29    2.50
   2   4   3   60.39    3.70
  -2   4  -3   62.89    3.40
   2   4   3   64.09    3.20
  -2   4  -3   59.29    2.10
  -3  -4  -3 1595.54   43.90
   3  -4   3 1563.24   41.90
   3  -4   3 1571.44   42.10
   3  -4   3 1538.35   43.60
  -3   4  -3 1555.84   43.30
   3   4   3 1633.54   42.70
  -3   4  -3 1600.44   41.40
   3   4   3 1571.44   43.80
   4  -4   3  576.94   16.10
   4  -4   3  578.34   16.60
  -4  -4  -3  570.54   18.00
   4  -4   3  558.84   17.80
   4   4   3  598.24   16.80
   4   4   3  568.74   18.00
  -4   4  -3  565.54   17.50
   5  -4   3  256.17    8.20
  -5  -4  -3  261.07    9.90
   5  -4   3  255.37    9.70
   5   4   3  264.57    8.60
  -5   4  -3  243.48    9.30
   5   4   3  266.47    9.90
   6  -4   3    8.50    1.40
   6  -4   3    7.80    1.60
   6  -4   3    8.60    2.20
  -6  -4  -3    7.20    2.10
  -6   4  -3    9.80    2.00
   7  -4   3   25.00    3.30
  -7  -4  -3   24.60    3.40
   7  -4   3   30.40    3.00
  -7   4  -3   27.50    3.20
  -8  -4  -3    3.30    1.80
   8  -4   3    2.60    1.70
  -8   4  -3    2.80    1.70
  -9  -4  -3    2.20    1.70
   9  -4   3    1.60    1.70
  -9   4  -3    3.90    1.90
  10  -4   3   76.79    5.60
 -10  -4  -3   82.49    5.90
 -10   4  -3   71.49    5.10
 -11  -4  -3  377.76   14.30
  11  -4   3  348.77   14.00
 -11   4  -3  334.97   13.30
  12  -4   3    7.60    2.70
 -12  -4  -3   14.20    3.30
 -12  -4  -3    8.70    2.80
 -12   4  -3   10.10    2.90
  13  -4   3   17.40    3.80
 -13  -4  -3   17.70    3.40
 -13  -4  -3   18.00    3.90
 -13   4  -3   22.40    3.90
 -14  -4  -3   32.80    5.10
  14  -4   3   27.60    4.70
 -14  -4  -3   23.80    4.10
 -14   4  -3   24.90    4.30
  15  -4   3    2.60    2.80
 -15  -4  -3    9.30    3.50
 -15  -4  -3    0.50    2.60
 -15   4  -3    4.00    2.60
  16  -4   3   11.30    3.90
 -16  -4  -3    6.30    2.90
 -16  -4  -3   13.90    4.00
 -16   4  -3   11.80    3.30
 -17  -4  -3   11.70    3.90
 -17  -4  -3    9.20    3.30
  17  -4   3   10.50    3.70
 -17   4  -3    5.10    3.20
 -18  -4  -3    9.90    4.00
  18  -4   3   12.40    4.10
 -18   4  -3    8.80    3.30
  19  -4   3    3.40    4.00
 -19   4  -3   -2.80    2.80
  20  -5  -3   13.00    5.30
  19  -5  -3   -0.80    3.50
  18  -5  -3    2.30    3.60
 -18   5   3   -2.40    1.80
 -17  -5   3   14.30    4.00
  17  -5  -3   15.30    5.10
 -17   5   3   29.80    4.10
 -17   5   3   17.60    3.20
 -16  -5   3   -0.50    2.40
  16  -5  -3   -2.90    3.10
 -16   5   3   -0.30    1.80
  15  -5  -3    6.10    3.40
 -15  -5   3    7.70    2.90
 -15   5   3    4.10    2.00
 -15   5   3    1.90    2.00
 -14  -5   3    4.50    2.50
  14  -5  -3   14.80    4.20
 -14  -5   3    9.80    1.90
 -14   5   3   10.10    2.40
 -14   5   3    7.80    2.20
  13  -5  -3   10.80    3.60
 -13  -5   3    8.40    1.80
 -13  -5   3    8.30    2.80
 -13   5   3   12.20    2.40
 -13   5   3    8.50    2.20
 -12  -5   3  161.48    8.10
  12  -5  -3  160.78    9.60
 -12   5   3  147.39    6.90
 -12   5   3  164.48    7.00
 -11  -5   3   29.30    3.70
  11  -5  -3   28.10    4.50
 -11   5   3   28.20    3.10
 -11   5   3   29.60    3.20
 -10  -5   3    2.40    1.70
 -10  -5   3    1.30    0.70
  10  -5  -3    2.40    2.30
 -10   5   3    1.60    1.30
 -10   5   3    2.00    1.30
   9  -5  -3  176.08    9.20
  -9  -5   3  181.88    5.90
  -9  -5   3  169.18    7.50
  -9   5   3  171.08    6.70
  -9   5   3  171.58    7.00
  -8  -5   3  118.79    5.80
   8  -5  -3  120.49    4.70
  -8  -5   3  120.79    4.50
   8  -5  -3  121.29    7.10
  -8   5   3  126.79    5.20
  -8   5   3  137.29    5.70
   8   5  -3  122.39    6.00
  -7  -5   3  260.97    8.10
   7  -5  -3  256.67   10.90
   7  -5  -3  263.97    8.20
  -7  -5   3  259.07    9.20
  -7   5   3  250.67    9.00
  -7   5   3  260.27    8.70
   7   5  -3  263.77    9.50
   6  -5  -3   11.40    2.60
  -6  -5   3   10.50    1.30
  -6  -5   3   12.40    1.90
   6  -5  -3   14.80    1.50
  -6   5   3   13.20    1.70
   6   5  -3   13.90    2.00
  -6   5   3    8.10    1.60
   5  -5  -3   22.30    3.20
   5  -5  -3   20.40    1.70
  -5  -5   3   21.90    1.90
  -5  -5   3   20.20    2.10
   5  -5  -3   19.90    1.80
  -5   5   3   22.60    2.10
   5   5  -3   22.40    2.30
  -5   5   3   18.70    2.10
   4  -5  -3    8.80    1.30
   4  -5  -3    8.80    1.20
  -4  -5   3    8.20    1.40
   4  -5  -3    6.10    2.00
  -4  -5   3    8.80    1.30
   4   5  -3    7.80    1.30
   4   5  -3    7.80    1.40
  -4   5   3    9.40    1.60
   3  -5  -3   65.79    2.80
   3  -5  -3   72.29    4.40
   3  -5  -3   63.79    3.00
  -3  -5   3   64.19    2.90
  -3   5   3   67.09    3.40
   3   5  -3   62.79    3.00
  -3   5   3   56.89    2.60
   3   5  -3   68.69    3.00
  -2  -5   3  119.89    4.20
   2  -5  -3  114.89    4.60
   2  -5  -3  123.89    5.80
  -2   5   3  113.19    4.80
   2   5  -3  120.59    4.20
   2   5  -3  121.79    4.60
  -2   5   3  112.89    4.20
   1  -5  -3  510.75   16.30
  -1  -5   3  519.95   14.40
   1  -5  -3  538.25   16.50
   1   5  -3  521.75   15.30
  -1   5   3  516.05   15.00
   0  -5   3   72.39    2.90
   0  -5  -3   87.39    4.60
   0  -5  -3   73.39    4.10
   0  -5   3   74.39    2.90
   0  -5   3   81.39    4.50
   0   5  -3   75.49    3.70
   0   5  -3   77.59    3.00
   0   5   3   73.59    3.50
   1  -5   3    2.00    0.60
  -1  -5  -3    1.50    1.20
   1  -5   3    2.50    1.50
  -1  -5  -3    3.70    1.30
  -1   5  -3    2.30    0.70
   1   5   3    1.80    1.30
  -1   5  -3    1.90    1.10
  -2  -5  -3 1124.79   32.70
  -2  -5  -3 1155.08   32.10
   2  -5   3 1124.89   32.90
  -2   5  -3 1152.78   32.10
   2   5   3 1151.88   32.80
  -2   5  -3 1154.18   30.50
   3  -5   3   81.09    4.80
  -3  -5  -3   83.19    4.80
   3  -5   3   78.59    2.80
   3  -5   3   74.79    3.30
   3   5   3   79.49    4.60
  -3   5  -3   77.09    4.20
   4  -5   3  460.65   13.80
  -4  -5  -3  457.25   15.50
   4  -5   3  468.65   13.20
   4  -5   3  470.85   15.60
  -4   5  -3  458.55   12.40
  -4   5  -3  489.15   15.10
   4   5   3  489.75   15.60
   5  -5   3    1.00    1.40
   5  -5   3    2.40    0.70
  -5  -5  -3    4.90    1.90
   5  -5   3    2.30    0.90
  -5   5  -3    1.20    0.50
  -5   5  -3    1.40    1.40
   5   5   3    3.80    1.80
   6  -5   3   39.60    2.80
   6  -5   3   42.80    2.40
   6  -5   3   51.09    4.70
  -6  -5  -3   36.20    3.90
  -6   5  -3   33.40    3.50
   7  -5   3  429.36   12.60
  -7  -5  -3  412.36   14.90
   7  -5   3  416.56   13.60
   7  -5   3  426.36   14.90
  -7   5  -3  381.36   14.10
   8  -5   3   44.00    4.80
  -8  -5  -3   39.50    4.50
  -8   5  -3   46.70    4.50
   9  -5   3    0.60    1.70
  -9  -5  -3   -0.10    1.80
  -9   5  -3    0.60    1.70
  10  -5   3   67.59    6.20
 -10  -5  -3   65.09    6.10
 -10   5  -3   69.19    5.80
  11  -5   3   61.09    6.00
 -11  -5  -3   64.19    6.10
 -11   5  -3   52.09    5.20
  12  -5   3   47.40    5.70
 -12  -5  -3   46.80    5.60
 -12   5  -3   46.80    5.10
 -13  -5  -3  103.59    7.40
 -13  -5  -3  100.49    6.80
  13  -5   3  115.19    7.70
 -13   5  -3   99.79    6.70
 -14  -5  -3   41.00    5.20
 -14  -5  -3   42.70    5.80
  14  -5   3   40.40    5.80
 -14   5  -3   32.00    4.60
 -15  -5  -3    4.30    3.00
 -15  -5  -3    1.60    2.40
  15  -5   3    3.70    2.90
 -15   5  -3   -1.80    2.10
 -16  -5  -3  254.47   12.10
  16  -5   3  266.67   13.20
 -16  -5  -3  242.88   12.80
 -16   5  -3  251.27   11.90
 -17  -5  -3   -0.60    2.50
  17  -5   3    0.80    3.10
 -17  -5  -3    1.80    3.30
 -17   5  -3    2.50    2.90
 -18  -5  -3   23.00    5.10
  18  -5   3   29.60    5.70
 -18   5  -3   27.50    5.00
  19  -6  -3   -0.20    4.30
  18  -6  -3    7.50    4.40
 -18  -6   3    3.30    3.10
 -18   6   3    6.00    2.70
 -17  -6   3    1.20    2.90
  17  -6  -3   12.60    4.80
 -17   6   3   10.20    2.90
 -16  -6   3   32.50    4.80
  16  -6  -3   35.80    6.50
 -16   6   3   33.70    4.10
 -16   6   3   29.20    3.80
 -15  -6   3   -1.20    2.30
  15  -6  -3    0.20    2.90
 -15   6   3   -1.90    1.60
 -15   6   3    1.00    1.80
  14  -6  -3   18.20    4.70
 -14  -6   3   22.40    3.90
 -14   6   3   19.50    3.10
 -14   6   3   19.00    3.00
  13  -6  -3    9.30    3.80
 -13  -6   3    6.10    2.40
 -13   6   3    4.50    2.00
 -13   6   3    9.20    2.20
  12  -6  -3  677.83   24.90
 -12  -6   3  699.93   22.60
 -12   6   3  690.53   21.00
 -12   6   3  692.73   21.50
  11  -6  -3   33.50    4.90
 -11  -6   3   42.50    4.60
 -11   6   3   37.00    3.40
 -11   6   3   33.40    3.60
 -10  -6   3   42.80    4.20
  10  -6  -3   39.80    5.30
 -10   6   3   34.50    3.60
 -10   6   3   41.90    3.10
   9  -6  -3  171.68    9.40
  -9  -6   3  174.08    7.80
   9  -6  -3  173.18    6.30
  -9   6   3  183.58    6.80
  -9   6   3  185.28    7.60
   8  -6  -3   -0.30    0.70
   8  -6  -3    4.50    2.30
  -8  -6   3    1.20    1.30
   8   6  -3    0.00    1.30
  -8   6   3    0.70    1.30
  -8   6   3    0.30    0.90
   7  -6  -3   19.60    1.80
   7  -6  -3   11.60    3.00
  -7  -6   3   21.70    2.70
  -7   6   3   21.70    2.20
  -7   6   3   21.70    2.70
   7   6  -3   34.90    3.40
   6  -6  -3  579.04   16.40
  -6  -6   3  574.94   17.70
   6  -6  -3  585.34   19.90
  -6   6   3  601.74   17.90
   6   6  -3  587.14   17.90
   5  -6  -3    9.00    2.60
   5  -6  -3   14.10    1.30
   5  -6  -3   13.10    1.50
  -5  -6   3    9.50    1.60
  -5   6   3   11.60    1.90
   5   6  -3   13.80    1.90
   4  -6  -3  308.77    9.50
   4  -6  -3  302.77    9.00
   4  -6  -3  312.37   11.90
  -4  -6   3  303.17    9.80
   4   6  -3  293.67    9.60
   4   6  -3  303.17    9.90
  -4   6   3  326.67   10.50
  -3  -6   3  759.92   20.80
   3  -6  -3  738.23   20.90
   3  -6  -3  756.72   23.30
  -3   6   3  728.63   20.20
  -3   6   3  730.23   21.50
   3   6  -3  730.93   21.00
   3   6  -3  728.03   20.80
  -2  -6   3  606.44   17.30
   2  -6  -3  644.44   19.70
   2  -6  -3  622.84   17.80
  -2   6   3  597.14   17.20
  -2   6   3  606.04   18.30
   2   6  -3  600.04   17.80
  -1  -6   3  310.77    9.40
   1  -6  -3  313.77   11.30
   1  -6  -3  304.07   11.20
  -1   6   3  315.47    9.70
   1   6  -3  310.07   10.10
   0  -6  -3  200.58    8.20
   0  -6   3  204.78    8.60
   0  -6   3  207.28    6.40
   0  -6  -3  200.18    8.30
   0  -6   3  215.98    6.70
   0   6   3  198.28    7.10
   0   6  -3  212.58    7.50
   0   6  -3  201.98    6.50
   1  -6   3  142.69    4.60
   1  -6   3  136.49    6.80
  -1  -6  -3  147.69    6.50
  -1  -6  -3  141.09    6.60
  -1   6  -3  151.88    4.80
  -1   6  -3  152.78    6.10
  -2  -6  -3   34.30    3.30
  -2  -6  -3   32.90    3.60
   2  -6   3   45.60    4.40
   2   6   3   37.60    3.80
  -2   6  -3   35.80    1.70
  -2   6  -3   39.70    3.00
   3  -6   3   57.69    4.20
  -3  -6  -3   53.79    4.00
   3   6   3   42.70    4.00
  -3   6  -3   48.90    3.50
   4  -6   3   41.10    4.30
  -4  -6  -3   39.60    4.00
   4  -6   3   39.40    1.70
  -4   6  -3   42.70    3.80
   5  -6   3  270.57    7.90
   5  -6   3  265.67   10.90
   5  -6   3  280.67    9.20
  -5  -6  -3  273.67   10.80
  -5   6  -3  263.57   10.10
  -6  -6  -3   37.70    4.20
   6  -6   3   37.00    2.00
   6  -6   3   38.30    2.80
   6  -6   3   38.20    4.40
  -6   6  -3   31.80    3.50
  -7  -6  -3   60.79    5.50
   7  -6   3   63.29    2.90
   7  -6   3   52.79    5.30
   7  -6   3   58.49    3.80
  -7   6  -3   56.79    4.20
  -8  -6  -3   14.00    3.20
   8  -6   3   10.50    2.90
   8  -6   3   11.70    1.60
  -8   6  -3    9.80    2.40
   9  -6   3   39.60    2.80
  -9  -6  -3   40.90    4.80
   9  -6   3   38.40    4.90
  -9   6  -3   43.80    4.50
  10  -6   3   39.90    5.30
 -10  -6  -3   35.40    4.70
  10  -6   3   31.10    3.00
 -10   6  -3   39.00    4.50
  11  -6   3  192.48   10.30
 -11  -6  -3  192.98   10.10
 -11   6  -3  218.68    9.90
  12  -6   3   45.00    6.00
 -12  -6  -3   28.50    4.60
 -12   6  -3   46.90    5.20
 -13  -6  -3   52.39    6.20
  13  -6   3   46.30    6.10
 -13   6  -3   51.99    5.60
 -14  -6  -3    5.20    3.10
  14  -6   3    1.30    3.10
 -14  -6  -3    1.90    2.30
 -14   6  -3    0.20    2.30
 -15  -6  -3   68.19    7.50
 -15  -6  -3   77.39    7.20
  15  -6   3   83.09    8.40
 -15   6  -3   81.59    7.20
 -16  -6  -3    1.20    3.10
 -16  -6  -3   -0.80    2.60
  16  -6   3   -0.90    3.20
 -16   6  -3    0.50    2.80
 -17  -6  -3   20.20    5.10
 -17  -6  -3   24.50    6.60
  17  -6   3   25.40    5.50
 -17   6  -3   23.60    4.70
  18  -6   3   -0.60    3.50
 -18   6  -3    6.00    3.40
 -19  -7   3   17.70    4.90
  19  -7  -3   19.90    6.00
 -18  -7   3  146.19    9.70
  18  -7  -3  200.38   13.50
 -18   7   3  163.88    8.70
  17  -7  -3   53.49    8.00
 -17  -7   3   47.00    6.00
 -17   7   3   46.60    5.10
 -16  -7   3   62.49    6.60
  16  -7  -3   61.79    8.50
 -16   7   3   60.29    5.60
 -15  -7   3    1.50    2.40
  15  -7  -3   -0.40    2.80
 -15   7   3   -1.70    2.00
  14  -7  -3   15.60    4.70
 -14  -7   3    9.30    3.00
 -14   7   3   15.90    3.10
 -14   7   3   12.30    2.50
 -13  -7   3   11.80    3.10
  13  -7  -3   10.70    4.10
 -13   7   3   10.50    2.70
 -13   7   3   17.20    2.70
  12  -7  -3   51.79    6.80
 -12  -7   3   62.39    5.70
 -12   7   3   54.19    4.90
 -12   7   3   49.70    3.70
 -11  -7   3  112.29    6.50
  11  -7  -3  100.99    7.90
 -11   7   3  122.19    5.40
 -11   7   3  107.59    6.10
  10  -7  -3  146.79    9.30
 -10  -7   3  162.18    7.70
  10  -7  -3  169.08    7.30
 -10   7   3  148.19    6.20
 -10   7   3  155.18    7.30
   9  -7  -3   40.30    2.40
  -9  -7   3   41.20    4.00
   9  -7  -3   39.50    5.30
  -9   7   3   39.90    3.90
  -9   7   3   39.40    2.70
   8  -7  -3 1154.68   30.90
   8  -7  -3 1132.49   35.70
  -8  -7   3 1150.78   33.00
  -8   7   3 1137.99   31.50
  -8   7   3 1120.59   32.80
   7  -7  -3   73.69    6.80
  -7  -7   3   66.89    4.30
   7  -7  -3   70.29    2.90
  -7   7   3   62.89    4.20
   7   7  -3   75.89    4.50
   6  -7  -3   13.70    3.10
  -6  -7   3   23.70    2.70
   6  -7  -3   18.70    1.30
   6  -7  -3   20.70    1.60
   6   7  -3   18.40    2.50
  -6   7   3   20.20    2.70
  -5  -7   3   34.60    3.10
   5  -7  -3   45.00    4.90
   5  -7  -3   37.50    2.20
  -5   7   3   35.10    3.40
   5   7  -3   37.60    3.20
   4  -7  -3  259.27    8.40
  -4  -7   3  260.77    8.90
   4  -7  -3  276.57   11.20
   4   7  -3  258.57    8.90
   4   7  -3  262.37    8.80
  -4   7   3  252.37    9.40
   3  -7  -3    3.50    1.90
   3  -7  -3    4.60    1.10
  -3  -7   3    4.10    1.20
   3   7  -3    3.20    1.10
   3   7  -3    5.00    1.40
  -3   7   3    6.80    1.70
  -3   7   3    6.00    1.00
  -2  -7   3  133.29    5.10
   2  -7  -3  129.59    6.90
  -2   7   3  137.29    4.90
   2   7  -3  132.09    5.60
  -2   7   3  139.99    6.00
   1  -7  -3  227.28    9.30
   1  -7  -3  240.98    9.60
  -1  -7   3  226.78    7.60
   1   7  -3  234.58    8.30
  -1   7   3  217.48    7.60
   0  -7  -3  885.41   27.10
   0  -7   3  887.01   25.00
   0  -7  -3  918.21   27.20
   0  -7   3  916.01   27.80
   0   7   3  889.61   25.40
   0   7  -3  914.61   24.70
   0   7  -3  905.21   26.00
   1  -7   3   44.00    2.00
   1  -7   3   41.60    4.40
  -1  -7  -3   53.09    4.60
  -1  -7  -3   48.90    4.50
   1  -7   3   42.20    2.70
  -1   7  -3   46.80    2.20
  -1   7  -3   49.30    3.40
   2  -7   3  273.37   11.20
  -2  -7  -3  281.07   10.60
  -2  -7  -3  292.67   11.10
   2  -7   3  279.87    7.70
  -2   7  -3  266.77   10.00
  -2   7  -3  274.27    8.00
   2   7   3  307.97   12.10
  -3  -7  -3    1.20    1.60
   3  -7   3   -1.10    1.60
  -3   7  -3   -0.80    1.20
   4  -7   3  226.88   10.20
  -4  -7  -3  247.78   10.10
   4  -7   3  245.28    8.20
  -4   7  -3  244.48    9.40
   5  -7   3  485.95   14.50
   5  -7   3  478.45   16.90
  -5  -7  -3  429.06   16.10
  -5   7  -3  474.55   15.70
   6  -7   3  107.99    3.30
   6  -7   3   90.59    4.80
   6  -7   3  105.39    6.70
  -6  -7  -3  100.39    6.30
  -6   7  -3  106.29    5.90
   7  -7   3  104.09    6.90
   7  -7   3  104.49    3.70
  -7  -7  -3  106.99    6.60
  -7   7  -3  106.09    6.00
  -8  -7  -3   70.49    6.40
   8  -7   3   77.49    3.30
   8  -7   3   76.99    6.10
  -8   7  -3   83.59    5.50
   9  -7   3    7.70    2.90
   9  -7   3    9.80    1.50
  -9  -7  -3    5.70    2.70
  -9   7  -3    9.60    0.80
  -9   7  -3    8.20    2.60
 -10  -7  -3   12.20    3.20
  10  -7   3   11.20    3.40
  10  -7   3    9.60    1.70
 -10   7  -3   12.20    1.20
 -10   7  -3   13.50    3.10
  11  -7   3   10.10    3.40
 -11  -7  -3   11.10    3.40
  11  -7   3   10.80    1.90
 -11   7  -3   10.10    2.00
 -11   7  -3    5.80    2.70
  12  -7   3    3.70    3.10
  12  -7   3    8.50    1.90
 -12  -7  -3   11.10    3.50
 -12   7  -3    8.80    2.90
  13  -7   3    1.30    3.10
 -13  -7  -3    4.50    2.90
 -13   7  -3    0.80    2.30
  14  -7   3   -0.70    2.70
 -14  -7  -3    1.60    2.80
 -14   7  -3   -1.60    2.20
 -15  -7  -3   33.60    5.40
  15  -7   3   30.70    5.80
 -15  -7  -3   28.10    4.70
 -15   7  -3   30.00    5.10
  16  -7   3    1.20    3.30
 -16  -7  -3   -2.50    2.60
 -16  -7  -3    4.10    2.70
 -16   7  -3    0.10    2.50
 -17  -7  -3   27.50    5.40
  17  -7   3   26.50    5.90
 -17   7  -3   34.20    5.30
 -18  -8   3   -1.10    3.10
  18  -8  -3    2.00    4.30
 -18   8   3    0.80    2.70
 -17  -8   3   55.89    6.70
  17  -8  -3   44.10    7.60
 -17   8   3   50.89    5.50
  16  -8  -3   62.39    8.50
 -16  -8   3   58.99    6.60
 -16   8   3   53.39    5.70
 -15  -8   3    2.30    2.90
  15  -8  -3   14.20    4.80
 -15   8   3    9.80    3.00
  14  -8  -3   76.99    8.80
 -14  -8   3   66.39    6.60
 -14   8   3   73.59    5.50
  13  -8  -3    9.90    4.10
 -13  -8   3   11.80    3.00
 -13   8   3    9.30    2.70
  12  -8  -3   32.70    5.80
 -12  -8   3   34.70    4.40
 -12   8   3   31.20    3.00
 -12   8   3   32.50    4.10
 -11  -8   3   73.09    5.50
  11  -8  -3   65.39    7.50
 -11   8   3   59.69    3.60
 -11   8   3   67.49    5.50
 -10  -8   3   37.70    4.20
  10  -8  -3   45.90    6.20
 -10   8   3   36.60    2.70
 -10   8   3   48.60    4.60
   9  -8  -3   32.30    5.10
  -9  -8   3   36.10    3.90
  -9   8   3   43.30    4.30
   8  -8  -3    7.90    1.00
   8  -8  -3    7.60    2.80
  -8  -8   3    9.70    2.30
  -8   8   3    3.40    2.00
  -7  -8   3    3.00    1.60
   7  -8  -3    1.80    2.30
   7   8  -3   -1.90    1.10
  -7   8   3    0.70    1.60
   6  -8  -3   75.89    3.20
   6  -8  -3   81.29    6.10
  -6  -8   3   71.89    4.30
   6   8  -3   74.89    4.50
  -6   8   3   80.99    4.80
  -5  -8   3  160.68    6.90
   5  -8  -3  171.68    9.00
   5  -8  -3  178.78    6.00
   5   8  -3  177.28    7.10
  -5   8   3  170.58    7.50
  -4  -8   3    4.50    1.50
   4  -8  -3   -0.20    1.70
   4  -8  -3    5.40    1.20
   4   8  -3    5.30    1.40
   4   8  -3    2.10    1.30
  -4   8   3    0.90    1.40
   3  -8  -3  210.88    9.90
  -3  -8   3  210.68    7.80
   3   8  -3  229.08    8.20
  -3   8   3  222.68    6.90
  -3   8   3  220.18    8.70
  -2  -8   3  170.98    6.40
   2  -8  -3  160.58    8.20
   2  -8  -3  164.68    8.00
   2   8  -3  167.88    6.80
  -2   8   3  161.98    5.80
  -2   8   3  159.48    7.00
  -1  -8   3  746.63   21.60
   1  -8  -3  753.42   24.10
   1  -8  -3  782.12   23.80
   1   8  -3  757.82   22.40
  -1   8   3  738.23   21.40
   0  -8   3   40.20    2.70
   0  -8  -3   45.70    4.60
   0  -8  -3   41.90    4.40
   0  -8   3   38.30    4.50
   0   8  -3   47.00    3.40
   0   8  -3   34.90    2.10
   0   8   3   40.60    2.80
   1  -8   3  160.08    6.20
  -1  -8  -3  154.68    7.60
  -1  -8  -3  159.28    7.80
   1  -8   3  163.08    5.20
   1  -8   3  150.58    8.10
  -1   8  -3  175.88    7.20
  -1   8  -3  167.98    5.30
  -2  -8  -3   34.40    4.00
   2  -8   3   34.30    4.40
  -2  -8  -3   32.90    3.90
   2  -8   3   36.20    1.40
  -2   8  -3   37.40    1.60
  -2   8  -3   39.70    3.70
   3  -8   3  131.39    7.50
  -3  -8  -3  114.29    6.60
  -3   8  -3  126.39    6.20
  -4  -8  -3   15.60    3.00
   4  -8   3   12.50    3.20
  -4   8  -3   16.70    2.70
   5  -8   3  103.29    6.80
   5  -8   3   91.99    4.60
  -5  -8  -3   92.89    6.10
  -5   8  -3  110.89    6.00
   6  -8   3   11.00    2.00
   6  -8   3    3.10    2.50
  -6  -8  -3    5.90    2.50
  -6   8  -3   12.90    2.70
  -7  -8  -3    5.00    2.50
   7  -8   3    5.10    2.70
  -7   8  -3    4.90    2.20
  -8  -8  -3   55.09    5.70
   8  -8   3   64.99    6.70
   8  -8   3   52.89    1.80
  -8   8  -3   47.60    4.90
  -9  -8  -3   -2.00    2.00
   9  -8   3    0.80    0.70
   9  -8   3   -1.00    2.30
  -9   8  -3    2.00    2.10
 -10  -8  -3    3.70    2.50
  10  -8   3   -4.60    1.90
 -10   8  -3    2.00    2.10
  11  -8   3   -0.40    2.80
 -11  -8  -3   -0.60    2.30
 -11   8  -3    3.00    2.50
  12  -8   3   54.89    6.90
 -12  -8  -3   46.30    6.00
 -12   8  -3   49.90    5.60
 -13  -8  -3   -0.50    2.70
  13  -8   3    2.20    3.00
 -13   8  -3    3.90    2.80
 -14  -8  -3   -3.30    2.40
  14  -8   3   -3.40    3.00
 -14   8  -3    1.80    2.90
  15  -8   3  116.29    9.30
 -15  -8  -3  104.39    9.40
 -15   8  -3  120.19    8.00
 -16  -8  -3    2.80    3.60
  16  -8   3   -0.30    3.10
 -16  -8  -3    2.30    3.10
 -16   8  -3    1.20    2.70
 -17  -8  -3   -0.50    3.70
  17  -8   3    9.30    4.50
 -17   8  -3    8.70    3.90
  17  -9  -3    7.10    4.70
 -17  -9   3    5.50    3.40
 -17   9   3    0.00    2.50
  16  -9  -3    9.90    4.80
 -16  -9   3   13.70    4.00
 -16   9   3   14.80    3.60
  15  -9  -3   26.00    5.80
 -15  -9   3   15.10    3.90
 -15   9   3    8.40    3.30
 -14  -9   3   -2.00    2.00
  14  -9  -3    0.20    3.40
 -14   9   3    0.40    2.50
 -13  -9   3   14.70    3.40
  13  -9  -3   14.80    4.70
 -13   9   3   18.60    3.50
 -12  -9   3    1.40    2.30
  12  -9  -3   13.50    4.30
 -12   9   3    4.90    2.40
 -11  -9   3   17.30    3.20
  11  -9  -3    9.00    3.70
 -11   9   3   13.10    3.00
  10  -9  -3    9.20    3.80
 -10  -9   3   17.10    3.20
 -10   9   3   11.70    2.80
   9  -9  -3  171.18   10.20
  -9  -9   3  160.88    7.70
  -9   9   3  141.49    7.50
   8  -9  -3   39.40    5.80
  -8  -9   3   40.10    4.10
  -8   9   3   38.80    4.20
   7  -9  -3  307.07   14.10
  -7  -9   3  329.47   11.80
  -7   9   3  317.17   12.00
   6  -9  -3   52.29    6.00
  -6  -9   3   59.99    4.20
   6  -9  -3   61.99    2.80
  -6   9   3   65.59    4.70
   6   9  -3   54.59    4.10
  -5  -9   3  140.99    6.30
   5  -9  -3  129.79    8.20
   5  -9  -3  137.59    5.10
  -5   9   3  140.99    6.90
   5   9  -3  140.59    6.40
   4  -9  -3    4.50    2.40
   4  -9  -3    3.90    1.10
  -4  -9   3    1.70    1.40
   4   9  -3    1.30    1.40
  -4   9   3    1.90    1.60
   3  -9  -3  740.33   23.80
   3  -9  -3  733.63   24.60
  -3  -9   3  738.13   21.70
   3   9  -3  731.63   22.00
  -3   9   3  709.33   22.60
  -3   9   3  753.12   20.20
   2  -9  -3   15.60    2.10
   2  -9  -3   16.40    3.30
  -2  -9   3   13.10    2.00
   2  -9  -3    9.20    2.70
  -2   9   3   12.50    2.50
  -2   9   3   14.80    1.70
   2   9  -3   13.90    2.30
  -1  -9   3  192.98    7.30
   1  -9  -3  185.08    9.20
   1  -9  -3  183.78    8.80
  -1   9   3  194.78    6.90
   1   9  -3  202.88    8.00
   0  -9   3    0.20    1.00
   0  -9  -3   -1.70    1.50
   0  -9  -3    1.70    1.80
   0  -9   3    1.00    2.00
   0   9  -3    0.00    0.70
   0   9   3    2.20    1.10
   0   9  -3    0.20    1.40
  -1  -9  -3   47.80    5.00
   1  -9   3   51.49    3.30
   1  -9   3   50.89    5.60
   1  -9   3   49.90    2.30
  -1  -9  -3   49.70    4.90
  -1   9  -3   51.89    2.40
  -1   9  -3   54.69    4.00
  -2  -9  -3   17.00    3.20
  -2  -9  -3   15.80    3.00
   2  -9   3   16.30    3.60
   2  -9   3   17.80    2.30
   2  -9   3   16.80    0.80
  -2   9  -3   18.00    1.00
  -2   9  -3   17.50    2.80
   3  -9   3   14.60    3.40
  -3  -9  -3   20.70    3.60
  -3   9  -3   12.40    2.60
  -4  -9  -3   50.79    5.20
   4  -9   3   34.10    4.90
  -4   9  -3   45.70    4.40
   5  -9   3  311.37   10.70
   5  -9   3  325.97   13.90
  -5  -9  -3  322.77   13.00
  -5   9  -3  303.57   12.00
  -6  -9  -3   20.30    3.70
   6  -9   3   13.90    3.60
  -6   9  -3   19.90    3.40
   7  -9   3    7.20    3.10
  -7  -9  -3    6.20    2.70
  -7   9  -3    8.00    2.50
  -8  -9  -3  390.46   15.70
   8  -9   3  376.76   16.30
  -8   9  -3  412.36   15.10
   9  -9   3   29.70    5.10
  -9  -9  -3   22.90    4.20
  -9   9  -3   29.90    4.30
  10  -9   3   -2.20    2.30
 -10  -9  -3    1.90    2.70
 -10   9  -3    0.60    2.20
  11  -9   3    4.30    3.20
 -11  -9  -3   -2.10    2.20
 -11   9  -3    1.10    2.40
 -12  -9  -3    0.30    2.70
  12  -9   3   12.70    4.20
 -12   9  -3    6.40    3.00
  13  -9   3   78.69    8.70
 -13  -9  -3   83.29    8.20
 -13   9  -3   80.29    7.50
  14  -9   3    4.90    3.50
 -14  -9  -3    5.70    3.60
 -14   9  -3    4.80    3.00
  15  -9   3   50.89    7.60
 -15  -9  -3   37.00    6.10
 -15   9  -3   37.60    5.70
 -16  -9  -3   90.29    9.10
  16  -9   3   84.39    9.70
 -16   9  -3   87.09    8.20
 -16 -10   3    6.60    3.30
  16 -10  -3    9.20    4.90
 -16  10   3    6.40    3.20
  15 -10  -3    1.20    3.90
 -15 -10   3    2.20    2.80
 -15  10   3   -2.00    2.30
  14 -10  -3   55.89    8.20
 -14 -10   3   64.29    6.50
 -14  10   3   72.59    6.50
  13 -10  -3   25.00    5.80
 -13 -10   3   13.00    3.40
 -13  10   3   22.40    3.90
 -12 -10   3    3.40    2.70
  12 -10  -3    7.60    3.90
 -12  10   3    0.80    2.20
 -11 -10   3   50.29    5.20
  11 -10  -3   52.99    7.40
 -11  10   3   52.59    5.40
  10 -10  -3   27.10    5.40
 -10 -10   3   20.20    3.50
 -10  10   3   20.50    3.60
   9 -10  -3   11.20    3.90
  -9 -10   3   12.70    2.80
  -9  10   3   15.10    3.10
  -8 -10   3  297.27   11.50
   8 -10  -3  278.87   14.00
  -8  10   3  302.47   12.00
  -7 -10   3    5.70    2.10
   7 -10  -3    2.40    2.70
  -7  10   3    7.70    2.50
   6 -10  -3   37.80    5.70
  -6 -10   3   33.00    3.60
  -6  10   3   40.90    4.30
   5 -10  -3    3.40    2.70
  -5 -10   3   10.00    2.20
  -5  10   3   11.30    2.70
  -4 -10   3    3.40    1.60
   4 -10  -3   -0.40    2.20
   4 -10  -3   -0.30    0.50
  -4  10   3   -1.60    1.50
   4  10  -3    1.10    1.50
   3 -10  -3    5.90    2.70
   3 -10  -3   15.20    3.60
  -3 -10   3   11.70    2.10
   3 -10  -3   14.50    2.00
   3  10  -3   12.20    2.50
  -3  10   3    5.40    2.20
  -3  10   3   12.90    1.30
   2 -10  -3  117.59    7.00
  -2 -10   3   93.09    4.90
   2 -10  -3   91.79    6.70
   2  10  -3   93.89    5.50
  -2  10   3   99.59    4.10
   1 -10  -3   32.30    4.70
   1 -10  -3   32.50    4.30
  -1 -10   3   30.80    3.10
  -1  10   3   34.70    2.60
   1  10  -3   29.90    3.50
   0 -10  -3  374.26   14.40
   0 -10   3  372.16   12.40
   0 -10  -3  377.66   15.00
   0 -10   3  376.46   15.50
   0  10   3  370.86   12.20
   0  10  -3  389.36   11.30
   0  10  -3  374.16   13.30
   1 -10   3  167.08    9.30
  -1 -10  -3  155.68    8.20
   1 -10   3  156.48    6.70
  -1 -10  -3  153.48    8.50
   1 -10   3  159.28    5.30
   1  10   3  159.08    6.70
  -1  10  -3  160.78    7.50
  -1  10  -3  159.88    5.20
   2 -10   3   -0.10    1.30
  -2 -10  -3   -3.80    1.50
   2 -10   3    2.20    2.40
  -2 -10  -3    1.30    2.00
  -2  10  -3    1.00    1.70
  -3 -10  -3  239.98   10.70
   3 -10   3  211.28   11.10
  -3  10  -3  233.18    9.80
   4 -10   3   73.19    7.20
  -4 -10  -3   55.89    5.70
  -4  10  -3   66.89    5.10
  -5 -10  -3  471.45   17.30
   5 -10   3  436.16   18.10
  -5  10  -3  476.55   16.60
  -6 -10  -3    8.30    2.90
   6 -10   3    8.20    3.30
  -6  10  -3    8.90    2.70
  -7 -10  -3  173.48    9.60
   7 -10   3  172.58   10.30
  -7  10  -3  172.48    8.70
  -8 -10  -3   46.60    5.80
   8 -10   3   48.50    6.50
  -8  10  -3   54.89    5.70
   9 -10   3   41.20    6.10
  -9 -10  -3   56.89    6.40
  -9  10  -3   46.30    5.40
 -10 -10  -3   38.30    5.40
  10 -10   3   45.60    6.60
 -10  10  -3   44.30    5.40
 -11 -10  -3   33.70    5.20
  11 -10   3   39.30    6.40
 -11  10  -3   29.80    4.50
 -12 -10  -3    4.40    3.30
  12 -10   3    1.70    3.40
 -12  10  -3    3.90    2.90
 -13 -10  -3   16.70    4.40
  13 -10   3   32.00    6.20
 -13  10  -3   13.10    3.80
  14 -10   3    8.10    4.20
 -14 -10  -3   -3.10    3.10
 -14  10  -3   -1.90    2.60
 -15 -10  -3   -4.10    2.60
  15 -10   3   -1.00    3.50
 -15  10  -3   -1.10    2.70
 -15 -11   3   16.70    3.90
  15 -11  -3   17.70    5.70
 -15  11   3   22.30    4.40
 -14 -11   3    0.40    2.80
  14 -11  -3    6.90    4.40
 -14  11   3    1.90    2.60
 -13 -11   3   14.90    3.70
  13 -11  -3   15.60    5.20
 -13  11   3   18.10    4.10
 -12 -11   3   40.20    5.10
  12 -11  -3   48.70    7.60
 -12  11   3   42.90    5.30
  11 -11  -3   12.10    4.60
 -11 -11   3    9.20    3.00
 -11  11   3    4.20    2.60
 -10 -11   3   25.40    4.00
  10 -11  -3   33.50    6.20
 -10  11   3   21.60    3.90
   9 -11  -3   87.09    9.10
  -9 -11   3   90.49    6.10
  -9  11   3   94.19    6.50
   8 -11  -3   11.50    3.90
  -8 -11   3   14.10    2.90
  -8  11   3   13.60    3.20
  -7 -11   3   24.40    3.50
   7 -11  -3   29.30    5.30
  -7  11   3   26.10    4.00
   6 -11  -3  104.49    7.80
  -6 -11   3   77.39    5.20
  -6  11   3   88.59    6.00
  -5 -11   3    1.10    1.70
   5 -11  -3    1.80    2.70
  -5  11   3   -0.50    1.90
   4 -11  -3   32.50    5.30
   4 -11  -3   40.00    5.00
  -4 -11   3   36.50    3.80
  -4  11   3   36.60    4.30
   3 -11  -3   43.80    5.20
  -3 -11   3   45.90    4.00
   3 -11  -3   44.70    5.80
  -3  11   3   47.30    4.80
   3  11  -3   44.20    4.50
  -3  11   3   45.30    2.40
   2 -11  -3   22.80    4.30
   2 -11  -3   13.50    3.40
  -2 -11   3   20.70    2.70
   2  11  -3   14.30    2.70
  -2  11   3   15.10    1.80
   1 -11  -3    4.00    2.60
  -1 -11   3    6.60    2.00
   1 -11  -3    0.80    2.30
  -1  11   3    6.30    1.50
   1  11  -3    4.10    2.10
   0 -11   3  183.48    7.70
   0 -11  -3  187.88   10.00
   0 -11  -3  200.98    9.80
   0 -11   3  191.28    6.50
   0  11  -3  180.98    8.50
   0  11   3  181.48    7.30
  -1 -11  -3  167.08    9.30
   1 -11   3  157.08    9.60
   1 -11   3  154.58    5.30
   1 -11   3  164.08    7.10
  -1 -11  -3  154.28    8.70
   1  11   3  165.48    7.00
  -1  11  -3  170.18    8.00
   2 -11   3    4.30    1.70
  -2 -11  -3    3.70    2.40
   2 -11   3    3.10    2.80
  -2  11  -3    3.10    2.10
   3 -11   3   67.19    4.60
  -3 -11  -3   61.79    6.10
   3 -11   3   66.39    7.10
  -3  11  -3   64.89    5.70
  -4 -11  -3  174.28    9.30
   4 -11   3  170.18   10.30
  -4  11  -3  173.78    8.60
  -5 -11  -3   -1.30    2.10
   5 -11   3    0.10    2.60
  -5  11  -3   -1.90    1.80
   6 -11   3   10.50    3.80
  -6 -11  -3   13.10    3.60
  -6  11  -3   17.00    3.30
  -7 -11  -3   61.69    6.60
   7 -11   3   52.29    7.10
  -7  11  -3   70.49    6.50
  -8 -11  -3    0.10    2.70
   8 -11   3    2.40    3.00
  -8  11  -3    3.30    2.60
   9 -11   3   -2.00    2.80
  -9 -11  -3    2.00    2.60
  -9  11  -3   -1.20    2.30
 -10 -11  -3   -0.90    2.80
  10 -11   3    4.70    3.60
 -10  11  -3   -2.60    2.40
  11 -11   3    1.60    3.40
 -11 -11  -3    0.30    2.80
 -11  11  -3    0.20    2.50
 -12 -11  -3   14.40    4.20
  12 -11   3    8.80    4.50
 -12  11  -3   15.20    4.20
 -13 -11  -3   20.10    4.70
  13 -11   3   16.20    5.10
 -13  11  -3   24.80    5.10
  14 -11   3    7.70    4.30
 -14 -11  -3    2.50    3.50
 -14  11  -3   -7.70    2.70
  14 -12  -3    8.20    4.90
 -14  12   3    8.30    3.80
  13 -12  -3    7.20    4.30
 -13 -12   3   -1.90    2.30
 -13  12   3    1.50    2.70
  12 -12  -3   20.90    5.70
 -12 -12   3   17.90    3.90
 -12  12   3   23.60    4.30
 -11 -12   3   -0.40    2.10
  11 -12  -3    3.10    3.50
 -11  12   3    5.10    3.00
 -10 -12   3   16.60    3.40
  10 -12  -3   11.10    4.50
 -10  12   3   22.50    4.10
   9 -12  -3   40.70    6.90
  -9 -12   3   24.90    3.80
  -9  12   3   37.60    4.90
   8 -12  -3  194.18   12.20
  -8 -12   3  218.58    9.60
  -8  12   3  204.58   10.10
  -7 -12   3   39.40    4.30
   7 -12  -3   34.60    6.00
  -7  12   3   33.50    4.50
  -6 -12   3   98.09    5.90
   6 -12  -3   99.09    9.40
  -6  12   3  100.79    6.80
   5 -12  -3    8.30    3.30
  -5 -12   3    8.80    2.40
   5 -12  -3    9.10    3.80
  -5  12   3    4.90    2.60
   4 -12  -3    6.00    3.30
  -4 -12   3    6.00    2.10
   4 -12  -3    1.30    2.70
  -4  12   3   11.20    3.00
   3 -12  -3  214.98   10.80
   3 -12  -3  232.78   12.20
  -3 -12   3  232.68    9.20
   3  12  -3  220.38    9.70
  -2 -12   3    3.60    1.80
   2 -12  -3   -0.10    2.30
   2 -12  -3    3.60    2.90
   2  12  -3    5.50    2.30
   1 -12  -3   93.49    7.50
  -1 -12   3   88.29    5.20
   1 -12  -3   89.19    6.60
   1  12  -3  108.89    6.30
  -1  12   3  100.19    4.90
   0 -12  -3   14.30    3.90
   0 -12   3   12.50    2.40
   0 -12   3   16.60    2.70
   0 -12  -3   12.90    3.40
   0  12   3   15.80    2.30
   0  12  -3   16.30    3.20
  -1 -12  -3  186.48   10.30
   1 -12   3  164.88    7.60
  -1 -12  -3  184.18    9.60
   1 -12   3  185.18   11.00
  -1  12  -3  178.48    8.70
   1  12   3  183.98    7.60
   2 -12   3   30.00    3.50
   2 -12   3   37.50    6.00
  -2 -12  -3   30.90    4.70
   2  12   3   28.90    3.50
  -2  12  -3   36.50    4.40
  -3 -12  -3   39.70    5.30
   3 -12   3   36.90    4.00
   3 -12   3   33.10    5.70
  -3  12  -3   37.00    4.60
   4 -12   3    2.90    3.20
   4 -12   3    3.10    1.90
  -4 -12  -3    1.20    2.40
  -4  12  -3    5.60    2.60
  -5 -12  -3   24.70    4.40
   5 -12   3   30.00    5.80
  -5  12  -3   30.10    4.50
  -6 -12  -3   33.20    5.00
   6 -12   3   20.40    5.00
  -6  12  -3   29.10    4.40
   7 -12   3   59.09    7.70
  -7 -12  -3   56.09    6.50
  -7  12  -3   58.29    6.20
   8 -12   3    1.00    3.40
  -8 -12  -3    2.30    2.80
  -8  12  -3    3.30    2.70
  -9 -12  -3   21.00    4.50
   9 -12   3   33.60    6.40
  -9  12  -3   25.50    4.60
 -10 -12  -3    4.90    3.30
  10 -12   3    3.20    4.10
 -10  12  -3    5.20    3.10
  11 -12   3   15.40    5.30
 -11 -12  -3   17.10    4.20
 -11  12  -3    9.40    3.80
  12 -12   3   -0.70    3.60
 -12 -12  -3    0.60    3.00
 -12  12  -3    1.70    3.00
 -13 -12  -3   93.09    9.30
  13 -12   3   88.19   10.30
 -13  12  -3   82.49    8.20
  13 -13  -3   15.90    5.60
 -13  13   3   14.40    4.20
  12 -13  -3    5.90    4.60
 -12  13   3   13.50    4.10
  11 -13  -3   51.39    8.10
  10 -13  -3   14.90    5.10
 -10  13   3    8.90    3.40
   9 -13  -3    2.30    3.70
  -9  13   3    5.80    3.00
   8 -13  -3    3.60    3.60
  -8  13   3    7.30    3.10
   7 -13  -3  155.18   10.80
  -7  13   3  146.19    8.70
   6 -13  -3   -4.60    1.90
   6 -13  -3    0.10    3.00
  -6  13   3    2.80    2.50
   5 -13  -3   -2.30    2.50
   5 -13  -3    1.30    2.70
  -5  13   3    5.60    2.70
   4 -13  -3  245.18   13.50
   4 -13  -3  228.68   11.70
  -4 -13   3  264.77   12.20
   3 -13  -3   23.20    5.10
   3 -13  -3   20.60    4.10
  -3 -13   3   21.00    3.80
  -2 -13   3   49.60    6.30
   2 -13  -3   57.49    7.30
   2 -13  -3   42.40    5.60
   2  13  -3   38.60    4.60
   1 -13  -3  120.99    8.90
   1 -13  -3  107.69    7.80
   1  13  -3  119.89    7.10
   0 -13  -3   83.79    8.50
   0 -13  -3   90.19    6.90
   0  13  -3   76.89    5.80
  -1 -13  -3    2.30    2.60
  -1 -13  -3    5.10    3.20
  -1  13  -3   -2.10    1.90
  -2 -13  -3   11.60    3.50
   2 -13   3    8.20    3.80
   2  13   3    3.70    1.90
  -2  13  -3    6.10    2.60
  -3 -13  -3   56.69    6.30
   3 -13   3   61.19    7.70
   3  13   3   59.89    5.10
  -3  13  -3   54.29    5.70
  -4 -13  -3  107.79    7.80
   4 -13   3  117.59    9.30
  -4  13  -3  114.39    7.50
   5 -13   3  180.38   11.60
  -5 -13  -3  159.88    9.60
  -5  13  -3  159.88    9.10
   6 -13   3   63.69    8.20
  -6 -13  -3   61.09    6.90
  -6  13  -3   50.79    6.00
   7 -13   3    5.00    3.80
  -7 -13  -3    8.00    3.60
  -7  13  -3   14.20    3.80
   8 -13   3    9.60    4.40
  -8 -13  -3    0.30    2.60
  -8  13  -3    6.50    3.20
   9 -13   3    1.30    3.50
  -9 -13  -3    3.10    3.10
  -9  13  -3    3.10    3.00
  10 -13   3    1.80    3.90
 -10 -13  -3    8.10    3.60
 -10  13  -3    4.40    3.50
  11 -13   3    1.60    3.80
 -11 -13  -3   -2.30    2.60
 -11  13  -3   -2.70    2.80
  12 -13   3   77.49    9.70
 -12 -13  -3   66.19    7.90
 -12  13  -3   60.49    7.20
  11 -14  -3    2.10    4.30
 -11  14   3    1.60    3.10
  10 -14  -3    2.80    4.20
 -10  14   3    2.00    3.10
   9 -14  -3    8.30    4.60
  -9  14   3    3.90    3.00
   8 -14  -3    1.90    3.70
  -8  14   3   -1.70    2.40
   7 -14  -3  148.89   11.00
   7 -14  -3  143.99    9.70
  -7  14   3  124.79    8.50
   6 -14  -3   15.10    4.20
   6 -14  -3   12.30    4.60
  -6  14   3   20.50    4.10
   5 -14  -3   10.60    3.50
   5 -14  -3    5.90    4.00
   4 -14  -3   21.40    5.20
   4 -14  -3   17.10    4.10
   3 -14  -3   22.50    4.60
   3 -14  -3   17.60    4.70
   2 -14  -3    1.70    2.60
   2 -14  -3   -0.30    3.10
   2  14  -3    2.40    2.40
   1 -14  -3   64.29    7.90
   1 -14  -3   50.39    6.00
   1  14  -3   72.79    6.40
   0 -14  -3   -0.90    2.40
   0 -14  -3    4.20    3.20
   0  14  -3   -2.90    1.80
  -1 -14  -3  105.49    7.90
  -1  14  -3   98.19    8.00
  -2 -14  -3  109.49    8.10
   2 -14   3  105.09   10.30
  -2  14  -3  102.19    7.20
   3 -14   3   -3.70    2.70
  -3 -14  -3   -0.80    2.70
  -3  14  -3    3.00    2.70
   4 -14   3   -3.30    3.10
  -4 -14  -3   -1.30    2.60
  -4  14  -3   -1.80    2.20
   5 -14   3   17.70    5.00
  -5 -14  -3    6.60    3.40
  -5  14  -3   14.50    3.80
  -6 -14  -3   21.00    4.60
   6 -14   3   25.20    6.00
  -6  14  -3   17.80    4.30
   7 -14   3   65.09    8.80
  -7 -14  -3   66.69    7.50
  -7  14  -3   63.49    7.00
   8 -14   3   -0.40    3.60
  -8 -14  -3   -2.00    2.50
  -8  14  -3    2.60    3.00
  -9 -14  -3   11.40    4.10
   9 -14   3   10.80    4.90
  -9  14  -3   10.00    4.00
  10 -14   3  133.69   13.10
 -10 -14  -3  116.69   10.20
 -10  14  -3  108.99    9.60
   9 -15  -3    1.00    3.10
   9 -15  -3   -1.50    3.30
  -9  15   3    0.00    3.10
   8 -15  -3   -1.40    2.60
   8 -15  -3    1.20    3.90
  -8  15   3   -0.90    2.80
   7 -15  -3   40.70    6.20
   7 -15  -3   60.99    8.80
  -7  15   3   47.30    6.10
   6 -15  -3    1.70    3.00
   6 -15  -3    4.40    4.20
   5 -15  -3   39.00    7.10
   5 -15  -3   28.40    5.20
   4 -15  -3   61.79    8.40
   4 -15  -3   60.99    7.00
   3 -15  -3   19.10    5.30
   3 -15  -3    4.20    3.30
   2 -15  -3    2.00    3.70
   2 -15  -3    0.30    2.50
   1 -15  -3   -2.60    2.90
   1 -15  -3    3.50    2.90
   1  15  -3   -0.40    2.20
   0 -15  -3    0.80    2.80
   0  15  -3    6.90    2.90
  -1 -15  -3   72.29    7.60
  -1  15  -3   76.29    7.10
  -2 -15  -3   10.20    3.90
  -2  15  -3    3.40    2.80
   3 -15   3    0.90    3.80
  -3 -15  -3   -0.20    2.80
  -3  15  -3    1.50    2.70
  -4 -15  -3    5.80    3.40
   4 -15   3    3.70    4.20
  -4  15  -3    9.50    3.50
   5 -15   3   -2.20    3.50
  -5 -15  -3   -1.60    2.80
  -5  15  -3   -2.10    2.40
   6 -15   3    3.20    4.10
  -6 -15  -3   -1.00    2.70
  -6  15  -3    0.50    2.80
   7 -15   3   14.30    5.60
  -7 -15  -3    9.70    4.10
  -7  15  -3    5.80    3.50
  -8 -15  -3   20.20    4.70
   8 -15   3   16.80    5.90
  -8  15  -3   22.10    5.00
   6 -16  -3    2.80    4.10
   5 -16  -3    4.00    4.30
   4 -16  -3   20.80    5.60
   3 -16  -3   19.00    5.60
   3 -16  -3   18.50    5.60
   2 -16  -3   89.19    9.40
   2 -16  -3   99.19   10.60
   1 -16  -3    4.70    3.30
   1 -16  -3    2.70    3.90
   0 -16  -3    5.20    3.40
   0  16  -3   11.10    3.60
  -1 -16  -3   10.20    3.80
  -1  16  -3   13.10    4.10
  -2 -16  -3   28.30    5.40
  -2  16  -3   44.50    5.90
  -3 -16  -3   10.90    4.50
  -3  16  -3   10.50    3.80
  -4 -16  -3   26.70    6.50
   4 -16   3   23.90    6.60
  -4  16  -3   30.60    5.20
   5 -16   3    2.60    4.40
  -5  16  -3   -1.50    2.80
  21   0  -4    0.30    3.60
  20   0  -4    2.00    3.50
  19   0  -4   -2.50    3.00
  18   0  -4   43.50    6.70
  17   0  -4   -2.80    2.40
 -15   0   4   -0.80    1.00
 -14   0   4    7.60    1.50
 -13   0   4    1.10    0.90
 -12   0   4   99.99    4.00
 -11   0   4   -0.20    0.60
 -10   0   4  576.14   16.00
  -9   0   4    0.40    0.50
   8   0  -4   91.39    4.60
  -8   0   4   87.19    3.00
   8   0  -4   90.09    3.20
   7   0  -4    0.10    0.40
   7   0  -4   -0.30    0.90
  -7   0   4   -0.50    0.30
   6   0  -4  128.29    5.20
  -6   0   4  137.89    5.50
   6   0  -4  138.09    4.10
   5   0  -4    0.90    0.30
  -5   0   4    0.00    0.80
  -4   0   4 1538.15   41.60
   4   0  -4 1541.85   41.10
  -3   0   4   -0.10    0.80
   3   0  -4    0.40    0.70
   3   0  -4    0.00    0.10
   2   0  -4  556.14   15.60
  -2   0   4  556.34   15.50
  -2   0   4  522.55   15.60
  -1   0   4   -4.00    0.70
   1   0  -4   -3.90    0.20
  -1   0   4   -2.80    0.90
   1   0  -4   -3.40    0.80
   0   0   4 1209.48   31.60
   0   0   4 1179.78   31.80
   0   0  -4 1119.39   31.70
   0   0  -4 1158.58   31.50
   1   0   4   -3.00    0.80
   1   0   4   -2.40    0.70
  -1   0  -4   -3.70    0.60
  -1   0  -4   -2.40    0.80
   2   0   4  487.35   14.50
   2   0   4  480.85   14.40
  -2   0  -4  504.35   14.40
  -2   0  -4  491.75   13.10
   3   0   4    0.60    0.40
  -3   0  -4    0.30    1.00
   3   0   4   -0.90    0.70
   3   0   4   -0.90    0.80
  -3   0  -4   -0.30    0.80
   4   0   4  703.83   19.30
  -4   0  -4  736.43   20.80
  -4   0  -4  700.03   21.10
   5   0   4   -1.30    0.60
  -5   0  -4   -1.40    1.10
   5   0   4   -1.10    1.00
  -5   0  -4   -2.70    1.00
   6   0   4   23.00    1.80
  -6   0  -4   20.00    2.50
   6   0   4   20.90    2.70
  -6   0  -4   22.30    2.80
  -7   0  -4    0.80    1.30
   7   0   4   -0.60    0.70
  -7   0  -4    2.30    1.50
   7   0   4    0.40    1.20
  -8   0  -4   14.00    2.40
   8   0   4   13.50    1.90
  -8   0  -4   16.00    2.70
  -9   0  -4    1.10    1.60
   9   0   4   -0.30    1.00
  -9   0  -4   -0.10    1.40
 -10   0  -4  184.68    8.40
 -10   0  -4  180.48    8.40
  10   0   4  167.18    7.30
 -11   0  -4   -0.50    1.80
  11   0   4    0.60    1.40
 -11   0  -4   -0.10    1.70
  12   0   4   16.70    2.80
 -12   0  -4   12.80    3.10
 -12   0  -4   17.80    3.40
 -13   0  -4    0.60    1.70
  13   0   4    2.60    1.90
 -13   0  -4    0.10    1.80
 -14   0  -4   51.29    5.70
 -14   0  -4   59.89    6.20
  14   0   4   55.99    5.30
 -15   0  -4   -1.00    2.00
 -15   0  -4   -0.30    2.20
  15   0   4    0.30    2.10
 -16   0  -4   83.99    7.40
  16   0   4   89.99    6.40
 -16   0  -4   88.99    8.10
 -17   0  -4    3.00    2.80
 -17   0  -4   -3.60    2.20
 -18   0  -4   35.70    5.60
 -18   0  -4   54.59    6.30
 -19   0  -4    8.30    3.60
  21  -1  -4   16.30    5.40
  21   1  -4    8.40    4.60
 -21   1   4    9.40    3.70
  20  -1  -4    7.80    4.40
  20   1  -4    1.10    3.40
 -20   1   4    3.00    3.00
  19  -1  -4   44.80    6.80
 -19   1   4   49.60    6.00
  19   1  -4   36.20    6.20
  18  -1  -4    1.50    3.00
  17  -1  -4    2.40    3.00
  16  -1  -4    6.60    3.50
 -16   1   4    6.30    1.70
 -15  -1   4   49.00    2.90
  15  -1  -4   48.40    6.40
 -15   1   4   55.49    3.40
 -14  -1   4    1.50    1.00
  14  -1  -4    0.50    2.30
 -14   1   4   -0.60    1.00
 -13  -1   4  176.88    6.10
 -13   1   4  183.88    6.50
 -12  -1   4   52.89    2.60
 -12   1   4   51.19    2.90
 -11  -1   4 1081.99   29.10
  11  -1  -4 1070.39   30.10
 -11   1   4 1101.39   29.60
  10  -1  -4    9.60    1.50
 -10  -1   4   12.00    1.10
 -10   1   4   12.20    1.40
  -9  -1   4   14.60    1.00
  -9   1   4   18.20    1.60
   8  -1  -4  300.57    9.20
  -8  -1   4  303.17    8.20
   8  -1  -4  296.77   10.40
  -8   1   4  296.17   10.20
   8   1  -4  302.57   10.40
  -8   1   4  306.97    8.90
   7  -1  -4   45.60    2.20
   7   1  -4   46.90    3.10
  -7   1   4   47.10    3.00
  -7   1   4   44.60    2.00
   6  -1  -4   15.70    1.20
  -6   1   4   15.20    1.90
   6   1  -4   17.30    1.90
  -6   1   4   17.20    1.20
  -5  -1   4  252.37    8.60
   5  -1  -4  269.77    7.50
  -5   1   4  265.97    8.60
   5   1  -4  250.17    8.20
   4  -1  -4    1.20    0.70
   4  -1  -4    0.60    0.50
   4  -1  -4    1.30    0.80
  -4  -1   4   -1.00    0.70
  -4   1   4    0.10    0.90
   4   1  -4    0.80    0.20
   3  -1  -4  999.70   27.10
   3  -1  -4 1005.00   27.00
  -3  -1   4  978.10   27.20
  -3   1   4  974.40   26.90
   3   1  -4  992.70   27.00
   3   1  -4  973.90   26.10
  -3   1   4  986.20   27.20
   2  -1  -4  100.89    3.90
  -2  -1   4  100.39    3.90
  -2  -1   4   93.99    3.80
   2  -1  -4   96.39    3.90
  -2   1   4   96.09    3.80
   2   1  -4   93.89    3.40
  -2   1   4   96.39    4.00
   2   1  -4   97.19    3.80
   2   1  -4   94.39    3.80
   1  -1  -4    8.40    1.30
  -1  -1   4    9.60    1.40
  -1  -1   4   10.20    1.40
   1   1  -4    8.20    1.10
   1   1  -4    7.80    1.20
  -1   1   4    9.00    1.40
  -1   1   4    7.60    1.30
   1   1  -4    7.30    1.20
   0  -1   4 8712.53  236.28
   0  -1   4 8477.95  236.08
   0  -1   4 8707.13  232.78
   0  -1  -4 9268.17  236.88
   0  -1  -4 8586.84  235.08
   0   1  -4 9126.59  236.38
   0   1   4 8934.21  234.68
   0   1  -4 8994.30  233.08
   0   1   4 8393.46  236.78
   0   1  -4 8795.82  237.18
   0   1  -4 8951.10  236.58
   1  -1   4   47.30    2.30
   1  -1   4   44.30    2.60
  -1  -1  -4   48.40    1.70
   1  -1   4   53.89    2.70
  -1  -1  -4   44.90    2.50
  -1  -1  -4   49.40    2.90
   1   1   4   55.89    2.80
  -1   1  -4   50.59    2.20
   1   1   4   44.40    2.70
  -1   1  -4   46.10    2.40
  -1   1  -4   50.99    2.90
  -1   1  -4   48.60    2.50
  -1   1  -4   50.99    2.30
   2  -1   4  158.38    5.70
  -2  -1  -4  172.28    6.30
   2  -1   4  168.98    6.00
   2  -1   4  169.98    5.40
  -2   1  -4  175.58    5.80
   2   1   4  176.18    6.30
   2   1   4  163.88    6.10
  -2   1  -4  165.58    5.40
  -2   1  -4  171.48    6.40
   3  -1   4 1231.18   32.30
  -3  -1  -4 1160.68   32.70
   3  -1   4 1183.58   31.60
   3  -1   4 1211.58   32.40
  -3   1  -4 1215.98   31.60
  -3   1  -4 1213.68   33.00
   3   1   4  989.00   32.40
  -3   1  -4 1213.28   32.20
  -4  -1  -4  892.61   25.20
   4  -1   4  851.01   24.60
   4  -1   4  867.61   23.90
  -4   1  -4  875.21   24.60
  -4   1  -4  835.62   25.20
   4   1   4  876.91   23.10
  -4   1  -4  895.51   23.90
  -5  -1  -4  111.49    5.30
   5  -1   4  111.89    4.40
   5  -1   4  112.39    5.00
   5   1   4  113.89    3.90
  -5   1  -4  105.59    4.90
   5   1   4  106.19    5.20
  -5   1  -4  115.09    5.50
   6  -1   4   13.00    2.10
  -6  -1  -4   11.80    2.10
  -6  -1  -4   16.20    2.40
   6  -1   4   12.90    1.70
  -6   1  -4   14.80    2.10
   6   1   4   14.50    2.30
   6   1   4   11.30    1.30
  -6   1  -4   13.40    2.30
   7  -1   4   11.60    1.80
  -7  -1  -4    7.30    2.00
  -7  -1  -4    9.80    2.10
   7  -1   4    9.80    2.10
   7   1   4    7.10    1.30
  -7   1  -4    9.40    2.10
  -7   1  -4    7.10    1.80
  -8  -1  -4  259.57   10.30
  -8  -1  -4  244.08   10.00
   8  -1   4  260.37    9.20
  -8   1  -4  267.87   10.30
  -8   1  -4  272.77   10.00
   8   1   4  252.37    8.70
   9  -1   4    2.10    1.40
  -9  -1  -4    1.20    1.60
  -9  -1  -4    3.60    1.90
  -9   1  -4   -0.40    1.50
  -9   1  -4    0.60    1.60
   9   1   4    1.80    1.20
 -10  -1  -4   52.19    5.00
 -10  -1  -4   60.09    5.30
  10  -1   4   64.29    4.30
  10   1   4   64.99    4.00
 -10   1  -4   69.29    4.90
 -10   1  -4   68.99    5.10
  11  -1   4   41.20    4.10
 -11  -1  -4   47.50    5.10
 -11  -1  -4   39.00    4.60
 -11   1  -4   47.60    5.00
 -11   1  -4   46.60    4.70
  11   1   4   44.70    4.00
 -12  -1  -4    4.30    2.50
  12  -1   4    3.00    1.90
 -12  -1  -4    2.60    2.30
  12   1   4    2.50    1.70
 -12   1  -4    3.80    2.20
 -12   1  -4    5.10    2.50
 -13  -1  -4    1.30    2.30
 -13  -1  -4    0.20    1.80
  13  -1   4    3.30    2.10
  13   1   4   -1.50    1.40
 -13   1  -4    1.20    2.00
 -13   1  -4   -1.80    1.90
 -14  -1  -4    5.30    2.80
 -14  -1  -4    3.70    2.60
  14  -1   4    3.50    2.30
 -14   1  -4    5.60    2.60
 -14   1  -4    6.80    2.90
  14   1   4    1.90    1.80
 -15  -1  -4   59.69    6.50
 -15  -1  -4   56.09    6.20
  15  -1   4   53.59    5.60
  15   1   4   59.09    5.60
 -15   1  -4   79.09    7.00
 -15   1  -4   48.70    5.80
 -16  -1  -4    9.00    3.30
  16  -1   4   14.00    3.50
 -16  -1  -4   10.00    3.50
  16   1   4    6.00    2.50
 -16   1  -4   11.30    3.60
 -16   1  -4   12.00    3.50
 -17  -1  -4    2.50    2.90
 -17  -1  -4    0.40    2.70
  17  -1   4   -4.10    2.00
 -17   1  -4    3.10    2.80
 -17   1  -4    0.40    2.80
 -18  -1  -4   49.99    6.10
 -18  -1  -4   45.60    6.40
 -18   1  -4   44.30    5.90
 -19  -1  -4    0.90    2.70
 -19   1  -4    0.00    2.80
  20  -2  -4   42.90    7.30
 -20   2   4   37.60    5.60
  19  -2  -4   -2.50    3.10
 -19   2   4   -1.70    2.60
  18  -2  -4    2.40    3.40
 -18   2   4    0.80    2.40
  17  -2  -4   36.10    5.90
 -17   2   4   40.80    5.00
  16  -2  -4   16.10    4.40
 -16   2   4   30.60    3.00
 -16   2   4   37.60    4.70
  15  -2  -4   21.60    4.70
 -15   2   4   29.50    4.00
 -15   2   4   22.80    2.60
  14  -2  -4   63.49    6.90
 -14  -2   4   57.69    2.90
 -14   2   4   63.99    3.70
 -14   2   4   63.99    4.90
  13  -2  -4    1.40    2.50
 -13  -2   4    2.30    0.90
 -13   2   4    4.50    1.40
 -13   2   4   -3.10    1.30
 -12  -2   4  168.68    5.60
  12  -2  -4  186.58    9.70
 -12   2   4  167.08    7.60
 -12   2   4  175.48    6.40
  11  -2  -4  200.08   10.20
 -11  -2   4  216.58    6.60
 -11   2   4  227.28    7.50
 -11   2   4  205.98    8.60
 -10  -2   4  180.68    5.40
  10  -2  -4  175.98    6.70
  10  -2  -4  174.98    8.80
 -10   2   4  176.58    7.30
 -10   2   4  181.18    6.30
   9  -2  -4  334.87   13.10
   9  -2  -4  346.77   10.80
  -9  -2   4  337.07    9.40
   9   2  -4  341.27   12.70
  -9   2   4  343.47   10.40
  -9   2   4  335.97   11.40
  -8  -2   4  481.75   13.00
  -8  -2   4  489.75   13.10
   8  -2  -4  518.25   17.20
   8  -2  -4  499.85   14.60
  -8   2   4  505.05   15.40
   8   2  -4  494.05   15.50
  -8   2   4  498.65   14.20
   7  -2  -4   98.09    3.90
  -7   2   4   93.49    4.40
   7   2  -4   95.19    4.50
  -7   2   4   93.09    3.60
   6  -2  -4  726.33   20.20
   6  -2  -4  741.83   22.50
   6   2  -4  741.93   20.90
  -6   2   4  729.33   20.10
  -6   2   4  718.03   21.00
   5  -2  -4   24.50    1.60
   5  -2  -4   15.50    1.80
  -5  -2   4   22.70    0.90
   5  -2  -4   20.80    2.70
   5  -2  -4   21.10    2.00
  -5   2   4   23.20    1.50
  -5   2   4   25.70    2.30
   5   2  -4   23.70    2.00
   4  -2  -4   74.89    3.30
   4  -2  -4   79.29    3.40
  -4  -2   4   76.49    2.60
   4  -2  -4   73.79    3.00
  -4  -2   4   80.79    3.70
   4  -2  -4   80.89    4.20
   4   2  -4   78.49    2.40
  -4   2   4   74.59    3.60
   4   2  -4   78.39    3.20
   3  -2  -4  161.28    6.10
   3  -2  -4  154.48    5.00
   3  -2  -4  148.29    5.50
   3  -2  -4  151.58    5.40
  -3  -2   4  147.99    4.80
  -3  -2   4  145.69    5.50
   3   2  -4  150.68    4.80
  -3   2   4  151.88    5.60
   3   2  -4  152.38    4.60
  -3   2   4  157.58    5.40
   2  -2  -4 1745.53   45.70
  -2  -2   4 1610.04   45.30
   2  -2  -4 1717.83   45.40
  -2  -2   4 1672.33   44.90
   2  -2  -4 1733.53   45.60
   2   2  -4 1724.53   45.30
  -2   2   4 1683.43   45.60
  -2   2   4 1721.73   45.40
   2   2  -4 1679.03   46.00
   2   2  -4 1679.33   45.20
   1  -2  -4 1265.37   33.60
   1  -2  -4 1244.48   33.80
   1  -2  -4 1259.97   33.70
  -1  -2   4 1213.18   33.50
  -1  -2   4 1201.68   33.50
  -1  -2   4 1237.68   33.50
   1   2  -4 1269.67   33.50
   1   2  -4 1250.27   33.40
   1   2  -4 1284.37   33.60
   1   2  -4 1219.48   32.80
  -1   2   4 1200.18   33.60
   0  -2   4 9397.46  240.58
   0  -2  -4 9027.90  245.48
   0  -2   4 9772.92  247.38
   0  -2   4 9038.50  244.68
   0  -2   4 9723.93  245.48
   0  -2  -4 9360.86  244.18
   0  -2  -4 9382.76  245.38
   0   2  -4 8662.03  240.18
   0   2   4 9067.49  243.68
   0   2   4 9162.58  245.88
   0   2  -4 9455.25  244.98
   0   2  -4 8875.01  246.38
   0   2  -4 8316.97  243.28
   0   2  -4 9429.06  244.28
   1  -2   4  434.56   13.20
  -1  -2  -4  441.76   12.10
   1  -2   4  408.26   12.60
   1  -2   4  452.95   12.20
  -1  -2  -4  455.75   13.60
  -1   2  -4  439.16   12.80
  -1   2  -4  433.76   13.20
   1   2   4  419.56   13.10
  -1   2  -4  424.36   12.00
  -1   2  -4  427.66   12.50
   1   2   4  444.36   12.10
  -1   2  -4  444.26   12.70
   2  -2   4  238.38    7.80
   2  -2   4  240.18    7.90
   2  -2   4  240.18    7.50
  -2  -2  -4  238.48    8.50
  -2   2  -4  253.57    7.80
  -2   2  -4  236.48    8.40
  -2   2  -4  252.77    7.70
  -2   2  -4  237.28    7.80
  -2   2  -4  246.38    7.40
   2   2   4  249.28    6.90
   3  -2   4  146.09    5.60
   3  -2   4  156.58    5.50
   3  -2   4  160.88    5.70
  -3  -2  -4  166.88    6.50
  -3   2  -4  153.88    6.30
   3   2   4  153.48    4.60
  -3   2  -4  165.68    5.70
  -3   2  -4  145.19    5.30
   4  -2   4   -0.20    0.70
  -4  -2  -4    0.60    1.20
   4  -2   4    0.10    0.80
   4  -2   4    0.70    0.90
   4   2   4   -0.60    0.40
   4   2   4    0.70    0.90
  -4   2  -4    0.20    1.10
  -4   2  -4   -0.70    0.80
  -4   2  -4    1.50    0.90
   5  -2   4  338.67   10.80
  -5  -2  -4  332.87   11.70
  -5   2  -4  320.47   11.50
  -5   2  -4  331.17   10.60
   5   2   4  338.37   11.70
  -5   2  -4  333.17   10.70
   6  -2   4   14.70    2.10
  -6  -2  -4    9.70    2.10
   6  -2   4   11.00    1.90
   6   2   4    5.80    1.80
  -6   2  -4   11.10    2.20
  -6   2  -4   11.20    1.90
  -7  -2  -4  474.65   15.60
   7  -2   4  447.16   14.80
   7  -2   4  441.76   14.40
  -7   2  -4  446.66   15.30
  -7   2  -4  453.05   14.50
   8  -2   4  547.85   17.80
  -8  -2  -4  596.74   19.10
  -8   2  -4  598.74   19.00
  -8   2  -4  564.84   18.00
   9  -2   4  482.75   16.00
  -9  -2  -4  476.55   16.80
  -9  -2  -4  503.35   16.90
  -9   2  -4  499.95   16.90
  -9   2  -4  485.35   16.20
 -10  -2  -4  281.87   11.60
  10  -2   4  274.87   10.70
 -10  -2  -4  279.77   11.50
 -10   2  -4  282.87   10.90
 -10   2  -4  279.87   11.40
 -11  -2  -4   66.69    6.00
 -11  -2  -4   70.19    5.30
  11  -2   4   69.49    5.00
 -11   2  -4   73.29    6.20
 -11   2  -4   72.69    5.10
  12  -2   4   89.19    5.90
 -12  -2  -4   97.49    6.40
 -12  -2  -4   95.19    6.60
 -12   2  -4  101.99    6.50
  12   2   4   90.69    5.40
 -12   2  -4   95.19    6.20
 -13  -2  -4   64.89    6.10
  13  -2   4   64.29    5.90
 -13  -2  -4   49.10    5.70
 -13   2  -4   63.79    6.10
 -13   2  -4   60.09    5.80
  13   2   4   60.49    4.50
 -14  -2  -4   25.10    4.40
 -14  -2  -4   24.10    4.20
  14  -2   4   24.90    4.00
 -14   2  -4   25.70    4.20
  14   2   4   32.50    4.00
 -14   2  -4   24.20    4.10
 -15  -2  -4    2.30    2.80
 -15  -2  -4   -0.80    2.40
  15  -2   4    2.20    2.60
 -15   2  -4    4.20    2.70
  15   2   4    1.40    2.00
 -16  -2  -4   -1.20    2.30
  16  -2   4   -1.30    2.20
 -16  -2  -4   -0.10    2.50
 -16   2  -4   -2.70    2.10
 -17  -2  -4   32.00    5.10
 -17  -2  -4   27.40    5.10
  17  -2   4   24.30    4.40
 -17   2  -4   39.60    5.50
 -18  -2  -4    7.60    3.60
 -18  -2  -4    3.10    3.20
 -18   2  -4   10.50    3.70
 -19   2  -4    0.40    3.00
  20  -3  -4   -4.30    3.30
 -20   3   4    1.10    2.80
  19  -3  -4  154.98   11.60
 -19   3   4  145.39    8.70
  18  -3  -4    7.00    4.10
 -18   3   4    7.00    2.70
 -17   3   4   38.80    4.90
  16  -3  -4   20.10    4.80
 -16   3   4   22.30    3.80
 -16   3   4   28.80    3.10
  15  -3  -4   -3.30    2.20
 -15   3   4    0.60    1.50
 -15   3   4    1.60    1.90
 -14  -3   4    3.90    1.10
  14  -3  -4    1.80    2.70
 -14   3   4    3.60    2.20
 -14   3   4    1.00    1.30
  13  -3  -4   36.80    5.30
 -13  -3   4   44.10    2.40
 -13   3   4   45.80    4.30
 -13   3   4   41.00    3.40
 -12  -3   4   16.80    1.60
 -12  -3   4   10.80    2.60
  12  -3  -4   14.80    3.50
 -12   3   4   12.40    2.00
 -12   3   4   19.40    2.90
 -11  -3   4   19.70    2.90
  11  -3  -4   16.30    3.50
 -11  -3   4   23.70    1.60
 -11   3   4   20.80    2.70
 -11   3   4   21.30    2.30
 -10  -3   4    0.20    0.40
  10  -3  -4   -0.80    1.60
 -10  -3   4    0.10    0.60
 -10  -3   4   -1.30    1.20
 -10   3   4   -0.90    1.10
 -10   3   4    0.00    1.00
  -9  -3   4   11.30    1.10
  -9  -3   4   11.10    0.90
   9  -3  -4   12.30    2.80
  -9  -3   4   12.80    2.20
  -9   3   4   16.10    1.90
  -9   3   4   15.90    2.20
   9   3  -4   12.80    2.20
  -8  -3   4   62.29    2.20
  -8  -3   4   66.49    3.90
   8  -3  -4   69.99    4.90
  -8   3   4   60.39    3.60
  -8   3   4   63.09    3.20
   8   3  -4   68.99    3.90
  -7  -3   4    6.40    0.70
   7  -3  -4    6.10    1.30
   7  -3  -4    5.90    2.00
  -7  -3   4    7.50    1.50
  -7   3   4    5.60    1.40
  -7   3   4    5.30    1.20
   7   3  -4    3.40    1.30
   6  -3  -4   15.90    1.80
  -6  -3   4   17.10    1.00
   6  -3  -4   16.80    1.80
   6  -3  -4   16.80    2.70
  -6  -3   4   14.70    1.70
  -6   3   4   20.20    2.10
  -6   3   4   16.90    1.70
   6   3  -4   16.00    1.90
  -5  -3   4  197.48    6.70
  -5  -3   4  202.38    6.00
   5  -3  -4  202.38    6.70
   5  -3  -4  190.88    6.80
   5  -3  -4  215.78    8.40
   5  -3  -4  210.08    6.90
  -5   3   4  202.68    7.20
  -5   3   4  207.08    6.70
   5   3  -4  212.18    6.90
   4  -3  -4  468.55   13.40
  -4  -3   4  448.36   12.50
   4  -3  -4  428.96   14.30
  -4  -3   4  448.86   12.70
   4  -3  -4  457.75   13.00
   4  -3  -4  444.96   13.10
   4   3  -4  445.56   12.30
   4   3  -4  445.86   12.90
  -4   3   4  449.56   13.00
  -4   3   4  427.86   13.40
   3  -3  -4   84.89    4.20
   3  -3  -4   72.89    3.30
   3  -3  -4   77.19    3.20
  -3  -3   4   70.89    2.90
  -3  -3   4   75.59    3.40
   3  -3  -4   78.49    3.40
   3   3  -4   68.49    2.70
  -3   3   4   75.69    3.60
  -3   3   4   72.19    3.20
   3   3  -4   72.09    2.80
   2  -3  -4  191.38    6.90
   2  -3  -4  190.58    6.20
  -2  -3   4  202.08    6.30
  -2  -3   4  181.28    6.30
   2  -3  -4  188.48    6.50
   2  -3  -4  188.08    6.30
   2   3  -4  183.58    5.30
  -2   3   4  183.98    6.80
   2   3  -4  189.08    6.30
   2   3  -4  175.78    5.90
  -2   3   4  185.08    6.30
   1  -3  -4  540.85   16.00
   1  -3  -4  554.64   15.70
   1  -3  -4  539.75   16.00
  -1  -3   4  521.15   15.50
   1  -3  -4  551.24   16.60
  -1  -3   4  548.85   15.80
  -1   3   4  551.54   16.00
  -1   3   4  547.15   15.80
   1   3  -4  544.65   15.60
   1   3  -4  555.94   15.60
   0  -3  -4  194.48    6.50
   0  -3   4  198.08    6.80
   0  -3   4  180.28    6.20
   0  -3   4  179.38    6.20
   0  -3  -4  202.58    7.40
   0   3  -4  197.28    6.10
   0   3  -4  183.08    6.60
   0   3   4  203.38    6.60
   0   3   4  195.08    6.70
   0   3  -4  193.28    7.00
   0   3  -4  189.48    6.30
   1  -3   4  209.38    6.80
   1  -3   4  208.78    6.70
   1  -3   4  211.38    6.20
   1  -3   4  201.68    7.50
  -1  -3  -4  223.58    6.90
  -1  -3  -4  213.48    7.90
  -1   3  -4  217.58    7.50
   1   3   4  223.48    6.90
  -1   3  -4  214.18    7.50
  -1   3  -4  214.08    6.60
  -1   3  -4  217.18    6.90
   1   3   4  213.28    7.40
   2  -3   4  237.28    7.80
  -2  -3  -4  230.58    8.80
   2  -3   4  240.68    7.40
  -2  -3  -4  265.47    7.60
   2  -3   4  236.78    8.40
  -2   3  -4  249.68    7.80
  -2   3  -4  244.38    8.60
  -2   3  -4  247.98    7.30
   2   3   4  263.87    7.70
  -2   3  -4  247.58    8.50
  -2   3  -4  246.98    7.50
   3  -3   4    0.80    0.80
  -3  -3  -4    2.70    1.40
   3  -3   4   -0.30    0.80
   3  -3   4    1.50    0.90
   3   3   4   -0.30    0.20
  -3   3  -4    0.90    0.70
   3   3   4    1.50    0.70
  -3   3  -4    0.80    0.70
  -3   3  -4    1.30    1.20
   4  -3   4  486.95   13.90
   4  -3   4  470.75   14.50
  -4  -3  -4  443.86   15.00
   4  -3   4  468.25   13.80
  -4   3  -4  445.06   14.80
   4   3   4  467.15   13.20
  -4   3  -4  457.15   13.60
   5  -3   4   80.49    4.30
  -5  -3  -4   84.19    4.90
   5  -3   4   81.69    3.90
   5   3   4   77.99    3.30
  -5   3  -4   82.99    4.70
  -5   3  -4   86.69    3.90
   6  -3   4    6.20    1.40
   6  -3   4    3.20    1.50
   6  -3   4    3.90    1.30
  -6  -3  -4    3.00    1.70
  -6   3  -4    5.90    1.80
  -6   3  -4    2.50    1.20
  -7  -3  -4  109.59    5.90
   7  -3   4   88.19    5.00
   7  -3   4  106.09    5.10
  -7   3  -4   89.29    5.40
  -7   3  -4   88.39    4.70
  -8  -3  -4  376.96   14.00
   8  -3   4  382.06   13.30
  -8   3  -4  383.96   13.00
  -8   3  -4  397.96   13.90
   9  -3   4   22.00    3.10
  -9  -3  -4   26.30    3.60
  -9   3  -4   27.90    3.30
  -9   3  -4   21.40    3.30
  10  -3   4   13.50    2.70
 -10  -3  -4   18.10    3.40
 -10   3  -4   14.70    3.10
 -10   3  -4   18.00    3.00
  11  -3   4  177.58    8.50
 -11  -3  -4  162.88    8.50
 -11  -3  -4  174.98    8.90
 -11   3  -4  180.48    8.40
 -11   3  -4  164.18    8.50
 -12  -3  -4   58.29    5.80
 -12  -3  -4   42.30    5.10
  12  -3   4   52.69    5.30
 -12   3  -4   44.00    5.00
  13  -3   4  109.59    7.10
 -13  -3  -4  111.89    7.20
 -13  -3  -4  105.79    7.50
 -13   3  -4  119.29    7.50
 -14  -3  -4  123.69    8.00
 -14  -3  -4  141.19    8.90
  14   3   4  135.89    7.20
 -14   3  -4  171.38    8.90
  15  -3   4  105.19    7.40
 -15  -3  -4   98.19    7.40
 -15  -3  -4  107.89    8.00
 -15   3  -4  122.29    7.90
  15   3   4  107.39    6.50
 -16  -3  -4   19.10    4.40
 -16  -3  -4   22.50    4.60
  16  -3   4   14.20    3.90
 -16   3  -4   25.60    4.50
  17  -3   4   41.30    5.70
 -17  -3  -4   30.40    5.40
 -17  -3  -4   39.50    5.50
 -17   3  -4   43.30    5.80
 -18  -3  -4    3.20    3.40
 -18  -3  -4    4.40    3.10
 -18   3  -4    1.00    3.10
 -19   3  -4   35.00    5.70
  20  -4  -4   65.99    9.20
 -20   4   4   57.59    6.60
  19  -4  -4   23.60    6.00
 -19   4   4   11.10    3.30
  18  -4  -4   -1.80    3.10
 -18   4   4    2.30    2.30
  17  -4  -4    2.80    3.40
 -17   4   4    5.00    2.50
 -17   4   4    6.90    2.10
  16  -4  -4  114.59    9.20
 -16   4   4  142.19    7.50
 -16   4   4  119.19    6.20
  15  -4  -4  159.28   10.50
 -15   4   4  157.28    7.80
 -15   4   4  160.18    7.10
  14  -4  -4   90.89    8.60
 -14  -4   4   83.29    6.10
 -14   4   4   93.49    5.00
 -14   4   4   88.89    5.60
 -13  -4   4   20.00    3.40
 -13  -4   4   16.90    1.80
  13  -4  -4   14.90    4.10
 -13   4   4   15.30    2.40
 -13   4   4   15.30    2.70
 -12  -4   4  141.39    4.60
  12  -4  -4  135.39    8.70
 -12  -4   4  137.79    7.10
 -12  -4   4  137.29    5.00
 -12   4   4  138.89    6.00
 -12   4   4  124.69    6.40
 -11  -4   4   11.50    1.20
 -11  -4   4   10.60    2.40
 -11  -4   4   10.20    1.40
  11  -4  -4    8.70    3.10
 -11   4   4   10.40    2.00
 -11   4   4   12.00    2.30
 -10  -4   4  136.49    6.30
  10  -4  -4  138.09    8.00
 -10  -4   4  130.19    4.20
 -10   4   4  125.49    5.40
 -10   4   4  115.69    5.70
  -9  -4   4    0.40    0.60
   9  -4  -4   -1.60    1.60
  -9  -4   4    2.40    1.40
   9   4  -4    0.40    1.30
  -9   4   4    1.50    1.20
  -9   4   4    0.60    1.00
   8  -4  -4   40.40    4.60
  -8  -4   4   42.40    1.90
  -8  -4   4   39.80    3.00
  -8   4   4   42.60    2.80
  -8   4   4   38.60    2.80
   8   4  -4   41.00    3.10
   7  -4  -4  214.48    7.40
   7  -4  -4  220.78    9.60
  -7  -4   4  222.48    7.90
  -7  -4   4  221.08    6.60
  -7   4   4  207.58    7.70
  -7   4   4  218.58    7.60
   7   4  -4  218.68    8.10
  -6  -4   4    4.90    0.80
  -6  -4   4    4.30    1.20
   6  -4  -4    5.40    1.10
   6  -4  -4    3.50    1.80
  -6   4   4    5.00    1.20
  -6   4   4    4.20    1.30
   6   4  -4    3.50    1.20
   5  -4  -4    6.10    1.20
   5  -4  -4    5.00    1.10
  -5  -4   4    6.10    0.90
  -5  -4   4    7.00    1.20
   5  -4  -4    6.10    1.70
   5   4  -4    7.80    1.30
  -5   4   4    5.50    1.30
  -5   4   4    7.40    1.40
   5   4  -4    6.00    0.90
  -4  -4   4  979.50   27.10
   4  -4  -4 1015.60   27.70
  -4  -4   4 1021.10   27.10
   4  -4  -4  994.30   27.40
   4  -4  -4 1024.50   29.40
  -4   4   4  991.70   27.70
  -4   4   4  960.40   27.80
   4   4  -4  984.30   26.90
  -4   4   4 1017.30   27.30
   4   4  -4 1020.50   27.30
  -3  -4   4  996.30   25.60
   3  -4  -4  914.81   25.50
  -3  -4   4  909.41   24.80
   3  -4  -4  924.61   25.90
   3  -4  -4  928.31   27.00
   3   4  -4  919.11   25.00
  -3   4   4  907.61   25.50
   3   4  -4  926.41   25.20
   2  -4  -4   27.50    2.00
   2  -4  -4   24.50    2.70
  -2  -4   4   25.70    1.10
  -2  -4   4   27.00    1.90
   2  -4  -4   26.10    1.90
  -2  -4   4   26.80    1.90
   2   4  -4   26.20    1.20
  -2   4   4   25.60    2.20
   2   4  -4   23.50    1.80
   1  -4  -4  417.96   12.90
  -1  -4   4  373.46   11.70
   1  -4  -4  378.86   12.10
  -1  -4   4  388.36   11.30
  -1   4   4  378.16   11.60
   1   4  -4  360.36   11.40
   1   4  -4  370.56   11.30
   0  -4  -4   68.09    4.10
   0  -4   4   69.89    3.00
   0  -4  -4   70.99    3.60
   0   4   4   72.19    3.50
   0   4  -4   66.69    3.00
   0   4   4   62.49    3.40
   0   4  -4   63.89    3.40
  -1  -4  -4  207.58    7.20
  -1  -4  -4  214.78    8.20
   1  -4   4  215.18    6.70
   1  -4   4  205.38    6.00
   1  -4   4  208.28    7.90
   1  -4   4  209.88    6.60
   1   4   4  199.98    7.40
  -1   4  -4  206.38    6.40
  -1   4  -4  209.78    7.50
   1   4   4  216.18    7.30
  -1   4  -4  221.88    6.80
   1   4   4  201.18    8.00
  -2  -4  -4    0.20    0.80
   2  -4   4   -0.40    1.00
   2  -4   4    0.70    0.70
  -2  -4  -4    1.80    1.40
   2  -4   4    0.60    0.60
   2   4   4   -0.60    1.10
   2   4   4    1.10    0.80
  -2   4  -4    0.80    1.10
  -2   4  -4    1.10    0.60
  -2   4  -4    1.70    0.80
   3  -4   4    0.30    0.70
  -3  -4  -4    0.80    1.30
   3  -4   4    1.80    1.30
   3  -4   4    1.80    0.80
  -3   4  -4    0.90    0.60
   3   4   4    1.20    0.90
  -3   4  -4   -0.10    1.10
   3   4   4   -0.90    1.00
   4  -4   4  719.23   21.90
   4  -4   4  732.93   20.60
  -4  -4  -4  745.03   22.50
   4  -4   4  739.63   20.80
   4   4   4  732.73   20.60
   4   4   4  720.43   22.30
  -4   4  -4  718.73   21.90
  -4   4  -4  743.63   20.10
   5  -4   4    0.60    1.10
  -5  -4  -4    1.60    1.50
   5  -4   4    0.80    0.80
   5   4   4    1.10    0.80
  -5   4  -4   -0.70    1.10
   5   4   4   -0.20    1.30
   6  -4   4   34.80    2.50
  -6  -4  -4   31.10    3.70
   6  -4   4   33.80    3.10
   6  -4   4   31.00    3.40
  -6   4  -4   27.80    3.30
   6   4   4   31.10    2.30
   7  -4   4   17.10    2.90
  -7  -4  -4   11.20    2.60
   7  -4   4   15.10    2.30
   7  -4   4   15.40    2.00
  -7   4  -4   15.60    2.70
  -8  -4  -4   21.20    3.40
   8  -4   4   18.50    3.00
  -8   4  -4   20.20    3.10
  -9  -4  -4   53.99    5.20
   9  -4   4   61.39    4.80
  -9   4  -4   46.90    4.70
 -10  -4  -4   31.80    4.30
  10  -4   4   25.60    3.80
 -10   4  -4   27.80    3.90
 -11  -4  -4   15.20    3.30
  11  -4   4   13.70    3.00
 -11   4  -4   15.80    3.20
  12  -4   4   16.30    3.40
 -12  -4  -4   27.20    4.40
 -12  -4  -4   27.30    4.20
 -12   4  -4   23.90    3.90
 -13  -4  -4   23.10    4.30
  13  -4   4   28.30    4.40
 -13  -4  -4   27.10    4.20
 -13   4  -4   30.60    4.50
 -14  -4  -4    2.70    2.70
 -14  -4  -4    0.10    2.50
  14  -4   4    1.80    2.50
 -14   4  -4    3.60    2.50
  15  -4   4   25.10    4.50
 -15  -4  -4   25.20    4.50
 -15  -4  -4   27.10    5.00
 -15   4  -4   28.10    4.80
 -16  -4  -4   96.09    8.30
 -16  -4  -4   93.29    8.80
  16  -4   4   88.69    8.20
 -16   4  -4  104.49    7.50
 -17  -4  -4    1.30    2.80
  17  -4   4    1.80    2.70
 -17  -4  -4    4.40    3.00
 -17   4  -4   -2.90    2.90
 -18  -4  -4   -2.80    2.80
 -18  -4  -4    4.00    3.10
 -18   4  -4   -3.00    2.50
  20  -5  -4   -0.30    4.00
  19  -5  -4   11.50    5.00
  18  -5  -4    4.70    3.90
 -18   5   4    4.50    2.40
  17  -5  -4   13.30    4.70
 -17   5   4    9.30    2.50
 -17   5   4   11.70    3.00
  16  -5  -4   32.70    6.10
 -16  -5   4   33.00    4.80
 -16   5   4   49.50    4.90
 -16   5   4   33.10    3.70
 -15  -5   4   26.80    4.40
  15  -5  -4   27.70    5.50
 -15   5   4   32.80    4.00
 -15   5   4   29.40    3.50
 -14  -5   4   10.60    3.00
  14  -5  -4    2.50    3.00
 -14   5   4    4.90    1.90
 -14   5   4    8.00    2.30
  13  -5  -4   64.79    7.20
 -13  -5   4   59.69    3.30
 -13  -5   4   64.49    5.80
 -13   5   4   65.29    4.40
 -13   5   4   72.99    4.70
 -12  -5   4  308.17   11.90
 -12  -5   4  295.57    9.70
  12  -5  -4  302.57   14.00
 -12   5   4  316.07   11.30
 -12   5   4  303.87   10.80
 -11  -5   4   17.60    3.10
  11  -5  -4   19.60    3.90
 -11  -5   4   18.90    1.60
 -11   5   4   16.70    2.40
 -11   5   4   12.00    2.20
 -10  -5   4    7.80    2.00
 -10  -5   4   10.00    1.20
  10  -5  -4    5.30    2.70
 -10   5   4    7.30    1.90
 -10   5   4   12.20    2.10
  -9  -5   4   -0.40    0.60
   9  -5  -4    2.30    2.20
  -9  -5   4   -0.90    1.10
  -9   5   4    0.80    1.20
  -9   5   4   -0.70    1.00
  -8  -5   4   89.09    4.70
   8  -5  -4   91.49    6.20
   8  -5  -4   84.49    4.00
  -8  -5   4   93.49    3.50
  -8   5   4   86.19    4.50
  -8   5   4   85.49    4.40
   8   5  -4   99.79    5.10
  -7  -5   4  505.45   15.50
   7  -5  -4  505.55   14.90
   7  -5  -4  526.85   17.90
  -7  -5   4  497.95   14.40
  -7   5   4  514.45   15.50
  -7   5   4  494.85   15.40
   7   5  -4  498.55   15.80
   6  -5  -4   28.60    3.80
  -6  -5   4   30.00    1.90
   6  -5  -4   26.50    2.20
  -6  -5   4   27.80    2.50
  -6   5   4   32.00    2.80
   6   5  -4   27.30    2.60
  -6   5   4   24.80    2.50
   5  -5  -4  267.47   11.00
   5  -5  -4  291.27    8.90
  -5  -5   4  290.17    8.80
  -5  -5   4  280.57    9.00
   5   5  -4  284.97    9.30
   5   5  -4  283.37    8.70
  -5   5   4  287.97    9.50
  -5   5   4  282.77    9.40
  -4  -5   4 1500.75   40.10
  -4  -5   4 1547.25   40.40
   4  -5  -4 1516.55   42.70
   4  -5  -4 1472.45   40.60
   4  -5  -4 1481.55   40.20
  -4   5   4 1550.44   40.20
   4   5  -4 1460.45   40.10
  -4   5   4 1463.25   40.90
   4   5  -4 1485.75   40.30
   3  -5  -4  906.21   27.80
   3  -5  -4  963.40   26.00
  -3  -5   4  945.11   25.40
   3  -5  -4  945.11   26.40
  -3   5   4  957.80   26.00
   3   5  -4  926.51   25.60
   3   5  -4  959.60   26.00
   2  -5  -4  100.79    5.10
  -2  -5   4   98.09    3.20
   2   5  -4   89.39    3.90
  -2   5   4   94.79    4.00
   1  -5  -4    2.10    1.30
   1  -5  -4    1.70    1.20
  -1  -5   4    0.90    0.70
  -1  -5   4    0.10    0.40
   1   5  -4   -0.30    0.60
   1   5  -4    1.10    0.90
  -1   5   4    0.10    0.90
   0  -5   4  276.07    7.60
   0  -5  -4  276.17   10.10
   0  -5  -4  270.97    9.50
   0  -5   4  264.47    8.30
   0   5  -4  275.47    9.20
   0   5  -4  273.97    8.50
   0   5   4  270.47    9.10
  -1  -5  -4  118.39    5.90
   1  -5   4  124.39    6.00
   1  -5   4  124.99    4.30
  -1  -5  -4  117.49    5.20
   1  -5   4  118.99    3.90
   1   5   4  129.79    6.00
  -1   5  -4  118.59    5.30
   1   5   4  127.09    5.30
  -1   5  -4  121.29    4.50
   2  -5   4   84.79    3.30
   2  -5   4   88.59    4.90
  -2  -5  -4   76.49    4.80
  -2  -5  -4   83.69    4.10
   2  -5   4   85.49    3.20
  -2   5  -4   88.29    3.40
  -2   5  -4   78.39    4.30
   2   5   4   86.39    4.90
  -3  -5  -4   16.80    2.60
   3  -5   4   14.60    1.50
   3  -5   4   19.70    2.70
   3  -5   4   18.40    1.70
  -3   5  -4   19.70    1.10
  -3   5  -4   14.50    2.20
   3   5   4   19.40    2.80
   4  -5   4  492.85   14.80
   4  -5   4  488.75   14.40
  -4  -5  -4  523.05   17.00
   4  -5   4  524.95   16.70
  -4   5  -4  530.55   16.40
  -4   5  -4  486.75   13.80
   5  -5   4  471.15   13.70
   5  -5   4  465.65   15.70
   5  -5   4  466.65   14.20
  -5  -5  -4  486.75   16.20
  -5   5  -4  457.85   13.00
  -5   5  -4  447.76   15.30
   6  -5   4  759.82   22.20
  -6  -5  -4  762.92   23.90
   6  -5   4  765.52   23.70
   6  -5   4  768.42   21.50
  -6   5  -4  728.73   23.20
   7  -5   4  206.78    9.10
   7  -5   4  204.18    7.30
  -7  -5  -4  189.48    9.10
   7  -5   4  211.68    8.10
  -7   5  -4  194.88    8.70
   8  -5   4   -0.90    1.50
  -8  -5  -4    1.40    2.00
   8  -5   4   -0.60    1.00
  -8   5  -4    0.40    1.60
   9  -5   4  347.87   11.90
   9  -5   4  369.56   13.90
  -9  -5  -4  340.97   14.00
  -9   5  -4  388.96   13.90
  10  -5   4   -1.80    1.80
 -10  -5  -4   -1.00    2.00
 -10   5  -4    0.60    1.90
  11  -5   4   19.10    3.70
 -11  -5  -4   20.70    4.00
 -11   5  -4   25.20    3.90
 -12  -5  -4  346.47   14.30
  12  -5   4  317.67   13.80
 -12   5  -4  311.97   13.20
 -13  -5  -4  238.48   11.70
 -13  -5  -4  232.18   11.30
  13  -5   4  231.78   11.50
 -13   5  -4  226.98   10.90
 -14  -5  -4   86.69    8.00
 -14  -5  -4   70.69    7.10
  14  -5   4   88.59    8.10
 -14   5  -4   83.99    7.40
 -15  -5  -4   39.30    6.00
  15  -5   4   54.89    6.60
 -15  -5  -4   50.89    5.90
 -15   5  -4   37.20    5.30
 -16  -5  -4   25.50    5.10
  16  -5   4   22.00    4.80
 -16  -5  -4   24.40    4.70
 -16   5  -4   27.30    4.70
 -17  -5  -4   29.00    5.00
 -17  -5  -4   27.20    5.40
  17  -5   4   28.10    5.30
 -17   5  -4   22.10    4.50
  18  -5   4   10.10    4.10
 -18   5  -4   13.30    4.50
  19  -6  -4    2.40    3.90
  18  -6  -4   23.40    6.00
 -17  -6   4    6.50    3.10
  17  -6  -4    8.10    4.50
 -17   6   4    8.80    4.00
 -17   6   4    7.60    2.60
 -16  -6   4   22.40    4.30
  16  -6  -4   25.50    5.70
 -16   6   4   22.80    3.60
 -16   6   4   17.20    3.10
  15  -6  -4  101.79    9.90
 -15  -6   4   93.69    6.80
 -15   6   4   84.09    5.60
 -15   6   4   84.19    5.50
  14  -6  -4    0.20    2.90
 -14  -6   4    1.20    2.20
 -14   6   4    1.80    1.90
 -14   6   4    0.10    1.60
  13  -6  -4   26.00    5.30
 -13  -6   4   26.70    3.90
 -13   6   4   27.20    3.40
 -13   6   4   28.60    3.40
  12  -6  -4   59.49    7.10
 -12  -6   4   62.89    5.60
 -12   6   4   62.19    4.30
 -12   6   4   61.29    4.50
  11  -6  -4   50.39    6.30
 -11  -6   4   54.79    4.90
 -11   6   4   56.79    4.60
 -11   6   4   52.39    3.80
  10  -6  -4   20.00    4.20
 -10  -6   4   20.20    3.00
 -10   6   4   18.50    2.60
 -10   6   4   19.70    2.80
  -9  -6   4    1.50    1.40
  -9  -6   4   -1.10    0.40
   9  -6  -4    2.30    2.40
  -9   6   4    2.00    1.50
  -9   6   4    1.40    1.20
  -8  -6   4  145.59    6.40
   8  -6  -4  141.59    8.20
   8  -6  -4  140.19    5.40
  -8   6   4  138.49    6.20
  -8   6   4  142.59    5.90
   8   6  -4  138.19    6.40
   7  -6  -4  233.98   10.80
  -7  -6   4  246.08    8.70
   7  -6  -4  247.68    7.90
  -7   6   4  240.08    8.40
  -7   6   4  238.38    8.80
   7   6  -4  230.68    8.90
   6  -6  -4   44.20    2.40
   6  -6  -4   40.70    4.60
  -6  -6   4   38.30    2.80
   6   6  -4   42.80    3.00
  -6   6   4   40.10    3.10
  -5  -6   4    8.70    1.50
   5  -6  -4   10.00    2.60
   5  -6  -4   11.10    1.40
  -5   6   4   11.50    1.90
   5   6  -4    9.80    1.50
   5   6  -4   10.50    1.60
   4  -6  -4  640.14   17.70
  -4  -6   4  614.54   17.70
   4  -6  -4  626.34   20.40
   4   6  -4  650.13   18.00
   4   6  -4  627.04   17.90
  -4   6   4  602.14   18.60
  -4   6   4  615.24   17.60
   3  -6  -4   26.00    3.40
  -3  -6   4   21.40    1.60
  -3   6   4   17.40    1.70
   3   6  -4   17.60    1.70
   3   6  -4   19.10    2.00
  -2  -6   4  209.78    6.50
   2  -6  -4  194.38    8.50
  -2   6   4  208.18    7.10
   2   6  -4  224.58    7.50
  -1  -6   4  559.04   14.80
   1  -6  -4  515.85   17.20
   1  -6  -4  574.04   17.90
  -1  -6   4  547.35   15.50
   1   6  -4  515.35   16.10
  -1   6   4  508.05   15.80
   1   6  -4  549.74   15.60
   0  -6  -4    2.90    1.60
   0  -6   4    0.20    0.50
   0  -6  -4    1.60    1.40
   0  -6   4    0.40    0.60
   0   6  -4    1.70    0.80
   0   6   4    1.20    0.90
   0   6  -4    1.80    1.10
   1  -6   4  237.88    9.90
  -1  -6  -4  242.98    9.70
  -1  -6  -4  258.67    9.30
   1  -6   4  248.68    7.50
  -1   6  -4  253.47    7.80
   1   6   4  234.18    8.70
  -1   6  -4  248.98    8.90
   2  -6   4  146.49    4.90
  -2  -6  -4  142.59    6.20
   2  -6   4  152.28    7.10
  -2  -6  -4  136.49    6.90
  -2   6  -4  140.69    4.90
   2   6   4  141.29    6.90
  -2   6  -4  150.48    6.40
  -3  -6  -4    2.20    1.70
   3  -6   4    3.80    0.90
   3  -6   4    3.30    1.70
  -3   6  -4    5.30    1.70
   4  -6   4  488.75   14.00
   4  -6   4  517.05   17.00
  -4  -6  -4  513.15   17.00
  -4   6  -4  471.35   16.00
   5  -6   4    3.60    1.90
  -5  -6  -4    3.20    1.90
   5  -6   4    1.20    0.80
   5  -6   4    1.90    1.10
  -5   6  -4    0.30    1.40
  -5   6  -4    1.40    0.30
   6  -6   4  110.59    6.40
   6  -6   4   99.69    4.10
   6  -6   4  109.29    5.00
  -6  -6  -4   92.29    6.10
  -6   6  -4  103.99    5.90
  -6   6  -4  102.79    3.30
   7  -6   4   -1.20    1.60
   7  -6   4   -0.10    1.00
   7  -6   4    0.60    0.90
  -7  -6  -4    0.10    1.70
  -7   6  -4    0.50    0.60
  -7   6  -4   -0.60    1.50
   8  -6   4    3.40    1.20
   8  -6   4    3.80    2.20
  -8  -6  -4    1.60    2.20
  -8   6  -4   -0.70    1.70
   9  -6   4    0.70    2.00
   9  -6   4    0.60    1.10
  -9  -6  -4   -2.00    1.90
  -9   6  -4   -0.50    1.70
 -10  -6  -4  131.59    7.90
  10  -6   4  131.39    5.90
  10  -6   4  131.79    7.90
 -10   6  -4  121.29    7.30
  11  -6   4  190.98    9.80
 -11  -6  -4  187.98   10.00
  11  -6   4  188.98    7.70
 -11   6  -4  167.68    9.00
  12  -6   4   51.59    6.00
 -12  -6  -4   45.00    5.70
  12  -6   4   50.89    4.40
 -12   6  -4   61.49    6.10
  13  -6   4   52.99    6.50
 -13  -6  -4   51.99    6.30
  13  -6   4   59.29    4.40
 -13   6  -4   50.89    5.80
 -14  -6  -4    0.80    2.60
  14  -6   4    5.70    3.00
 -14  -6  -4    2.90    2.80
  14  -6   4    4.90    2.20
 -14   6  -4   -1.20    2.30
  15  -6   4    4.10    3.00
 -15  -6  -4    3.40    3.20
 -15  -6  -4    8.10    3.20
 -15   6  -4    3.90    3.30
 -16  -6  -4    0.60    2.60
 -16  -6  -4    2.00    3.00
  16  -6   4    1.70    3.00
 -16   6  -4    0.50    2.90
 -17  -6  -4   -3.80    2.30
 -17  -6  -4    0.00    3.20
  17  -6   4   -0.90    3.20
 -17   6  -4    3.40    3.10
  18  -6   4    7.50    3.90
 -18   6  -4    0.50    3.20
  19  -7  -4   78.89   10.50
 -18  -7   4   36.80    5.50
  18  -7  -4   39.30    7.30
  17  -7  -4    7.90    4.50
 -17  -7   4   17.20    4.20
 -17   7   4   11.30    3.00
  16  -7  -4   43.00    7.20
 -16  -7   4   51.09    5.90
 -16   7   4   45.60    4.90
 -15  -7   4   38.60    5.10
  15  -7  -4   41.30    6.80
 -15   7   4   42.80    4.60
 -15   7   4   40.40    4.80
 -14  -7   4    7.70    2.80
  14  -7  -4    6.20    3.70
 -14   7   4    5.10    2.00
 -14   7   4    4.60    2.20
 -13  -7   4    0.00    1.90
  13  -7  -4    3.30    3.10
 -13   7   4    1.40    1.80
 -13   7   4   -1.30    1.40
 -12  -7   4    8.60    2.60
  12  -7  -4    5.70    3.30
 -12   7   4    6.50    2.00
 -12   7   4    5.20    2.10
  11  -7  -4    5.30    2.70
 -11  -7   4    4.30    2.30
 -11   7   4    6.80    2.30
 -11   7   4    1.00    1.50
  10  -7  -4   85.69    8.20
 -10  -7   4   96.09    5.70
 -10   7   4   94.09    4.90
 -10   7   4  109.09    5.70
  -9  -7   4   65.59    4.40
   9  -7  -4   75.09    7.20
   9  -7  -4   72.29    3.50
  -9   7   4   68.09    3.90
  -9   7   4   74.19    4.60
  -8  -7   4    2.00    1.50
   8  -7  -4   -0.80    1.80
   8  -7  -4    1.10    0.90
  -8   7   4    0.90    1.10
   8   7  -4    2.10    1.40
  -8   7   4    1.30    1.60
   7  -7  -4  127.79    4.70
   7  -7  -4  124.09    7.60
  -7  -7   4  123.29    5.60
   7   7  -4  123.59    5.90
  -7   7   4  118.29    5.90
   6  -7  -4  237.28    7.60
  -6  -7   4  243.18    8.50
   6  -7  -4  232.48   10.80
  -6   7   4  238.08    9.10
   6   7  -4  247.98    8.90
  -5  -7   4   11.10    1.70
   5  -7  -4   10.50    2.80
   5  -7  -4   10.60    1.30
   5   7  -4    9.50    1.60
  -5   7   4   12.50    2.10
   5   7  -4    9.80    1.70
  -4  -7   4  210.28    7.20
   4  -7  -4  202.58    9.50
  -4   7   4  203.38    8.10
   4   7  -4  206.98    7.40
  -4   7   4  211.38    6.80
   4   7  -4  211.88    7.30
  -3  -7   4  441.06   12.80
   3  -7  -4  423.76   15.50
  -3   7   4  436.96   12.90
   3   7  -4  429.36   13.40
   2  -7  -4   45.00    4.50
  -2  -7   4   47.00    2.40
   2  -7  -4   51.19    3.10
   2  -7  -4   44.90    4.50
  -2   7   4   47.40    2.80
   2   7  -4   43.80    3.10
  -1  -7   4    4.40    1.10
  -1  -7   4    5.60    1.00
   1  -7  -4    5.40    2.10
   1  -7  -4    2.40    1.70
   1   7  -4    1.40    0.80
   1   7  -4    4.80    1.50
  -1   7   4    3.40    1.20
   0  -7  -4  166.68    7.60
   0  -7   4  169.58    5.70
   0  -7   4  172.88    5.80
   0  -7  -4  177.88    8.10
   0   7  -4  170.08    5.90
   0   7  -4  169.38    6.90
   0   7   4  177.38    6.70
  -1  -7  -4  288.37   11.20
  -1  -7  -4  291.87   10.70
   1  -7   4  274.67    8.40
   1  -7   4  275.37   11.30
   1  -7   4  277.17    8.70
  -1   7  -4  284.87    8.70
   1   7   4  273.87    9.80
  -1   7  -4  289.37   10.10
   2  -7   4  112.99    6.50
  -2  -7  -4  118.39    6.50
  -2  -7  -4  126.09    6.00
  -2   7  -4  116.69    5.70
  -2   7  -4  117.89    4.20
   3  -7   4   25.50    2.10
  -3  -7  -4   21.50    3.40
   3  -7   4   23.10    3.60
  -3   7  -4   19.30    2.70
  -4  -7  -4   50.39    5.00
   4  -7   4   40.40    4.60
  -4   7  -4   44.90    4.10
   5  -7   4   -1.40    1.50
  -5  -7  -4    1.50    1.80
   5  -7   4    1.60    0.60
   5  -7   4    1.70    1.10
  -5   7  -4    3.90    1.60
   6  -7   4  137.29    7.90
   6  -7   4  164.98    6.50
   6  -7   4  154.88    5.10
  -6  -7  -4  171.28    8.50
  -6   7  -4  143.09    7.30
  -7  -7  -4    0.30    1.90
   7  -7   4   -0.20    1.80
   7  -7   4   -0.70    0.60
  -7   7  -4    0.70    1.70
   8  -7   4    0.30    2.20
  -8  -7  -4   -0.40    2.00
   8  -7   4    1.30    0.90
  -8   7  -4    3.20    1.90
  -9  -7  -4   38.60    5.00
   9  -7   4   35.20    4.90
   9  -7   4   35.10    2.80
  -9   7  -4   28.80    4.10
  10  -7   4   -2.00    1.00
 -10  -7  -4   -2.80    2.00
  10  -7   4    0.20    2.40
 -10   7  -4   -1.40    1.80
 -11  -7  -4    3.30    2.50
  11  -7   4    1.00    2.70
  11  -7   4    6.00    1.80
 -11   7  -4    4.10    2.60
 -12  -7  -4    2.40    2.70
  12  -7   4    0.60    1.40
  12  -7   4    5.60    3.20
 -12   7  -4    6.20    2.80
  13  -7   4    1.50    2.90
 -13  -7  -4   -3.90    2.30
 -13   7  -4    1.50    2.40
  14  -7   4   12.00    4.20
 -14  -7  -4   10.40    4.00
 -14   7  -4   10.00    3.40
 -15  -7  -4    0.80    2.80
 -15  -7  -4    5.50    3.50
  15  -7   4    1.00    3.10
 -15   7  -4    1.40    2.60
 -16  -7  -4    2.20    3.40
  16  -7   4    5.70    3.60
 -16  -7  -4    3.50    3.30
 -16   7  -4    2.20    3.10
 -17  -7  -4   65.69    8.20
  17  -7   4   77.99    8.90
 -17   7  -4   70.59    7.50
 -18  -8   4    0.70    2.90
  18  -8  -4    1.70    4.20
 -18   8   4   -1.50    2.50
  17  -8  -4   -0.80    3.50
 -17  -8   4    6.40    3.10
 -17   8   4   -3.00    2.20
 -16  -8   4    5.80    3.20
  16  -8  -4   13.60    4.90
 -16   8   4    3.10    2.50
  15  -8  -4   41.50    7.00
 -15  -8   4   38.00    5.10
 -15   8   4   36.20    4.50
 -14  -8   4   12.90    3.50
  14  -8  -4   13.30    4.60
 -14   8   4   14.30    3.10
  13  -8  -4   -2.30    2.70
 -13  -8   4   -2.30    1.80
 -13   8   4   -2.50    1.90
 -13   8   4   -3.10    1.80
 -12  -8   4   13.40    3.10
  12  -8  -4    7.70    3.60
 -12   8   4   11.10    2.20
 -12   8   4    9.00    2.70
 -11  -8   4   -1.90    1.70
  11  -8  -4    0.80    2.70
 -11   8   4    2.30    1.90
 -11   8   4    0.40    1.30
  10  -8  -4    1.40    2.70
 -10  -8   4    2.90    1.90
 -10   8   4   -0.30    1.10
 -10   8   4    1.90    1.90
   9  -8  -4   40.10    5.70
  -9  -8   4   44.70    4.20
  -9   8   4   41.30    4.20
  -8  -8   4   81.59    4.80
   8  -8  -4   77.49    3.30
   8  -8  -4   83.59    7.90
  -8   8   4   78.39    5.00
   7  -8  -4   98.79    7.10
  -7  -8   4  109.69    5.40
   7  -8  -4  111.29    4.10
  -7   8   4  106.79    5.80
   7   8  -4  115.29    5.70
   6  -8  -4   74.29    7.00
  -6  -8   4   73.89    4.20
  -6   8   4   84.39    5.00
   6   8  -4   81.89    4.50
  -5  -8   4   28.50    2.80
   5  -8  -4   29.90    4.40
   5   8  -4   40.60    2.90
  -5   8   4   36.40    3.70
   5   8  -4   33.80    3.10
   4  -8  -4    3.00    2.10
  -4  -8   4   -0.10    0.90
   4  -8  -4    1.50    1.00
   4   8  -4    1.20    1.20
   4   8  -4    0.70    1.10
  -4   8   4    3.30    1.60
  -4   8   4    2.10    0.80
  -3  -8   4  120.49    4.90
   3  -8  -4  129.89    5.40
   3  -8  -4  121.29    7.10
   3   8  -4  115.39    5.40
  -3   8   4  125.09    4.80
   2  -8  -4   -2.10    1.40
  -2  -8   4    0.40    0.80
   2  -8  -4   -1.60    1.40
  -2   8   4   -0.20    0.80
   2   8  -4    0.00    1.10
   1  -8  -4    5.30    2.10
  -1  -8   4    5.70    1.20
   1  -8  -4    3.20    2.00
  -1  -8   4    4.10    1.00
   1   8  -4    1.50    1.40
  -1   8   4    3.80    1.30
   0  -8   4    0.50    0.70
   0  -8  -4   -0.20    1.40
   0  -8   4    0.60    0.80
   0  -8  -4   -0.10    1.60
   0   8  -4   -0.20    0.70
   0   8  -4   -0.10    1.20
   0   8   4   -0.40    0.90
  -1  -8  -4    2.00    1.80
  -1  -8  -4    2.60    1.60
   1  -8   4    2.20    1.00
   1  -8   4    1.90    0.70
   1  -8   4    0.70    1.80
   1   8   4    0.10    0.90
  -1   8  -4    1.80    0.80
  -1   8  -4    4.70    1.70
   2  -8   4   43.80    5.00
  -2  -8  -4   42.50    4.60
  -2  -8  -4   43.80    4.40
  -2   8  -4   40.90    2.10
  -2   8  -4   40.40    3.90
   3  -8   4  379.56   15.20
  -3  -8  -4  430.46   15.40
  -3   8  -4  412.46   14.10
  -4  -8  -4  908.71   28.20
   4  -8   4  864.11   28.50
   4  -8   4  921.81   25.30
  -4   8  -4  885.91   27.10
   5  -8   4   63.29    3.70
  -5  -8  -4   93.39    6.10
   5  -8   4   63.29    6.20
  -5   8  -4   59.99    5.30
   6  -8   4  294.87   10.20
   6  -8   4  286.87   12.60
  -6  -8  -4  290.57   12.40
  -6   8  -4  288.57   11.50
  -7  -8  -4  333.57   13.50
   7  -8   4  323.97   13.70
  -7   8  -4  297.97   12.30
  -8  -8  -4   19.20    3.80
   8  -8   4   21.50    1.50
   8  -8   4   20.40    4.00
  -8   8  -4   22.20    3.70
   9  -8   4   11.70    1.50
  -9  -8  -4   13.50    3.50
   9  -8   4   12.40    3.60
  -9   8  -4    8.00    2.80
 -10  -8  -4    3.80    2.60
  10  -8   4    7.20    3.20
 -10   8  -4    5.90    2.50
 -11  -8  -4   43.00    5.80
  11  -8   4   55.09    6.60
 -11   8  -4   45.80    5.40
  12  -8   4   72.29    7.80
 -12  -8  -4   84.99    8.00
 -12   8  -4   87.09    7.40
 -13  -8  -4    3.40    3.20
  13  -8   4    6.50    3.40
 -13   8  -4    5.10    2.90
 -14  -8  -4  143.09    9.70
  14  -8   4  134.19   10.00
 -14   8  -4  157.18    9.30
 -15  -8  -4  154.28   10.40
  15  -8   4  150.38   10.60
 -15   8  -4  151.18    9.40
  16  -8   4    9.10    4.20
 -16  -8  -4    4.40    3.20
 -16  -8  -4    8.90    4.10
 -16   8  -4   11.80    3.80
 -17  -9   4    3.10    2.90
  17  -9  -4    1.30    3.80
 -17   9   4   -1.20    2.60
 -16  -9   4    5.80    3.10
  16  -9  -4    8.20    4.50
 -16   9   4    3.70    2.90
 -15  -9   4  219.58   10.90
  15  -9  -4  223.68   13.80
 -15   9   4  195.18    9.80
 -14  -9   4  111.49    7.50
  14  -9  -4  123.19   11.50
 -14   9   4  106.49    6.90
  13  -9  -4   40.90    7.00
 -13  -9   4   42.50    5.10
 -13   9   4   42.70    4.90
  12  -9  -4   -2.00    2.60
 -12  -9   4    2.40    2.20
 -12   9   4    1.90    2.20
 -11  -9   4   26.30    3.70
  11  -9  -4   31.10    5.70
 -11   9   4   30.00    3.90
  10  -9  -4   -3.40    2.30
 -10  -9   4    1.30    2.00
 -10   9   4    2.20    2.10
   9  -9  -4   14.90    4.10
  -9  -9   4   13.90    2.70
  -9   9   4   11.20    2.70
   8  -9  -4    9.50    3.40
  -8  -9   4    3.00    1.70
  -8   9   4    5.30    2.20
  -7  -9   4  514.75   16.20
   7  -9  -4  467.95   19.20
   7   9  -4  503.35   16.50
  -7   9   4  504.75   16.90
  -6  -9   4  167.18    7.20
   6  -9  -4  189.98   10.10
  -6   9   4  194.78    8.30
   6   9  -4  172.18    7.40
   5  -9  -4    7.80    1.40
   5  -9  -4    9.30    3.10
  -5  -9   4    5.20    1.60
  -5   9   4    7.30    2.20
   5   9  -4    4.30    1.60
   5   9  -4    7.80    1.80
   4  -9  -4   12.10    3.20
  -4  -9   4    8.00    1.70
   4  -9  -4   13.70    2.00
  -4   9   4   14.40    1.50
  -4   9   4    7.60    2.20
   4   9  -4   13.30    2.30
   3  -9  -4  210.18   10.30
  -3  -9   4  233.38    8.10
   3  -9  -4  232.48   10.90
  -3   9   4  238.48    7.70
   3   9  -4  241.98    9.00
  -2  -9   4   27.50    2.50
   2  -9  -4   28.40    4.10
   2  -9  -4   20.80    3.60
   2   9  -4   26.80    3.00
  -2   9   4   18.80    2.10
  -1  -9   4   87.29    4.00
  -1  -9   4   86.09    4.00
   1  -9  -4   90.39    6.10
   1  -9  -4   91.99    6.10
   1   9  -4   91.39    5.00
  -1   9   4   90.19    4.40
   0  -9   4    2.60    1.10
   0  -9  -4    1.60    2.00
   0  -9  -4    3.40    2.10
   0  -9   4    3.20    1.00
   0   9  -4    0.90    1.50
   0   9   4    2.00    1.40
   0   9  -4    3.00    1.00
   1  -9   4   18.90    3.70
   1  -9   4   13.00    1.40
   1  -9   4   16.60    2.00
  -1  -9  -4   12.30    2.90
  -1  -9  -4   11.60    2.90
   1   9   4   16.00    2.40
  -1   9  -4   19.70    2.90
  -1   9  -4   18.00    1.70
   2  -9   4    0.20    1.00
  -2  -9  -4    3.40    2.00
   2  -9   4    2.00    2.20
  -2  -9  -4    1.10    2.00
  -2   9  -4   -2.20    1.20
  -2   9  -4    1.10    0.60
  -3  -9  -4   77.39    5.70
   3  -9   4   66.29    6.60
  -3   9  -4   72.49    5.00
   4  -9   4   -0.70    0.90
   4  -9   4    0.30    2.20
  -4  -9  -4    2.80    2.20
  -4   9  -4    1.00    1.70
   5  -9   4  308.57   10.70
   5  -9   4  327.77   14.00
  -5  -9  -4  322.37   13.40
  -5   9  -4  335.67   12.60
   6  -9   4   76.09    7.40
  -6  -9  -4  106.99    7.00
   6  -9   4   92.69    5.40
  -6   9  -4   89.99    6.00
   7  -9   4   79.29    7.50
  -7  -9  -4   86.19    6.50
  -7   9  -4   78.09    5.70
  -8  -9  -4    6.40    2.90
   8  -9   4    1.20    2.50
  -8   9  -4    5.00    2.50
   9  -9   4   65.79    7.10
  -9  -9  -4   57.49    6.30
  -9   9  -4   48.90    5.50
  10  -9   4   28.70    5.20
 -10  -9  -4   37.20    5.40
 -10   9  -4   29.50    4.50
 -11  -9  -4   11.20    3.80
  11  -9   4    7.60    3.40
 -11   9  -4    7.90    3.20
  12  -9   4   42.50    6.40
 -12  -9  -4   35.50    5.60
 -12   9  -4   39.80    5.30
 -13  -9  -4    7.00    3.60
  13  -9   4    8.70    3.90
 -13   9  -4   11.90    3.80
  14  -9   4   26.20    5.90
 -14  -9  -4   33.10    5.80
 -14   9  -4   28.60    5.00
  15  -9   4    6.80    4.00
 -15  -9  -4    0.20    3.20
 -15   9  -4    1.80    3.10
  16  -9   4   42.20    6.90
 -16   9  -4   31.40    5.30
 -16 -10   4   44.50    5.80
  16 -10  -4   51.19    8.50
 -16  10   4   64.39    6.40
 -15 -10   4    0.40    2.60
  15 -10  -4   -5.00    2.90
 -15  10   4    0.00    2.30
 -14 -10   4   -3.40    2.30
  14 -10  -4    0.90    3.50
 -14  10   4   -1.60    2.30
 -13 -10   4   21.20    3.90
  13 -10  -4   14.00    4.80
 -13  10   4   13.70    3.30
  12 -10  -4   34.10    6.30
 -12 -10   4   24.80    4.00
 -12  10   4   22.70    3.80
  11 -10  -4   39.50    6.80
 -11 -10   4   52.59    5.10
 -11  10   4   43.00    4.90
 -10 -10   4   70.19    5.20
  10 -10  -4   64.99    7.90
 -10  10   4   65.19    5.90
   9 -10  -4    2.30    2.70
  -9 -10   4    3.70    1.90
  -9  10   4    2.80    2.30
   8 -10  -4   15.80    4.20
  -8 -10   4   19.90    3.00
  -8  10   4   22.10    3.60
   7 -10  -4   21.70    4.60
  -7 -10   4   26.40    3.20
  -7  10   4   22.70    3.60
   6 -10  -4   68.69    7.20
  -6 -10   4   60.39    4.00
   6  10  -4   51.09    4.40
  -6  10   4   53.59    5.10
  -5 -10   4   22.80    2.80
   5 -10  -4   21.10    4.30
  -5  10   4   15.90    3.00
  -4 -10   4  294.97   10.00
   4 -10  -4  271.57   12.20
   4 -10  -4  269.27   12.80
   4 -10  -4  294.27   10.50
  -4  10   4  272.37   11.10
   4  10  -4  287.07   10.60
   3 -10  -4    7.70    3.00
  -3 -10   4    3.30    1.40
   3 -10  -4    2.90    2.40
  -3  10   4    6.20    1.20
   3  10  -4    6.00    2.00
  -2 -10   4    0.60    1.20
   2 -10  -4   -1.20    2.00
   2 -10  -4   -0.20    1.90
   2  10  -4    1.70    1.60
  -2  10   4    0.60    1.00
   1 -10  -4   18.40    3.70
   1 -10  -4   28.80    4.20
  -1 -10   4   23.90    2.40
  -1 -10   4   20.60    2.30
   1  10  -4   23.50    3.10
   0 -10  -4   48.60    5.70
   0 -10  -4   41.20    5.10
   0 -10   4   42.80    2.60
   0 -10   4   40.90    3.00
   0  10  -4   56.99    4.80
   0  10  -4   44.10    2.60
   0  10   4   45.60    3.40
  -1 -10  -4  219.38   10.30
   1 -10   4  216.58    7.80
   1 -10   4  203.58   10.70
   1 -10   4  208.88    6.60
  -1 -10  -4  216.58   10.10
  -1  10  -4  209.38    6.80
  -1  10  -4  194.88    8.80
   1  10   4  210.48    8.40
  -2 -10  -4   10.50    2.90
   2 -10   4    3.60    1.50
   2 -10   4    6.30    2.90
  -2 -10  -4    3.80    2.50
   2  10   4    9.70    2.30
  -2  10  -4    7.80    0.90
  -2  10  -4   10.90    2.60
  -3 -10  -4   10.10    3.20
   3 -10   4   14.80    2.30
   3 -10   4   17.60    3.90
  -3  10  -4   16.40    3.10
   4 -10   4   38.40    2.90
  -4 -10  -4   41.20    5.10
   4 -10   4   42.60    5.80
  -4  10  -4   46.40    4.80
   5 -10   4    1.60    1.20
   5 -10   4    0.20    2.40
  -5 -10  -4    2.20    2.50
  -5  10  -4    1.10    2.00
  -6 -10  -4   81.29    7.50
   6 -10   4   98.49    7.70
  -6  10  -4   88.09    6.10
  -7 -10  -4    6.40    2.90
   7 -10   4   -0.20    2.60
  -7  10  -4    3.00    2.30
   8 -10   4    3.90    2.90
  -8 -10  -4    1.50    2.50
  -8  10  -4    6.10    2.70
  -9 -10  -4   72.59    7.50
   9 -10   4   76.09    8.10
  -9  10  -4   95.39    6.80
 -10 -10  -4    1.90    3.00
  10 -10   4    1.60    3.00
 -10  10  -4   -2.10    2.20
  11 -10   4    7.70    4.20
 -11 -10  -4    2.80    3.10
 -11  10  -4   10.90    3.60
  12 -10   4    9.20    4.30
 -12 -10  -4    6.90    3.40
 -12  10  -4   14.60    3.90
  13 -10   4   12.80    4.30
 -13 -10  -4   13.70    4.10
 -13  10  -4   11.90    3.80
 -14 -10  -4   12.80    4.30
  14 -10   4   14.50    5.20
 -14  10  -4    9.10    3.70
 -15 -10  -4    5.30    3.80
  15 -10   4   12.50    5.00
 -15  10  -4    0.50    3.00
  15 -11  -4   13.40    5.50
 -15 -11   4   18.90    4.10
 -15  11   4   14.80    3.80
  14 -11  -4    1.90    3.80
 -14 -11   4    7.00    2.80
 -14  11   4    1.10    2.80
  13 -11  -4    6.20    4.00
 -13 -11   4    2.40    2.50
 -13  11   4   -1.00    2.40
  12 -11  -4    0.20    3.50
 -12 -11   4    5.70    2.80
 -12  11   4    1.60    2.50
  11 -11  -4   -0.60    3.10
 -11 -11   4    1.20    2.10
 -11  11   4    3.30    2.50
 -10 -11   4   -1.00    1.90
  10 -11  -4    3.60    3.40
 -10  11   4    3.20    2.50
  -9 -11   4    3.90    2.10
   9 -11  -4   11.50    4.20
  -9  11   4   10.60    3.00
   8 -11  -4    7.10    3.60
  -8 -11   4   -0.40    1.70
  -8  11   4    0.90    2.10
   7 -11  -4   13.70    4.20
  -7 -11   4   15.20    2.70
  -7  11   4   11.60    3.00
   6 -11  -4  329.47   15.50
  -6 -11   4  346.87   12.10
  -6  11   4  334.87   13.30
  -5 -11   4   36.50    3.60
   5 -11  -4   40.00    5.80
  -5  11   4   43.10    4.70
   4 -11  -4    8.30    3.10
  -4 -11   4    9.40    2.00
   4 -11  -4   10.70    3.50
   4  11  -4    6.20    2.20
   3 -11  -4   14.50    3.60
  -3 -11   4    8.30    1.90
   3 -11  -4    9.10    3.30
  -3  11   4   12.60    1.60
   3  11  -4   14.50    2.80
   2 -11  -4  137.39    8.60
   2 -11  -4  125.29    7.90
  -2 -11   4  132.89    5.90
  -2  11   4  132.69    5.40
   2  11  -4  141.59    7.10
  -1 -11   4   22.90    2.40
   1 -11  -4   25.10    4.60
  -1 -11   4   24.40    2.70
   1 -11  -4   20.10    3.90
   1  11  -4   24.60    3.50
  -1  11   4   25.00    2.70
   0 -11  -4  110.79    7.50
   0 -11   4  111.39    5.10
   0 -11   4  106.99    4.40
   0 -11  -4   96.19    7.10
   0  11   4  103.79    5.30
   0  11  -4  100.89    6.10
  -1 -11  -4   26.20    4.40
   1 -11   4   28.20    2.90
  -1 -11  -4   36.30    4.90
   1 -11   4   25.60    4.80
   1 -11   4   25.50    1.70
  -1  11  -4   35.70    4.10
   1  11   4   24.60    3.10
  -2 -11  -4  356.76   14.90
  -2 -11  -4  388.76   15.30
   2 -11   4  368.46   12.40
   2 -11   4  354.46   15.90
  -2  11  -4  379.36   14.00
   2  11   4  366.26   13.10
   3 -11   4    5.80    2.70
  -3 -11  -4    6.60    3.00
   3 -11   4   -0.70    1.40
  -3  11  -4    5.20    2.40
  -4 -11  -4   36.60    5.10
   4 -11   4   37.90    5.80
  -4  11  -4   33.00    4.40
  -5 -11  -4   11.60    3.40
   5 -11   4    8.70    3.70
  -5  11  -4   13.20    3.20
   6 -11   4   48.70    6.70
  -6 -11  -4   38.90    5.70
  -6  11  -4   45.70    5.20
  -7 -11  -4   94.69    8.40
   7 -11   4   86.99    8.90
  -7  11  -4   91.89    6.70
  -8 -11  -4   60.99    6.80
   8 -11   4   81.09    8.60
  -8  11  -4   58.99    6.10
   9 -11   4   16.30    4.70
  -9 -11  -4   18.10    4.30
  -9  11  -4   24.50    4.40
  10 -11   4  181.08   11.60
 -10 -11  -4  181.88   10.70
 -10  11  -4  176.98    9.90
  11 -11   4   -3.10    2.80
 -11 -11  -4   -1.10    2.60
 -11  11  -4   -2.10    2.50
 -12 -11  -4    0.30    2.80
  12 -11   4    5.50    3.90
 -12  11  -4   -0.50    2.70
 -13 -11  -4  159.88   10.60
  13 -11   4  144.29   11.00
 -13  11  -4  154.58    9.90
 -14 -11  -4   13.50    4.60
  14 -11   4   15.70    5.20
 -14  11  -4   13.80    4.40
  14 -12  -4   -3.30    3.50
 -14  12   4   -5.70    2.30
  13 -12  -4   21.70    6.00
 -13  12   4   21.00    4.30
  12 -12  -4   -2.80    3.10
 -12  12   4    2.70    2.60
  11 -12  -4   22.10    5.70
 -11  12   4   20.70    4.10
 -10 -12   4   14.50    3.40
  10 -12  -4   21.60    5.50
 -10  12   4   21.70    4.00
   9 -12  -4   17.60    5.00
  -9 -12   4   16.80    3.10
  -9  12   4   16.10    3.60
  -8 -12   4   19.50    3.10
   8 -12  -4   20.10    5.10
  -8  12   4   15.90    3.60
   7 -12  -4  126.89    9.60
  -7 -12   4  121.39    6.50
  -7  12   4  120.89    7.60
  -6 -12   4  275.47   10.90
   6 -12  -4  311.17   15.10
  -6  12   4  304.57   12.60
   5 -12  -4  174.98   10.80
  -5 -12   4  178.88    7.70
   5 -12  -4  174.98   10.10
   4 -12  -4   93.29    8.10
  -4 -12   4   85.19    5.00
   4 -12  -4   90.29    8.80
   4  12  -4   88.19    5.60
   3 -12  -4    0.40    2.50
  -3 -12   4    0.20    1.40
   3 -12  -4    0.50    2.70
   3  12  -4    3.80    2.20
  -2 -12   4   18.20    2.60
   2 -12  -4   21.30    4.10
   2 -12  -4   13.10    4.00
   2  12  -4   17.40    3.10
  -1 -12   4    0.40    1.40
  -1 -12   4   -1.20    0.90
   1 -12  -4   -0.30    2.20
   1 -12  -4    0.90    2.40
  -1  12   4    0.50    1.20
   1  12  -4    1.70    1.90
   0 -12  -4  110.79    7.70
   0 -12  -4  109.49    7.90
   0 -12   4  108.39    5.40
   0  12   4  106.79    5.40
   0  12  -4   98.99    6.30
  -1 -12  -4   59.29    6.30
   1 -12   4   50.89    3.90
  -1 -12  -4   55.99    6.40
  -1  12  -4   54.89    5.30
   1  12   4   57.69    4.10
   2 -12   4  754.82   27.20
  -2 -12  -4  753.52   25.80
   2 -12   4  721.53   22.50
   2  12   4  758.62   23.30
  -2  12  -4  764.02   24.40
  -3 -12  -4   98.49    7.20
   3 -12   4   78.99    5.00
   3 -12   4   78.99    8.60
   3  12   4   98.89    5.90
  -3  12  -4   82.69    6.10
   4 -12   4   91.79    5.40
  -4 -12  -4   70.49    7.20
   4 -12   4   95.89    9.30
  -4  12  -4   84.99    6.30
   5 -12   4    2.80    3.30
  -5 -12  -4    9.30    3.30
  -5  12  -4    4.80    2.70
   6 -12   4    1.20    3.00
  -6 -12  -4    1.20    2.70
  -6  12  -4    1.40    2.50
   7 -12   4   71.89    8.60
  -7 -12  -4   85.09    8.10
  -7  12  -4   76.09    7.20
  -8 -12  -4  245.78   12.90
   8 -12   4  252.87   14.20
  -8  12  -4  261.77   12.30
  -9 -12  -4    1.80    2.70
   9 -12   4   -5.20    2.70
  -9  12  -4   -0.80    2.60
 -10 -12  -4   74.29    7.80
  10 -12   4   52.59    7.80
 -10  12  -4   52.09    6.20
 -11 -12  -4   29.60    5.70
  11 -12   4   25.50    6.00
 -11  12  -4   25.50    5.10
  12 -12   4   11.60    4.80
 -12 -12  -4   12.30    4.20
 -12  12  -4   11.80    4.10
  13 -12   4   -1.50    3.30
 -13 -12  -4    8.30    4.00
 -13  12  -4   10.00    4.10
  13 -13  -4    0.70    4.10
 -13  13   4    1.40    2.90
  12 -13  -4    6.10    4.10
 -12  13   4    2.00    3.00
  11 -13  -4   11.30    4.70
 -11  13   4   14.40    4.00
  10 -13  -4  105.89   11.20
 -10  13   4  105.39    7.60
   9 -13  -4   -3.40    2.70
  -9  13   4    5.30    3.00
   8 -13  -4   41.00    7.20
  -8  13   4   42.00    5.50
   7 -13  -4    2.00    3.40
  -7  13   4   -2.10    2.10
   6 -13  -4   -1.30    3.00
   6 -13  -4    1.20    2.80
   5 -13  -4    6.50    3.60
   5 -13  -4   -0.40    2.40
   4 -13  -4   16.00    4.50
   4 -13  -4   -1.50    2.30
   3 -13  -4  242.78   12.20
   3 -13  -4  218.58   12.60
   3  13  -4  248.18   10.70
   2 -13  -4   29.10    5.50
   2 -13  -4   31.70    5.20
   2  13  -4   38.00    4.50
   1 -13  -4    7.40    3.40
   1 -13  -4    3.90    3.20
   1  13  -4   11.80    3.10
   0 -13  -4   35.20    5.90
   0 -13  -4   32.10    5.00
   0  13  -4   33.90    4.50
  -1 -13  -4   41.60    6.10
  -1 -13  -4   36.40    5.40
  -1  13  -4   45.20    5.20
   1  13   4   45.80    5.80
   2 -13   4    1.40    3.10
  -2 -13  -4    5.80    3.00
  -2  13  -4    6.40    2.80
   2  13   4    7.50    2.20
  -3 -13  -4   49.70    6.20
   3 -13   4   67.19    8.20
   3  13   4   66.79    5.60
  -3  13  -4   54.79    5.80
  -4 -13  -4   23.80    4.70
   4 -13   4   22.00    5.40
  -4  13  -4   19.50    4.00
   4  13   4   27.60    3.90
  -5 -13  -4   79.59    7.80
   5 -13   4   69.79    8.40
  -5  13  -4   64.39    6.50
   6 -13   4   70.69    8.70
  -6 -13  -4   66.39    7.40
  -6  13  -4   72.79    7.00
   7 -13   4    7.10    4.00
  -7 -13  -4    3.00    3.30
  -7  13  -4    4.70    3.00
  -8 -13  -4    5.40    3.20
   8 -13   4    1.20    3.60
  -8  13  -4    3.90    3.00
   9 -13   4   53.69    8.00
  -9 -13  -4   38.20    6.10
  -9  13  -4   33.10    5.40
  10 -13   4   -2.40    3.30
 -10 -13  -4   -0.30    3.10
 -10  13  -4    0.00    2.70
  11 -13   4   16.90    5.60
 -11 -13  -4   15.50    4.60
 -11  13  -4   20.90    4.80
  11 -14  -4   -2.70    3.60
 -11  14   4    1.20    2.90
  10 -14  -4    6.20    4.50
 -10  14   4    9.10    3.60
   9 -14  -4    7.10    4.30
  -9  14   4    2.90    3.00
   8 -14  -4    5.10    4.10
   8 -14  -4    6.80    3.40
  -8  14   4    3.80    2.90
   7 -14  -4   10.70    4.60
   7 -14  -4   13.60    3.90
   6 -14  -4   19.00    5.20
   6 -14  -4    5.70    3.30
   5 -14  -4   17.80    4.60
   5 -14  -4   15.00    4.80
   4 -14  -4   96.29    9.80
   4 -14  -4   97.49    8.70
   3 -14  -4   -2.50    2.60
   3 -14  -4   -0.80    3.00
   2 -14  -4   25.90    5.70
   2 -14  -4   28.00    5.00
   2  14  -4   26.30    4.20
   1 -14  -4  225.98   13.10
   1 -14  -4  235.68   12.10
   1  14  -4  241.48   11.00
   0 -14  -4   28.00    5.50
   0 -14  -4   38.70    5.70
   0  14  -4   28.10    4.30
  -1 -14  -4   52.29    6.50
  -1  14  -4   63.09    6.20
  -2 -14  -4    2.60    2.90
  -2  14  -4    2.50    2.60
  -3 -14  -4   56.29    6.90
   3 -14   4   66.29    8.50
  -3  14  -4   59.09    6.20
   4 -14   4    5.60    4.10
  -4 -14  -4    1.10    3.10
  -4  14  -4    8.50    3.40
   4  14   4   10.80    4.30
  -5 -14  -4   20.00    4.70
   5 -14   4   46.70    7.40
  -5  14  -4   21.70    4.40
   5  14   4   35.60    4.70
   6 -14   4   18.30    5.30
  -6 -14  -4   15.20    4.10
  -6  14  -4   20.40    4.40
  -7 -14  -4   81.19    8.30
   7 -14   4   86.29   10.00
  -7  14  -4   80.69    7.80
  -8 -14  -4   54.79    7.20
   8 -14   4   70.59    9.20
  -8  14  -4   58.29    6.90
   9 -14   4    6.40    4.60
  -9 -14  -4    1.80    3.20
  -9  14  -4   -2.20    2.90
  10 -14   4    2.50    4.10
 -10 -14  -4    5.10    3.80
 -10  14  -4    4.50    3.70
   9 -15  -4   10.20    4.90
   9 -15  -4   10.60    4.50
   8 -15  -4   38.20    6.20
   8 -15  -4   50.49    8.10
   7 -15  -4   66.09    7.80
   7 -15  -4   65.29    8.80
   6 -15  -4    4.40    4.00
   6 -15  -4    1.60    3.20
   5 -15  -4    0.20    2.80
   5 -15  -4    5.10    4.10
   4 -15  -4   90.99    8.70
   4 -15  -4   80.49    9.60
   3 -15  -4   65.59    8.30
   3 -15  -4   44.30    6.30
   2 -15  -4  186.08   10.90
   2 -15  -4  184.98   12.10
   2  15  -4  189.68    9.80
   1 -15  -4    3.40    3.50
   1 -15  -4   -4.20    2.50
   1  15  -4    0.30    2.30
   0 -15  -4   16.90    4.60
   0 -15  -4   24.60    5.60
   0  15  -4   20.30    4.20
  -1 -15  -4    3.20    3.00
  -1  15  -4    8.80    3.30
  -2 -15  -4  217.28   12.20
  -2  15  -4  231.48   11.40
  -3 -15  -4    4.80    3.50
  -3  15  -4   12.30    3.70
  -4 -15  -4   24.20    5.00
   4 -15   4   21.50    5.90
  -4  15  -4   25.20    4.60
   5 -15   4   56.19    8.60
  -5 -15  -4   62.29    7.40
  -5  15  -4   52.29    6.50
   6 -15   4    8.20    4.90
  -6 -15  -4    6.40    3.70
  -6  15  -4   13.90    4.10
  -7 -15  -4   45.90    6.70
   7 -15   4   33.60    7.10
  -7  15  -4   45.60    6.30
   6 -16  -4    5.80    4.60
   5 -16  -4   -1.10    2.90
   5 -16  -4   -4.60    3.00
   4 -16  -4    2.80    3.90
   4 -16  -4   -0.40    2.60
   3 -16  -4    2.30    4.00
   3 -16  -4    5.60    3.30
   2 -16  -4    7.50    4.40
   2 -16  -4    5.10    3.40
   1 -16  -4   16.00    4.60
   1 -16  -4   15.20    5.00
   1  16  -4   13.20    3.60
   0 -16  -4   52.29    7.00
   0  16  -4   68.59    7.20
  -1 -16  -4    7.30    3.80
  -1  16  -4    8.00    3.40
  -2 -16  -4   65.69    7.70
  -2  16  -4   79.59    7.80
  -3 -16  -4    5.10    3.70
  -3  16  -4    6.50    3.20
  -4 -16  -4   45.40    6.70
  -4  16  -4   29.30    5.30
  21   0  -5    6.50    4.40
 -21   0   5    2.90    3.60
  20   0  -5    1.80    4.00
 -20   0   5    3.70    2.90
  19   0  -5   16.00    5.20
 -19   0   5   29.80    5.20
  18   0  -5    2.50    3.30
 -15   0   5   53.09    3.80
 -14   0   5    0.90    0.80
 -13   0   5    5.40    1.00
 -12   0   5    0.50    0.70
 -11   0   5   58.69    2.40
 -10   0   5    0.30    0.50
 -10   0   5    1.10    1.10
  -9   0   5   17.50    2.50
  -9   0   5   19.00    1.10
   8   0  -5    0.80    0.40
  -8   0   5    1.30    1.20
   8   0  -5    1.30    1.10
   7   0  -5   10.00    0.80
  -7   0   5   10.30    1.80
   7   0  -5    7.30    1.50
  -6   0   5   -0.40    0.90
   6   0  -5    0.30    0.30
   5   0  -5  504.65   13.50
  -5   0   5  500.25   15.30
   4   0  -5   -0.30    0.30
  -4   0   5    1.20    0.80
   4   0  -5    1.20    0.90
   3   0  -5  128.19    4.80
  -3   0   5  114.09    4.70
  -3   0   5  115.09    4.90
   2   0  -5    0.50    0.60
  -2   0   5    1.60    1.10
  -2   0   5    0.90    0.90
   2   0  -5    0.80    0.70
   1   0  -5 1849.02   49.70
  -1   0   5 1898.91   49.80
   1   0  -5 1806.32   49.40
  -1   0   5 1856.81   49.90
   0   0   5    1.20    1.00
   0   0  -5   -0.10    0.30
   0   0  -5    0.40    0.90
   0   0  -5    1.30    0.90
   0   0   5    1.00    0.90
   1   0   5 2026.50   55.49
   1   0   5 2071.09   55.19
  -1   0  -5 2107.69   55.29
   2   0   5    2.40    1.10
   2   0   5    0.20    0.80
  -2   0  -5    0.60    0.40
  -2   0  -5    0.90    0.90
   3   0   5   99.79    4.60
  -3   0  -5   94.99    4.40
  -3   0  -5  110.29    5.10
  -3   0  -5   96.59    3.10
   4   0   5   -1.70    1.00
  -4   0  -5   -2.80    0.90
  -4   0  -5   -3.20    1.00
   4   0   5   -1.60    0.90
   4   0   5   -1.20    0.40
  -5   0  -5   15.80    2.30
  -5   0  -5   16.50    2.60
   5   0   5   14.20    1.30
   5   0   5   21.70    2.60
   6   0   5   -0.30    0.60
  -6   0  -5    1.30    1.40
  -6   0  -5    0.80    1.20
   6   0   5    0.50    1.20
  -7   0  -5    7.00    1.90
  -7   0  -5    5.90    2.00
   7   0   5    5.10    1.20
  -8   0  -5    1.60    1.60
  -8   0  -5    2.30    1.50
   8   0   5    0.20    0.90
  -9   0  -5 1262.57   37.60
  -9   0  -5 1268.37   37.10
   9   0   5 1288.57   35.50
  10   0   5   -0.90    1.20
 -10   0  -5    0.80    1.70
 -10   0  -5    0.50    1.80
  11   0   5  303.67   11.10
 -11   0  -5  307.97   12.50
 -11   0  -5  317.07   12.80
 -12   0  -5   -1.00    1.80
  12   0   5   -1.70    1.30
 -12   0  -5   -0.70    1.70
  13   0   5    6.80    2.10
 -13   0  -5   -3.70    1.70
 -13   0  -5    4.70    2.50
  14   0   5   -1.70    1.50
 -14   0  -5    0.10    2.40
 -14   0  -5   -0.80    2.20
 -15   0  -5    3.70    2.90
  15   0   5    5.10    2.40
 -15   0  -5    9.20    3.40
 -16   0  -5    2.40    2.60
 -16   0  -5   -2.60    2.20
 -17   0  -5   14.20    4.10
 -17   0  -5   11.50    3.90
 -18   0  -5    1.60    2.90
 -18   0  -5   -3.20    2.60
 -19   0  -5  212.38   11.90
 -21  -1   5    7.40    4.00
  21  -1  -5    2.90    3.90
  21   1  -5    7.80    4.50
 -21   1   5    3.00    3.30
  20  -1  -5   43.70    7.30
  20   1  -5   54.89    8.00
 -20   1   5   58.59    6.90
  19  -1  -5   34.20    6.40
 -19   1   5   47.20    6.00
  18  -1  -5    0.60    3.20
 -18   1   5    6.30    3.00
  17  -1  -5   -3.00    2.70
 -17   1   5   -0.20    2.30
  16  -1  -5   77.69    8.30
 -16   1   5   85.69    6.20
  15  -1  -5   15.30    4.00
 -15   1   5   11.30    1.70
 -15   1   5   13.60    3.10
 -14  -1   5  161.18    5.20
 -14   1   5  157.78    8.00
 -14   1   5  161.38    5.80
 -13  -1   5   18.70    1.30
 -13   1   5   20.50    3.30
 -13   1   5   18.00    1.80
  12  -1  -5  103.09    4.40
 -12  -1   5  103.19    3.40
 -12   1   5   99.79    4.00
 -12   1   5  115.49    6.10
 -11  -1   5   28.70    1.30
  11  -1  -5   27.80    2.10
 -11   1   5   29.30    3.40
 -11   1   5   33.70    2.00
 -10  -1   5  273.97    7.20
  10  -1  -5  258.97    8.40
 -10   1   5  275.87   10.10
 -10   1   5  263.87    8.10
   9  -1  -5  225.18    7.30
  -9   1   5  233.98    7.00
  -9   1   5  236.48    8.90
   8  -1  -5   43.20    3.10
   8  -1  -5   40.50    2.10
  -8   1   5   44.40    2.00
  -8   1   5   38.70    2.90
   8   1  -5   38.00    2.90
  -7  -1   5  325.57   11.00
   7  -1  -5  324.17    9.40
  -7   1   5  317.17   10.90
   7   1  -5  328.17   10.70
   6  -1  -5   43.00    1.90
  -6  -1   5   41.10    2.90
  -6   1   5   43.90    3.00
   6   1  -5   40.50    2.60
   5  -1  -5    0.20    0.40
   5  -1  -5    1.00    0.80
  -5  -1   5   -0.30    0.90
  -5   1   5    0.00    0.90
   5   1  -5   -0.30    0.20
   5   1  -5   -0.10    0.20
  -4  -1   5  190.78    7.00
   4  -1  -5  202.28    6.90
   4  -1  -5  195.98    5.90
   4   1  -5  193.18    5.80
  -4   1   5  204.18    7.20
   3  -1  -5  133.19    5.10
  -3  -1   5  137.39    5.30
  -3   1   5  137.79    5.20
   3   1  -5  129.79    4.40
  -3   1   5  130.09    5.30
   3   1  -5  138.59    5.20
  -2  -1   5   44.70    2.70
  -2  -1   5   45.20    2.60
   2  -1  -5   45.80    2.70
   2   1  -5   48.20    2.50
  -2   1   5   46.50    2.90
  -2   1   5   45.10    2.70
   2   1  -5   43.40    2.30
  -1  -1   5  295.47    9.60
   1  -1  -5  318.57    9.70
   1  -1  -5  313.67    9.80
  -1  -1   5  309.47    9.60
   1   1  -5  299.57    9.40
   1   1  -5  295.17    9.40
   1   1  -5  306.17    9.60
  -1   1   5  306.67    9.70
  -1   1   5  289.57    9.70
   1   1  -5  278.57    8.90
   0  -1   5 1006.60   28.30
   0  -1   5 1040.20   27.70
   0  -1   5 1011.00   28.30
   0  -1  -5 1047.50   28.40
   0  -1  -5 1026.30   28.50
   0   1  -5  986.70   28.30
   0   1  -5 1039.50   28.30
   0   1  -5 1048.00   28.20
   0   1   5 1031.00   28.50
   0   1   5 1020.10   28.40
   0   1  -5  992.70   27.60
  -1  -1  -5   31.00    2.70
   1  -1   5   30.50    2.50
   1  -1   5   30.40    2.00
  -1  -1  -5   34.50    1.40
  -1   1  -5   33.70    2.50
  -1   1  -5   27.60    2.10
  -1   1  -5   30.10    2.20
  -1   1  -5   30.10    1.80
   1   1   5   25.10    2.40
  -1   1  -5   27.70    1.90
   1   1   5   26.50    2.50
  -2  -1  -5   25.90    2.50
   2  -1   5   30.10    2.60
   2  -1   5   23.50    2.10
   2   1   5   27.50    2.60
   2   1   5   23.80    2.40
  -2   1  -5   27.10    2.40
  -2   1  -5   27.10    2.00
  -2   1  -5   26.10    2.60
  -2   1  -5   28.90    1.70
   3  -1   5   59.29    3.40
  -3  -1  -5   64.89    3.80
   3  -1   5   63.79    2.70
   3  -1   5   71.59    3.40
  -3   1  -5   61.59    3.80
   3   1   5   62.99    3.60
  -3   1  -5   61.79    2.70
  -3   1  -5   68.69    3.40
   4  -1   5   76.79    3.90
   4  -1   5   68.49    3.00
  -4  -1  -5   65.39    4.00
  -4   1  -5   69.69    4.20
   4   1   5   72.19    4.00
  -4   1  -5   65.99    3.60
  -4   1  -5   68.69    3.00
   5  -1   5  415.36   13.50
  -5  -1  -5  408.26   13.80
   5  -1   5  408.76   13.50
   5  -1   5  430.86   12.50
  -5   1  -5  410.46   14.10
  -5   1  -5  440.26   12.40
  -5   1  -5  424.36   13.40
   5   1   5  403.46   11.50
   5   1   5  438.56   14.10
  -6  -1  -5   -1.70    1.10
  -6  -1  -5    1.30    1.20
   6  -1   5    1.70    1.30
   6  -1   5    0.60    0.80
   6   1   5   -0.30    1.10
  -6   1  -5   -2.00    0.90
   6   1   5    0.00    0.50
  -6   1  -5    1.20    1.40
   7  -1   5   25.00    3.40
   7  -1   5   27.60    2.60
  -7  -1  -5   32.50    3.60
  -7  -1  -5   26.80    3.40
   7   1   5   32.80    2.00
  -7   1  -5   19.40    3.00
  -7   1  -5   24.50    2.90
  -8  -1  -5   15.90    2.80
  -8  -1  -5   19.40    3.10
   8  -1   5   17.10    2.30
   8   1   5   18.60    2.00
  -8   1  -5   21.40    3.00
  -8   1  -5   17.40    3.00
   9  -1   5  259.97    9.60
  -9  -1  -5  279.47   11.30
  -9  -1  -5  274.37   11.00
  -9   1  -5  264.77   11.20
   9   1   5  263.47    9.10
  -9   1  -5  272.87   10.60
  10  -1   5   15.00    2.50
 -10  -1  -5   10.70    2.70
 -10  -1  -5   16.60    3.20
  10   1   5   14.70    2.20
 -10   1  -5   10.60    2.80
 -10   1  -5    9.90    2.60
 -11  -1  -5    2.60    2.20
 -11  -1  -5    1.50    2.00
  11  -1   5    0.70    1.50
 -11   1  -5    0.60    2.00
  11   1   5    4.50    1.70
 -11   1  -5    5.10    2.40
 -12  -1  -5    5.60    2.60
  12  -1   5    3.30    1.90
 -12  -1  -5    5.80    2.70
  12   1   5    5.60    2.00
 -12   1  -5    1.50    1.90
 -12   1  -5    2.20    2.40
 -13  -1  -5   48.10    5.50
  13  -1   5   55.39    5.20
 -13  -1  -5   58.79    6.10
 -13   1  -5   60.79    5.90
 -13   1  -5   66.09    6.30
  13   1   5   53.09    4.20
 -14  -1  -5    0.10    2.20
  14  -1   5   -0.60    1.70
 -14  -1  -5   -3.40    1.90
 -14   1  -5    1.60    2.30
 -14   1  -5   -0.60    2.10
  14   1   5   -1.60    1.50
  15  -1   5   75.79    5.80
 -15  -1  -5   69.89    7.00
 -15  -1  -5   69.09    7.00
 -15   1  -5   67.09    6.70
 -15   1  -5   65.49    6.60
 -16  -1  -5    7.20    3.30
 -16  -1  -5   -0.30    2.50
 -16   1  -5   14.60    3.80
 -16   1  -5    4.90    3.00
 -17  -1  -5   13.40    4.00
 -17  -1  -5   12.00    3.90
 -17   1  -5   10.50    3.70
 -17   1  -5   14.40    4.20
 -18  -1  -5   28.80    5.00
 -18  -1  -5   18.30    5.00
 -18   1  -5   17.70    4.50
 -19  -1  -5    0.50    3.10
 -19   1  -5    3.00    3.60
  20  -2  -5   -1.60    3.50
 -20   2   5    5.00    3.20
  19  -2  -5  276.27   15.20
 -19   2   5  271.97   12.90
  18  -2  -5    4.10    3.60
 -18   2   5   10.30    3.20
  17  -2  -5   52.19    7.20
 -17   2   5   50.19    5.60
  16  -2  -5    6.20    3.40
 -16   2   5   14.50    3.10
  15  -2  -5  220.78   12.20
 -15   2   5  232.98    8.20
 -15   2   5  244.08   10.50
  14  -2  -5   96.39    7.50
 -14   2   5   92.59    4.30
 -14   2   5   97.19    6.00
  13  -2  -5   65.09    6.90
 -13  -2   5   74.39    2.40
 -13   2   5   72.49    5.10
 -13   2   5   74.69    3.70
  12  -2  -5   35.10    5.00
 -12   2   5   32.40    3.80
 -12   2   5   39.50    2.50
  11  -2  -5 1134.09   31.90
  11  -2  -5 1140.49   35.50
 -11   2   5 1167.88   33.40
 -11   2   5 1140.79   31.30
  10  -2  -5   34.10    2.50
 -10   2   5   33.70    3.60
 -10   2   5   36.20    2.20
   9  -2  -5    6.40    1.30
  -9   2   5    7.70    1.90
  -9   2   5    7.00    1.20
   9   2  -5    6.20    1.60
   8  -2  -5  416.96   11.90
  -8   2   5  398.76   13.00
  -8   2   5  385.66   11.50
   8   2  -5  381.86   12.80
   7  -2  -5   63.99    2.90
   7   2  -5   57.39    3.40
  -7   2   5   67.39    2.80
  -7   2   5   62.29    3.70
  -6  -2   5   36.80    2.80
   6  -2  -5   33.80    1.90
  -6   2   5   36.20    2.70
   6   2  -5   38.50    2.40
   5  -2  -5   -0.70    0.70
   5  -2  -5    0.20    0.60
  -5  -2   5   -0.60    0.90
   5  -2  -5    0.00    0.70
   5   2  -5    0.20    0.20
  -5   2   5   -0.70    0.90
   5   2  -5   -0.30    0.60
  -4  -2   5    1.60    1.00
   4  -2  -5    0.10    0.80
   4  -2  -5    1.20    0.60
   4  -2  -5   -0.10    0.50
  -4   2   5    1.70    1.10
   4   2  -5    1.10    0.40
   4   2  -5    0.20    0.60
  -4   2   5    0.70    0.90
  -3  -2   5  140.39    4.80
  -3  -2   5  148.19    5.60
   3  -2  -5  146.69    5.40
   3  -2  -5  146.49    5.90
  -3   2   5  135.29    5.30
   3   2  -5  134.49    4.60
  -3   2   5  147.99    5.70
  -2  -2   5  238.18    7.60
   2  -2  -5  220.88    7.90
   2  -2  -5  240.68    8.00
   2  -2  -5  233.58    8.00
  -2  -2   5  235.08    7.90
  -2   2   5  237.08    8.20
  -2   2   5  234.68    7.90
   2   2  -5  238.28    7.90
   2   2  -5  247.28    7.50
   2   2  -5  244.08    7.80
  -1  -2   5  911.01   25.20
   1  -2  -5  923.81   25.40
   1  -2  -5  917.51   25.10
   1  -2  -5  909.31   25.90
  -1  -2   5  902.01   25.20
  -1  -2   5  881.91   25.30
   1   2  -5  930.91   25.30
   1   2  -5  896.11   24.20
   1   2  -5  904.51   25.20
  -1   2   5  905.21   25.40
   1   2  -5  911.41   25.10
   0  -2  -5   23.90    1.70
   0  -2   5   23.90    2.30
   0  -2   5   22.40    2.10
   0  -2   5   24.40    2.20
   0  -2  -5   26.10    2.40
   0  -2  -5   19.70    2.30
   0  -2   5   23.10    1.40
   0   2  -5   25.50    2.40
   0   2  -5   23.90    2.10
   0   2  -5   25.10    1.90
   0   2  -5   25.50    1.90
   0   2   5   26.10    2.50
   0   2  -5   21.40    1.40
  -1  -2  -5   39.10    2.90
   1  -2   5   40.60    2.50
  -1  -2  -5   40.70    1.90
   1  -2   5   41.60    2.10
  -1   2  -5   39.80    2.40
  -1   2  -5   38.80    2.00
   1   2   5   40.10    2.80
  -1   2  -5   40.40    2.40
  -1   2  -5   45.40    2.50
  -1   2  -5   42.60    2.90
  -2  -2  -5  131.49    3.90
   2  -2   5  137.69    4.80
   2  -2   5  129.49    5.20
  -2  -2  -5  143.09    5.90
   2  -2   5  131.19    5.00
  -2   2  -5  129.19    5.10
   2   2   5  129.49    5.60
  -2   2  -5  137.89    5.00
  -2   2  -5  127.99    4.90
  -2   2  -5  119.49    5.50
  -2   2  -5  129.79    4.60
   3  -2   5  499.95   14.30
  -3  -2  -5  468.55   15.20
   3  -2   5  487.45   14.20
   3  -2   5  482.65   14.50
   3   2   5  478.55   15.00
  -3   2  -5  476.85   14.20
   3   2   5  467.85   15.20
  -3   2  -5  497.45   14.20
  -3   2  -5  460.45   15.20
   4  -2   5 1048.00   30.10
   4  -2   5 1086.39   29.80
  -4  -2  -5 1051.09   30.90
   4   2   5 1104.29   31.20
  -4   2  -5 1047.10   29.80
  -4   2  -5 1099.29   29.80
  -4   2  -5 1056.89   31.00
   4   2   5 1114.39   28.20
  -5  -2  -5  133.49    6.30
   5  -2   5  129.39    5.60
   5  -2   5  130.59    5.60
   5  -2   5  140.89    5.40
   5   2   5  132.79    4.10
  -5   2  -5  129.59    5.30
  -5   2  -5  132.99    5.50
   5   2   5  134.59    6.40
  -5   2  -5  132.69    6.40
   6  -2   5   57.49    3.30
  -6  -2  -5   53.19    4.10
   6  -2   5   54.79    3.60
   6  -2   5   59.39    3.70
  -6   2  -5   52.09    3.40
  -6   2  -5   55.39    4.00
   7  -2   5  140.99    6.60
  -7  -2  -5  147.89    7.20
   7  -2   5  155.88    6.30
  -7   2  -5  149.19    7.20
  -7   2  -5  146.29    6.50
  -8  -2  -5    0.50    1.30
   8  -2   5    0.40    1.10
  -8   2  -5    0.20    1.50
  -8   2  -5    1.70    1.50
   9  -2   5   47.90    3.60
  -9  -2  -5   43.40    4.60
  -9  -2  -5   30.30    4.00
  -9   2  -5   41.60    4.50
   9   2   5   33.90    2.60
  -9   2  -5   53.09    4.50
  10  -2   5    8.10    2.20
 -10  -2  -5    6.00    2.60
 -10  -2  -5    5.60    2.40
 -10   2  -5    8.40    2.40
  10   2   5   10.90    1.90
 -10   2  -5    2.10    2.20
  11  -2   5   34.80    3.90
 -11  -2  -5   32.00    4.50
 -11  -2  -5   33.40    4.60
 -11   2  -5   30.80    4.40
 -11   2  -5   28.80    3.90
  11   2   5   43.00    3.70
 -12  -2  -5   63.79    6.10
 -12  -2  -5   58.49    6.10
  12  -2   5   63.89    4.80
 -12   2  -5   54.29    5.40
  12   2   5   63.99    4.20
 -12   2  -5   56.59    5.80
  13  -2   5   33.10    4.20
 -13  -2  -5   25.40    4.20
 -13  -2  -5   30.30    4.60
  13   2   5   37.60    3.90
 -13   2  -5   26.70    4.30
 -13   2  -5   31.30    4.40
  14  -2   5   60.59    5.80
 -14  -2  -5   58.59    6.20
 -14  -2  -5   47.90    5.90
 -14   2  -5   60.29    6.30
 -14   2  -5   60.59    6.30
  14   2   5   51.39    4.70
 -15  -2  -5    2.60    2.90
  15  -2   5    2.70    2.50
 -15  -2  -5    6.00    3.10
 -15   2  -5    9.10    3.60
 -15   2  -5    5.20    2.80
 -16  -2  -5   -0.90    2.60
  16  -2   5   -1.20    2.20
 -16  -2  -5   -2.10    2.50
 -16   2  -5   -1.60    2.30
 -17  -2  -5   -0.90    2.90
 -17  -2  -5   -3.90    2.60
 -17   2  -5    1.10    2.80
 -18  -2  -5   24.50    4.80
 -18  -2  -5   20.40    4.70
 -18   2  -5   21.10    4.70
  20  -3  -5   49.30    8.00
 -20   3   5   52.99    6.40
  19  -3  -5   -1.90    3.50
 -19   3   5    0.20    2.50
  18  -3  -5   18.20    5.00
  17  -3  -5    0.00    3.00
 -17   3   5   -0.30    1.90
  16  -3  -5    6.80    3.80
 -16   3   5    8.30    1.90
 -16   3   5    9.90    2.80
  15  -3  -5   -1.70    2.60
 -15   3   5    1.70    1.30
 -15   3   5    0.90    2.00
  14  -3  -5  103.29    8.00
 -14   3   5  113.39    5.20
 -14   3   5  123.09    6.80
  13  -3  -5   14.20    3.80
 -13   3   5   15.60    3.00
 -13   3   5   15.70    2.10
  12  -3  -5   89.19    6.80
 -12   3   5   84.89    4.20
 -12   3   5   79.19    5.00
  11  -3  -5   56.79    6.10
 -11   3   5   54.49    3.20
 -11   3   5   65.29    4.40
  10  -3  -5  112.49    7.10
 -10   3   5  104.29    5.60
 -10   3   5  116.99    4.70
   9  -3  -5   14.00    2.80
   9   3  -5   11.90    2.20
  -9   3   5   11.40    1.60
  -9   3   5   11.40    2.10
   8  -3  -5  269.67    9.30
   8  -3  -5  274.77   11.10
   8   3  -5  262.67    9.50
  -8   3   5  254.07    8.50
  -8   3   5  274.37    9.70
   7  -3  -5   12.10    1.50
  -7  -3   5    9.70    0.60
   7  -3  -5    9.80    2.40
   7   3  -5    8.90    1.60
  -7   3   5    9.60    1.40
  -7   3   5    8.50    1.70
   6  -3  -5  382.36   12.00
   6  -3  -5  394.16   11.50
  -6  -3   5  378.96   10.50
   6  -3  -5  370.76   13.40
  -6   3   5  381.86   12.30
   6   3  -5  385.26   11.90
  -6   3   5  386.56   11.50
  -5  -3   5   50.49    3.20
   5  -3  -5   54.29    3.00
  -5  -3   5   55.39    2.30
   5  -3  -5   54.29    2.70
   5  -3  -5   53.09    2.90
   5  -3  -5   50.99    3.80
  -5   3   5   57.39    3.40
   5   3  -5   53.89    2.00
   5   3  -5   53.39    2.70
   4  -3  -5  271.67   10.10
   4  -3  -5  296.07    8.90
  -4  -3   5  266.47    9.40
  -4  -3   5  291.57    8.60
   4  -3  -5  287.37    9.20
   4   3  -5  284.67    8.60
  -4   3   5  296.17    9.20
  -4   3   5  284.97    9.60
   4   3  -5  287.37    8.30
   3  -3  -5    1.50    0.80
   3  -3  -5    0.10    0.60
  -3  -3   5    0.10    0.90
  -3  -3   5    0.00    0.70
   3  -3  -5    0.80    0.90
   3  -3  -5    0.40    1.00
  -3   3   5   -0.10    0.80
   3   3  -5    0.00    0.50
   3   3  -5   -0.20    0.50
  -3   3   5    0.30    0.90
  -2  -3   5  399.66   12.30
  -2  -3   5  410.56   12.10
   2  -3  -5  401.36   12.70
   2  -3  -5  398.16   12.30
   2   3  -5  408.96   10.90
   2   3  -5  403.56   11.90
  -2   3   5  405.56   12.40
  -1  -3   5  552.24   16.10
   1  -3  -5  570.14   16.40
  -1  -3   5  569.64   16.40
   1  -3  -5  541.55   16.30
   1  -3  -5  549.35   17.10
   1   3  -5  559.84   16.20
   1   3  -5  566.94   16.20
  -1   3   5  539.05   16.40
  -1   3   5  564.34   16.40
   1   3  -5  552.34   15.90
   0  -3  -5  135.99    4.90
   0  -3   5  129.99    4.90
   0  -3  -5  127.39    5.80
   0  -3   5  121.09    4.80
   0   3  -5  130.69    3.70
   0   3   5  133.19    5.40
   0   3  -5  129.29    5.00
   0   3   5  126.29    4.80
   0   3  -5  133.09    4.70
   0   3  -5  125.19    5.20
  -1  -3  -5  686.23   21.10
  -1  -3  -5  731.83   19.70
   1  -3   5  710.73   19.90
   1  -3   5  714.63   19.10
   1  -3   5  701.43   20.00
   1   3   5  704.43   19.60
  -1   3  -5  713.03   19.00
  -1   3  -5  686.73   20.60
  -1   3  -5  700.23   20.00
   1   3   5  707.13   20.70
  -1   3  -5  714.53   19.80
  -2  -3  -5 1063.39   27.90
  -2  -3  -5 1071.99   30.20
   2  -3   5  992.50   29.00
   2  -3   5 1026.90   28.70
   2  -3   5 1057.59   28.10
  -2   3  -5 1033.30   28.60
  -2   3  -5 1028.70   29.50
  -2   3  -5 1038.80   28.40
  -2   3  -5 1010.30   27.90
   2   3   5 1040.90   28.00
   2   3   5 1049.30   29.50
  -3  -3  -5   70.99    4.40
   3  -3   5   79.39    3.70
   3  -3   5   72.89    3.90
   3  -3   5   79.89    3.50
  -3   3  -5   79.29    3.30
   3   3   5   70.59    4.30
   3   3   5   73.99    2.90
  -3   3  -5   79.29    3.50
  -3   3  -5   74.29    4.30
   4  -3   5    9.80    1.60
   4  -3   5    9.30    1.50
   4  -3   5   12.50    1.90
  -4  -3  -5   11.50    2.30
  -4   3  -5   12.00    1.60
  -4   3  -5    9.70    2.00
   4   3   5   12.50    2.30
   4   3   5   10.40    1.10
   5  -3   5    0.00    1.00
   5  -3   5    0.40    0.90
  -5  -3  -5    0.80    1.20
   5  -3   5    0.60    0.80
  -5   3  -5    0.60    1.30
  -5   3  -5    2.30    1.10
   5   3   5    1.40    0.60
   5   3   5    0.60    1.30
   6  -3   5   32.70    3.00
  -6  -3  -5   31.20    3.60
   6  -3   5   33.60    3.20
   6  -3   5   30.80    3.20
  -6   3  -5   39.10    2.90
   6   3   5   38.40    2.00
  -6   3  -5   31.30    3.60
   7  -3   5  565.04   17.90
   7  -3   5  554.14   17.70
  -7  -3  -5  569.44   18.90
   7  -3   5  565.84   17.50
  -7   3  -5  566.24   17.50
  -7   3  -5  582.14   18.80
  -8  -3  -5   10.50    2.70
   8  -3   5    8.00    2.10
  -8   3  -5    9.40    2.40
  -8   3  -5   10.40    2.10
   9  -3   5  137.89    6.80
  -9  -3  -5  135.19    7.50
  -9   3  -5  140.79    7.50
  -9   3  -5  143.39    6.70
  10  -3   5  625.14   19.70
 -10  -3  -5  584.74   20.40
 -10  -3  -5  581.24   20.60
 -10   3  -5  614.04   19.60
 -10   3  -5  596.74   20.50
 -11  -3  -5   19.30    3.70
 -11  -3  -5   24.30    3.90
  11  -3   5   16.10    3.10
 -11   3  -5   16.80    3.20
 -11   3  -5   23.10    3.80
 -12  -3  -5   48.90    5.60
  12  -3   5   50.19    5.00
 -12  -3  -5   47.60    5.50
 -12   3  -5   46.70    5.40
 -12   3  -5   37.50    4.50
  13  -3   5   -0.80    1.80
 -13  -3  -5   -0.40    1.80
 -13  -3  -5    0.70    2.50
 -13   3  -5    2.20    2.30
  13   3   5    1.30    1.60
 -13   3  -5   -1.40    1.70
  14  -3   5  305.27   13.00
 -14  -3  -5  305.57   14.00
 -14  -3  -5  310.77   13.80
 -14   3  -5  310.77   13.60
  14   3   5  325.87   13.70
 -15  -3  -5    2.20    2.90
  15  -3   5    0.70    2.30
 -15  -3  -5   -1.50    2.40
 -15   3  -5   -0.50    2.40
 -16  -3  -5   -5.40    2.00
 -16  -3  -5    0.90    2.90
  16  -3   5    0.90    2.50
 -16   3  -5   -2.10    2.30
 -17  -3  -5   18.80    4.40
 -17  -3  -5   21.90    4.70
 -17   3  -5   27.30    5.00
 -18  -3  -5   85.09    9.00
 -18  -3  -5   86.69    8.30
 -18   3  -5   58.49    6.90
  20  -4  -5    2.30    4.20
 -20   4   5    5.00    3.10
  19  -4  -5    9.60    4.90
 -19   4   5    9.20    3.40
  18  -4  -5    2.90    3.80
 -18   4   5    2.50    2.40
  17  -4  -5    0.30    3.30
 -17   4   5    1.20    2.00
  16  -4  -5   22.60    5.20
 -16   4   5   16.70    2.60
 -16   4   5   16.40    3.20
  15  -4  -5   63.49    7.80
 -15   4   5   87.69    6.00
 -15   4   5   86.69    4.80
  14  -4  -5   39.40    6.10
 -14   4   5   40.90    3.60
 -14   4   5   46.80    4.70
  13  -4  -5    7.40    3.30
 -13   4   5   10.10    2.10
 -13   4   5    8.80    2.40
  12  -4  -5    9.80    3.50
 -12  -4   5   12.00    0.80
 -12  -4   5   11.30    0.90
 -12   4   5   11.40    2.70
 -12   4   5    9.50    1.90
  11  -4  -5   23.40    4.30
 -11  -4   5   23.40    3.10
 -11  -4   5   24.10    1.10
 -11  -4   5   19.60    1.20
 -11   4   5   26.40    2.60
 -11   4   5   26.30    3.30
 -10  -4   5   11.10    1.00
  10  -4  -5   10.50    3.10
 -10  -4   5   10.70    0.80
 -10  -4   5    9.20    2.10
 -10   4   5   11.60    2.20
 -10   4   5    8.20    1.70
  -9  -4   5   14.60    2.20
   9  -4  -5   13.40    3.10
  -9  -4   5   13.10    1.00
  -9   4   5   16.50    2.00
  -9   4   5   14.00    2.20
   9   4  -5   17.90    2.60
  -8  -4   5   16.60    1.10
   8  -4  -5   16.80    3.30
  -8  -4   5   14.30    2.10
  -8   4   5   16.70    2.00
  -8   4   5   20.20    2.60
   8   4  -5   19.50    2.40
  -7  -4   5  104.49    4.70
  -7  -4   5  103.49    3.60
   7  -4  -5  115.79    6.50
  -7   4   5  106.39    5.10
  -7   4   5  104.19    4.50
   7   4  -5  104.09    4.80
  -6  -4   5   23.40    1.50
  -6  -4   5   22.80    2.10
   6  -4  -5   24.20    3.40
   6  -4  -5   27.50    2.40
   6  -4  -5   28.60    2.60
  -6   4   5   25.80    2.70
   6   4  -5   22.70    2.20
  -6   4   5   22.00    2.20
  -5  -4   5  328.87    9.60
   5  -4  -5  322.77   10.20
   5  -4  -5  327.57   10.40
   5  -4  -5  316.07   11.80
   5   4  -5  304.97    9.20
  -5   4   5  320.97   10.60
   5   4  -5  315.97    9.90
   4  -4  -5  452.75   13.60
  -4  -4   5  456.15   13.10
   4  -4  -5  441.16   14.90
  -4  -4   5  440.16   13.90
   4   4  -5  448.86   12.80
  -4   4   5  453.25   13.40
  -4   4   5  461.95   14.00
   4   4  -5  444.06   12.90
  -3  -4   5    9.70    1.60
  -3  -4   5   12.00    1.50
   3  -4  -5   11.90    1.70
   3  -4  -5    9.90    2.10
   3   4  -5    9.40    1.20
   3   4  -5   11.30    1.00
  -3   4   5   12.40    1.70
   2  -4  -5    5.20    1.50
  -2  -4   5    5.10    1.20
  -2  -4   5    6.00    1.30
   2  -4  -5    5.00    1.20
  -2   4   5    6.40    1.30
   2   4  -5    5.00    1.10
  -1  -4   5  127.19    4.90
   1  -4  -5  133.09    5.50
   1  -4  -5  133.49    5.20
   1  -4  -5  127.89    5.40
   1  -4  -5  118.39    5.90
   1   4  -5  125.69    5.10
   1   4  -5  122.49    4.90
  -1   4   5  133.39    5.30
   0  -4   5  189.08    6.50
   0  -4  -5  212.08    8.10
   0  -4  -5  186.78    6.90
   0  -4   5  181.78    6.50
   0   4   5  188.48    7.10
   0   4  -5  201.38    6.40
   0   4  -5  187.98    6.60
   0   4   5  198.58    7.00
   0   4  -5  201.48    7.10
   1  -4   5   63.79    3.10
   1  -4   5   69.19    3.10
   1  -4   5   66.69    2.40
  -1  -4  -5   69.39    3.40
  -1  -4  -5   65.09    4.20
  -1   4  -5   62.99    3.10
  -1   4  -5   62.29    3.70
   1   4   5   65.79    3.30
  -1   4  -5   66.49    2.90
   1   4   5   67.29    4.10
   1   4   5   61.69    3.60
   2  -4   5  343.97   10.50
  -2  -4  -5  342.77   10.40
   2  -4   5  364.46   11.70
  -2  -4  -5  338.77   12.00
   2  -4   5  327.27    9.90
  -2   4  -5  342.67   11.60
   2   4   5  289.37   11.50
  -2   4  -5  337.77   10.10
   2   4   5  331.77   11.40
   2   4   5  365.66   10.60
  -2   4  -5  344.17   10.50
   3  -4   5  106.29    4.40
   3  -4   5  111.39    4.20
   3  -4   5  101.79    5.10
  -3  -4  -5   93.39    5.40
   3   4   5   81.89    5.00
  -3   4  -5  107.49    5.30
   3   4   5  111.39    4.20
  -3   4  -5  101.99    3.90
   4  -4   5  350.76   11.20
  -4  -4  -5  377.36   13.10
   4  -4   5  356.16   12.20
   4  -4   5  360.16   11.20
   4   4   5  357.36   10.80
  -4   4  -5  344.47   12.40
  -4   4  -5  364.56   10.80
   5  -4   5   61.29    3.90
   5  -4   5   62.99    3.40
  -5  -4  -5   56.59    4.20
   5  -4   5   59.29    3.40
   5   4   5   61.19    2.90
  -5   4  -5   52.39    4.00
   6  -4   5    8.60    1.80
  -6  -4  -5    8.00    2.30
   6  -4   5   10.40    1.80
   6  -4   5    5.60    1.80
  -6   4  -5    4.30    1.90
   6   4   5    9.70    1.40
  -6   4  -5    7.90    1.50
   7  -4   5  311.87   10.90
  -7  -4  -5  333.67   12.70
   7  -4   5  326.57   11.40
   7  -4   5  327.87   11.90
   7   4   5  325.97   10.20
  -7   4  -5  314.87   12.20
  -7   4  -5  320.87   11.00
   8  -4   5   22.90    3.20
   8  -4   5   18.90    2.60
  -8  -4  -5   14.60    3.10
  -8   4  -5   14.70    2.90
   9  -4   5   67.59    4.80
  -9  -4  -5   69.49    6.10
   9  -4   5   81.19    4.60
  -9   4  -5   52.39    5.30
 -10  -4  -5   59.79    6.00
  10  -4   5   54.29    5.20
 -10   4  -5   55.89    5.70
 -11  -4  -5   43.10    5.30
  11  -4   5   64.09    5.80
 -11   4  -5   51.79    5.50
 -12  -4  -5    2.00    2.30
 -12  -4  -5    0.30    2.40
  12  -4   5    1.20    2.10
 -12   4  -5   -1.30    2.10
  13  -4   5  120.69    7.70
 -13  -4  -5  130.59    8.20
 -13  -4  -5  138.19    8.60
 -13   4  -5  136.69    8.20
 -14  -4  -5   53.09    6.40
 -14  -4  -5   53.79    6.20
  14  -4   5   61.89    6.50
 -14   4  -5   58.89    6.40
 -15  -4  -5   70.99    7.40
  15  -4   5   83.19    7.60
 -15  -4  -5   90.59    8.50
 -15   4  -5   92.29    8.00
  16  -4   5    3.70    2.90
 -16  -4  -5    7.80    3.70
 -16  -4  -5    3.90    3.00
 -16   4  -5   12.60    3.70
 -17  -4  -5   38.40    5.60
 -17  -4  -5   40.80    6.30
 -17   4  -5   41.70    5.90
 -18  -4  -5   20.50    4.80
 -18   4  -5   31.70    5.60
  20  -5  -5   19.70    5.90
  19  -5  -5   -3.20    3.30
 -19   5   5    1.40    3.60
  18  -5  -5  147.09   11.10
 -18   5   5  123.49    7.70
  17  -5  -5   41.20    7.00
 -17   5   5   39.50    4.80
 -17   5   5   43.80    6.00
  16  -5  -5   11.00    4.40
 -16   5   5   17.20    3.40
 -16   5   5   19.60    2.90
  15  -5  -5  238.78   13.20
 -15   5   5  233.28    9.30
 -15   5   5  244.38   10.40
  14  -5  -5  250.57   13.30
 -14   5   5  255.87   10.60
 -14   5   5  254.57    9.60
 -13  -5   5   13.60    2.90
  13  -5  -5   19.90    4.60
 -13   5   5   15.70    2.80
 -13   5   5   16.90    2.60
 -12  -5   5   -2.10    1.50
  12  -5  -5   -1.50    2.20
 -12  -5   5    2.00    0.80
 -12   5   5   -1.40    1.30
 -12   5   5   -1.60    1.50
  11  -5  -5    1.10    2.40
 -11  -5   5    1.20    0.60
 -11  -5   5    1.30    1.50
 -11   5   5    0.90    1.50
 -11   5   5    0.60    1.40
 -10  -5   5  326.77    9.40
 -10  -5   5  331.27   11.70
  10  -5  -5  322.57   14.00
 -10   5   5  334.67   11.50
 -10   5   5  309.87   10.90
   9  -5  -5   15.60    3.30
  -9  -5   5   18.70    1.40
  -9  -5   5   17.80    2.40
   9   5  -5   20.10    2.80
  -9   5   5   19.00    2.30
  -9   5   5   17.20    2.50
  -8  -5   5  407.76   12.00
   8  -5  -5  441.36   16.20
  -8  -5   5  419.66   13.40
  -8   5   5  430.26   13.40
  -8   5   5  406.06   13.60
   8   5  -5  426.06   13.80
   7  -5  -5   48.30    5.10
  -7  -5   5   48.50    3.00
  -7  -5   5   46.70    2.40
  -7   5   5   44.70    3.00
  -7   5   5   46.50    3.20
   7   5  -5   44.50    3.10
  -6  -5   5   80.89    3.40
   6  -5  -5   75.69    3.70
   6  -5  -5   82.79    3.90
  -6  -5   5   76.99    3.70
   6  -5  -5   76.19    5.40
   6   5  -5   79.19    3.90
  -6   5   5   80.79    4.10
  -6   5   5   74.79    4.00
  -5  -5   5  248.68    7.80
   5  -5  -5  250.57    8.50
   5  -5  -5  247.18   10.20
  -5  -5   5  251.27    8.00
   5  -5  -5  243.28    8.20
   5   5  -5  248.78    7.70
   5   5  -5  252.77    8.10
  -5   5   5  233.68    8.50
  -5   5   5  235.58    8.70
   4  -5  -5   20.90    3.10
  -4  -5   5   24.10    2.20
   4  -5  -5   25.50    2.50
   4  -5  -5   22.90    2.20
  -4  -5   5   22.10    1.50
  -4   5   5   22.80    2.20
   4   5  -5   21.40    1.90
   4   5  -5   23.50    1.70
   3  -5  -5  771.92   22.10
   3  -5  -5  777.32   23.30
   3  -5  -5  805.72   21.80
  -3  -5   5  769.62   20.40
  -3  -5   5  758.92   21.90
   3   5  -5  730.83   21.40
  -3   5   5  763.02   21.70
   3   5  -5  738.23   20.60
   2  -5  -5  130.69    6.10
   2  -5  -5  130.59    5.20
   2  -5  -5  131.49    5.60
  -2  -5   5  130.19    5.10
  -2   5   5  132.49    5.30
   2   5  -5  120.39    5.00
   1  -5  -5  181.88    7.90
   1  -5  -5  185.68    7.40
  -1  -5   5  184.28    6.40
  -1   5   5  175.88    6.80
   1   5  -5  179.98    6.70
   0  -5   5  225.38    7.40
   0  -5  -5  226.68    9.10
   0  -5  -5  228.48    8.30
   0   5  -5  225.68    7.50
   0   5   5  228.78    8.20
   0   5  -5  221.28    8.10
   1  -5   5   37.00    1.60
   1  -5   5   35.60    2.20
  -1  -5  -5   45.80    2.90
   1  -5   5   40.80    3.80
  -1  -5  -5   43.00    4.00
  -1   5  -5   41.50    2.40
   1   5   5   36.00    3.20
  -1   5  -5   36.10    3.30
  -2  -5  -5   14.50    2.60
   2  -5   5   10.80    1.10
   2  -5   5   11.20    1.40
  -2  -5  -5    9.40    1.60
   2  -5   5   14.20    2.40
  -2   5  -5   11.40    2.10
   2   5   5   11.70    2.10
   2   5   5    9.70    2.10
  -2   5  -5   11.70    1.50
  -2   5  -5   11.00    1.20
   3  -5   5  110.49    5.70
   3  -5   5  109.59    4.20
   3  -5   5  108.09    4.30
  -3  -5  -5  107.99    6.00
  -3   5  -5  107.19    3.80
   3   5   5  106.59    5.20
  -3   5  -5  110.89    5.60
   4  -5   5    0.90    1.40
   4  -5   5   -0.10    0.70
   4  -5   5   -0.90    0.70
  -4  -5  -5   -0.50    1.40
   4   5   5   -0.90    0.80
  -4   5  -5    0.00    0.50
  -4   5  -5    1.10    1.40
   5  -5   5   68.09    4.60
   5  -5   5   73.99    3.70
  -5  -5  -5   72.09    5.10
   5  -5   5   67.39    3.50
  -5   5  -5   66.79    4.60
  -5   5  -5   73.19    3.10
   5   5   5   74.49    4.10
  -6  -5  -5  209.58    9.30
   6  -5   5  208.28    7.80
   6  -5   5  208.78    8.80
   6  -5   5  183.98    7.20
  -6   5  -5  207.08    8.80
  -6   5  -5  192.08    6.60
  -7  -5  -5  133.29    7.60
   7  -5   5  160.58    6.80
   7  -5   5  146.19    6.10
   7  -5   5  159.08    7.70
  -7   5  -5  162.08    7.80
   8  -5   5   24.40    2.80
  -8  -5  -5   27.70    4.10
   8  -5   5   28.20    3.70
  -8   5  -5   24.60    3.60
   9  -5   5    6.00    2.40
  -9  -5  -5    6.50    2.60
   9  -5   5    5.20    1.70
  -9   5  -5    3.20    2.20
  10  -5   5   11.40    2.30
  10  -5   5    7.60    2.60
 -10  -5  -5    8.80    3.00
 -10   5  -5   14.30    3.30
  11  -5   5   40.30    4.00
 -11  -5  -5   30.30    4.70
  11  -5   5   49.30    5.40
 -11   5  -5   37.50    4.80
 -12  -5  -5  112.49    7.90
  12  -5   5  111.09    6.20
  12  -5   5  117.89    7.50
 -12   5  -5  112.09    7.40
  13  -5   5   49.70    5.80
 -13  -5  -5   54.29    6.10
 -13  -5  -5   58.99    6.60
  13  -5   5   54.99    5.20
 -13   5  -5   71.59    6.80
 -14  -5  -5    1.50    3.00
 -14  -5  -5    0.70    2.80
  14  -5   5   -1.10    2.50
  14  -5   5    0.50    2.00
 -14   5  -5    4.30    2.90
 -15  -5  -5   28.10    5.00
  15  -5   5   42.00    4.90
  15  -5   5   37.50    5.60
 -15  -5  -5   35.30    5.80
 -15   5  -5   31.00    5.10
  16  -5   5   12.80    3.30
  16  -5   5   11.10    3.60
 -16  -5  -5    6.10    3.80
 -16  -5  -5   10.20    3.80
 -16   5  -5   11.90    3.90
  17  -5   5    2.10    3.30
 -17  -5  -5    0.90    3.20
 -17  -5  -5   -0.80    3.40
 -17   5  -5   -1.70    3.10
 -18  -5  -5    3.30    3.30
 -18   5  -5    1.40    3.10
  19  -6  -5   20.90    6.00
  18  -6  -5   -3.80    3.10
  17  -6  -5    4.70    4.00
 -17   6   5    6.10    2.40
 -17   6   5    2.80    2.50
  16  -6  -5    5.90    3.60
 -16   6   5    2.60    2.30
 -16   6   5    0.70    1.80
 -15  -6   5  117.39    7.40
  15  -6  -5  120.99    9.70
 -15   6   5  129.79    6.60
 -15   6   5  120.09    6.80
 -14  -6   5   27.30    4.10
  14  -6  -5   23.00    5.10
 -14   6   5   22.00    3.20
 -14   6   5   26.50    3.50
  13  -6  -5    2.60    2.50
 -13  -6   5    1.10    2.00
 -13   6   5    1.70    1.70
 -13   6   5    5.20    2.00
  12  -6  -5   10.80    3.60
 -12  -6   5    9.70    2.50
 -12   6   5    9.40    2.30
 -12   6   5    9.60    2.20
 -11  -6   5  269.67   10.30
  11  -6  -5  271.97   12.90
 -11   6   5  234.38    9.30
 -11   6   5  239.98    9.60
  10  -6  -5   18.10    3.80
 -10  -6   5   16.80    2.60
 -10  -6   5   16.50    1.60
 -10   6   5   16.90    2.60
 -10   6   5   15.30    2.50
  -9  -6   5   -0.80    1.30
   9  -6  -5   -1.50    1.80
  -9  -6   5    0.20    0.70
  -9   6   5   -1.10    1.20
   9   6  -5   -0.10    1.40
  -9   6   5    0.60    1.30
  -8  -6   5   36.40    2.30
  -8  -6   5   35.00    3.20
   8  -6  -5   41.50    4.90
  -8   6   5   40.70    3.60
   8   6  -5   44.80    3.80
  -8   6   5   38.10    3.40
   7  -6  -5  382.96   15.30
   7  -6  -5  393.16   12.40
  -7  -6   5  399.26   12.70
  -7   6   5  404.36   13.00
  -7   6   5  411.86   13.20
   7   6  -5  416.16   13.10
  -6  -6   5   19.30    2.00
   6  -6  -5   18.90    2.00
   6  -6  -5   20.50    3.50
   6  -6  -5   17.30    2.00
   6   6  -5   20.10    2.30
  -6   6   5   17.00    2.30
   5  -6  -5   62.39    3.20
   5  -6  -5   68.39    3.50
  -5  -6   5   60.79    3.00
   5  -6  -5   62.09    4.80
   5   6  -5   56.89    3.00
   5   6  -5   59.59    3.10
  -5   6   5   60.29    3.70
   4  -6  -5   -0.30    0.80
  -4  -6   5    0.40    0.70
   4  -6  -5    0.00    0.70
   4  -6  -5    1.10    1.70
   4   6  -5    1.00    0.70
   4   6  -5    1.70    1.00
  -4   6   5    1.10    0.90
   3  -6  -5  127.19    5.50
  -3  -6   5  123.29    5.20
  -3  -6   5  127.49    4.10
   3  -6  -5  116.09    6.30
  -3   6   5  114.19    4.90
   3   6  -5  130.09    4.30
   3   6  -5  129.89    5.10
   2  -6  -5   87.79    5.20
  -2  -6   5   88.79    2.80
   2  -6  -5   99.39    5.60
   2  -6  -5   93.29    5.10
  -2  -6   5   90.29    4.10
   2   6  -5   94.79    4.30
  -2   6   5   92.39    4.20
   1  -6  -5   59.99    4.40
   1  -6  -5   50.99    3.90
  -1  -6   5   52.29    2.90
   1   6  -5   50.79    3.20
  -1   6   5   49.70    3.20
   0  -6   5   12.70    1.60
   0  -6   5   13.80    0.70
   0  -6  -5   17.40    2.80
   0  -6  -5   16.90    2.60
   0  -6   5   13.90    0.70
   0   6   5   16.80    2.20
   0   6  -5   15.60    1.80
   0   6  -5   12.30    2.00
  -1  -6  -5    9.90    2.40
   1  -6   5   10.20    1.30
   1  -6   5   11.30    1.00
  -1  -6  -5   12.60    2.20
   1  -6   5   13.20    2.60
  -1   6  -5   10.40    1.50
   1   6   5   11.40    2.10
  -1   6  -5   12.70    2.10
   2  -6   5   44.40    4.50
  -2  -6  -5   44.20    4.30
  -2  -6  -5   40.40    3.10
   2  -6   5   42.50    2.10
  -2   6  -5   40.80    3.70
   2   6   5   43.00    3.80
  -2   6  -5   41.70    2.40
  -3  -6  -5    3.70    1.70
   3  -6   5    1.90    0.80
   3  -6   5    4.40    1.00
   3  -6   5    1.10    1.60
  -3   6  -5    2.50    1.50
   4  -6   5  219.18    9.30
   4  -6   5  219.48    7.30
   4  -6   5  206.78    6.90
  -4  -6  -5  202.68    9.30
  -4   6  -5  201.28    8.60
  -4   6  -5  205.58    6.20
   5  -6   5  562.74   16.10
   5  -6   5  566.64   18.70
   5  -6   5  548.15   16.60
  -5  -6  -5  552.04   18.90
  -5   6  -5  547.45   18.20
  -5   6  -5  552.04   15.20
   6  -6   5  318.97   11.20
  -6  -6  -5  346.87   13.40
   6  -6   5  328.27   12.80
   6  -6   5  339.37   10.60
  -6   6  -5  346.47   12.80
  -6   6  -5  336.57    9.80
   7  -6   5   97.59    6.30
   7  -6   5  101.49    5.20
   7  -6   5   99.59    4.50
  -7  -6  -5   92.99    6.40
  -7   6  -5  104.59    6.20
  -7   6  -5   92.59    3.70
   8  -6   5  487.85   15.00
   8  -6   5  485.25   17.30
  -8  -6  -5  497.15   17.90
  -8   6  -5  480.05   14.10
  -8   6  -5  457.25   16.90
  -9  -6  -5   30.20    4.60
   9  -6   5   40.20    3.50
   9  -6   5   39.00    4.70
  -9   6  -5   32.30    4.30
 -10  -6  -5   82.49    7.30
  10  -6   5   81.39    4.70
  10  -6   5   75.99    6.00
 -10   6  -5  105.09    6.80
  11  -6   5   10.80    3.10
  11  -6   5   13.60    2.50
 -11  -6  -5   12.60    3.60
 -11   6  -5   16.20    3.50
 -12  -6  -5  133.09    8.70
  12  -6   5  120.99    6.40
  12  -6   5  130.39    8.20
 -12   6  -5  135.69    8.20
 -13  -6  -5  137.69    9.10
  13  -6   5  130.69    8.60
  13  -6   5  122.69    6.80
 -13   6  -5  145.19    8.70
  14  -6   5    2.90    2.00
  14  -6   5   -3.60    2.30
 -14  -6  -5    0.40    2.70
 -14  -6  -5    0.10    2.90
 -14   6  -5    2.20    2.70
 -15  -6  -5   49.10    6.40
  15  -6   5   57.29    6.90
 -15  -6  -5   60.69    7.30
 -15   6  -5   63.29    6.90
  16  -6   5    6.30    3.60
 -16  -6  -5    0.60    3.20
 -16  -6  -5   11.70    3.80
 -16   6  -5    4.90    3.40
  17  -6   5   -0.10    2.50
 -17  -6  -5    3.50    3.50
 -17  -6  -5    1.40    3.60
 -17   6  -5    2.90    3.20
  19  -7  -5   -0.90    3.80
  18  -7  -5   11.90    5.20
  17  -7  -5   22.40    6.00
 -17   7   5   33.50    4.30
  16  -7  -5    0.00    3.20
 -16  -7   5    0.00    2.30
 -16   7   5   -1.90    1.90
  15  -7  -5    3.70    3.70
 -15  -7   5    1.10    2.20
 -15   7   5    5.80    2.40
 -15   7   5    3.10    2.30
  14  -7  -5   19.40    5.00
 -14  -7   5   32.00    4.40
 -14   7   5   36.10    4.10
 -14   7   5   31.60    3.90
  13  -7  -5    0.70    3.00
 -13  -7   5    5.40    2.20
 -13   7   5    9.40    2.40
 -13   7   5    4.70    2.20
  12  -7  -5   41.40    6.30
 -12  -7   5   44.80    4.60
 -12   7   5   46.30    4.40
 -12   7   5   50.09    4.40
 -11  -7   5   10.80    2.50
  11  -7  -5   10.80    3.80
 -11   7   5   14.10    2.60
 -11   7   5   13.10    2.70
  10  -7  -5    5.40    3.10
 -10  -7   5    8.20    2.20
 -10   7   5    4.60    2.00
 -10   7   5   12.10    2.30
   9  -7  -5  248.28   12.10
  -9  -7   5  239.38    9.30
  -9   7   5  240.58    9.50
  -9   7   5  254.97    9.20
   8  -7  -5   18.90    3.80
  -8  -7   5   19.80    2.50
   8  -7  -5   22.20    2.30
   8   7  -5   23.50    3.00
  -8   7   5   21.70    2.60
  -8   7   5   16.70    2.70
   7  -7  -5   47.50    2.80
  -7  -7   5   44.50    3.20
   7  -7  -5   51.29    5.70
  -7   7   5   45.60    3.90
   7   7  -5   46.50    3.30
  -6  -7   5  618.74   18.50
   6  -7  -5  601.84   21.60
   6  -7  -5  639.94   18.40
   6  -7  -5  681.03   19.60
  -6   7   5  639.34   19.60
   6   7  -5  634.34   18.90
  -5  -7   5  118.99    4.70
   5  -7  -5  118.69    5.20
   5  -7  -5  116.59    6.90
   5  -7  -5  108.59    4.60
  -5   7   5  121.29    5.70
   5   7  -5  115.59    4.80
   5   7  -5  114.89    4.80
   4  -7  -5  201.68    8.10
  -4  -7   5  193.68    6.40
   4  -7  -5  187.08    9.00
   4   7  -5  191.88    6.60
   4   7  -5  202.48    7.10
  -4   7   5  192.58    6.80
   3  -7  -5  608.14   21.00
  -3  -7   5  657.13   17.70
  -3  -7   5  639.64   19.00
  -3   7   5  652.53   18.70
   3   7  -5  648.74   19.00
   2  -7  -5    1.40    1.70
   2  -7  -5   -0.10    1.60
  -2  -7   5    1.60    0.60
  -2  -7   5    1.10    1.00
  -2   7   5    1.60    1.10
   2   7  -5    0.80    1.10
  -1  -7   5   15.00    1.00
  -1  -7   5   12.30    1.70
   1  -7  -5   12.20    2.70
   1  -7  -5   15.00    2.70
   1   7  -5   14.70    2.20
  -1   7   5   13.40    2.00
   0  -7   5   21.80    2.00
   0  -7   5   21.90    1.30
   0  -7  -5   18.70    2.90
   0  -7  -5   13.00    2.80
   0   7   5   22.70    2.60
   0   7  -5   18.90    2.00
   0   7  -5   21.00    2.60
   1  -7   5   39.90    4.50
  -1  -7  -5   47.30    4.70
   1  -7   5   39.90    2.10
  -1  -7  -5   45.10    3.60
   1  -7   5   40.90    2.30
   1  -7   5   41.80    1.90
  -1   7  -5   43.00    2.50
  -1   7  -5   43.50    3.80
   1   7   5   44.40    3.80
  -2  -7  -5  715.93   21.80
   2  -7   5  700.93   23.00
  -2  -7  -5  702.03   22.90
   2  -7   5  718.13   19.60
  -2   7  -5  726.93   20.00
   2   7   5  700.63   21.70
  -2   7  -5  705.23   21.70
   3  -7   5   20.20    3.40
  -3  -7  -5   22.80    3.40
   3  -7   5   20.10    1.90
  -3   7  -5   26.10    3.20
  -4  -7  -5   49.00    5.00
   4  -7   5   44.90    4.90
  -4   7  -5   44.80    4.30
   5  -7   5  322.77   13.30
   5  -7   5  339.17   11.10
  -5  -7  -5  385.36   14.00
   5  -7   5  331.47   10.20
  -5   7  -5  340.57   12.80
   6  -7   5    7.50    1.30
   6  -7   5    7.50    1.70
  -6  -7  -5    2.90    2.00
   6  -7   5    8.80    2.80
  -6   7  -5   10.90    2.50
   7  -7   5   11.60    2.60
   7  -7   5   11.80    1.60
  -7  -7  -5   14.60    3.50
   7  -7   5   10.70    2.90
  -7   7  -5    8.60    0.60
  -7   7  -5    9.60    2.70
  -8  -7  -5   86.89    6.50
   8  -7   5   83.59    6.20
   8  -7   5   79.79    3.90
  -8   7  -5   89.59    6.00
  -8   7  -5   80.39    2.90
   9  -7   5    5.30    2.70
   9  -7   5    7.00    1.60
  -9  -7  -5    5.70    2.80
  -9   7  -5    8.20    2.80
  10  -7   5   42.30    3.60
  10  -7   5   45.80    5.70
 -10  -7  -5   36.00    5.10
 -10   7  -5   36.00    4.80
 -11  -7  -5    1.10    2.60
  11  -7   5    0.30    1.40
  11  -7   5   -3.20    1.80
 -11   7  -5    3.00    2.50
  12  -7   5    5.40    1.90
  12  -7   5    2.80    2.70
 -12  -7  -5    7.70    3.20
 -12   7  -5    1.90    3.00
 -13  -7  -5   85.39    8.40
  13  -7   5   74.49    7.70
 -13   7  -5   71.09    7.10
 -14  -7  -5   10.60    3.80
  14  -7   5    6.00    3.20
 -14   7  -5    9.70    3.60
 -15  -7  -5    1.20    2.80
  15  -7   5    3.40    3.30
 -15  -7  -5    7.60    3.60
 -15   7  -5    6.90    3.60
 -16  -7  -5   18.20    4.50
  16  -7   5    8.30    4.00
 -16  -7  -5   11.90    4.40
 -16   7  -5    6.10    3.60
  17  -7   5    4.80    3.50
 -17  -7  -5    2.60    3.30
 -17   7  -5   -1.80    3.20
  18  -8  -5    7.50    4.80
  17  -8  -5   -0.80    3.60
 -17  -8   5   -1.30    2.30
 -17   8   5    3.60    2.50
 -16  -8   5   44.40    5.70
  16  -8  -5   53.09    8.20
 -16   8   5   54.49    5.30
 -15  -8   5   22.20    3.90
  15  -8  -5   23.50    5.80
 -15   8   5   24.20    3.90
 -14  -8   5    5.90    2.50
  14  -8  -5    7.20    3.80
 -14   8   5    2.90    2.30
 -13  -8   5   52.09    5.30
  13  -8  -5   51.59    7.20
 -13   8   5   53.09    5.00
 -13   8   5   51.99    4.50
 -12  -8   5    1.20    2.00
  12  -8  -5   -1.10    2.70
 -12   8   5    0.90    2.10
 -12   8   5   -1.30    1.30
 -11  -8   5   91.19    5.50
  11  -8  -5   87.49    8.60
 -11   8   5   85.39    4.80
 -11   8   5   88.29    5.70
 -10  -8   5   71.69    4.80
  10  -8  -5   67.79    7.60
 -10   8   5   65.19    5.00
  -9  -8   5   41.20    3.80
   9  -8  -5   36.60    5.40
  -9   8   5   47.50    4.40
  -8  -8   5   81.29    4.60
   8  -8  -5   63.39    6.90
   8  -8  -5   80.69    3.70
   8   8  -5   80.89    4.90
  -8   8   5   77.89    5.00
  -7  -8   5    8.30    1.70
   7  -8  -5    8.20    3.00
   7   8  -5    9.10    1.90
  -7   8   5    7.50    2.20
   6  -8  -5  126.19    7.70
  -6  -8   5  116.99    5.00
  -6   8   5  110.89    5.90
   6   8  -5  108.49    5.20
  -5  -8   5  263.47    8.80
   5  -8  -5  284.47   12.20
   5   8  -5  269.27    9.20
   5   8  -5  272.77    9.30
  -5   8   5  263.17   10.20
  -4  -8   5    1.00    0.90
   4  -8  -5    0.10    1.80
  -4   8   5    3.90    1.10
   4   8  -5    2.00    1.30
  -3  -8   5   19.10    1.70
   3  -8  -5   21.10    3.60
   3  -8  -5   12.90    3.00
  -3   8   5   22.30    2.20
   3   8  -5   25.80    2.70
  -2  -8   5   64.59    3.50
   2  -8  -5   64.09    5.70
   2  -8  -5   60.19    5.60
  -2  -8   5   55.79    2.60
  -2   8   5   54.29    3.30
   2   8  -5   60.19    3.90
   1  -8  -5    4.00    2.20
   1  -8  -5    4.60    2.00
  -1  -8   5    4.80    1.20
  -1  -8   5    4.90    0.90
   1   8  -5    4.20    1.60
  -1   8   5    6.40    1.50
   0  -8  -5  139.69    7.00
   0  -8   5  124.29    4.90
   0  -8  -5  141.69    7.60
   0  -8   5  129.39    4.50
   0   8   5  132.09    6.00
   0   8  -5  132.49    6.20
   1  -8   5  359.76   14.40
   1  -8   5  375.06   11.10
  -1  -8  -5  361.36   13.50
  -1  -8  -5  386.46   14.30
   1  -8   5  379.06   11.00
   1  -8   5  370.26   10.70
  -1   8  -5  381.16   11.40
  -1   8  -5  359.26   12.80
   1   8   5  387.26   12.80
   2  -8   5   12.60    3.20
  -2  -8  -5   19.80    3.10
   2  -8   5   20.40    1.70
  -2  -8  -5   18.20    3.40
  -2   8  -5   19.70    3.00
  -2   8  -5   22.40    1.90
   2   8   5   19.10    2.80
   3  -8   5   31.10    4.40
  -3  -8  -5   35.90    4.40
   3  -8   5   34.80    2.30
  -3   8  -5   42.10    4.20
  -4  -8  -5   36.60    4.60
   4  -8   5   37.10    4.70
  -4   8  -5   37.60    4.10
   5  -8   5  601.04   17.30
  -5  -8  -5  490.55   19.50
   5  -8   5  604.74   20.70
  -5   8  -5  579.94   19.10
   6  -8   5  149.29    8.70
  -6  -8  -5  170.08    9.10
   6  -8   5  164.38    6.80
  -6   8  -5  169.18    8.30
   7  -8   5    4.40    2.80
   7  -8   5    7.00    1.10
  -7  -8  -5   10.80    3.30
  -7   8  -5    5.40    2.50
   8  -8   5  108.39    4.20
  -8  -8  -5  102.99    7.30
   8  -8   5   99.89    7.40
  -8   8  -5  108.29    6.80
   9  -8   5   23.30    2.30
  -9  -8  -5   20.60    4.20
   9  -8   5   25.60    4.50
  -9   8  -5   20.10    3.70
  10  -8   5    8.80    3.20
 -10  -8  -5    3.70    2.80
 -10   8  -5    2.70    2.50
  11  -8   5   42.40    6.00
 -11  -8  -5   43.80    5.80
 -11   8  -5   38.60    5.20
  12  -8   5   53.69    6.60
 -12  -8  -5   53.49    6.80
 -12   8  -5   51.89    6.10
  13  -8   5   21.50    4.80
 -13  -8  -5   26.00    5.30
 -13   8  -5   21.50    4.50
 -14  -8  -5   19.10    4.90
  14  -8   5    3.80    3.30
 -14   8  -5    7.40    3.70
  15  -8   5   29.50    5.80
 -15  -8  -5   28.90    5.70
 -15   8  -5   30.10    5.10
  16  -8   5    5.40    3.80
 -16  -8  -5   -1.40    3.60
 -16  -8  -5    4.30    3.50
 -16   8  -5    2.00    3.40
  17  -9  -5    1.70    4.30
 -17  -9   5    0.80    2.80
 -17   9   5    4.20    2.80
  16  -9  -5   99.59   11.10
 -16  -9   5  111.89    7.90
 -16   9   5  114.19    7.10
 -15  -9   5   23.10    4.20
  15  -9  -5   23.60    6.00
 -15   9   5   25.10    4.00
  14  -9  -5  140.19   10.80
 -14  -9   5  140.39    7.90
 -14   9   5  130.79    7.50
 -13  -9   5   -3.50    1.70
  13  -9  -5    2.30    3.20
 -13   9   5   -0.70    2.20
  12  -9  -5    8.30    3.90
 -12  -9   5    5.10    2.40
 -12   9   5    4.20    2.40
  11  -9  -5   20.80    5.00
 -11  -9   5   15.50    3.00
 -11   9   5   23.20    3.50
  10  -9  -5    0.70    2.60
 -10  -9   5    2.60    1.90
 -10   9   5   -0.10    1.70
  -9  -9   5  195.58    8.50
   9  -9  -5  215.48   11.70
  -9   9   5  215.78    9.40
  -8  -9   5   55.49    3.90
   8  -9  -5   60.19    7.00
   8   9  -5   47.60    4.80
  -8   9   5   40.30    4.30
  -7  -9   5  269.17    9.70
   7  -9  -5  275.47   13.20
  -7   9   5  269.87   10.80
   7   9  -5  280.57   10.20
   6  -9  -5  162.18    9.50
  -6  -9   5  162.08    6.60
  -6   9   5  174.08    7.90
   6   9  -5  167.68    6.90
   5  -9  -5   31.70    4.90
  -5  -9   5   42.20    2.90
   5   9  -5   47.20    3.20
   5   9  -5   41.30    3.60
  -4  -9   5  140.49    5.40
   4  -9  -5  153.68    8.50
   4   9  -5  141.09    6.30
  -4   9   5  137.99    5.30
   3  -9  -5  248.48   11.30
  -3  -9   5  253.07    8.00
   3  -9  -5  245.78   11.20
   3   9  -5  243.88    9.30
  -3   9   5  242.78    8.40
   2  -9  -5  101.79    6.90
  -2  -9   5  111.29    4.30
  -2  -9   5  107.59    4.90
   2  -9  -5   91.19    6.60
  -2   9   5  113.79    5.00
   2   9  -5  117.49    5.70
  -1  -9   5   88.89    3.60
  -1  -9   5   83.99    4.00
   1  -9  -5   84.29    6.20
   1  -9  -5   85.69    6.00
  -1   9   5   90.79    4.70
   1   9  -5   88.19    5.00
   0  -9  -5  353.46   13.50
   0  -9   5  345.17   10.30
   0  -9  -5  341.97   13.70
   0  -9   5  339.87   10.60
   0   9   5  344.27   11.80
   0   9  -5  328.67   12.10
  -1  -9  -5   10.80    3.00
   1  -9   5   17.00    3.70
   1  -9   5   14.90    1.50
  -1  -9  -5   12.00    2.80
   1  -9   5   18.40    1.80
   1   9   5   18.30    2.70
  -1   9  -5   17.80    1.90
  -1   9  -5   15.20    2.70
  -2  -9  -5   37.60    4.80
   2  -9   5   32.10    4.70
   2  -9   5   33.40    2.10
  -2  -9  -5   34.00    4.10
   2  -9   5   38.80    2.60
   2   9   5   33.40    3.60
  -2   9  -5   27.20    2.00
  -2   9  -5   36.10    4.00
  -3  -9  -5  573.14   20.10
   3  -9   5  551.54   20.30
  -3   9  -5  564.34   18.70
   4  -9   5  258.37   11.90
   4  -9   5  251.47    8.50
  -4  -9  -5  235.68   11.20
  -4   9  -5  239.78   10.30
  -5  -9  -5  296.97   14.10
   5  -9   5  383.26   11.90
   5  -9   5  391.16   15.50
  -5   9  -5  373.06   13.90
  -6  -9  -5   61.29    6.30
   6  -9   5   45.50    5.90
   6  -9   5   53.99    3.70
  -6   9  -5   55.69    5.40
  -7  -9  -5   86.49    7.90
   7  -9   5  108.49    7.80
  -7   9  -5  111.59    6.90
   8  -9   5   11.20    3.60
  -8  -9  -5    9.00    3.20
  -8   9  -5   10.60    3.00
  -9  -9  -5   20.10    4.30
   9  -9   5   10.10    3.70
  -9   9  -5   20.10    3.80
  10  -9   5    8.30    3.70
 -10  -9  -5    8.60    3.50
 -10   9  -5    9.50    3.20
 -11  -9  -5   -1.40    2.50
  11  -9   5    3.50    3.10
 -11   9  -5   -1.90    2.20
 -12  -9  -5    5.80    3.40
  12  -9   5   -0.20    2.80
 -12   9  -5    3.90    3.10
 -13  -9  -5    1.00    3.00
  13  -9   5    5.80    3.50
 -13   9  -5    4.80    3.10
  14  -9   5    2.90    3.50
 -14  -9  -5    4.30    3.50
 -14   9  -5    1.20    2.80
 -15  -9  -5    2.30    3.70
  15  -9   5    5.10    4.00
 -15   9  -5    6.70    3.60
  16 -10  -5   25.20    6.60
 -16 -10   5   27.40    4.60
 -16  10   5   19.70    4.10
  15 -10  -5    0.90    3.80
 -15 -10   5   -0.60    2.20
 -15  10   5    0.70    2.40
  14 -10  -5    4.00    3.90
 -14 -10   5    5.70    2.80
 -14  10   5    0.50    2.40
 -13 -10   5   10.30    3.00
  13 -10  -5    9.20    4.30
 -13  10   5   17.90    3.80
  12 -10  -5   86.99    9.70
 -12 -10   5   98.39    6.40
 -12  10   5  103.59    6.70
 -11 -10   5    6.90    2.40
  11 -10  -5   -0.60    2.90
 -11  10   5    1.20    2.10
 -10 -10   5  454.25   15.80
  10 -10  -5  451.45   19.80
 -10  10   5  471.55   16.60
  -9 -10   5  290.77   11.10
   9 -10  -5  289.07   14.70
  -9  10   5  305.77   12.10
  -8 -10   5    3.50    1.70
   8 -10  -5    4.80    3.20
  -8  10   5    0.90    2.10
  -7 -10   5   55.59    3.90
   7 -10  -5   58.49    6.90
  -7  10   5   51.29    5.00
  -6 -10   5   17.60    2.40
   6 -10  -5   15.10    3.90
  -6  10   5   14.00    3.00
  -5 -10   5   40.60    3.00
   5 -10  -5   37.60    5.40
   5  10  -5   43.90    4.00
   4 -10  -5    0.50    2.30
   4 -10  -5    2.20    2.40
  -4 -10   5    5.10    1.40
   4  10  -5    6.70    2.10
  -4  10   5    5.60    1.30
   3 -10  -5  230.08   11.00
   3 -10  -5  230.18   11.20
  -3 -10   5  228.78    7.80
   3  10  -5  221.68    9.00
  -3  10   5  230.08    8.00
  -2 -10   5  477.25   14.60
  -2 -10   5  461.25   13.80
   2 -10  -5  470.85   17.70
   2 -10  -5  454.35   17.40
  -2  10   5  468.45   14.50
   2  10  -5  451.15   15.40
   1 -10  -5   50.19    5.60
  -1 -10   5   49.20    2.80
  -1 -10   5   52.19    3.10
   1 -10  -5   47.40    5.50
  -1  10   5   51.79    3.50
   1  10  -5   51.09    4.60
   0 -10  -5  175.98    9.30
   0 -10   5  180.88    6.50
   0 -10  -5  175.48    9.40
   0 -10   5  190.58    6.50
   0  10  -5  191.98    8.40
   0  10   5  175.98    7.60
   1 -10   5   50.09    2.50
  -1 -10  -5   50.99    5.70
  -1 -10  -5   47.20    5.30
   1 -10   5   52.99    3.00
   1  10   5   55.09    4.10
  -1  10  -5   46.30    4.60
   2 -10   5    3.90    2.80
  -2 -10  -5    4.20    2.60
   2 -10   5    4.70    1.30
  -2 -10  -5    3.40    2.30
   2 -10   5    2.90    1.00
  -2  10  -5    2.30    1.90
   2  10   5    3.50    1.90
  -3 -10  -5    4.60    2.50
   3 -10   5   -0.50    0.60
   3 -10   5    4.00    1.40
   3 -10   5    2.50    2.70
  -3  10  -5    3.30    2.20
   3  10   5   -0.80    1.70
   4 -10   5   94.79    7.30
  -4 -10  -5   81.09    7.40
  -4  10  -5   89.79    6.00
  -5 -10  -5   70.39    6.90
   5 -10   5   89.89    7.20
  -5  10  -5  100.89    6.40
   6 -10   5   -1.30    2.40
  -6 -10  -5    5.60    2.80
  -6  10  -5    0.50    2.00
  -7 -10  -5   47.20    6.00
   7 -10   5   40.40    6.00
  -7  10  -5   47.10    5.30
  -8 -10  -5   20.30    4.30
   8 -10   5   17.20    4.40
  -8  10  -5   14.30    3.60
  -9 -10  -5   77.09    7.80
   9 -10   5   98.39    9.20
  -9  10  -5   88.79    7.60
 -10 -10  -5   37.80    5.60
  10 -10   5   34.10    6.10
 -10  10  -5   35.40    5.10
 -11 -10  -5   19.90    4.70
  11 -10   5   22.20    5.30
 -11  10  -5   20.80    4.50
  12 -10   5   20.80    5.40
 -12 -10  -5   27.10    5.30
 -12  10  -5   33.30    5.20
  13 -10   5    3.60    3.60
 -13 -10  -5    9.20    4.00
 -13  10  -5    4.30    3.10
 -14 -10  -5   59.59    7.70
  14 -10   5   48.20    7.40
 -14  10  -5   51.39    6.80
  15 -11  -5   -0.70    4.00
 -15  11   5    2.70    2.90
  14 -11  -5    2.60    4.10
 -14  11   5    0.40    2.50
 -13 -11   5    6.30    3.00
  13 -11  -5   14.90    5.30
 -13  11   5   12.50    3.30
  12 -11  -5   -3.50    3.00
 -12 -11   5    0.90    2.00
 -12  11   5    4.40    2.70
  11 -11  -5    6.50    4.00
 -11 -11   5    6.50    2.50
 -11  11   5    2.90    2.50
  10 -11  -5   12.20    4.60
 -10 -11   5    9.20    2.50
 -10  11   5    9.10    3.20
   9 -11  -5   43.60    6.80
  -9 -11   5   46.00    4.30
  -9  11   5   48.10    5.20
  -8 -11   5    4.10    1.90
   8 -11  -5   -0.50    2.60
  -8  11   5    7.90    2.70
   7 -11  -5   49.70    6.80
  -7 -11   5   44.00    3.90
  -7  11   5   42.40    4.90
  -6 -11   5   75.89    4.50
   6 -11  -5   81.09    8.20
  -5 -11   5  476.05   14.80
   5 -11  -5  449.86   18.20
   5 -11  -5  446.46   18.80
   5  11  -5  493.55   16.00
   4 -11  -5   56.49    6.30
  -4 -11   5   61.39    3.60
   4 -11  -5   52.29    6.50
   4  11  -5   66.09    4.60
  -4  11   5   55.89    3.20
   3 -11  -5   20.40    4.30
   3 -11  -5   19.40    4.30
  -3 -11   5   19.70    2.80
  -3 -11   5   27.70    2.50
  -3  11   5   25.20    2.40
   3  11  -5   22.10    3.30
   2 -11  -5   97.09    7.00
  -2 -11   5   94.39    4.70
   2 -11  -5   94.49    7.10
  -2 -11   5   89.79    4.20
  -2  11   5   85.69    4.50
   2  11  -5   90.99    5.60
   1 -11  -5    3.00    2.50
  -1 -11   5    2.30    1.20
   1 -11  -5    2.00    2.40
  -1 -11   5    2.20    1.10
   1  11  -5    2.40    1.90
  -1  11   5    2.80    1.60
   0 -11   5  128.19    5.20
   0 -11   5  131.39    5.10
   0 -11  -5  122.99    8.00
   0 -11  -5  126.19    8.10
   0  11  -5  130.29    7.00
   0  11   5  133.89    6.30
  -1 -11  -5   33.60    5.00
  -1 -11  -5   37.80    5.10
   1 -11   5   36.10    3.00
  -1  11  -5   40.00    4.50
   1  11   5   42.10    4.20
  -2 -11  -5  114.49    7.50
   2 -11   5  142.89    9.10
   2 -11   5  127.39    5.50
  -2 -11  -5  128.39    8.20
  -2  11  -5  134.69    7.30
   2  11   5  122.19    6.60
   3 -11   5  250.47   12.70
   3 -11   5  234.38    8.80
  -3 -11  -5  252.37   12.00
   3  11   5  253.67   10.40
  -3  11  -5  232.28   10.60
  -4 -11  -5   12.80    3.70
   4 -11   5    9.90    3.70
  -4  11  -5   15.10    3.20
   5 -11   5    2.10    2.80
  -5 -11  -5    2.50    2.70
  -5  11  -5    3.60    2.50
  -6 -11  -5  172.98   10.00
   6 -11   5  174.18   10.70
  -6  11  -5  167.98    9.10
  -7 -11  -5   53.09    6.60
   7 -11   5   61.29    7.40
  -7  11  -5   58.89    6.10
   8 -11   5    1.60    3.10
  -8 -11  -5   -1.20    2.50
  -8  11  -5    0.10    2.40
  -9 -11  -5   77.89    8.00
   9 -11   5   84.89    8.90
  -9  11  -5   71.89    7.10
  10 -11   5   56.59    7.70
 -10 -11  -5   68.39    7.60
 -10  11  -5   70.39    7.20
 -11 -11  -5   22.70    5.20
  11 -11   5   24.60    5.60
 -11  11  -5   15.90    4.10
 -12 -11  -5    0.30    3.10
  12 -11   5    1.50    3.50
 -12  11  -5    1.30    3.20
  13 -11   5   53.29    7.90
 -13 -11  -5   41.90    6.70
 -13  11  -5   48.00    6.40
  14 -12  -5   -4.00    4.10
 -14  12   5    4.00    2.90
  13 -12  -5    1.20    4.10
 -13  12   5    2.10    2.70
  12 -12  -5    1.10    3.60
 -12  12   5   -2.40    2.40
  11 -12  -5   24.30    5.60
 -11  12   5   20.70    4.10
  10 -12  -5   29.40    6.20
 -10  12   5   30.70    4.60
   9 -12  -5   15.20    4.70
  -9  12   5   10.80    3.20
   8 -12  -5   40.70    6.70
  -8  12   5   46.10    5.50
   7 -12  -5  102.39   10.00
   6 -12  -5   19.50    4.20
   6 -12  -5   12.60    4.20
   5 -12  -5  120.69    9.00
   5 -12  -5  119.19    8.30
   4 -12  -5   86.39    8.50
   4 -12  -5   76.49    7.60
   4  12  -5   83.49    5.50
   3 -12  -5   45.20    6.20
   3 -12  -5   35.30    5.30
  -3 -12   5   42.20    3.80
   3  12  -5   48.60    4.80
  -2 -12   5   55.39    3.60
   2 -12  -5   63.99    7.10
   2 -12  -5   53.69    6.30
   2  12  -5   55.89    5.20
  -1 -12   5  152.88    7.70
   1 -12  -5  140.79    9.10
   1 -12  -5  144.29    9.10
   1  12  -5  138.79    7.50
  -1  12   5  138.99    6.30
   0 -12  -5    7.00    2.90
   0 -12  -5    5.60    3.20
   0  12  -5    8.80    2.60
   0  12   5    5.90    2.00
  -1 -12  -5    2.80    2.70
  -1 -12  -5    1.40    2.80
   1  12   5    0.70    1.80
  -1  12  -5    1.90    2.10
  -2 -12  -5    1.10    2.40
   2  12   5    1.40    1.80
  -2  12  -5    0.20    2.10
   3 -12   5   50.19    6.80
  -3 -12  -5   30.00    4.90
  -3  12  -5   34.70    4.70
   3  12   5   38.70    4.60
   4 -12   5    2.90    3.20
  -4 -12  -5   -1.80    2.30
   4  12   5   -0.40    1.80
  -4  12  -5    3.70    2.60
   5 -12   5   23.10    5.20
  -5 -12  -5   23.10    4.60
  -5  12  -5   19.60    3.80
   6 -12   5   27.90    5.60
  -6 -12  -5   20.60    4.40
  -6  12  -5   16.40    3.90
  -7 -12  -5    9.40    3.70
   7 -12   5   13.10    4.40
  -7  12  -5   12.80    3.60
  -8 -12  -5   20.90    4.90
   8 -12   5   26.60    5.70
  -8  12  -5   28.50    4.80
  -9 -12  -5   12.40    4.10
   9 -12   5   13.80    5.10
  -9  12  -5   11.20    3.70
 -10 -12  -5   26.50    5.10
  10 -12   5   30.40    6.20
 -10  12  -5   19.90    4.50
 -11 -12  -5   19.80    5.00
  11 -12   5   22.30    5.80
 -11  12  -5   20.10    4.60
 -12 -12  -5    0.50    3.10
  12 -12   5    3.80    4.30
 -12  12  -5   -3.90    2.70
  13 -13  -5    2.50    4.20
 -13  13   5   -1.70    2.40
  12 -13  -5    9.90    4.80
 -12  13   5    6.90    3.50
  11 -13  -5    9.70    4.90
 -11  13   5   16.10    4.00
  10 -13  -5   37.00    7.10
 -10  13   5   49.40    5.90
   9 -13  -5   21.90    5.50
  -9  13   5   22.00    4.20
   8 -13  -5   18.30    5.10
   7 -13  -5   31.70    6.00
   7 -13  -5   21.90    4.90
   6 -13  -5   -1.60    2.80
   6 -13  -5   -0.60    2.70
   5 -13  -5   33.80    5.60
   5 -13  -5   33.60    6.00
  -4 -13   5    1.30    1.90
   4 -13  -5    2.50    2.70
   4 -13  -5    4.20    3.20
   4  13  -5    6.20    2.50
   3 -13  -5   45.00    6.00
   3 -13  -5   66.89    7.80
   3  13  -5   61.79    5.70
   2 -13  -5  161.48   10.30
   2 -13  -5  160.68    9.70
   2  13  -5  159.58    8.20
   1 -13  -5   27.60    5.30
   1 -13  -5   36.90    5.50
   1  13  -5   43.80    4.80
   0 -13  -5    1.60    2.70
   0 -13  -5    0.00    2.40
   0  13  -5    2.60    2.30
  -1 -13  -5    3.90    2.60
  -1 -13  -5   -2.20    2.50
  -1  13  -5   -2.00    1.90
   1  13   5    0.50    1.60
  -2 -13  -5   17.30    4.10
   2  13   5    9.30    2.50
  -2  13  -5   11.30    3.20
  -3 -13  -5   93.99    8.70
   3 -13   5   91.59    9.40
  -3  13  -5   86.09    6.50
   3  13   5   76.49    5.70
   4 -13   5    1.10    3.40
  -4 -13  -5    7.80    3.60
   4  13   5    4.00    2.40
  -4  13  -5    9.90    3.30
   5 -13   5  157.18   11.10
  -5 -13  -5  160.58   10.10
  -5  13  -5  161.58    9.30
   5  13   5  165.88    8.80
   6 -13   5   34.80    6.50
  -6 -13  -5   30.70    5.60
  -6  13  -5   43.80    5.60
   7 -13   5   16.90    5.10
  -7 -13  -5   14.50    4.40
  -7  13  -5   25.60    4.50
  -8 -13  -5   -1.20    2.70
   8 -13   5    1.10    3.60
  -8  13  -5    1.00    2.70
  -9 -13  -5  102.49    9.70
   9 -13   5  111.79   11.10
  -9  13  -5  115.69    8.40
 -10 -13  -5   29.50    5.80
  10 -13   5   26.00    6.20
 -10  13  -5   30.20    5.40
  11 -13   5   80.99    9.90
 -11 -13  -5   64.49    8.10
 -11  13  -5   52.69    6.90
  11 -14  -5    4.70    4.30
 -11  14   5   -3.70    2.30
  10 -14  -5   -0.20    3.80
   9 -14  -5   -2.20    3.50
   8 -14  -5  119.09   11.80
   8 -14  -5  105.99    9.70
   7 -14  -5   16.30    5.10
   7 -14  -5   17.90    4.60
   6 -14  -5   72.49    9.00
   6 -14  -5   68.29    7.70
   5 -14  -5    3.20    3.50
   5 -14  -5    0.30    2.80
   4 -14  -5   15.30    4.10
   4 -14  -5   13.10    4.80
   3 -14  -5   25.30    5.50
   3 -14  -5   18.60    4.40
   3  14  -5   22.50    3.90
   2 -14  -5   -3.50    2.70
   2 -14  -5   -0.30    2.60
   2  14  -5    1.40    2.30
   1 -14  -5   14.70    4.50
   1 -14  -5   25.40    4.70
   1  14  -5   20.80    4.00
   0 -14  -5   68.99    8.00
   0 -14  -5   68.69    7.50
   0  14  -5   77.09    6.90
  -1 -14  -5    6.30    3.70
  -1  14  -5    5.60    3.00
  -2 -14  -5   12.40    4.10
  -2  14  -5   15.90    3.80
  -3 -14  -5   19.90    4.60
  -3  14  -5   18.70    4.10
   4 -14   5   12.80    5.00
   4  14   5   19.30    3.70
  -4  14  -5   22.10    4.40
  -5 -14  -5   65.69    7.70
   5 -14   5   54.29    8.10
   5  14   5   58.29    6.00
  -5  14  -5   52.39    6.30
  -6 -14  -5   -2.00    2.70
   6 -14   5    8.30    4.60
   6  14   5    6.80    3.20
  -6  14  -5    0.90    2.90
  -7 -14  -5   -2.60    3.10
   7 -14   5    0.50    3.60
  -7  14  -5    3.20    3.20
  -8 -14  -5   56.59    7.30
   8 -14   5   50.49    8.10
  -8  14  -5   56.89    6.80
   9 -14   5   47.10    8.10
  -9 -14  -5   45.30    7.00
  -9  14  -5   54.89    6.80
   9 -15  -5   26.10    6.30
   9 -15  -5   12.80    4.40
   8 -15  -5   15.70    5.60
   8 -15  -5   26.50    5.40
   7 -15  -5   18.20    5.30
   7 -15  -5    9.90    4.40
   6 -15  -5   -1.00    3.30
   6 -15  -5    3.00    3.00
   5 -15  -5   20.90    4.90
   5 -15  -5   14.50    5.10
   4 -15  -5   29.20    6.00
   4 -15  -5   21.90    5.00
   3 -15  -5   23.60    5.50
   3 -15  -5   17.00    4.30
   2 -15  -5   55.89    8.00
   2 -15  -5   45.70    6.30
   2  15  -5   46.30    5.60
   1 -15  -5   65.49    8.20
   1  15  -5   65.09    6.40
   0 -15  -5   12.60    4.80
   0 -15  -5   20.40    4.70
   0  15  -5   21.60    4.20
  -1 -15  -5    1.20    2.60
  -1  15  -5   -1.80    2.30
  -2 -15  -5   18.00    4.50
  -2  15  -5   26.30    4.70
  -3 -15  -5    1.70    2.90
  -3  15  -5    0.10    2.60
  -4 -15  -5   16.90    4.80
  -4  15  -5   20.30    4.40
  -5 -15  -5   12.40    4.10
   5 -15   5   12.00    5.40
  -5  15  -5   15.00    4.20
   6 -15   5   58.89    8.80
  -6 -15  -5   45.40    6.70
  -6  15  -5   54.19    6.70
   7 -15   5   13.20    5.50
  -7 -15  -5   13.30    4.70
  -7  15  -5    9.90    4.10
   5 -16  -5   17.20    5.40
   5 -16  -5    8.70    4.20
   4 -16  -5   48.70    7.80
   4 -16  -5   35.70    6.50
   3 -16  -5    4.20    3.90
   3 -16  -5    1.70    3.30
   2 -16  -5   12.40    5.10
   2 -16  -5   11.40    4.20
   2  16  -5   12.40    3.50
   1 -16  -5   13.80    4.80
   1 -16  -5   13.10    4.20
   1  16  -5   19.80    4.20
   0 -16  -5   79.79    8.70
   0  16  -5   91.79    8.20
  -1 -16  -5   39.90    6.40
  -1  16  -5   43.30    5.80
  -2 -16  -5   -1.60    3.10
  -2  16  -5   -1.60    2.80
  -3 -16  -5    0.60    3.40
  -3  16  -5    2.00    3.20
 -21   0   6   -3.00    2.70
  21   0  -6    2.90    4.00
  20   0  -6    0.60    3.60
 -20   0   6    4.20    3.30
 -19   0   6    0.80    2.60
  19   0  -6   -2.40    2.70
 -18   0   6   75.69    7.40
 -17   0   6    0.60    2.40
 -16   0   6   18.60    3.80
 -15   0   6    0.80    1.70
 -14   0   6  730.63   20.00
 -14   0   6  754.62   24.10
 -13   0   6    0.00    0.50
 -13   0   6    0.20    1.90
 -12   0   6  327.17   12.40
 -11   0   6    0.60    1.60
 -10   0   6  661.73   20.70
  -9   0   6   -0.70    1.30
   8   0  -6  436.76   13.80
  -8   0   6  405.76   13.90
   8   0  -6  431.56   11.50
  -7   0   6    0.50    1.00
   7   0  -6   -0.30    0.40
  -5   0   6   -0.10    1.00
  -3   0   6    0.60    1.00
  -3   0   6   -0.40    0.80
   3   0  -6    0.30    0.50
  -2   0   6 1831.52   49.80
  -2   0   6 1858.61   50.09
   2   0  -6 1846.72   49.90
   1   0  -6    0.30    0.70
   1   0  -6   -0.60    0.30
  -1   0   6   -0.90    1.00
  -1   0   6    0.00    1.00
   1   0  -6   -0.60    0.90
   0   0   6  461.95   14.40
   0   0  -6  482.35   14.40
   0   0  -6  469.35   14.10
   1   0   6    1.10    1.10
  -1   0  -6   -1.20    0.80
  -1   0  -6    0.60    0.90
   1   0   6   -0.30    0.70
  -2   0  -6  282.17    7.70
   2   0   6  235.68    9.00
  -2   0  -6  296.37    9.40
   2   0   6  271.77    9.50
   3   0   6   -0.90    1.00
  -3   0  -6    0.10    1.30
   3   0   6    0.50    0.90
  -3   0  -6   -0.20    1.00
  -3   0  -6    0.20    0.30
  -4   0  -6   44.00    4.10
  -4   0  -6   46.60    3.40
   4   0   6   40.80    3.60
   4   0   6   41.90    3.20
  -5   0  -6    0.10    1.30
   5   0   6   -0.20    1.20
   5   0   6    0.00    0.40
   5   0   6   -1.10    0.90
  -5   0  -6   -1.00    1.10
   6   0   6  263.97    7.80
   6   0   6  253.07    9.90
  -6   0  -6  256.37   10.40
  -6   0  -6  253.47    9.70
  -7   0  -6   -0.90    1.50
  -7   0  -6   -2.30    1.10
   7   0   6    0.00    0.80
  -8   0  -6  189.68    8.50
   8   0   6  192.38    6.70
  -8   0  -6  193.98    9.00
   9   0   6    0.10    1.10
  -9   0  -6    3.10    1.90
  -9   0  -6    1.30    2.20
  10   0   6  183.48    7.20
 -10   0  -6  184.28    9.30
 -10   0  -6  193.18    9.00
 -11   0  -6   -1.60    1.70
 -11   0  -6   -3.40    1.80
  11   0   6    0.00    1.20
  12   0   6   98.59    5.40
 -12   0  -6  104.39    7.10
 -12   0  -6   98.29    6.80
  13   0   6    0.20    1.60
 -13   0  -6   -1.10    2.00
 -13   0  -6    2.30    2.50
 -14   0  -6   47.00    5.90
 -14   0  -6   33.10    4.90
 -15   0  -6   -2.00    2.30
 -15   0  -6   -1.30    2.30
 -16   0  -6   19.90    4.50
 -16   0  -6   19.90    4.30
 -17   0  -6    2.40    2.90
 -17   0  -6    1.00    3.00
 -18   0  -6   44.00    6.50
 -18   0  -6   69.79    7.70
  21  -1  -6   36.10    7.30
 -21  -1   6   46.20    6.50
 -21   1   6   46.90    6.40
  21   1  -6   33.20    6.70
 -20  -1   6   -0.80    2.80
  20  -1  -6    2.00    3.50
  20   1  -6   -2.10    2.80
 -20   1   6    0.20    2.80
  19  -1  -6   41.80    7.00
 -19  -1   6   49.90    6.50
 -19   1   6   52.19    6.40
 -18  -1   6    0.70    2.70
  18  -1  -6    0.40    3.30
 -18   1   6    4.80    2.90
  17  -1  -6    9.90    4.00
 -17  -1   6    2.80    2.70
 -17   1   6    2.30    2.50
  16  -1  -6    0.50    2.80
 -16   1   6   -2.60    1.80
 -15   1   6   31.50    4.50
 -14   1   6   49.99    2.60
 -14   1   6   41.10    4.80
 -13   1   6   73.19    3.10
 -13   1   6   64.99    5.10
 -12  -1   6   10.10    2.40
  12  -1  -6    5.60    1.20
 -12   1   6    5.00    2.20
 -12   1   6    6.90    1.00
  11  -1  -6   57.59    2.80
 -11  -1   6   47.60    4.60
 -11   1   6   58.19    2.50
 -11   1   6   68.29    4.60
  10  -1  -6    0.60    0.70
 -10  -1   6   -0.20    1.30
 -10   1   6    0.40    1.30
   9  -1  -6    9.80    1.20
  -9  -1   6    7.00    1.90
  -9   1   6    8.90    1.90
   8  -1  -6   28.90    1.70
  -8  -1   6   30.30    3.20
   8   1  -6   28.80    2.80
  -8   1   6   29.30    3.10
  -7  -1   6   74.79    4.30
   7  -1  -6   75.99    2.90
   7   1  -6   76.29    3.80
  -7   1   6   76.29    4.20
   6  -1  -6    0.60    0.50
  -6  -1   6    0.70    1.10
  -6   1   6   -0.10    1.10
   5  -1  -6   88.29    3.20
  -5  -1   6   92.09    4.60
  -5   1   6   88.19    4.50
   5   1  -6   91.29    3.00
  -4  -1   6  108.19    4.90
   4  -1  -6  103.49    4.60
  -4   1   6  108.09    4.70
  -4   1   6  115.69    5.10
   4   1  -6  104.79    3.80
   4   1  -6  110.29    4.70
  -3  -1   6   58.89    3.20
  -3  -1   6   66.29    3.60
   3   1  -6   68.89    3.40
  -3   1   6   64.09    3.50
   3   1  -6   63.49    2.90
  -3   1   6   59.59    3.60
  -2  -1   6  246.48    8.70
  -2  -1   6  255.77    8.60
  -2   1   6  255.17    8.70
  -2   1   6  252.27    8.90
   2   1  -6  251.07    8.20
   2   1  -6  261.07    8.60
  -1  -1   6    2.80    1.20
  -1  -1   6    2.70    1.20
   1  -1  -6    2.00    1.20
   1   1  -6    2.40    1.10
   1   1  -6    2.70    1.00
  -1   1   6    1.10    1.20
   1   1  -6    1.00    1.00
   1   1  -6   -0.10    0.70
   0  -1   6  387.46   12.40
   0  -1  -6  399.96   12.60
   0  -1  -6  410.06   12.60
   0  -1   6  402.36   12.40
   0   1   6  379.46   12.50
   0   1  -6  407.06   12.30
   0   1  -6  393.76   12.50
   0   1  -6  390.66   11.80
  -1  -1  -6   10.70    1.80
   1  -1   6    8.20    1.40
   1  -1   6   11.70    1.70
  -1   1  -6   10.10    1.30
  -1   1  -6   11.50    1.80
  -1   1  -6   10.00    1.90
   1   1   6    8.40    1.60
  -1   1  -6   10.10    1.40
   2  -1   6  374.96   11.70
  -2  -1  -6  378.56   12.30
   2  -1   6  365.96   12.10
  -2   1  -6  376.46   12.60
   2   1   6  379.86   12.40
  -2   1  -6  403.76   12.10
  -2   1  -6  381.56   11.70
  -2   1  -6  368.56   11.00
   3  -1   6  104.89    4.90
  -3  -1  -6  104.59    5.10
  -3   1  -6  101.09    4.60
  -3   1  -6   94.99    5.20
   3   1   6  110.09    5.20
  -3   1  -6  101.69    3.80
   3   1   6  110.19    5.20
  -4  -1  -6   11.10    2.10
   4  -1   6   15.30    2.20
   4  -1   6   13.20    1.40
   4  -1   6   14.30    2.20
  -4   1  -6   15.10    1.40
   4   1   6   15.30    2.40
  -4   1  -6   12.40    2.30
  -4   1  -6   11.00    1.80
   4   1   6   10.00    2.00
   5  -1   6    0.60    1.20
  -5  -1  -6   -0.90    1.10
   5  -1   6    1.40    1.20
   5  -1   6    1.50    0.80
  -5   1  -6   -1.50    0.90
  -5   1  -6    0.00    0.60
   5   1   6    2.20    1.40
  -5   1  -6   -0.90    1.20
  -6  -1  -6    3.80    1.60
  -6  -1  -6    2.60    1.40
   6  -1   6    0.30    1.10
   6  -1   6    1.20    1.30
   6  -1   6    2.30    0.90
   6   1   6    2.90    0.60
  -6   1  -6    2.20    1.40
  -6   1  -6    1.40    1.30
   7  -1   6  228.98    7.70
  -7  -1  -6  238.58    9.90
  -7  -1  -6  212.98    9.20
   7   1   6  222.98    6.90
  -7   1  -6  213.78    9.50
  -7   1  -6  211.78    8.70
  -8  -1  -6  113.09    6.70
   8  -1   6  111.79    5.00
  -8  -1  -6  114.29    6.40
  -8   1  -6  126.19    6.20
  -8   1  -6  105.69    6.50
   8   1   6  114.29    4.40
   9  -1   6   28.00    2.90
  -9  -1  -6   24.90    4.10
  -9  -1  -6   29.50    4.00
   9   1   6   25.80    2.40
  -9   1  -6   19.40    3.20
  -9   1  -6   22.70    3.80
 -10  -1  -6   44.00    5.20
 -10  -1  -6   44.40    4.90
  10  -1   6   46.10    3.50
 -10   1  -6   37.90    4.90
  10   1   6   41.20    3.00
 -10   1  -6   45.00    4.70
  11  -1   6  261.27   10.10
 -11  -1  -6  293.07   12.10
 -11  -1  -6  282.47   12.30
  11   1   6  269.07    9.60
 -11   1  -6  278.17   12.20
 -11   1  -6  277.87   11.60
 -12  -1  -6   23.50    4.00
 -12  -1  -6   17.10    3.70
  12  -1   6   24.50    3.20
 -12   1  -6   28.30    4.50
  12   1   6   25.80    2.90
 -12   1  -6   18.20    3.60
 -13  -1  -6   32.30    4.80
 -13  -1  -6   25.50    4.70
  13  -1   6   35.80    4.00
 -13   1  -6   34.50    5.10
 -13   1  -6   29.20    4.40
  13   1   6   28.70    3.30
  14  -1   6    0.60    1.60
 -14  -1  -6    0.50    2.30
 -14  -1  -6    2.00    2.80
 -14   1  -6   -0.20    2.20
 -14   1  -6   -2.30    2.20
 -15  -1  -6   25.20    4.60
 -15  -1  -6   20.90    4.60
 -15   1  -6   23.40    4.40
 -15   1  -6   19.40    4.30
 -16  -1  -6    3.10    3.00
 -16  -1  -6   -0.90    2.80
 -16   1  -6    1.90    2.90
 -16   1  -6   -0.50    2.40
 -17  -1  -6   70.59    7.70
 -17  -1  -6   53.79    6.80
 -17   1  -6   58.09    7.00
 -17   1  -6   60.59    6.90
 -18  -1  -6   -0.70    3.10
 -18  -1  -6   -1.20    2.90
 -18   1  -6   -0.50    2.80
 -18   1  -6   -5.80    2.80
  20  -2  -6   35.80    6.90
 -20  -2   6   21.80    5.00
 -20   2   6   31.50    5.20
  19  -2  -6   22.50    5.60
 -19   2   6   13.90    4.00
  18  -2  -6   11.20    4.50
 -18   2   6   11.50    3.40
  17  -2  -6    2.00    3.00
 -17   2   6    0.50    2.30
  16  -2  -6    3.10    3.20
 -16   2   6    5.30    2.80
  15  -2  -6   66.79    7.60
 -15   2   6   81.99    5.90
 -15   2   6   73.19    3.70
  14  -2  -6   72.59    7.60
 -14   2   6   65.59    5.90
 -14   2   6   75.29    3.60
  13  -2  -6  107.89    7.80
 -13   2   6   99.59    6.10
 -13   2   6  102.49    4.30
  12  -2  -6   12.40    3.30
  12  -2  -6   12.10    1.80
 -12   2   6   17.30    1.80
 -12   2   6    9.60    2.50
  11  -2  -6   65.49    3.50
 -11   2   6   67.39    3.20
 -11   2   6   65.79    4.60
  10  -2  -6  169.28    6.30
 -10   2   6  183.18    7.80
 -10   2   6  180.68    6.00
   9  -2  -6   37.40    2.30
  -9  -2   6   37.50    3.80
   9   2  -6   38.50    3.60
  -9   2   6   39.10    2.20
  -9   2   6   39.10    3.80
   8  -2  -6  152.98    5.20
  -8  -2   6  141.29    6.50
  -8   2   6  144.19    6.50
   8   2  -6  147.99    6.20
   7  -2  -6   45.50    2.40
  -7  -2   6   47.20    3.40
   7   2  -6   43.50    2.90
  -7   2   6   49.99    3.50
   6  -2  -6 1274.47   34.40
  -6  -2   6 1241.18   35.90
  -6   2   6 1292.67   36.00
   6   2  -6 1316.77   35.10
  -5  -2   6  128.19    5.60
   5  -2  -6  121.89    4.40
   5   2  -6  127.49    4.70
   5   2  -6  123.89    3.80
  -5   2   6  128.09    5.60
  -4  -2   6  237.18    8.70
   4  -2  -6  258.17    8.70
   4  -2  -6  262.27    7.80
  -4   2   6  247.48    8.50
  -4   2   6  246.48    8.90
   4   2  -6  243.28    7.40
   3  -2  -6  515.05   15.30
  -3  -2   6  478.75   15.10
  -3   2   6  498.65   15.50
  -3   2   6  480.95   15.00
   3   2  -6  482.25   14.20
   3   2  -6  535.85   15.00
  -2  -2   6  902.61   26.50
  -2  -2   6  949.60   26.40
   2  -2  -6  939.91   26.70
   2  -2  -6  943.21   26.50
  -2   2   6  907.11   26.50
   2   2  -6  968.80   26.30
  -2   2   6  935.51   26.90
   2   2  -6  972.70   26.10
  -1  -2   6  177.98    6.60
   1  -2  -6  175.38    6.10
  -1  -2   6  171.98    6.40
  -1  -2   6  181.68    6.50
   1  -2  -6  164.98    6.90
   1   2  -6  178.78    6.50
   1   2  -6  170.28    6.30
   1   2  -6  171.98    5.50
  -1   2   6  162.48    6.60
   0  -2  -6 1184.78   31.60
   0  -2   6 1176.28   32.40
   0  -2  -6 1131.29   32.90
   0  -2   6 1147.79   32.40
   0   2  -6 1228.18   32.30
   0   2  -6 1148.39   32.60
   0   2  -6 1184.88   31.40
   0   2   6 1150.38   32.70
   1  -2   6  210.28    7.60
  -1  -2  -6  236.28    8.40
   1  -2   6  207.88    6.90
  -1  -2  -6  220.58    6.50
   1   2   6  216.08    8.10
  -1   2  -6  202.18    6.70
  -1   2  -6  205.08    7.20
  -1   2  -6  211.18    8.00
   1   2   6  213.38    8.00
  -1   2  -6  214.88    7.40
  -2  -2  -6    1.10    0.40
   2  -2   6    0.10    1.00
   2  -2   6    1.00    0.90
  -2  -2  -6    7.30    1.80
  -2   2  -6    1.70    1.00
   2   2   6    0.90    1.20
  -2   2  -6    1.30    0.90
  -2   2  -6    1.00    1.30
   2   2   6    1.20    1.30
  -2   2  -6    2.40    0.90
   3  -2   6  508.15   15.00
   3  -2   6  483.45   15.30
  -3  -2  -6  499.25   16.10
   3  -2   6  498.45   14.70
   3   2   6  539.65   16.30
  -3   2  -6  492.35   14.80
   3   2   6  495.85   15.90
  -3   2  -6  494.55   14.80
  -3   2  -6  491.65   15.10
  -3   2  -6  506.55   16.20
  -4  -2  -6   73.49    4.60
   4  -2   6   79.49    4.20
   4  -2   6   76.59    3.60
  -4   2  -6   63.69    4.40
   4   2   6   85.09    4.80
   4   2   6   73.49    4.30
  -4   2  -6   77.79    3.90
  -4   2  -6   75.19    3.60
  -5  -2  -6   24.90    3.20
   5  -2   6   30.90    3.10
   5  -2   6   30.10    2.30
   5  -2   6   30.10    3.00
   5   2   6   35.90    4.20
  -5   2  -6   27.50    3.40
  -5   2  -6   33.40    2.40
  -5   2  -6   37.30    3.10
   6  -2   6   -0.20    0.90
  -6  -2  -6    2.10    1.60
   6  -2   6    0.70    1.20
   6  -2   6   -0.40    1.00
   6   2   6    0.20    0.30
  -6   2  -6    0.10    1.10
   6   2   6    0.20    0.30
  -6   2  -6   -1.00    1.30
  -6   2  -6   -0.30    0.90
   7  -2   6    3.60    1.30
   7  -2   6    2.60    1.60
  -7  -2  -6    1.70    1.70
  -7   2  -6    4.10    2.00
   7   2   6    2.70    0.70
  -7   2  -6    2.30    1.60
   8  -2   6 1060.29   30.50
  -8  -2  -6 1068.29   32.60
  -8  -2  -6 1094.49   32.40
   8  -2   6 1083.79   31.50
  -8   2  -6 1049.49   32.50
  -8   2  -6 1068.19   31.30
   8   2   6 1075.39   29.10
   9  -2   6   45.70    3.50
  -9  -2  -6   37.90    4.50
  -9  -2  -6   47.70    5.10
   9   2   6   34.70    2.40
  -9   2  -6   43.10    4.90
  -9   2  -6   41.20    4.20
 -10  -2  -6   49.70    5.30
 -10  -2  -6   48.20    5.40
  10  -2   6   55.99    4.10
 -10   2  -6   54.49    5.00
 -10   2  -6   52.29    5.50
  10   2   6   51.59    3.20
  11  -2   6    7.50    2.20
 -11  -2  -6    0.70    2.40
 -11  -2  -6    0.00    2.40
  11   2   6    4.30    1.50
 -11   2  -6    5.20    2.60
 -11   2  -6    3.00    2.40
 -12  -2  -6  141.99    8.40
 -12  -2  -6  136.09    8.20
  12  -2   6  135.29    6.90
 -12   2  -6  128.39    8.10
  12   2   6  134.09    6.10
 -12   2  -6  143.49    7.80
 -13  -2  -6    1.20    2.60
 -13  -2  -6    2.10    2.50
  13  -2   6    3.20    2.00
 -13   2  -6    4.70    2.80
 -13   2  -6    2.80    2.30
  13   2   6    1.80    2.40
 -14  -2  -6   15.50    3.80
  14  -2   6    6.40    2.50
 -14  -2  -6   14.50    3.70
 -14   2  -6    9.10    3.40
 -14   2  -6   10.40    3.20
 -15  -2  -6    4.10    3.30
 -15  -2  -6    5.80    3.30
 -15   2  -6    7.80    3.30
 -15   2  -6   -0.20    2.40
 -16  -2  -6  181.08   10.70
 -16  -2  -6  158.58   10.00
 -16   2  -6  174.28    9.90
 -16   2  -6  153.28    9.80
 -17  -2  -6   78.19    8.10
 -17  -2  -6   79.69    8.40
 -17   2  -6   71.29    7.70
 -18  -2  -6   12.30    4.30
 -18   2  -6   10.30    4.20
  20  -3  -6   -2.60    3.50
 -20   3   6    3.70    2.90
  19  -3  -6   30.40    6.60
 -19   3   6   23.10    4.50
  18  -3  -6   15.70    5.00
 -18   3   6   11.80    3.40
  17  -3  -6   95.99    9.70
 -17   3   6  106.59    7.10
  16  -3  -6    2.50    2.90
 -16   3   6   -1.20    1.80
  15  -3  -6   39.90    6.10
 -15   3   6   42.70    4.90
 -15   3   6   34.90    3.00
  14  -3  -6   -0.80    2.60
 -14   3   6    1.60    1.20
 -14   3   6   -0.90    1.80
  13  -3  -6  464.55   19.10
 -13   3   6  508.35   14.90
 -13   3   6  492.75   17.00
  12  -3  -6   56.79    6.40
 -12   3   6   55.59    3.30
 -12   3   6   66.89    4.70
  11  -3  -6    0.60    2.30
 -11   3   6    0.80    1.00
 -11   3   6   -0.10    1.40
  10  -3  -6    5.40    2.50
 -10   3   6    2.20    1.80
 -10   3   6    7.30    1.40
   9  -3  -6 1215.08   36.20
  -9   3   6 1171.48   32.40
  -9   3   6 1196.88   34.10
   9   3  -6 1160.08   33.70
   8  -3  -6   22.60    2.40
   8  -3  -6   19.30    3.30
  -8   3   6   19.40    2.70
   8   3  -6   24.90    2.60
   7  -3  -6    8.50    1.40
  -7  -3   6    8.50    2.00
   7  -3  -6   12.00    2.40
   7   3  -6    6.50    1.40
  -7   3   6    6.40    1.80
  -6  -3   6  152.98    4.80
   6  -3  -6  155.38    7.40
   6  -3  -6  155.68    5.60
  -6  -3   6  173.48    6.80
   6   3  -6  155.38    5.80
   6   3  -6  160.88    4.60
  -6   3   6  153.38    6.60
   5  -3  -6  169.08    7.50
   5  -3  -6  171.68    5.90
  -5  -3   6  165.78    5.40
  -5  -3   6  172.18    6.90
  -5   3   6  159.78    6.80
   5   3  -6  168.88    5.20
   5   3  -6  177.78    5.90
   4  -3  -6   20.50    2.60
   4  -3  -6   24.30    2.60
  -4  -3   6   20.50    2.40
   4  -3  -6   19.80    1.80
  -4  -3   6   19.30    1.70
   4   3  -6   20.10    1.50
   4   3  -6   21.20    1.50
  -4   3   6   17.90    2.40
  -4   3   6   21.80    2.30
  -3  -3   6  427.96   13.80
   3  -3  -6  446.46   14.30
  -3  -3   6  458.75   13.30
   3  -3  -6  465.05   14.10
  -3   3   6  454.75   14.20
   3   3  -6  461.15   13.10
  -3   3   6  423.66   13.70
   3   3  -6  438.96   12.40
  -2  -3   6    8.40    1.40
   2  -3  -6   11.00    1.80
   2  -3  -6   11.10    1.80
  -2  -3   6   13.50    1.90
   2   3  -6    7.70    1.30
  -2   3   6    8.50    1.60
   2   3  -6    8.40    1.40
  -1  -3   6  442.36   14.10
   1  -3  -6  485.25   14.70
  -1  -3   6  475.45   14.10
   1  -3  -6  466.65   14.10
   1  -3  -6  506.15   15.40
   1   3  -6  469.05   14.20
   1   3  -6  442.26   13.80
  -1   3   6  460.85   14.40
   1   3  -6  462.85   12.60
   0  -3  -6    6.30    1.30
   0  -3  -6    5.80    1.80
   0  -3   6    4.30    1.20
   0  -3   6    5.50    1.30
   0   3  -6    6.40    1.50
   0   3  -6    7.10    0.70
   0   3  -6    6.20    1.20
   0   3   6    7.00    1.70
  -1  -3  -6  270.97    8.60
  -1  -3  -6  266.27   10.20
   1  -3   6  290.37    8.40
   1  -3   6  275.97    9.30
   1   3   6  287.87   10.00
  -1   3  -6  266.57    9.70
   1   3   6  311.97   10.70
  -1   3  -6  279.87    8.20
  -1   3  -6  282.37    9.00
  -2  -3  -6 1958.40   54.29
  -2  -3  -6 1951.80   51.69
   2  -3   6 1948.91   52.99
   2  -3   6 1971.30   52.19
   2   3   6 2071.69   54.49
   2   3   6 1938.81   53.69
  -2   3  -6 1988.30   53.89
  -2   3  -6 1837.22   52.49
   2   3   6 2000.00   51.79
  -2   3  -6 1976.10   51.99
   3  -3   6   66.69    3.30
   3  -3   6   68.99    3.70
   3  -3   6   65.79    3.70
  -3  -3  -6   55.59    4.20
  -3   3  -6   73.79    4.40
  -3   3  -6   69.59    3.20
   3   3   6   65.39    4.10
   3   3   6   73.19    4.50
  -3   3  -6   67.69    3.40
   3   3   6   64.59    2.50
   4  -3   6  329.87   11.10
   4  -3   6  333.67   11.10
  -4  -3  -6  340.87   12.30
   4   3   6  329.57    9.30
   4   3   6  351.96   13.50
  -4   3  -6  344.27   10.80
  -4   3  -6  332.37   12.10
  -4   3  -6  331.97   10.60
   5  -3   6   17.00    2.30
   5  -3   6   16.20    2.20
   5  -3   6   18.50    2.40
  -5  -3  -6   20.40    3.10
   5   3   6   19.50    1.10
  -5   3  -6   24.40    2.40
  -5   3  -6   20.00    2.90
  -6  -3  -6  130.49    6.80
   6  -3   6  132.89    6.00
   6  -3   6  128.29    5.80
   6  -3   6  134.09    6.00
  -6   3  -6  132.89    5.70
   6   3   6  125.59    4.20
  -6   3  -6  130.99    6.80
   7  -3   6   39.70    3.80
   7  -3   6   38.40    3.60
  -7  -3  -6   42.70    4.50
   7  -3   6   41.60    3.90
  -7   3  -6   33.10    4.10
   7   3   6   39.20    2.00
  -7   3  -6   46.20    3.40
  -8  -3  -6  221.58   10.10
   8  -3   6  227.48    8.90
   8  -3   6  232.18    9.10
  -8   3  -6  226.48   10.10
  -8   3  -6  210.48    8.70
  -9  -3  -6   37.80    4.60
   9  -3   6   43.90    4.20
   9  -3   6   40.60    4.10
  -9   3  -6   40.20    4.70
  -9   3  -6   43.50    4.20
  10  -3   6    2.60    1.80
 -10  -3  -6   -4.00    1.60
 -10  -3  -6    3.30    2.20
  10  -3   6    0.70    1.70
  10   3   6    2.50    1.20
 -10   3  -6    3.00    2.30
 -10   3  -6   -0.30    1.60
 -11  -3  -6   82.69    7.20
 -11  -3  -6   90.79    7.60
  11  -3   6   70.89    5.10
  11   3   6   74.79    4.00
 -11   3  -6   74.19    5.50
 -11   3  -6   60.39    6.30
 -12  -3  -6   84.69    7.40
  12  -3   6   78.49    5.50
 -12  -3  -6   70.19    7.00
 -12   3  -6   90.19    6.70
  12   3   6   75.49    4.30
 -12   3  -6   80.69    5.80
 -13  -3  -6   37.30    5.30
 -13  -3  -6   40.50    5.60
  13  -3   6   36.70    4.70
 -13   3  -6   39.40    4.90
 -13   3  -6   37.60    5.10
 -14  -3  -6   32.80    5.30
  14  -3   6   30.10    4.40
 -14  -3  -6   25.40    4.90
 -14   3  -6   37.50    5.00
 -14   3  -6   29.10    4.80
 -15  -3  -6   20.40    4.50
  15  -3   6   26.80    4.30
 -15  -3  -6   18.80    4.40
 -15   3  -6   26.00    4.80
 -16  -3  -6   37.40    5.90
 -16  -3  -6   34.80    5.80
 -16   3  -6   34.50    5.50
 -17  -3  -6   20.90    4.90
 -17  -3  -6   21.80    4.90
 -17   3  -6   20.90    5.00
 -18  -3  -6    0.50    3.00
 -18   3  -6   -0.20    3.40
  20  -4  -6   -4.20    3.40
 -20   4   6   -1.00    2.30
  19  -4  -6    8.00    5.00
 -19   4   6   14.30    3.90
  18  -4  -6   30.10    6.60
 -18   4   6   22.10    4.40
  17  -4  -6    5.20    3.80
 -17   4   6    7.90    2.90
  16  -4  -6   72.09    8.50
 -16   4   6   75.69    4.50
 -16   4   6   70.89    6.50
  15  -4  -6   -0.20    2.70
 -15   4   6    1.80    2.10
 -15   4   6    0.60    1.40
  14  -4  -6  388.96   17.80
 -14   4   6  438.46   13.70
 -14   4   6  438.16   15.60
  13  -4  -6  286.67   13.90
 -13   4   6  293.77   10.10
 -13   4   6  295.17   11.60
  12  -4  -6   -1.70    2.00
 -12   4   6    2.10    2.00
 -12   4   6    2.20    1.30
  11  -4  -6   85.69    6.70
 -11   4   6   79.79    4.10
 -11   4   6   72.39    5.00
  10  -4  -6   64.19    6.30
 -10   4   6   67.79    4.50
 -10   4   6   68.39    3.70
   9  -4  -6  215.08   10.20
  -9   4   6  202.38    7.40
  -9   4   6  217.98    8.50
   9   4  -6  200.18    8.10
  -8  -4   6   17.60    1.00
   8  -4  -6   15.40    3.20
   8   4  -6   19.40    2.50
  -8   4   6   15.20    2.40
  -8   4   6   19.60    2.20
  -7  -4   6  791.82   21.50
   7  -4  -6  810.52   25.40
  -7   4   6  819.32   23.80
   7   4  -6  775.72   22.90
  -6  -4   6  682.43   21.00
   6  -4  -6  726.93   22.50
  -6  -4   6  718.83   19.20
  -6   4   6  695.03   20.90
   6   4  -6  678.53   19.90
   6   4  -6  676.23   18.80
  -5  -4   6  227.98    7.40
   5  -4  -6  222.98    9.40
  -5  -4   6  227.28    8.50
   5   4  -6  228.68    7.40
  -5   4   6  234.98    8.00
  -5   4   6  233.38    8.60
   5   4  -6  231.08    7.00
  -4  -4   6   17.10    1.80
   4  -4  -6   15.30    2.50
  -4  -4   6   21.20    2.40
  -4   4   6   15.30    2.20
  -4   4   6   14.30    1.90
   4   4  -6   15.10    1.40
   4   4  -6   15.40    1.50
   3  -4  -6   10.20    2.20
  -3  -4   6    6.10    1.50
  -3  -4   6   11.00    1.60
  -3   4   6    7.70    1.60
   3   4  -6    7.70    1.30
   3   4  -6    8.60    0.80
  -2  -4   6   18.50    2.20
   2  -4  -6   23.60    2.80
   2   4  -6   19.00    2.00
  -2   4   6   21.30    2.50
  -1  -4   6  477.85   14.70
   1  -4  -6  504.55   16.20
   1  -4  -6  487.45   15.10
  -1   4   6  494.85   15.20
   1   4  -6  483.45   14.40
   1   4  -6  486.55   14.80
   0  -4  -6  111.79    4.80
   0  -4   6  111.39    4.70
   0  -4  -6  111.19    5.80
   0  -4   6  105.49    4.60
   0   4   6  113.49    4.70
   0   4  -6  113.69    4.40
   0   4  -6  114.69    5.10
   0   4   6  105.29    5.10
   1  -4   6 1244.28   33.80
  -1  -4  -6 1216.18   33.60
  -1  -4  -6 1221.68   35.40
   1  -4   6 1229.98   32.50
   1  -4   6 1236.38   33.70
   1   4   6 1196.18   34.70
   1   4   6 1241.38   33.70
  -1   4  -6 1242.18   33.50
  -1   4  -6 1235.28   34.70
   2  -4   6   31.10    2.70
   2  -4   6   32.30    1.90
  -2  -4  -6   30.70    3.60
  -2  -4  -6   31.20    2.10
  -2   4  -6   33.60    2.20
   2   4   6   34.60    2.20
   2   4   6   22.20    3.00
   2   4   6   33.70    3.40
  -2   4  -6   29.60    3.20
   3  -4   6   38.40    2.70
   3  -4   6   42.70    3.30
   3  -4   6   40.40    2.40
  -3  -4  -6   32.80    3.80
  -3   4  -6   37.40    3.70
  -3   4  -6   35.10    2.10
   3   4   6   41.80    2.30
   3   4   6   45.30    4.00
  -3   4  -6   38.60    2.40
   4  -4   6   42.90    2.70
   4  -4   6   45.30    3.30
  -4  -4  -6   40.10    4.20
   4  -4   6   47.50    3.10
   4   4   6   46.90    2.40
  -4   4  -6   44.10    2.60
  -4   4  -6   45.20    2.60
  -4   4  -6   47.10    4.20
   5  -4   6   54.19    3.40
   5  -4   6   56.29    3.90
   5  -4   6   63.39    3.60
  -5  -4  -6   50.09    4.80
  -5   4  -6   61.09    3.30
   5   4   6   59.89    2.70
  -5   4  -6   54.69    3.10
  -5   4  -6   46.50    4.50
   6  -4   6  129.89    6.30
   6  -4   6  127.99    6.00
   6  -4   6  133.09    5.90
  -6  -4  -6  136.99    7.20
   6   4   6  137.19    4.80
  -6   4  -6  137.39    7.10
  -6   4  -6  138.89    5.80
   7  -4   6   44.70    4.10
   7  -4   6   42.40    3.90
   7  -4   6   41.60    3.70
  -7  -4  -6   41.10    4.60
   7   4   6   38.40    2.30
  -7   4  -6   30.40    4.00
  -7   4  -6   35.70    3.30
   8  -4   6   90.59    5.00
  -8  -4  -6   85.49    6.10
   8  -4   6   79.99    5.10
  -8   4  -6   84.39    4.80
   8   4   6   81.39    3.60
  -8   4  -6   82.59    5.80
   9  -4   6   40.00    4.00
   9  -4   6   39.10    4.30
  -9  -4  -6   37.80    4.80
  -9   4  -6   37.20    3.80
  -9   4  -6   27.10    4.10
   9   4   6   32.50    2.40
  10  -4   6    6.40    2.40
  10  -4   6   11.00    2.40
 -10  -4  -6    4.30    2.60
 -10   4  -6    7.10    2.20
 -10   4  -6    5.30    2.60
  11  -4   6   26.10    3.50
  11  -4   6   21.10    3.50
 -11  -4  -6   29.40    4.50
 -11   4  -6   20.80    3.90
 -12  -4  -6   70.59    6.90
  12  -4   6   70.69    5.70
  12  -4   6   70.99    6.10
 -12  -4  -6   63.39    6.70
 -12   4  -6   78.99    7.30
 -13  -4  -6   25.60    4.80
 -13  -4  -6   24.40    4.60
  13  -4   6   27.90    4.20
  13  -4   6   31.90    4.20
 -13   4  -6   37.00    5.30
 -14  -4  -6   -0.50    2.60
  14  -4   6    2.80    2.30
 -14  -4  -6    0.20    2.70
  14  -4   6   -1.80    2.10
 -14   4  -6   -1.60    2.30
 -15  -4  -6  106.19    9.50
  15  -4   6  108.09    7.20
 -15  -4  -6   98.39    9.00
  15  -4   6   81.69    7.60
 -15   4  -6  106.79    7.90
 -16  -4  -6   46.90    6.40
 -16  -4  -6   43.80    6.60
  16  -4   6   52.49    6.10
 -16   4  -6   58.79    7.00
 -17  -4  -6    5.70    3.70
  17  -4   6   13.50    3.60
 -17  -4  -6    8.20    4.00
 -17   4  -6   16.10    4.50
 -18  -4  -6    9.50    4.00
  18  -4   6   15.40    5.00
 -18   4  -6    7.50    3.90
  20  -5  -6    2.20    4.00
  19  -5  -6   65.59    9.10
 -19   5   6   77.09    7.30
  18  -5  -6   13.60    5.00
 -18   5   6   17.70    4.00
  17  -5  -6   -0.10    3.70
 -17   5   6    2.40    2.20
  16  -5  -6   15.60    5.00
 -16   5   6   17.60    2.70
 -16   5   6   18.30    3.60
  15  -5  -6    0.00    3.00
 -15   5   6    0.00    1.90
 -15   5   6    0.30    1.50
  14  -5  -6  152.48   10.20
 -14   5   6  138.19    6.50
 -14   5   6  151.38    7.80
  13  -5  -6   13.80    4.00
 -13   5   6    9.20    2.80
 -13   5   6    8.50    2.10
  12  -5  -6    1.00    2.80
 -12   5   6    6.70    2.30
 -12   5   6    4.60    1.80
  11  -5  -6   61.69    6.70
 -11   5   6   66.09    4.60
 -11   5   6   56.99    3.80
 -10  -5   6    4.70    0.70
  10  -5  -6    3.90    2.20
 -10   5   6    5.20    1.50
 -10   5   6    7.30    2.10
   9  -5  -6    0.30    2.00
  -9  -5   6   -0.20    0.60
  -9   5   6    1.40    1.40
  -9   5   6    0.90    1.10
   9   5  -6   -0.50    1.20
  -8  -5   6   83.59    3.30
   8  -5  -6   81.79    6.10
  -8   5   6   83.59    4.70
   8   5  -6   80.59    4.40
  -8   5   6   73.59    4.10
  -7  -5   6   49.50    2.50
   7  -5  -6   48.70    5.10
  -7   5   6   49.00    3.50
   7   5  -6   51.49    3.20
   6  -5  -6    6.80    2.30
  -6  -5   6    8.30    1.30
   6   5  -6    9.90    1.50
  -6   5   6    6.70    1.70
   6   5  -6    7.90    1.10
  -5  -5   6   23.00    2.10
   5  -5  -6   18.50    3.10
  -5  -5   6   17.60    2.50
   5   5  -6   23.60    1.80
  -5   5   6   19.40    2.10
  -5   5   6   22.50    2.70
   5   5  -6   21.20    1.90
  -4  -5   6  250.77    9.10
   4  -5  -6  252.97   10.10
  -4   5   6  244.88    8.60
   4   5  -6  258.97    8.20
   4   5  -6  261.17    7.70
  -3  -5   6  268.07    9.10
   3  -5  -6  266.87   10.20
  -3   5   6  261.77    9.00
   3   5  -6  260.57    8.60
   3   5  -6  259.77    7.30
   2  -5  -6  766.12   23.10
   2  -5  -6  755.72   23.70
  -2  -5   6  767.12   22.10
  -2   5   6  791.02   22.40
   2   5  -6  741.33   21.80
   1  -5  -6    1.40    1.30
  -1  -5   6    2.70    1.10
   1  -5  -6    1.60    1.40
   1   5  -6   -0.20    1.00
  -1   5   6    2.00    1.20
   0  -5   6   35.80    2.40
   0  -5  -6   31.60    3.10
   0  -5  -6   29.70    3.60
   0   5   6   37.30    3.40
   0   5  -6   33.10    3.10
   1  -5   6  140.69    5.30
  -1  -5  -6  143.89    7.00
   1  -5   6  130.29    5.10
   1  -5   6  134.29    4.00
  -1  -5  -6  131.69    5.60
   1   5   6  137.39    6.20
  -1   5  -6  132.79    4.90
  -1   5  -6  126.89    6.00
  -2  -5  -6 1378.56   39.20
   2  -5   6 1336.97   36.80
  -2  -5  -6 1321.97   37.00
   2  -5   6 1363.26   38.50
   2  -5   6 1336.17   35.90
  -2   5  -6 1299.37   38.00
   2   5   6 1345.77   38.20
   2   5   6 1364.66   37.90
  -2   5  -6 1383.96   36.30
   3  -5   6    1.00    1.00
  -3  -5  -6    4.30    2.00
   3  -5   6    5.10    1.80
   3  -5   6    2.30    0.90
  -3   5  -6    1.80    0.80
   3   5   6    0.20    1.50
  -3   5  -6    0.30    0.50
  -3   5  -6    0.50    1.30
   3   5   6    0.00    0.90
   4  -5   6   78.69    3.70
   4  -5   6   79.69    4.90
  -4  -5  -6   80.09    5.40
   4  -5   6   72.59    3.80
  -4   5  -6   71.79    4.80
   4   5   6   71.69    3.60
  -4   5  -6   76.99    3.40
  -5  -5  -6  109.09    6.60
   5  -5   6  123.19    5.20
   5  -5   6  122.39    5.20
   5  -5   6  110.39    6.10
   5   5   6  124.19    4.90
  -5   5  -6  111.09    6.30
  -5   5  -6  119.59    4.70
   6  -5   6   71.49    4.20
   6  -5   6   75.09    4.90
   6  -5   6   76.79    4.20
  -6  -5  -6   81.59    5.60
  -6   5  -6   79.69    3.70
  -6   5  -6   83.69    5.50
   6   5   6   85.99    3.80
   7  -5   6   48.50    4.70
   7  -5   6   50.09    4.20
   7  -5   6   43.30    3.30
  -7  -5  -6   38.80    4.70
  -7   5  -6   55.69    5.20
   7   5   6   50.39    2.90
   8  -5   6    9.10    2.30
  -8  -5  -6    8.30    2.60
   8  -5   6    9.20    2.00
  -8   5  -6    6.20    2.50
   9  -5   6  176.18    7.50
  -9  -5  -6  171.28    9.30
   9  -5   6  165.88    8.30
  -9   5  -6  167.18    8.80
 -10  -5  -6  333.67   14.30
  10  -5   6  353.46   12.40
  10  -5   6  349.07   13.50
 -10   5  -6  316.47   13.60
 -11  -5  -6  272.77   12.50
  11  -5   6  254.07   11.40
  11  -5   6  254.77   10.40
 -11   5  -6  261.97   11.90
 -12  -5  -6  262.57   12.70
  12  -5   6  247.78   11.50
  12  -5   6  268.97   10.90
 -12   5  -6  262.67   12.20
  13  -5   6   54.59    6.00
  13  -5   6   56.49    5.30
 -13  -5  -6   56.49    6.70
 -13  -5  -6   54.99    6.50
 -13   5  -6   57.99    6.40
 -14  -5  -6   61.39    7.00
  14  -5   6   50.79    6.10
  14  -5   6   50.69    5.30
 -14  -5  -6   43.30    6.20
 -14   5  -6   62.19    6.70
  15  -5   6  112.99    7.10
 -15  -5  -6  110.89    9.80
  15  -5   6  111.29    7.80
 -15  -5  -6  108.99    9.50
 -15   5  -6   89.99    8.30
 -16  -5  -6   12.70    4.30
  16  -5   6    8.80    3.00
 -16  -5  -6    8.00    3.80
 -16   5  -6    9.90    4.10
 -17  -5  -6   25.90    6.60
 -17  -5  -6   35.00    6.00
 -17   5  -6   29.10    5.40
  19  -6  -6   18.60    6.10
  18  -6  -6   81.09   10.00
  17  -6  -6   84.59   10.00
 -17   6   6   73.19    6.60
  16  -6  -6   19.80    5.30
 -16   6   6   12.50    2.70
 -16   6   6   15.80    3.40
  15  -6  -6   21.60    5.40
 -15   6   6   28.40    4.10
 -15   6   6   25.60    3.40
  14  -6  -6    3.70    3.10
 -14   6   6   -0.70    1.80
 -14   6   6    0.20    1.60
  13  -6  -6    7.00    3.50
 -13   6   6    1.90    1.80
 -13   6   6    3.00    1.80
  12  -6  -6    6.80    3.40
 -12   6   6    7.30    2.10
 -12   6   6   14.20    2.70
  11  -6  -6   37.90    5.40
 -11  -6   6   30.20    3.50
 -11   6   6   31.60    3.70
 -11   6   6   30.50    3.20
 -10  -6   6   19.50    2.80
  10  -6  -6   16.40    4.00
 -10  -6   6   22.90    1.70
 -10   6   6   24.00    3.10
 -10   6   6   24.50    3.00
   9  -6  -6   -1.30    1.90
  -9  -6   6    1.30    0.80
  -9  -6   6    2.30    1.40
  -9   6   6    2.60    1.60
  -9   6   6    1.30    1.50
   9   6  -6    2.60    1.40
  -8  -6   6   16.30    2.20
  -8  -6   6   13.90    1.60
   8  -6  -6   11.30    3.20
  -8   6   6   10.10    2.00
  -8   6   6   12.20    2.20
   8   6  -6    9.20    1.90
   7  -6  -6  246.78   11.40
  -7  -6   6  263.37    8.80
  -7  -6   6  274.47    8.60
  -7   6   6  255.67    9.60
  -7   6   6  258.27    9.40
   7   6  -6  269.77    9.30
   6  -6  -6   82.99    5.90
  -6  -6   6   83.49    3.70
   6   6  -6   86.79    4.00
   6   6  -6   81.69    3.60
  -5  -6   6  132.59    6.00
   5  -6  -6  136.09    7.30
   5   6  -6  128.19    4.90
   5   6  -6  128.59    5.00
  -5   6   6  135.19    5.40
   4  -6  -6   57.79    4.70
  -4  -6   6   67.99    3.90
   4   6  -6   68.59    3.40
   4   6  -6   69.09    2.80
  -4   6   6   70.59    3.70
  -3  -6   6  372.86   12.10
   3  -6  -6  388.36   13.60
   3   6  -6  359.56   11.70
  -3   6   6  376.26   12.00
   2  -6  -6   57.89    5.20
   2  -6  -6   50.99    4.00
  -2  -6   6   57.89    3.30
   2   6  -6   58.79    3.40
  -2   6   6   69.49    3.80
   1  -6  -6  269.37    9.80
   1  -6  -6  242.88   10.30
  -1  -6   6  239.08    8.40
  -1   6   6  250.97    9.00
   1   6  -6  236.28    8.80
   0  -6   6   96.59    4.20
   0  -6  -6   96.49    5.90
   0  -6  -6   91.29    5.00
   0   6  -6   96.49    4.90
   0   6   6   94.79    4.90
  -1  -6  -6   -0.10    1.50
  -1  -6  -6    0.50    1.10
   1  -6   6    0.70    0.80
   1  -6   6   -0.40    0.30
   1   6   6   -0.10    1.10
  -1   6  -6   -0.10    0.50
  -1   6  -6   -1.10    1.10
   2  -6   6   40.40    2.00
   2  -6   6   42.10    4.30
  -2  -6  -6   40.00    4.40
  -2  -6  -6   40.60    3.00
   2  -6   6   43.00    2.50
   2   6   6   38.30    3.80
  -2   6  -6   44.30    3.90
  -3  -6  -6   10.60    2.60
   3  -6   6   14.60    2.90
   3  -6   6   10.80    1.60
   3  -6   6   10.60    1.40
  -3   6  -6   11.40    1.20
  -3   6  -6   11.00    2.30
   3   6   6   10.50    2.30
   4  -6   6  222.48    7.40
  -4  -6  -6  212.38    9.60
   4  -6   6  208.88    9.30
   4  -6   6  208.18    7.20
  -4   6  -6  186.18    8.60
  -4   6  -6  208.18    6.60
  -5  -6  -6    1.10    2.00
   5  -6   6   -0.60    0.90
   5  -6   6   -0.20    0.90
   5  -6   6    0.30    1.60
  -5   6  -6    1.80    1.70
  -5   6  -6    1.40    0.70
   6  -6   6    4.50    1.50
  -6  -6  -6    3.50    2.20
   6  -6   6    5.40    1.40
   6  -6   6    4.10    2.10
  -6   6  -6    1.30    1.80
  -6   6  -6    4.80    1.00
   7  -6   6   71.39    4.00
   7  -6   6   66.49    4.30
   7  -6   6   72.09    5.20
  -7  -6  -6   73.39    6.50
  -7   6  -6   61.99    5.60
  -7   6  -6   62.19    3.10
   8  -6   6  123.79    7.30
  -8  -6  -6  136.49    8.10
   8  -6   6  134.99    6.00
  -8   6  -6  135.39    5.20
  -8   6  -6  118.49    7.20
   9  -6   6   29.10    4.20
  -9  -6  -6   25.00    4.30
   9  -6   6   22.90    2.90
  -9   6  -6   28.20    4.30
 -10  -6  -6   18.40    4.00
  10  -6   6   24.60    3.20
  10  -6   6   19.50    3.90
 -10   6  -6   13.90    3.50
 -11  -6  -6   20.30    4.30
  11  -6   6   23.30    3.20
  11  -6   6   17.30    3.80
 -11   6  -6   27.20    4.50
  12  -6   6   13.00    2.70
  12  -6   6   12.30    3.40
 -12  -6  -6    9.40    3.60
 -12   6  -6   11.60    3.50
  13  -6   6   -1.90    2.30
  13  -6   6    4.20    2.10
 -13  -6  -6   -2.80    2.50
 -13   6  -6    4.20    2.90
  14  -6   6   11.00    3.40
 -14  -6  -6   11.60    4.20
 -14  -6  -6    7.90    3.50
  14  -6   6    5.20    2.40
 -14   6  -6    4.50    3.10
  15  -6   6   26.30    4.90
 -15  -6  -6   23.00    5.20
 -15  -6  -6   21.90    5.10
 -15   6  -6   22.60    4.70
 -16  -6  -6   58.49    7.40
 -16  -6  -6   58.69    7.60
  16  -6   6   66.39    8.30
 -16   6  -6   63.19    7.20
 -17  -6  -6    3.70    3.70
 -17   6  -6    4.00    3.90
  19  -7  -6   -2.90    3.90
  18  -7  -6   33.10    7.20
  17  -7  -6  154.98   12.20
  16  -7  -6    9.60    4.50
 -16   7   6    9.40    2.70
  15  -7  -6    5.90    3.80
 -15   7   6    7.50    2.40
 -15   7   6    6.90    2.60
  14  -7  -6   17.40    4.80
 -14   7   6   36.80    4.30
 -14   7   6   29.10    3.70
 -13  -7   6    6.70    2.50
  13  -7  -6   10.00    4.00
 -13   7   6    9.70    2.50
 -13   7   6    4.50    2.10
 -12  -7   6   86.69    5.60
  12  -7  -6   95.79    9.20
 -12   7   6   88.39    5.30
 -12   7   6  100.99    5.70
  11  -7  -6   -1.70    1.90
 -11  -7   6    1.20    1.60
 -11   7   6    0.40    1.60
 -11   7   6    3.30    1.80
  10  -7  -6    9.30    3.40
 -10  -7   6   11.00    2.20
 -10   7   6    7.50    2.20
 -10   7   6    8.70    2.30
  -9  -7   6  113.59    5.60
   9  -7  -6  114.69    8.10
   9   7  -6  126.69    6.20
  -9   7   6  104.59    5.70
  -9   7   6  108.49    5.70
  -8  -7   6   20.70    2.40
   8  -7  -6   20.70    3.90
   8   7  -6   17.10    2.50
  -8   7   6   23.10    2.90
   7  -7  -6    4.00    2.60
  -7  -7   6    8.80    1.60
   7   7  -6   10.60    1.90
  -7   7   6    7.60    2.00
   6  -7  -6   -2.50    1.80
  -6  -7   6   -0.90    0.80
   6   7  -6   -0.90    0.90
   6   7  -6    2.40    1.10
  -5  -7   6  144.69    6.20
  -5  -7   6  121.69    4.50
   5  -7  -6  114.29    7.10
  -5   7   6  116.99    5.10
   5   7  -6  126.89    5.20
   5   7  -6  129.89    4.90
  -4  -7   6   10.00    1.90
  -4  -7   6    8.70    1.00
   4  -7  -6   13.90    3.00
  -4   7   6    7.40    1.50
   4   7  -6   13.40    1.90
   4   7  -6    9.40    1.20
   3  -7  -6   95.89    6.00
  -3  -7   6  103.39    4.90
  -3   7   6  104.09    4.80
   3   7  -6  101.89    4.80
   2  -7  -6   12.60    2.90
  -2  -7   6   13.10    1.90
   2  -7  -6   13.30    2.70
  -2   7   6    8.40    1.80
   2   7  -6   16.40    2.30
  -1  -7   6    2.40    1.10
   1  -7  -6    5.10    2.00
   1  -7  -6    2.40    1.90
  -1   7   6    1.30    1.30
   1   7  -6    2.40    1.30
   0  -7   6  347.47   11.10
   0  -7  -6  349.17   12.60
   0  -7  -6  361.26   13.70
   0   7  -6  360.36   12.20
   0   7   6  363.26   12.30
  -1  -7  -6  119.89    7.10
  -1  -7  -6  121.79    6.20
   1  -7   6  133.69    5.00
   1  -7   6  134.29    3.90
   1  -7   6  133.99    4.00
  -1   7  -6  135.69    6.30
   1   7   6  136.19    6.30
   2  -7   6  233.58    7.10
  -2  -7  -6  227.28    9.00
  -2  -7  -6  229.88   10.40
   2  -7   6  243.48   10.30
   2   7   6  227.28    9.20
  -2   7  -6  237.28    9.40
   3  -7   6  289.77   11.80
   3  -7   6  282.07    8.80
  -3  -7  -6  273.17   11.80
   3   7   6  288.57   11.00
  -3   7  -6  281.47    9.20
  -3   7  -6  296.87   11.10
  -4  -7  -6   21.60    3.60
   4  -7   6   11.30    1.60
   4  -7   6   12.40    2.90
   4  -7   6   15.50    1.80
  -4   7  -6   14.30    2.80
   5  -7   6   56.79    3.40
  -5  -7  -6   42.90    5.10
   5  -7   6   66.29    6.00
   5  -7   6   55.69    3.00
  -5   7  -6   50.59    4.90
  -6  -7  -6  271.67   11.80
   6  -7   6  254.77    8.60
   6  -7   6  244.38   11.20
   6  -7   6  256.57    9.20
  -6   7  -6  228.18   10.50
  -6   7  -6  266.77    7.40
   7  -7   6  116.29    7.10
  -7  -7  -6   93.69    6.90
   7  -7   6  107.59    4.80
   7  -7   6  119.29    5.70
  -7   7  -6  109.29    3.80
  -7   7  -6  114.69    6.90
   8  -7   6   -2.60    1.60
   8  -7   6    0.10    1.10
  -8  -7  -6   -0.10    2.20
  -8   7  -6    0.30    2.10
   9  -7   6   89.19    4.60
  -9  -7  -6   82.39    7.70
   9  -7   6   81.69    6.30
  -9   7  -6   99.79    6.80
  10  -7   6   50.59    3.70
  10  -7   6   58.49    6.20
 -10  -7  -6   43.70    5.80
 -10   7  -6   49.50    5.70
  11  -7   6   11.70    3.50
  11  -7   6   11.90    2.30
 -11  -7  -6   14.10    3.90
 -11   7  -6   12.50    3.50
 -12  -7  -6    0.70    2.80
  12  -7   6   -2.70    2.10
 -12   7  -6   -0.20    2.40
 -13  -7  -6    2.80    3.20
  13  -7   6    0.20    2.50
 -13   7  -6    5.70    3.00
  14  -7   6   26.10    4.90
 -14  -7  -6   23.90    5.20
 -14   7  -6   34.60    5.60
 -15  -7  -6   12.30    4.10
  15  -7   6   11.90    4.10
 -15  -7  -6   10.00    4.10
 -15   7  -6   10.40    4.00
 -16  -7  -6   31.30    5.60
 -16  -7  -6   40.10    6.60
  16  -7   6   32.00    5.60
 -16   7  -6   36.10    5.80
  18  -8  -6   67.39    9.80
  17  -8  -6   26.60    6.50
 -17   8   6   30.40    4.40
  16  -8  -6   17.20    5.50
 -16   8   6   17.50    3.50
  15  -8  -6   16.10    5.30
 -15   8   6   16.30    3.30
 -14  -8   6   58.79    5.60
  14  -8  -6   66.49    8.50
 -14   8   6   61.49    5.40
 -14   8   6   78.39    8.50
  13  -8  -6  108.49   10.40
 -13  -8   6  123.99    7.00
 -13   8   6  121.09    6.50
 -13   8   6  123.29    6.80
  12  -8  -6   42.40    6.50
 -12  -8   6   38.00    4.20
 -12   8   6   42.30    4.30
 -12   8   6   38.60    4.00
  11  -8  -6   42.30    6.20
 -11  -8   6   39.40    4.00
 -11   8   6   47.00    4.20
 -11   8   6   47.30    4.50
 -10  -8   6  111.99    5.80
  10  -8  -6  110.49    8.50
 -10   8   6  119.89    6.50
  -9  -8   6    5.60    1.80
   9  -8  -6    6.40    3.20
  -9   8   6    6.30    2.20
   8  -8  -6   46.00    6.00
  -8  -8   6   40.90    3.50
   8   8  -6   44.00    3.90
  -8   8   6   40.40    4.10
  -7  -8   6   20.10    2.30
   7  -8  -6   29.20    4.70
   7   8  -6   20.70    2.50
   6  -8  -6  307.67   13.40
  -6  -8   6  305.57    9.80
   6   8  -6  305.67   10.20
   6   8  -6  303.57   10.20
   5  -8  -6   33.10    4.60
  -5  -8   6   25.00    1.90
  -5   8   6   22.90    2.30
   5   8  -6   22.80    2.50
   5   8  -6   26.80    2.30
  -4  -8   6   52.29    3.60
  -4  -8   6   48.40    2.30
   4  -8  -6   49.50    5.40
   4   8  -6   48.60    3.30
  -4   8   6   47.90    3.10
  -3  -8   6   13.20    1.00
   3  -8  -6   12.60    3.10
  -3  -8   6   13.00    2.10
   3  -8  -6   12.10    2.80
   3   8  -6   14.30    2.20
  -3   8   6   10.60    1.90
   2  -8  -6  325.27   12.80
   2  -8  -6  329.87   13.30
  -2  -8   6  331.17   10.90
  -2   8   6  333.67   11.20
   2   8  -6  318.27   11.20
   1  -8  -6   37.00    4.60
   1  -8  -6   36.30    4.30
  -1  -8   6   35.20    3.00
  -1   8   6   44.10    3.70
   1   8  -6   37.40    3.50
   0  -8  -6    9.40    2.70
   0  -8   6   10.10    1.60
   0  -8  -6   10.70    2.60
   0   8   6   11.50    2.30
   0   8  -6   10.60    2.20
   1  -8   6    2.60    1.00
  -1  -8  -6   -0.30    1.50
   1  -8   6    1.60    0.50
  -1  -8  -6   -0.50    1.80
   1  -8   6    1.50    0.60
  -1   8  -6    0.30    0.60
   1   8   6    4.50    1.70
  -1   8  -6    0.30    1.50
   2  -8   6  163.18    8.80
  -2  -8  -6  168.18    7.80
   2  -8   6  179.98    5.60
  -2  -8  -6  177.68    9.10
  -2   8  -6  174.88    7.90
   2   8   6  187.88    8.10
  -2   8  -6  165.98    6.20
   3  -8   6  104.99    4.00
  -3  -8  -6   90.79    6.50
   3  -8   6  103.99    6.80
  -3   8  -6   96.79    5.80
   3   8   6   97.29    5.80
   4  -8   6  289.97   12.60
  -4  -8  -6  306.67   12.90
  -4   8  -6  295.17   11.70
   5  -8   6  100.99    6.90
   5  -8   6   97.79    4.70
  -5  -8  -6  103.29    7.10
  -5   8  -6  119.49    6.70
   6  -8   6  125.29    7.70
   6  -8   6  104.79    5.20
  -6  -8  -6  116.69    7.70
   6  -8   6  108.59    4.30
  -6   8  -6  113.89    6.80
   7  -8   6   73.89    7.00
   7  -8   6   80.69    3.70
  -7  -8  -6   83.89    7.50
  -7   8  -6   83.99    6.00
   8  -8   6   66.89    6.70
   8  -8   6   69.49    3.60
  -8  -8  -6   78.19    7.30
  -8   8  -6   84.99    6.20
   9  -8   6   16.60    2.30
   9  -8   6   15.70    3.60
  -9  -8  -6   13.00    3.60
  -9   8  -6   11.90    3.40
  10  -8   6   64.19    7.10
 -10  -8  -6   78.79    7.70
 -10   8  -6   64.89    6.50
  11  -8   6   82.49    8.00
 -11  -8  -6   76.59    7.80
 -11   8  -6   80.39    7.40
 -12  -8  -6   16.90    4.30
  12  -8   6   18.40    4.50
 -12   8  -6    9.70    3.50
 -13  -8  -6    4.60    3.40
  13  -8   6    1.90    3.10
 -13   8  -6    4.20    3.20
 -14  -8  -6   30.20    5.70
  14  -8   6   36.30    5.90
 -14   8  -6   39.80    6.00
  15  -8   6   12.50    4.20
 -15  -8  -6    6.20    3.80
 -15   8  -6   17.80    4.70
 -16  -8  -6   23.00    5.40
  16  -8   6   20.10    5.00
 -16   8  -6   24.90    5.20
  17  -9  -6   50.29    8.60
 -17   9   6   84.39    6.30
  16  -9  -6   41.90    7.80
 -16   9   6   34.20    4.60
 -15  -9   6   54.99    5.80
  15  -9  -6   64.99    8.90
 -15   9   6   49.10    5.20
  14  -9  -6   11.80    4.60
 -14  -9   6   16.60    3.40
 -14   9   6    9.80    3.00
 -13  -9   6   32.40    4.20
  13  -9  -6   35.40    6.50
 -13   9   6   32.70    4.10
  12  -9  -6   94.09    9.70
 -12  -9   6   96.19    6.00
 -12   9   6  101.39    6.40
  11  -9  -6   -3.50    2.20
 -11  -9   6    0.00    1.70
 -11   9   6    1.20    2.00
  10  -9  -6    0.00    2.60
 -10  -9   6    1.30    1.60
 -10   9   6    0.80    2.10
  -9  -9   6   55.99    4.00
   9  -9  -6   58.79    7.00
  -9   9   6   55.89    5.10
   8  -9  -6   38.30    5.70
  -8  -9   6   35.40    3.30
  -8   9   6   39.10    4.30
   8   9  -6   39.80    4.70
   7  -9  -6    1.80    2.50
  -7  -9   6    1.80    1.30
   7   9  -6    0.70    1.30
   6  -9  -6   24.90    4.40
  -6  -9   6   20.40    2.10
   6   9  -6   23.40    2.50
   6   9  -6   27.50    2.80
   5  -9  -6   -3.10    1.70
  -5  -9   6    1.40    1.00
  -5   9   6    1.20    1.00
   5   9  -6    0.50    1.40
   4  -9  -6  281.77   12.60
   4  -9  -6  271.47   12.50
  -4  -9   6  292.97   10.50
  -4  -9   6  295.87    8.80
   4   9  -6  276.17   10.20
  -4   9   6  295.17    9.70
   3  -9  -6   52.59    5.90
  -3  -9   6   65.99    4.00
  -3  -9   6   60.09    2.50
   3  -9  -6   64.79    6.30
  -3   9   6   62.99    3.70
   3   9  -6   66.19    4.30
  -2  -9   6    7.20    0.80
  -2  -9   6    5.00    1.60
   2  -9  -6    5.40    2.80
   2  -9  -6    8.60    2.70
   2   9  -6    9.40    2.20
  -2   9   6    6.30    1.80
   1  -9  -6    6.70    2.30
  -1  -9   6    6.70    1.50
  -1  -9   6    7.50    0.60
   1  -9  -6    1.90    2.50
  -1   9   6    2.00    1.60
   1   9  -6    8.10    2.30
   0  -9   6    0.80    0.40
   0  -9   6    1.10    0.50
   0  -9  -6    0.10    2.10
   0  -9  -6    1.00    1.80
   0  -9   6    1.00    1.00
   0   9  -6   -1.30    1.30
   0   9   6    0.40    1.40
  -1  -9  -6   91.09    6.50
   1  -9   6   90.89    3.80
   1  -9   6   86.09    3.00
  -1  -9  -6   79.29    5.50
   1  -9   6   86.79    3.20
   1   9   6   81.19    5.00
  -1   9  -6   77.19    5.10
   2  -9   6   62.69    2.80
  -2  -9  -6   54.39    5.90
  -2  -9  -6   66.19    5.00
   2  -9   6   63.89    3.00
   2  -9   6   68.69    6.70
  -2   9  -6   62.39    3.20
   2   9   6   71.79    5.00
  -2   9  -6   62.99    4.70
   3  -9   6   71.29    3.30
  -3  -9  -6   81.09    7.10
   3  -9   6   67.89    6.70
   3   9   6   74.79    5.20
  -3   9  -6   73.49    5.20
   4  -9   6   77.89    7.30
  -4  -9  -6   89.59    6.80
  -4   9  -6   95.69    6.00
   5  -9   6    0.80    2.50
   5  -9   6   -1.10    1.10
  -5  -9  -6    1.60    2.30
  -5   9  -6    1.80    1.90
  -6  -9  -6   16.20    3.60
  -7  -9  -6    2.70    2.70
   7  -9   6   -0.30    2.40
  -7   9  -6    0.20    2.00
  -8  -9  -6   58.39    6.60
   8  -9   6   53.79    6.50
  -8   9  -6   57.89    6.00
  -9  -9  -6  137.69    9.10
   9  -9   6  124.29    9.00
  -9   9  -6  138.79    8.40
 -10  -9  -6  151.98    9.80
  10  -9   6  146.29    9.50
 -10   9  -6  146.89    8.90
  11  -9   6    6.80    3.40
 -11  -9  -6    4.60    3.00
 -11   9  -6    5.50    3.10
 -12  -9  -6   22.80    4.90
  12  -9   6   19.00    4.60
 -12   9  -6   23.70    4.70
 -13  -9  -6    1.80    3.30
  13  -9   6   -1.50    2.90
 -13   9  -6    6.40    3.40
 -14  -9  -6   -3.40    2.80
  14  -9   6    4.80    3.40
 -14   9  -6   -2.50    2.60
  15  -9   6   69.59    8.40
 -15   9  -6   73.69    7.90
  16 -10  -6    0.20    4.20
 -16  10   6    0.20    2.60
  15 -10  -6   27.90    6.70
 -15 -10   6   30.70    4.70
 -15  10   6   29.10    4.50
 -14 -10   6   58.99    5.70
  14 -10  -6   50.49    7.90
 -14  10   6   57.59    5.70
 -13 -10   6    1.70    2.00
  13 -10  -6    1.70    3.50
 -13  10   6    0.00    2.40
 -12 -10   6    6.20    2.30
  12 -10  -6    3.90    3.70
 -12  10   6    2.80    2.30
 -11 -10   6    2.30    1.80
  11 -10  -6   -0.70    2.90
 -11  10   6    0.40    2.00
 -10 -10   6   -2.00    1.40
  10 -10  -6    0.40    2.90
 -10  10   6    2.00    2.00
   9 -10  -6   32.00    5.70
  -9 -10   6   26.80    3.10
  -9  10   6   39.30    4.50
  -8 -10   6  125.09    5.90
   8 -10  -6  136.09    9.40
  -7 -10   6   22.00    2.60
   7 -10  -6   23.80    4.70
   6 -10  -6  135.99    9.00
  -6 -10   6  141.49    5.70
   6  10  -6  140.29    6.40
   5 -10  -6  329.17   14.90
  -5 -10   6  349.37   10.90
  -5 -10   6  366.06   12.70
   5  10  -6  357.76   12.30
   4 -10  -6    4.30    2.60
   4 -10  -6    4.20    2.70
  -4 -10   6    0.50    0.90
  -4 -10   6    1.00    1.40
   4  10  -6   -0.40    1.40
  -4  10   6   -0.40    1.00
   3 -10  -6  104.19    7.50
  -3 -10   6  120.69    4.20
   3 -10  -6  113.09    7.60
  -3 -10   6  113.79    5.60
   3  10  -6  117.09    6.00
  -3  10   6  117.69    5.30
  -2 -10   6   29.20    2.90
  -2 -10   6   26.20    1.60
   2 -10  -6   20.80    3.90
   2 -10  -6   25.10    4.30
   2  10  -6   21.30    3.10
  -2  10   6   29.30    3.10
  -1 -10   6   10.00    1.80
   1 -10  -6   15.40    3.50
  -1 -10   6   11.00    1.00
   1 -10  -6   11.10    3.10
   1  10  -6    8.50    2.50
  -1  10   6   14.70    2.50
   0 -10   6   62.49    3.40
   0 -10  -6   71.79    6.80
   0 -10  -6   64.89    6.20
   0 -10   6   59.09    2.40
   0 -10   6   66.09    2.60
   0  10  -6   60.89    5.20
   0  10   6   67.89    4.50
  -1 -10  -6  432.36   17.30
   1 -10   6  448.26   13.20
  -1 -10  -6  456.35   16.80
   1 -10   6  455.25   12.90
   1 -10   6  451.35   12.90
  -1  10  -6  458.65   15.90
   1  10   6  468.85   15.60
   2 -10   6    7.90    1.30
  -2 -10  -6    9.50    2.70
  -2 -10  -6    9.20    3.20
  -2  10  -6    4.30    2.40
   2  10   6   11.70    2.70
  -3 -10  -6   28.60    4.70
   3 -10   6   37.50    2.60
   3 -10   6   28.00    4.90
  -3  10  -6   35.70    4.40
   3  10   6   24.20    3.60
   4 -10   6   29.20    5.00
  -4 -10  -6   35.10    5.20
  -4  10  -6   27.80    4.00
   4  10   6   27.60    3.90
  -5 -10  -6   25.70    4.60
   5 -10   6   36.10    5.50
  -5  10  -6   30.80    4.40
  -6 -10  -6   50.69    6.20
   6 -10   6   48.30    6.40
  -6  10  -6   68.69    6.30
  -7 -10  -6   10.50    3.50
   7 -10   6    5.30    3.30
  -7  10  -6   10.00    3.00
   8 -10   6    1.10    2.70
  -8 -10  -6    0.10    2.40
  -8  10  -6   -2.10    2.20
   9 -10   6   -3.40    2.40
  -9 -10  -6    0.80    2.80
  -9  10  -6   -3.10    1.90
  10 -10   6   -2.00    3.20
 -10 -10  -6   -0.50    2.50
 -10  10  -6    2.60    2.70
  11 -10   6    2.40    3.40
 -11 -10  -6   -0.20    2.70
 -11  10  -6   -1.40    2.50
  12 -10   6    6.50    3.90
 -12 -10  -6   -0.40    3.10
 -12  10  -6    3.20    3.00
  13 -10   6    1.40    3.10
 -13 -10  -6    1.60    3.30
 -13  10  -6    3.80    3.60
  14 -10   6    0.60    3.50
 -14 -10  -6   -0.80    3.40
 -14  10  -6   -0.20    3.10
  15 -11  -6   -1.50    3.80
 -15  11   6    2.40    2.60
  14 -11  -6   15.50    5.50
 -14  11   6   17.60    4.00
  13 -11  -6  113.19   11.60
 -13  11   6  130.69    7.90
  12 -11  -6    1.40    3.70
 -12  11   6    3.40    2.70
  11 -11  -6    9.20    4.20
 -11  11   6    0.60    2.20
  10 -11  -6    3.80    3.40
 -10  11   6    6.30    2.70
   9 -11  -6  149.39   10.40
  -9  11   6  139.69    7.90
   8 -11  -6   29.00    5.60
   7 -11  -6   11.90    4.00
   6 -11  -6   19.10    4.60
   5 -11  -6  336.37   15.40
   5 -11  -6  332.47   14.90
  -5 -11   6  349.17   12.50
   5  11  -6  336.97   12.30
   4 -11  -6    7.50    3.40
   4 -11  -6   15.70    3.80
  -4 -11   6   12.00    2.40
  -4  11   6   10.50    1.80
   4  11  -6   10.40    2.40
  -3 -11   6  317.67   11.50
   3 -11  -6  342.77   14.80
   3 -11  -6  328.57   14.70
   3  11  -6  342.87   12.40
  -3  11   6  333.27   11.10
   2 -11  -6  347.47   14.80
   2 -11  -6  365.26   15.10
  -2 -11   6  343.67   11.60
   2  11  -6  349.37   12.80
  -2  11   6  328.07   11.60
   1 -11  -6    5.00    2.70
   1 -11  -6    1.80    2.60
  -1 -11   6    4.60    1.40
  -1  11   6    1.80    1.70
   1  11  -6   -1.30    1.70
   0 -11   6   60.19    3.30
   0 -11  -6   61.69    6.40
   0 -11  -6   57.39    6.40
   0  11   6   59.09    4.40
   0  11  -6   57.49    5.20
  -1 -11  -6    6.50    2.70
  -1 -11  -6    4.40    3.20
   1  11   6    5.20    2.10
  -1  11  -6    9.60    2.70
  -2 -11  -6    0.20    2.50
  -2 -11  -6   -0.30    2.10
  -2  11  -6    0.80    2.00
   2  11   6   -2.00    1.60
  -3 -11  -6    3.20    2.80
   3 -11   6   13.90    3.90
  -3  11  -6    2.50    2.30
   3  11   6    5.00    2.30
  -4 -11  -6  230.88   11.90
   4 -11   6  236.18   12.50
  -4  11  -6  246.28   10.90
   4  11   6  230.68   10.60
   5 -11   6   36.70    5.80
  -5 -11  -6   36.10    5.40
  -5  11  -6   36.60    4.70
   6 -11   6  191.78   11.50
  -6 -11  -6  212.08   11.50
  -6  11  -6  210.78   10.30
   7 -11   6    3.30    3.40
  -7 -11  -6    7.10    3.30
  -7  11  -6   10.40    3.20
  -8 -11  -6    0.30    3.00
   8 -11   6    1.40    3.00
  -8  11  -6    0.20    2.40
  -9 -11  -6    2.40    3.10
   9 -11   6    2.50    3.20
  -9  11  -6    0.00    2.50
 -10 -11  -6   -1.50    2.80
  10 -11   6   -0.40    3.10
 -10  11  -6    1.80    3.00
  11 -11   6    0.40    3.10
 -11 -11  -6   -1.00    2.70
 -11  11  -6   -1.90    2.50
 -12 -11  -6   13.30    4.40
  12 -11   6    2.10    3.60
 -12  11  -6   12.60    4.10
 -13 -11  -6    9.40    4.40
  13 -11   6    1.00    3.70
 -13  11  -6   17.60    4.60
  14 -12  -6   35.80    7.70
 -14  12   6   28.10    4.70
  13 -12  -6    7.90    5.00
 -13  12   6   10.20    3.50
  12 -12  -6   -4.10    3.00
 -12  12   6    3.40    2.80
  11 -12  -6    2.80    3.50
 -11  12   6    5.30    2.80
  10 -12  -6   14.30    4.80
   9 -12  -6   25.80    5.70
   8 -12  -6   59.59    8.00
   7 -12  -6   74.09    8.60
   6 -12  -6  185.58   11.00
   6 -12  -6  173.48   11.10
  -5 -12   6    6.80    2.30
   5 -12  -6    7.50    3.50
   5 -12  -6   12.20    3.80
   5  12  -6    9.40    2.60
   4 -12  -6  239.28   12.40
  -4 -12   6  231.38    9.70
   4 -12  -6  251.07   12.90
   4  12  -6  284.07   10.80
   3 -12  -6    1.30    2.70
   3 -12  -6    9.40    3.30
  -3 -12   6    1.20    1.50
   3  12  -6    2.30    2.10
  -2 -12   6    2.20    1.50
   2 -12  -6    4.50    3.10
   2 -12  -6    3.60    2.90
  -2  12   6    1.90    1.40
   2  12  -6   -1.70    1.60
   1 -12  -6   54.39    6.50
   1 -12  -6   48.00    6.20
  -1  12   6   56.59    4.00
   1  12  -6   60.29    5.50
   0 -12  -6    1.40    2.60
   0 -12  -6    2.00    2.50
   0  12  -6    0.00    2.00
   0  12   6    1.70    1.70
  -1 -12  -6    0.70    2.30
  -1 -12  -6    2.30    2.90
   1  12   6   -1.70    1.60
  -1  12  -6    4.30    2.40
  -2 -12  -6   57.19    6.70
   2  12   6   59.79    5.50
  -2  12  -6   58.79    5.80
  -3 -12  -6   31.40    5.20
  -3  12  -6   39.80    4.90
   3  12   6   46.50    4.90
  -4 -12  -6   61.09    7.10
   4 -12   6   78.39    8.70
  -4  12  -6   79.79    7.10
   4  12   6   71.99    6.50
   5 -12   6    0.60    3.00
  -5 -12  -6    0.80    2.60
   5  12   6    2.10    2.20
  -5  12  -6    0.30    2.40
  -6 -12  -6   63.99    7.30
   6 -12   6   52.49    7.20
   6  12   6   66.59    6.60
  -6  12  -6   62.99    6.50
   7 -12   6   -0.40    3.30
  -7 -12  -6    5.90    3.30
  -7  12  -6    9.60    3.40
  -8 -12  -6    1.00    3.00
   8 -12   6    1.30    3.50
  -8  12  -6    4.00    3.00
   9 -12   6   12.30    4.30
  -9 -12  -6    6.80    3.70
  -9  12  -6   19.20    4.50
 -10 -12  -6    0.10    3.10
  10 -12   6    3.70    3.70
 -10  12  -6    1.00    3.10
  11 -12   6   21.50    5.80
 -11 -12  -6   10.00    4.20
 -11  12  -6   10.40    3.90
  12 -12   6   30.60    6.40
 -12 -12  -6   21.40    5.50
 -12  12  -6   29.90    5.60
  13 -13  -6   23.90    6.90
 -13  13   6   25.70    4.60
  12 -13  -6   83.19   10.10
  11 -13  -6    1.70    3.50
  10 -13  -6   68.99    9.20
   9 -13  -6   23.90    5.90
   8 -13  -6  205.68   12.90
   7 -13  -6    0.80    2.70
   7 -13  -6    2.90    3.40
   6 -13  -6   14.30    4.20
  -6 -13   6   10.80    2.80
   6 -13  -6   16.40    4.90
   5 -13  -6   11.00    4.20
   5 -13  -6    9.20    3.60
  -5 -13   6    4.00    2.10
   4 -13  -6  433.06   18.80
  -4 -13   6  456.35   18.50
   4 -13  -6  443.76   18.30
   4  13  -6  404.96   15.40
   3 -13  -6   29.40    5.10
   3 -13  -6   31.00    5.60
   3  13  -6   24.20    3.90
   2 -13  -6    4.40    3.30
   2 -13  -6    5.60    3.50
   2  13  -6    5.40    2.50
   1 -13  -6   34.40    5.70
   1 -13  -6   29.80    5.20
   1  13  -6   32.10    4.40
   0 -13  -6    9.80    3.60
   0 -13  -6   12.50    3.90
   0  13  -6    6.40    2.80
  -1 -13  -6    2.00    2.90
  -1 -13  -6    4.70    2.90
  -1  13  -6    3.20    2.70
   1  13   6    1.40    1.90
  -2 -13  -6   -0.50    2.90
  -2  13  -6   -1.40    2.10
   2  13   6    1.60    2.10
  -3 -13  -6    2.60    3.00
  -3  13  -6    7.00    2.90
   3  13   6    0.10    2.10
  -4 -13  -6    1.70    2.90
   4 -13   6    2.20    3.60
   4  13   6    3.60    2.50
  -4  13  -6    2.70    2.70
   5 -13   6   -3.70    2.80
  -5 -13  -6   -0.50    2.70
  -5  13  -6   -3.20    2.30
   5  13   6   -2.20    2.10
  -6 -13  -6   11.40    4.10
   6 -13   6    6.50    4.40
  -6  13  -6   18.00    4.20
   6  13   6   17.50    3.80
   7 -13   6   20.80    5.60
  -7 -13  -6   25.80    5.30
   7  13   6   18.90    4.10
  -7  13  -6   24.60    4.80
   8 -13   6    3.90    4.20
  -8 -13  -6    7.90    3.80
  -8  13  -6   -0.40    3.00
  -9 -13  -6   -2.60    3.00
   9 -13   6    2.10    3.80
  -9  13  -6   -2.00    2.60
  10 -13   6   45.90    7.80
 -10 -13  -6   37.20    6.30
 -10  13  -6   46.70    6.60
  11 -14  -6   69.29    9.90
  10 -14  -6   -1.70    3.40
   9 -14  -6   16.30    4.60
   9 -14  -6   12.20    5.00
   8 -14  -6    0.40    3.30
   8 -14  -6    2.00    3.20
   7 -14  -6   80.49    9.50
  -7 -14   6   68.09    7.20
   7 -14  -6   80.59    8.80
   6 -14  -6   29.70    6.20
   6 -14  -6   26.00    5.50
   5 -14  -6   40.50    6.70
   5 -14  -6   26.30    5.40
   4 -14  -6   11.30    4.40
   4 -14  -6    9.40    3.60
   4  14  -6    5.60    2.60
   3 -14  -6   26.50    5.30
   3 -14  -6   34.50    6.00
   3  14  -6   23.50    4.00
   2 -14  -6    5.30    3.50
   2 -14  -6    9.20    3.80
   2  14  -6   12.70    3.20
   1 -14  -6    7.80    3.90
   1 -14  -6    7.80    3.70
   1  14  -6    0.80    2.20
   0 -14  -6  154.08   10.00
   0 -14  -6  130.79    9.50
   0  14  -6  135.19    8.20
  -1 -14  -6    3.80    3.50
  -1 -14  -6   -0.30    2.70
  -1  14  -6    6.40    2.80
  -2 -14  -6   -2.70    2.50
  -2  14  -6    7.90    3.10
  -3 -14  -6   25.40    5.10
  -3  14  -6   27.00    4.60
  -4 -14  -6   32.90    5.90
  -4  14  -6   28.10    4.80
   4  14   6   21.40    4.10
   5 -14   6   13.30    5.40
  -5 -14  -6    6.10    3.70
  -5  14  -6    6.80    3.40
   5  14   6   13.20    3.40
   6 -14   6   62.19    8.60
   6  14   6   54.39    6.30
  -6  14  -6   64.79    7.10
   7 -14   6   96.99   10.60
  -7 -14  -6   87.69    9.00
   7  14   6   75.39    7.60
  -7  14  -6   67.19    7.40
   8 -14   6    7.80    4.80
  -8 -14  -6   15.90    4.70
   8  14   6    6.20    3.10
  -8  14  -6    0.40    3.20
   8 -15  -6    1.10    3.90
   8 -15  -6    3.00    3.60
   7 -15  -6   -2.50    3.60
   7 -15  -6   -3.30    2.70
   6 -15  -6   11.70    4.30
   6 -15  -6   13.90    4.90
   5 -15  -6    1.10    2.90
   5 -15  -6   -3.80    3.30
   4 -15  -6   20.60    4.70
   4 -15  -6    8.90    4.30
   3 -15  -6    3.20    3.60
   3 -15  -6    4.70    3.30
   3  15  -6    1.10    2.60
   2 -15  -6   12.80    4.10
   2 -15  -6    2.50    3.40
   2  15  -6    4.30    3.10
   1 -15  -6    6.70    4.00
   1 -15  -6   13.80    4.30
   1  15  -6    5.20    2.90
   0 -15  -6   55.19    7.10
   0 -15  -6   55.39    7.40
   0  15  -6   54.79    6.20
  -1 -15  -6    8.90    4.00
  -1  15  -6    8.60    3.40
  -2 -15  -6   51.19    7.20
  -2  15  -6   53.19    6.20
  -3 -15  -6   12.30    4.40
  -3  15  -6    8.20    3.50
  -4 -15  -6   55.19    7.20
  -4  15  -6   44.20    6.10
  -5 -15  -6   40.30    6.40
  -5  15  -6   50.39    6.40
   6 -15   6    4.20    4.50
  -6 -15  -6    7.20    4.10
  -6  15  -6   13.30    4.20
   4 -16  -6   16.90    4.70
   4 -16  -6   15.00    5.20
   3 -16  -6  143.49   11.10
   3 -16  -6  129.99    9.80
   2 -16  -6    9.90    4.10
   2 -16  -6   24.80    6.00
   2  16  -6   22.90    4.30
   1 -16  -6    5.70    3.60
   1 -16  -6    3.60    4.00
   1  16  -6   -4.50    2.20
   0 -16  -6   34.20    6.20
   0  16  -6   34.90    5.40
  -1 -16  -6   40.40    6.80
  -1  16  -6   26.80    5.10
  20   0  -7    4.20    3.80
 -20   0   7    1.60    3.00
 -19   0   7    6.30    3.50
  19   0  -7   11.80    4.60
 -18   0   7   -3.20    2.50
 -17   0   7   92.19    7.00
 -16   0   7   -1.90    2.20
 -15   0   7   18.70    3.70
 -14   0   7    4.20    2.40
 -13   0   7  139.99    7.70
 -12   0   7    2.10    2.00
 -11   0   7    4.10    2.10
 -10   0   7    2.20    1.70
  -9   0   7  130.29    6.50
   9   0  -7  136.89    3.80
  -8   0   7   -2.10    1.10
   8   0  -7   -0.50    0.30
  -7   0   7  342.37   12.10
   7   0  -7  350.56    9.60
  -6   0   7   -1.00    1.20
   6   0  -7    0.00    0.40
  -5   0   7  777.12   23.10
  -4   0   7    0.00    1.20
  -4   0   7    0.00    0.80
  -3   0   7    1.30    1.10
  -3   0   7    1.40    1.00
   2   0  -7    0.40    1.10
  -2   0   7    1.10    1.00
  -2   0   7   -1.70    0.90
  -1   0   7 1809.62   50.19
  -1   0   7 1779.72   49.99
   1   0  -7 1824.42   49.60
   1   0  -7 1922.71   50.09
   0   0  -7   -0.50    1.00
   0   0   7    0.50    0.90
   0   0  -7    0.10    1.00
  -1   0  -7   57.89    3.40
   1   0   7   65.49    3.80
  -1   0  -7   65.59    4.20
   2   0   7   -0.40    0.80
  -2   0  -7   -1.00    1.10
  -2   0  -7    0.70    0.50
  -2   0  -7    0.70    1.20
   2   0   7   -1.60    1.00
   3   0   7  352.86   12.20
  -3   0  -7  368.96   12.30
   3   0   7  383.26   12.70
  -3   0  -7  372.46   10.20
  -3   0  -7  385.16   13.10
  -4   0  -7    0.50    1.40
  -4   0  -7   -1.00    1.10
   4   0   7   -0.90    1.20
   4   0   7    1.70    1.30
  -5   0  -7   37.20    4.00
   5   0   7   31.60    3.50
   5   0   7   34.30    3.60
  -5   0  -7   31.50    3.30
   6   0   7    0.10    0.50
   6   0   7   -1.10    1.10
  -6   0  -7    1.10    1.40
  -6   0  -7   -2.50    1.30
   7   0   7    2.50    0.80
  -7   0  -7    1.10    1.90
  -7   0  -7    0.30    1.40
   7   0   7    2.50    1.60
   8   0   7   -0.30    0.70
  -8   0  -7    1.60    1.70
  -8   0  -7   -1.10    1.80
   9   0   7  750.42   21.50
  -9   0  -7  767.42   24.30
  -9   0  -7  768.62   25.20
 -10   0  -7   -0.90    2.00
  10   0   7   -0.20    1.00
 -10   0  -7   -1.50    1.70
 -11   0  -7   14.80    3.40
 -11   0  -7   11.90    3.40
  11   0   7   12.00    2.00
 -12   0  -7    2.70    2.40
 -12   0  -7    0.30    2.70
  12   0   7   -0.40    1.30
 -13   0  -7   26.50    4.40
 -13   0  -7   22.60    4.40
 -14   0  -7   -1.00    2.40
 -14   0  -7    0.70    2.30
 -15   0  -7    4.70    3.00
 -15   0  -7    0.80    2.80
 -16   0  -7    1.00    3.00
 -16   0  -7    1.20    2.90
 -17   0  -7    2.40    3.40
 -17   0  -7    1.60    2.80
 -18   0  -7   -3.60    2.70
  20  -1  -7   15.20    5.20
 -20  -1   7   20.40    4.80
 -20   1   7   20.50    4.70
  19  -1  -7    7.80    4.30
 -19  -1   7    2.90    3.30
 -19   1   7    5.20    3.30
  18  -1  -7    3.50    3.80
 -18  -1   7    0.90    2.70
 -18   1   7    2.00    2.80
 -17  -1   7   22.90    4.50
  17  -1  -7   20.40    5.00
 -17   1   7   25.30    4.40
 -16  -1   7   12.50    3.40
 -16   1   7   11.20    3.30
 -15  -1   7    3.70    2.70
 -15   1   7    6.20    2.70
 -14  -1   7    6.50    2.70
 -14   1   7    3.50    2.40
 -13  -1   7   73.69    5.60
 -13   1   7   86.49    5.80
 -12  -1   7    1.20    1.90
  12  -1  -7    3.70    0.90
 -12   1   7    4.00    2.10
 -11  -1   7   -2.00    1.40
  11  -1  -7   -0.20    0.60
 -11   1   7    0.10    1.50
 -10  -1   7   83.99    5.40
  10  -1  -7   99.19    3.60
 -10   1   7   98.09    5.60
  -9  -1   7   76.19    5.00
   9  -1  -7   90.69    3.30
  -9   1   7   84.49    5.10
   8  -1  -7   78.19    2.90
  -8  -1   7   64.29    4.40
  -8   1   7   72.29    4.60
   8   1  -7   67.49    3.90
  -7  -1   7   95.19    5.10
   7  -1  -7   99.29    3.50
   7   1  -7   96.69    4.50
  -7   1   7   90.79    5.10
  -6  -1   7    1.00    1.00
   6  -1  -7   -0.20    0.50
  -6   1   7    1.60    1.30
   6   1  -7    1.80    0.50
  -5  -1   7    9.40    2.00
   5   1  -7    7.00    1.00
  -5   1   7    8.50    1.90
  -4  -1   7    2.60    1.30
  -4   1   7    0.70    1.00
  -4   1   7    1.60    1.10
   4   1  -7    1.60    0.80
  -3  -1   7  143.09    5.90
  -3  -1   7  135.09    5.90
  -3   1   7  142.39    6.20
  -3   1   7  151.88    6.00
   3   1  -7  137.19    5.30
  -2  -1   7  435.46   13.90
  -2  -1   7  446.26   14.20
   2   1  -7  458.05   13.70
   2   1  -7  454.75   14.00
  -2   1   7  429.36   14.00
  -2   1   7  462.25   14.50
  -1  -1   7  388.56   12.50
   1  -1  -7  376.96   12.40
  -1  -1   7  398.46   12.50
   1   1  -7  377.76   12.30
   1   1  -7  370.76   11.60
  -1   1   7  385.46   12.50
   1   1  -7  388.56   12.30
   0  -1   7  805.22   23.30
   0  -1  -7  783.22   23.30
   0   1  -7  803.72   23.40
   0   1  -7  811.52   23.20
   0   1  -7  800.22   22.60
   0   1   7  795.92   23.40
  -1  -1  -7   30.40    3.10
   1  -1   7   30.00    3.00
   1  -1   7   28.40    2.50
   1   1   7   32.90    3.10
  -1   1  -7   27.40    3.00
  -1   1  -7   33.10    3.00
  -1   1  -7   25.40    2.30
  -1   1  -7   25.30    1.90
   1   1   7   32.40    3.10
  -2  -1  -7  185.18    5.00
  -2  -1  -7  180.88    7.40
  -2  -1  -7  189.48    5.10
   2  -1   7  161.78    6.60
   2  -1   7  182.68    7.30
  -2   1  -7  185.58    7.70
  -2   1  -7  193.68    7.20
   2   1   7  170.08    7.40
  -2   1  -7  186.08    6.80
   2   1   7  182.88    7.40
  -2   1  -7  183.88    6.00
   3  -1   7  153.78    6.80
  -3  -1  -7  178.38    7.50
   3  -1   7  186.38    7.50
   3   1   7  196.98    7.80
  -3   1  -7  191.68    6.10
   3   1   7  177.48    7.50
  -3   1  -7  197.88    8.10
  -3   1  -7  189.78    7.10
   4  -1   7  688.93   21.30
  -4  -1  -7  698.93   21.50
   4  -1   7  731.93   21.20
   4   1   7  724.23   21.70
  -4   1  -7  703.53   19.50
  -4   1  -7  693.33   20.90
   4   1   7  683.83   21.60
  -4   1  -7  702.53   22.10
   5  -1   7   27.40    1.80
   5  -1   7   26.00    3.00
   5  -1   7   25.90    3.20
  -5  -1  -7   21.00    3.00
  -5   1  -7   21.60    3.20
  -5   1  -7   26.10    2.90
  -5   1  -7   24.30    1.70
   5   1   7   21.20    3.10
  -6  -1  -7  238.38   10.10
   6  -1   7  232.38    9.30
   6  -1   7  254.67    9.50
  -6  -1  -7  225.88    9.50
   6  -1   7  220.98    7.40
  -6   1  -7  233.78    9.10
   6   1   7  222.68    9.50
  -6   1  -7  229.18    9.90
  -7  -1  -7  419.36   14.80
  -7  -1  -7  396.46   15.10
   7  -1   7  412.16   14.40
   7  -1   7  408.86   12.40
   7   1   7  399.36   11.00
  -7   1  -7  415.66   14.20
  -7   1  -7  445.26   15.60
  -8  -1  -7  190.78    9.30
   8  -1   7  185.38    6.70
  -8  -1  -7  184.08    8.70
   8  -1   7  191.38    8.60
  -8   1  -7  185.38    8.20
  -8   1  -7  162.68    8.80
   8   1   7  180.58    5.70
  -9  -1  -7  100.79    6.40
  -9  -1  -7  101.19    6.90
   9  -1   7   92.79    4.60
   9  -1   7   92.49    6.00
  -9   1  -7   90.39    6.50
   9   1   7  101.29    3.90
  -9   1  -7  107.79    6.10
  10  -1   7   55.49    3.70
 -10  -1  -7   65.19    6.00
 -10  -1  -7   50.89    5.80
  10   1   7   62.69    3.20
 -10   1  -7   62.39    5.60
 -10   1  -7   61.79    6.10
  11  -1   7   34.70    3.40
 -11  -1  -7   25.70    4.60
 -11  -1  -7   35.80    4.60
 -11   1  -7   34.10    4.40
 -11   1  -7   27.20    4.50
 -12  -1  -7  233.48   11.00
 -12  -1  -7  228.18   11.30
  12  -1   7  208.28    8.70
 -12   1  -7  215.18   11.00
 -12   1  -7  227.48   10.50
 -13  -1  -7   -3.40    1.90
 -13  -1  -7   -0.40    2.50
  13  -1   7    0.50    1.70
 -13   1  -7    2.60    2.60
 -13   1  -7   -2.80    1.80
 -14  -1  -7   39.60    5.60
 -14  -1  -7   41.60    5.90
 -14   1  -7   42.90    5.90
 -14   1  -7   39.70    5.30
 -15  -1  -7    3.20    3.10
 -15  -1  -7    1.90    3.00
 -15   1  -7   12.40    3.70
 -15   1  -7    8.90    3.60
 -16  -1  -7    8.50    3.60
 -16  -1  -7   12.30    4.30
 -16   1  -7   12.20    4.00
 -16   1  -7    6.10    3.10
 -17  -1  -7   58.89    7.50
 -17  -1  -7   62.09    7.50
 -17   1  -7   64.39    7.20
 -17   1  -7   44.10    6.40
 -18  -1  -7   19.20    5.20
 -18   1  -7    9.10    4.20
  20  -2  -7   16.60    5.40
 -20  -2   7   17.80    4.80
 -20   2   7   11.50    3.90
  19  -2  -7   17.10    5.30
 -19  -2   7   13.20    4.10
 -19   2   7   11.30    3.70
 -18  -2   7   -0.10    2.70
  18  -2  -7    2.20    3.10
 -18   2   7    0.70    2.50
 -17  -2   7   -4.50    2.40
  17  -2  -7    1.00    3.20
 -17   2   7    5.60    2.80
  16  -2  -7   79.69    8.60
 -16  -2   7   56.99    6.50
 -16   2   7   89.09    6.40
 -15  -2   7   90.69    6.70
  15  -2  -7   78.19    8.40
 -15   2   7   88.79    6.30
  14  -2  -7   21.10    4.70
 -14  -2   7   25.60    4.30
 -14   2   7   29.30    2.10
 -14   2   7   26.30    3.90
 -13  -2   7   89.79    6.20
  13  -2  -7   92.99    7.30
 -13   2   7   71.29    5.50
  12  -2  -7   12.30    1.70
 -12  -2   7    9.60    2.50
 -12   2   7    9.60    2.50
  11  -2  -7   31.80    2.60
 -11  -2   7   22.90    3.40
 -11   2   7   31.50    3.80
 -10  -2   7   51.19    4.70
  10  -2  -7   48.70    2.70
 -10   2   7   56.49    4.90
   9  -2  -7    5.30    1.10
  -9  -2   7    4.10    1.90
   9   2  -7    2.70    1.40
  -9   2   7    5.20    2.00
   8  -2  -7  165.98    5.60
  -8  -2   7  155.28    7.20
  -8   2   7  159.68    7.30
   8   2  -7  174.08    6.70
   7  -2  -7  135.99    4.80
  -7  -2   7  132.79    6.20
  -7   2   7  135.69    6.30
   7   2  -7  132.09    5.40
  -6  -2   7   83.39    4.80
   6  -2  -7   91.19    3.60
   6   2  -7   93.09    2.90
   6   2  -7   94.99    4.10
  -6   2   7   82.89    4.80
  -5  -2   7   25.90    3.00
   5  -2  -7   23.30    1.90
   5   2  -7   22.90    1.50
  -5   2   7   24.50    2.90
  -4  -2   7  751.52   22.90
   4   2  -7  783.72   21.50
  -4   2   7  802.72   22.70
  -4   2   7  772.62   23.20
  -3  -2   7  147.59    6.40
  -3   2   7  163.68    6.80
  -3   2   7  166.68    6.50
   3   2  -7  166.58    5.90
  -2  -2   7   38.10    3.00
   2  -2  -7   46.60    3.00
  -2  -2   7   39.90    2.90
   2   2  -7   42.50    2.80
   2   2  -7   42.80    2.80
  -2   2   7   38.30    3.40
   2   2  -7   44.50    2.40
  -1  -2   7   23.50    2.50
  -1  -2   7   21.60    2.50
   1  -2  -7   21.20    2.80
   1  -2  -7   24.80    2.20
   1   2  -7   26.00    2.50
   1   2  -7   21.10    2.30
  -1   2   7   19.80    2.50
   1   2  -7   26.00    1.80
   0  -2   7 1222.28   33.50
   0  -2  -7 1143.59   32.30
   0  -2  -7 1174.98   33.90
   0  -2   7 1166.58   33.30
   0   2  -7 1243.08   33.30
   0   2  -7 1242.38   32.30
   0   2  -7 1189.58   33.60
   0   2   7 1162.88   33.70
   1  -2   7  601.94   16.90
  -1  -2  -7  572.94   18.30
   1  -2   7  563.44   17.70
  -1  -2  -7  585.64   16.20
   1   2   7  590.44   18.30
  -1   2  -7  598.84   17.60
  -1   2  -7  590.54   17.20
   1   2   7  587.24   18.20
  -1   2  -7  604.54   18.30
  -1   2  -7  577.94   16.80
   2  -2   7  148.99    5.80
  -2  -2  -7  155.88    4.40
  -2  -2  -7  166.98    7.10
   2  -2   7  155.98    6.50
  -2   2  -7  155.18    5.80
   2   2   7  158.78    6.90
  -2   2  -7  157.48    5.80
  -2   2  -7  148.69    6.10
  -2   2  -7  160.88    7.00
   2   2   7  159.48    6.90
   3  -2   7  200.28    7.90
  -3  -2  -7  200.08    8.40
  -3   2  -7  210.68    7.70
  -3   2  -7  198.28    8.40
   3   2   7  203.18    8.30
  -3   2  -7  207.88    7.10
   3   2   7  212.18    8.50
  -3   2  -7  197.98    7.20
   4  -2   7   49.60    3.30
   4  -2   7   51.19    3.60
  -4  -2  -7   44.40    4.20
  -4   2  -7   46.70    4.30
  -4   2  -7   41.00    3.00
  -4   2  -7   47.90    2.80
   4   2   7   42.70    4.20
   4   2   7   47.70    4.80
   5  -2   7    1.30    0.90
   5  -2   7    2.90    1.40
  -5  -2  -7    4.50    1.90
   5  -2   7    1.50    1.40
  -5   2  -7    0.40    1.10
   5   2   7    0.10    1.50
  -5   2  -7    1.60    1.70
  -5   2  -7    0.30    0.80
   6  -2   7    2.50    1.60
   6  -2   7    4.50    1.30
   6  -2   7    5.30    1.80
  -6  -2  -7    5.60    2.10
  -6   2  -7    1.10    1.70
  -6   2  -7    6.80    1.80
  -6   2  -7    6.70    1.50
  -7  -2  -7  112.49    6.50
   7  -2   7  103.69    4.90
   7  -2   7  114.09    6.00
  -7   2  -7  106.79    6.60
  -7   2  -7  112.69    5.70
  -8  -2  -7   55.59    5.60
   8  -2   7   61.29    3.70
   8  -2   7   56.89    4.90
  -8  -2  -7   49.80    5.00
  -8   2  -7   49.60    5.20
  -8   2  -7   58.59    4.30
   8   2   7   50.99    2.00
  -9  -2  -7  391.86   15.60
  -9  -2  -7  404.86   15.30
   9  -2   7  425.56   14.80
   9  -2   7  397.26   13.30
  -9   2  -7  416.56   14.60
   9   2   7  392.66   11.60
  -9   2  -7  411.96   15.80
  10  -2   7   57.89    5.30
 -10  -2  -7   38.50    5.30
  10  -2   7   57.89    3.90
 -10  -2  -7   52.09    5.70
 -10   2  -7   52.49    5.00
 -10   2  -7   48.20    5.60
  10   2   7   45.70    2.60
  11  -2   7   -1.50    1.60
 -11  -2  -7   -1.00    2.00
  11  -2   7    1.10    1.60
 -11  -2  -7   -1.90    2.00
 -11   2  -7    0.40    1.90
  11   2   7    0.30    0.90
 -11   2  -7   -0.30    2.30
 -12  -2  -7    2.40    2.50
  12  -2   7    3.80    1.90
 -12  -2  -7    0.00    2.30
 -12   2  -7    1.60    2.30
 -12   2  -7    1.50    2.50
 -13  -2  -7   28.70    5.10
 -13  -2  -7   35.90    5.30
  13  -2   7   36.20    4.00
 -13   2  -7   33.40    4.60
 -13   2  -7   34.40    5.20
 -14  -2  -7   15.10    4.40
 -14  -2  -7   11.80    3.60
 -14   2  -7   15.90    3.90
 -14   2  -7    9.60    3.20
 -15  -2  -7   -2.40    2.40
 -15  -2  -7   -0.40    2.70
 -15   2  -7    1.50    2.90
 -15   2  -7   -0.10    2.50
 -16  -2  -7   -0.40    2.90
 -16  -2  -7   -3.50    2.40
 -16   2  -7   -0.70    2.40
 -16   2  -7    1.30    3.10
 -17  -2  -7  100.29    9.50
 -17  -2  -7  102.49    9.60
 -17   2  -7  104.89    9.50
 -18  -2  -7    3.40    3.60
 -18   2  -7   -1.00    3.10
  20  -3  -7    3.40    4.40
 -20  -3   7    0.80    3.10
 -20   3   7    5.10    3.20
  19  -3  -7    3.10    3.80
 -19  -3   7    1.40    3.10
 -19   3   7   -2.20    2.90
  18  -3  -7    1.80    3.40
 -18  -3   7   -3.50    2.40
 -18   3   7    0.70    2.70
  17  -3  -7    5.60    3.60
 -17  -3   7   -3.80    2.50
 -17   3   7    8.80    3.30
  16  -3  -7   32.50    5.70
 -16   3   7   29.40    4.60
  15  -3  -7   53.99    7.00
 -15   3   7   64.69    3.50
 -15   3   7   51.99    5.50
  14  -3  -7   10.90    3.80
 -14   3   7    7.30    2.70
 -14   3   7   11.90    1.80
  13  -3  -7   12.80    3.90
 -13   3   7   12.60    1.80
 -13   3   7    9.30    2.70
  12  -3  -7   48.30    6.00
 -12  -3   7   45.80    4.80
 -12   3   7   42.40    2.80
 -12   3   7   44.10    4.60
  11  -3  -7    5.60    2.70
 -11  -3   7    9.80    2.50
 -11   3   7    8.50    2.40
 -10  -3   7   25.40    3.50
  10  -3  -7   30.50    4.50
 -10   3   7   34.50    3.90
   9  -3  -7    5.00    2.40
  -9  -3   7    2.70    1.40
   9   3  -7    3.00    1.50
  -9   3   7    3.50    1.80
   8  -3  -7    2.70    2.00
  -8  -3   7    6.70    1.80
  -8   3   7    7.90    1.90
   8   3  -7    4.40    1.50
   7  -3  -7  252.87   10.50
  -7  -3   7  246.68    9.50
   7   3  -7  243.98    8.50
  -7   3   7  245.28    9.50
   6  -3  -7  427.56   15.10
  -6  -3   7  434.96   14.30
   6   3  -7  426.96   13.00
   6   3  -7  427.76   11.80
  -6   3   7  434.36   14.30
   5  -3  -7   14.30    2.60
  -5  -3   7   20.60    2.50
   5   3  -7   17.30    1.30
   5   3  -7   15.80    1.60
  -5   3   7   12.80    2.20
  -5   3   7   16.10    2.20
   4  -3  -7  227.48    9.00
  -4  -3   7  237.98    7.80
  -4  -3   7  238.28    8.80
  -4   3   7  231.18    8.50
   4   3  -7  235.78    7.50
   4   3  -7  239.88    7.30
  -4   3   7  244.38    9.10
  -3  -3   7   70.39    4.00
  -3  -3   7   74.19    3.60
   3  -3  -7   73.29    4.30
  -3   3   7   71.49    4.00
  -3   3   7   67.99    4.10
   3   3  -7   75.49    3.50
  -2  -3   7   19.60    2.40
   2  -3  -7   22.50    2.50
   2  -3  -7   23.30    3.10
  -2   3   7   22.30    2.60
   2   3  -7   17.60    2.00
   2   3  -7   21.20    2.30
   2   3  -7   23.30    1.40
   1  -3  -7  158.68    6.10
   1  -3  -7  162.68    7.20
  -1  -3   7  156.28    6.20
  -1  -3   7  154.88    6.30
  -1   3   7  158.48    6.60
   1   3  -7  151.38    4.90
   1   3  -7  161.88    6.30
   1   3  -7  163.18    6.10
   0  -3  -7   -0.50    0.70
   0  -3   7    0.10    1.10
   0  -3  -7    2.10    1.50
   0  -3   7   -1.50    0.80
   0   3   7   -0.20    1.10
   0   3  -7   -1.40    1.00
   0   3  -7   -0.80    0.70
   0   3  -7   -0.50    0.50
   1  -3   7   23.20    1.70
  -1  -3  -7   24.40    3.10
  -1  -3  -7   22.20    1.70
   1  -3   7   21.10    2.40
  -1   3  -7   20.50    1.50
   1   3   7   22.10    3.00
   1   3   7   22.20    2.80
  -1   3  -7   17.70    2.50
  -1   3  -7   25.10    2.40
   2  -3   7  119.69    4.70
  -2  -3  -7  120.99    4.00
   2  -3   7  113.49    5.30
  -2  -3  -7  118.29    6.10
  -2   3  -7  120.09    5.10
   2   3   7  124.29    6.20
  -2   3  -7  124.39    6.00
  -2   3  -7  119.79    4.50
   2   3   7  122.49    6.00
   3  -3   7    5.50    1.30
  -3  -3  -7    1.70    1.60
   3  -3   7    5.50    1.50
  -3   3  -7    2.00    1.20
  -3   3  -7    3.00    1.60
  -3   3  -7    5.00    1.20
   3   3   7    6.40    1.90
   4  -3   7  152.18    6.60
  -4  -3  -7  189.68    8.00
   4  -3   7  158.58    6.40
  -4   3  -7  157.58    6.10
   4   3   7  143.49    7.00
  -4   3  -7  156.98    6.30
  -4   3  -7  150.58    7.40
   5  -3   7    4.30    1.40
   5  -3   7    4.20    1.50
  -5  -3  -7    1.40    1.40
   5  -3   7    3.70    1.50
  -5   3  -7    1.50    1.70
  -5   3  -7    4.20    1.50
   5   3   7    3.50    1.60
   6  -3   7  145.19    6.20
  -6  -3  -7  152.58    7.70
   6  -3   7  150.18    6.70
   6  -3   7  128.69    6.40
  -6   3  -7  152.08    6.40
  -6   3  -7  146.49    7.50
   7  -3   7  750.12   23.60
   7  -3   7  764.82   23.00
  -7  -3  -7  776.52   25.00
  -7   3  -7  810.32   23.40
  -7   3  -7  771.82   24.90
   8  -3   7  130.09    6.70
  -8  -3  -7  138.59    7.60
   8  -3   7  114.89    5.80
   8   3   7  123.59    3.90
  -8   3  -7  121.09    6.30
   8   3   7  130.69    4.00
  -8   3  -7  125.49    7.40
   9  -3   7  133.39    6.40
  -9  -3  -7  140.19    7.90
   9  -3   7  140.49    7.10
   9   3   7  127.99    4.50
  -9   3  -7  130.49    6.80
   9   3   7  127.49    4.50
  -9   3  -7  131.09    7.80
 -10  -3  -7  535.35   19.20
 -10  -3  -7  530.05   19.40
  10  -3   7  513.45   17.20
  10  -3   7  536.15   18.10
 -10   3  -7  544.45   19.30
  10   3   7  507.75   15.00
 -10   3  -7  519.35   17.70
  11  -3   7    7.40    2.30
 -11  -3  -7    5.40    2.80
 -11  -3  -7    1.50    2.50
  11  -3   7    9.20    2.60
 -11   3  -7    8.80    2.60
 -11   3  -7   10.10    3.20
  12  -3   7    6.10    2.40
  12  -3   7    5.90    2.30
 -12  -3  -7    5.20    2.90
 -12  -3  -7    2.40    2.70
 -12   3  -7    6.60    2.50
 -12   3  -7    6.00    2.90
 -13  -3  -7  104.39    8.00
  13  -3   7   96.39    7.00
 -13  -3  -7  110.89    8.00
  13  -3   7  119.19    6.80
 -13   3  -7  102.19    7.80
 -13   3  -7  132.69    7.60
 -14  -3  -7  137.39    9.20
 -14  -3  -7  120.59    9.10
  14  -3   7  144.09    8.50
 -14   3  -7  139.19    9.10
 -14   3  -7  143.69    8.40
  15  -3   7    0.40    2.00
 -15  -3  -7    2.20    2.80
 -15  -3  -7    2.40    3.00
 -15   3  -7    3.50    3.00
 -16  -3  -7    4.40    3.60
 -16  -3  -7    8.80    3.80
  16  -3   7    6.20    3.00
 -16   3  -7    5.70    3.50
 -17  -3  -7   -1.80    3.00
  17  -3   7    2.00    3.10
 -17  -3  -7   -4.00    2.40
 -17   3  -7    4.80    3.80
  20  -4  -7   38.60    8.00
 -20  -4   7   21.30    5.20
 -20   4   7   24.70    4.80
 -19  -4   7    0.40    2.80
  19  -4  -7    0.30    3.60
 -19   4   7    2.90    3.00
  18  -4  -7   10.60    4.30
 -18   4   7    1.40    2.50
  17  -4  -7   32.70    6.50
 -17   4   7   32.50    4.90
  16  -4  -7    3.30    3.70
 -16   4   7   14.20    3.40
  15  -4  -7   49.30    6.80
 -15   4   7   46.60    5.10
 -15   4   7   40.00    3.40
  14  -4  -7   56.89    7.00
 -14   4   7   54.29    3.50
 -14   4   7   50.69    5.40
  13  -4  -7    6.90    3.60
 -13   4   7   22.20    3.60
 -13   4   7   19.30    2.40
  12  -4  -7   14.30    3.70
 -12   4   7   15.20    3.10
 -12   4   7   14.10    2.10
  11  -4  -7    9.60    3.00
 -11   4   7    5.80    1.50
 -11   4   7    6.90    2.20
  10  -4  -7  212.08   10.60
 -10  -4   7  207.78    9.10
 -10   4   7  206.48    8.90
  -9  -4   7   28.60    3.50
   9  -4  -7   26.50    4.00
   9   4  -7   32.20    3.30
  -9   4   7   31.80    3.70
   8  -4  -7  402.26   15.60
  -8  -4   7  410.56   14.40
  -8   4   7  423.16   14.40
   8   4  -7  432.06   13.50
  -7  -4   7   47.60    2.10
   7  -4  -7   41.80    4.60
  -7  -4   7   45.60    3.50
   7   4  -7   37.90    2.80
  -7   4   7   53.19    3.80
  -6  -4   7   29.30    3.30
   6  -4  -7   29.60    3.80
  -6  -4   7   31.50    2.00
  -6   4   7   30.30    3.30
   6   4  -7   30.30    2.20
   6   4  -7   33.80    1.70
  -5  -4   7   70.39    4.10
   5  -4  -7   67.99    4.70
  -5  -4   7   65.49    3.20
  -5   4   7   59.29    4.00
  -5   4   7   66.29    3.80
   5   4  -7   62.59    2.80
   5   4  -7   65.09    3.00
  -4  -4   7    0.60    1.20
   4  -4  -7    0.40    1.30
  -4  -4   7    1.60    0.90
   4   4  -7    0.90    0.60
   4   4  -7   -0.20    0.70
  -4   4   7    0.30    1.00
   3  -4  -7   18.90    2.60
  -3  -4   7   13.10    2.10
   3   4  -7   15.60    1.00
  -3   4   7   15.50    2.30
   3   4  -7   17.00    1.90
   2  -4  -7 1138.59   33.00
   2  -4  -7 1130.69   31.80
  -2  -4   7 1104.19   31.40
   2   4  -7 1113.99   31.00
  -2   4   7 1088.89   31.60
  -1  -4   7   14.90    2.00
   1  -4  -7   13.60    2.00
   1  -4  -7   15.30    2.60
  -1  -4   7   19.30    2.40
   1   4  -7   15.60    2.00
   1   4  -7   15.90    2.10
  -1   4   7   16.20    2.30
   0  -4   7 1023.70   29.80
   0  -4  -7 1071.59   31.50
   0  -4   7 1052.09   29.90
   0  -4  -7 1066.39   29.80
   0   4   7 1064.49   30.70
   0   4  -7 1099.59   30.50
   0   4  -7 1079.99   29.60
   1  -4   7  272.17    8.00
   1  -4   7  272.27    9.30
  -1  -4  -7  274.37    8.90
  -1  -4  -7  270.47   10.70
   1   4   7  262.57   10.00
  -1   4  -7  275.97    9.00
   1   4   7  271.77    8.80
  -1   4  -7  275.57    7.80
  -1   4  -7  275.67   10.00
  -2  -4  -7    0.30    0.70
   2  -4   7    0.30    0.70
  -2  -4  -7    0.10    1.40
   2  -4   7   -0.30    0.90
   2   4   7    1.50    0.80
  -2   4  -7    0.90    0.90
  -2   4  -7    0.00    1.20
   2   4   7   -1.30    1.10
  -2   4  -7    0.70    0.60
   3  -4   7   95.89    4.10
   3  -4   7   96.29    4.70
  -3  -4  -7   83.69    5.50
  -3   4  -7   94.09    3.80
  -3   4  -7   95.29    4.30
  -3   4  -7   97.39    5.50
   3   4   7   92.99    3.60
   3   4   7   99.99    5.50
   4  -4   7  543.75   16.90
   4  -4   7  548.15   17.30
  -4  -4  -7  567.24   18.80
   4   4   7  571.34   18.20
   4   4   7  535.05   15.20
  -4   4  -7  530.35   18.10
  -4   4  -7  542.55   16.00
  -4   4  -7  556.94   16.40
   5  -4   7  452.75   14.90
  -5  -4  -7  458.95   16.50
   5  -4   7  481.15   14.80
   5  -4   7  477.15   15.30
  -5   4  -7  478.35   14.50
   5   4   7  465.65   13.00
  -5   4  -7  452.45   16.20
   5   4   7  464.35   16.10
  -5   4  -7  478.75   14.40
  -6  -4  -7  345.07   13.60
   6  -4   7  356.06   12.40
   6  -4   7  354.26   12.30
   6  -4   7  361.46   12.20
  -6   4  -7  331.97   13.30
   6   4   7  356.16   10.00
  -6   4  -7  372.76   11.80
  -6   4  -7  348.97   11.70
   7  -4   7    6.20    2.10
  -7  -4  -7    7.00    2.40
   7  -4   7    5.50    2.00
   7   4   7    9.40    1.10
  -7   4  -7    6.80    1.80
  -7   4  -7    8.40    2.50
   8  -4   7   21.10    3.00
   8  -4   7   13.30    2.60
  -8  -4  -7   20.40    3.70
  -8   4  -7   18.10    2.80
  -8   4  -7   17.50    3.50
   8   4   7   18.90    1.60
  -9  -4  -7  258.67   11.80
   9  -4   7  267.77   10.50
   9  -4   7  279.47   10.60
  -9   4  -7  253.67   10.10
  -9   4  -7  244.48   11.60
  10  -4   7   14.00    2.90
 -10  -4  -7    8.40    3.00
  10  -4   7   22.30    3.40
  10   4   7   15.40    1.70
 -10   4  -7   18.70    3.00
 -10   4  -7   21.20    4.10
 -11  -4  -7  178.88    9.80
  11  -4   7  176.38    8.40
 -11  -4  -7  181.68    9.90
  11  -4   7  176.98    8.40
 -11   4  -7  160.18    9.40
 -11   4  -7  161.28    8.30
 -12  -4  -7    4.00    2.80
 -12  -4  -7    8.00    3.30
  12  -4   7    5.20    2.50
  12  -4   7    7.20    2.40
 -12   4  -7    9.60    3.40
 -13  -4  -7  283.67   13.70
  13  -4   7  290.87   12.30
  13  -4   7  291.67   12.40
 -13  -4  -7  295.27   13.90
 -13   4  -7  311.27   14.10
 -14  -4  -7   12.60    3.80
 -14  -4  -7   10.50    3.90
  14  -4   7   14.10    3.40
  14  -4   7   15.40    3.50
 -14   4  -7   19.40    4.40
 -15  -4  -7    5.20    3.30
  15  -4   7    6.30    2.90
 -15  -4  -7   10.20    3.80
 -15   4  -7   -1.70    2.60
 -16  -4  -7    7.40    3.70
 -16  -4  -7    2.10    3.40
  16  -4   7    3.70    2.90
 -16   4  -7    1.80    3.40
  17  -4   7   50.99    6.30
 -17  -4  -7   46.90    6.80
 -17   4  -7   47.30    6.60
  19  -5  -7    4.40    4.40
 -19   5   7    0.10    2.90
  18  -5  -7    8.00    4.50
 -18   5   7    3.20    3.00
  17  -5  -7    0.00    3.50
 -17   5   7    1.80    2.20
  16  -5  -7    2.80    3.40
 -16   5   7    1.50    2.40
  15  -5  -7    1.20    3.20
 -15   5   7    7.20    2.90
 -15   5   7    4.00    1.80
  14  -5  -7   56.29    7.30
 -14   5   7   55.29    3.90
 -14   5   7   64.89    5.90
  13  -5  -7  173.08   10.90
 -13   5   7  185.38    7.40
 -13   5   7  179.78    8.60
  12  -5  -7  174.68   10.70
 -12   5   7  190.68    8.80
 -12   5   7  199.28    7.60
  11  -5  -7    8.10    3.20
 -11   5   7    4.50    2.00
 -11   5   7    2.20    1.40
  10  -5  -7    0.70    2.20
 -10   5   7   -1.10    0.90
 -10   5   7   -1.90    1.30
  -9  -5   7  426.96   11.90
   9  -5  -7  413.36   16.70
   9   5  -7  443.36   14.30
  -9   5   7  444.16   14.90
   8  -5  -7  727.03   23.80
  -8  -5   7  695.23   19.10
  -8  -5   7  671.43   21.70
   8   5  -7  696.03   20.60
  -8   5   7  666.43   21.30
  -7  -5   7    0.00    1.30
  -7  -5   7    0.90    0.80
   7  -5  -7   -0.70    1.70
   7   5  -7    1.40    1.00
   7   5  -7    0.30    0.60
  -7   5   7    0.90    1.40
   6  -5  -7  205.98    9.50
  -6  -5   7  208.88    7.10
  -6  -5   7  209.28    8.40
   6   5  -7  201.18    7.10
   6   5  -7  208.78    6.60
  -6   5   7  204.18    8.30
   5  -5  -7  230.38   10.10
  -5  -5   7  243.48    9.20
  -5  -5   7  249.18    8.30
  -5   5   7  248.18    8.80
   5   5  -7  251.67    7.90
   5   5  -7  240.18    7.70
  -4  -5   7 1520.15   44.00
   4  -5  -7 1613.14   45.40
   4   5  -7 1591.44   42.90
  -4   5   7 1642.44   43.90
   4   5  -7 1595.84   42.10
  -3  -5   7   61.09    3.70
   3  -5  -7   57.89    4.20
  -3   5   7   67.09    3.90
   3   5  -7   54.89    3.20
   2  -5  -7  144.49    6.50
  -2  -5   7  144.89    6.00
   2  -5  -7  139.59    7.20
  -2   5   7  144.89    6.30
   2   5  -7  132.99    5.70
  -1  -5   7  639.24   18.20
   1  -5  -7  583.74   18.40
   1  -5  -7  602.94   19.80
  -1   5   7  597.44   18.60
   1   5  -7  581.74   18.10
   0  -5  -7  590.24   18.40
   0  -5  -7  608.84   20.00
   0  -5   7  593.14   18.10
   0   5  -7  622.44   18.80
   0   5   7  616.84   19.10
   0   5  -7  634.74   17.80
  -1  -5  -7  484.55   15.00
   1  -5   7  496.05   15.00
   1  -5   7  490.25   14.90
  -1  -5  -7  473.95   16.80
   1  -5   7  486.05   13.20
  -1   5  -7  496.55   16.00
   1   5   7  486.95   16.10
  -1   5  -7  513.75   14.60
   2  -5   7   88.09    4.30
  -2  -5  -7   93.39    5.90
   2  -5   7   97.69    3.60
  -2  -5  -7   92.69    4.20
  -2   5  -7   87.99    4.00
  -2   5  -7   89.79    5.20
   2   5   7   90.79    5.30
   2   5   7   94.79    4.30
   3  -5   7  598.74   19.00
   3  -5   7  609.14   17.10
  -3  -5  -7  590.14   19.90
   3  -5   7  602.54   17.90
   3   5   7  588.64   19.20
  -3   5  -7  575.44   17.20
   3   5   7  601.84   17.30
  -3   5  -7  592.24   19.30
   4  -5   7   14.40    2.60
   4  -5   7   15.00    2.10
  -4  -5  -7   15.40    3.10
   4  -5   7   11.40    1.70
   4   5   7   14.40    2.80
  -4   5  -7   16.60    2.80
   4   5   7   17.60    1.90
  -4   5  -7   14.90    1.80
  -5  -5  -7   16.60    3.30
   5  -5   7   19.00    2.40
   5  -5   7   20.50    2.40
   5  -5   7   20.60    3.00
   5   5   7   24.20    2.10
  -5   5  -7   19.40    2.20
  -5   5  -7   19.30    3.10
   6  -5   7  121.79    5.70
   6  -5   7  121.09    6.40
   6  -5   7  122.69    5.70
  -6  -5  -7  102.79    6.90
  -6   5  -7  124.79    5.20
  -6   5  -7  115.39    6.80
   6   5   7  123.09    4.60
   7  -5   7   16.00    2.50
   7  -5   7   17.70    3.00
   7  -5   7   18.30    3.00
  -7  -5  -7   23.60    3.90
  -7   5  -7   21.40    2.40
  -7   5  -7   18.60    3.40
   7   5   7   21.30    2.00
   8  -5   7   42.90    4.00
   8  -5   7   53.89    5.00
  -8  -5  -7   63.09    6.20
  -8   5  -7   49.30    5.30
   9  -5   7   28.50    3.90
  -9  -5  -7   22.00    3.90
   9  -5   7   31.20    3.50
  -9   5  -7   26.10    4.30
  10  -5   7   71.99    5.40
  10  -5   7   68.39    5.00
 -10  -5  -7   69.99    7.00
 -10   5  -7   79.39    7.10
  11  -5   7   12.30    3.00
  11  -5   7    4.80    2.20
 -11  -5  -7    2.70    2.80
 -11   5  -7    5.10    2.80
  12  -5   7   88.59    6.40
  12  -5   7   72.69    6.20
 -12  -5  -7   65.89    7.20
 -12   5  -7   83.79    7.70
 -13  -5  -7   -0.50    2.70
  13  -5   7    0.90    2.50
  13  -5   7    1.90    2.10
 -13  -5  -7    4.30    3.10
 -13   5  -7    2.80    2.90
  14  -5   7   19.10    3.70
  14  -5   7   15.70    3.70
 -14  -5  -7   14.80    4.20
 -14  -5  -7   11.30    3.90
 -14   5  -7   12.50    4.00
  15  -5   7    1.70    2.30
 -15  -5  -7    4.30    3.30
 -15  -5  -7    2.80    2.90
 -15   5  -7   -1.60    2.80
 -16  -5  -7   -0.80    3.20
 -16  -5  -7   -0.60    3.30
 -16   5  -7    2.20    3.20
 -17  -5  -7   67.39    8.30
 -17   5  -7   72.79    8.00
  19  -6  -7    0.20    4.10
  18  -6  -7   -7.70    3.10
 -18   6   7   -3.10    2.40
  17  -6  -7   76.79    9.60
 -17   6   7   61.69    6.30
  16  -6  -7    0.00    3.20
 -16   6   7    0.50    1.60
 -16   6   7   -1.70    2.10
  15  -6  -7    3.00    3.40
 -15   6   7    2.00    1.80
 -15   6   7    3.00    2.40
  14  -6  -7   -0.50    3.00
 -14   6   7    1.10    2.10
 -14   6   7   -1.20    1.40
  13  -6  -7   -1.20    2.80
 -13   6   7    4.30    2.10
 -13   6   7    2.70    1.70
  12  -6  -7   32.10    5.50
 -12   6   7   35.50    3.50
 -12   6   7   38.70    4.30
  11  -6  -7   81.69    8.20
 -11   6   7   90.39    5.00
 -11   6   7   94.69    5.80
 -10  -6   7    4.30    1.00
  10  -6  -7    1.00    2.60
 -10   6   7    0.00    1.60
 -10   6   7    0.30    1.40
  -9  -6   7   33.50    2.10
   9  -6  -7   39.60    5.30
  -9   6   7   39.30    4.00
   9   6  -7   32.60    3.40
  -8  -6   7   -0.30    1.50
  -8  -6   7    0.30    0.80
   8  -6  -7    0.00    2.00
   8   6  -7   -0.20    1.00
  -8   6   7    1.30    1.50
   7  -6  -7  114.09    7.40
  -7  -6   7  128.59    6.30
  -7  -6   7  135.89    5.20
   7   6  -7  128.99    4.70
  -7   6   7  121.49    6.20
   7   6  -7  125.39    5.40
  -6  -6   7  140.29    6.60
   6  -6  -7  138.19    7.80
   6   6  -7  136.29    5.30
   6   6  -7  143.09    5.20
   5  -6  -7  145.89    7.90
  -5  -6   7  159.08    6.90
   5   6  -7  151.88    5.70
   5   6  -7  169.28    5.50
  -5   6   7  148.29    6.20
   4  -6  -7    3.80    1.90
  -4  -6   7    4.00    1.50
   4   6  -7    8.00    1.50
   4   6  -7    6.30    0.80
  -4   6   7    6.40    1.60
  -3  -6   7  306.67   10.70
   3  -6  -7  314.67   11.90
   3   6  -7  315.47   10.30
  -3   6   7  302.67   10.60
   2  -6  -7  100.59    5.70
  -2  -6   7  113.29    5.10
   2  -6  -7  115.29    6.60
  -2   6   7   99.09    5.20
   2   6  -7  110.39    5.00
  -1  -6   7   16.70    2.10
   1  -6  -7   13.40    2.40
   1  -6  -7   22.00    3.30
   1   6  -7   17.80    2.40
  -1   6   7   13.90    2.30
   0  -6  -7    0.30    1.20
   0  -6  -7    0.60    1.60
   0  -6   7   -0.20    0.90
   0   6   7   -0.20    1.20
   0   6  -7    0.30    1.30
  -1  -6  -7   -0.40    1.70
   1  -6   7    2.10    1.10
  -1  -6  -7    2.60    1.30
  -1   6  -7    1.70    1.40
   1   6   7    2.10    1.60
   2  -6   7  441.96   13.80
  -2  -6  -7  457.05   14.30
  -2  -6  -7  434.86   16.20
   2  -6   7  453.05   12.60
  -2   6  -7  463.15   15.40
  -2   6  -7  448.46   13.30
   2   6   7  457.85   15.40
   3  -6   7  190.08    6.40
   3  -6   7  191.08    7.00
  -3  -6  -7  204.68    9.40
   3  -6   7  189.28    8.60
   3   6   7  199.88    8.60
  -3   6  -7  182.08    6.40
  -3   6  -7  186.38    8.40
   4  -6   7    8.80    2.40
  -4  -6  -7    2.30    2.10
   4  -6   7    5.50    1.30
   4  -6   7    3.80    1.40
  -4   6  -7    7.20    1.20
   4   6   7    3.40    1.90
  -4   6  -7    5.50    2.10
   5  -6   7  116.59    6.60
   5  -6   7  120.69    5.20
   5  -6   7  103.09    5.10
  -5  -6  -7  119.49    7.20
  -5   6  -7  117.49    4.50
  -5   6  -7  114.29    6.60
   6  -6   7  161.98    8.10
   6  -6   7  149.49    6.60
   6  -6   7  162.48    6.60
  -6  -6  -7  155.18    8.70
  -6   6  -7  156.98    5.80
  -6   6  -7  154.78    8.00
  -7  -6  -7  240.38   11.10
   7  -6   7  205.28    8.40
   7  -6   7  224.98    9.00
   7  -6   7  236.78   10.30
  -7   6  -7  219.58    7.70
  -7   6  -7  241.08   10.60
   8  -6   7   18.00    2.60
   8  -6   7   19.80    3.50
  -8  -6  -7   24.40    4.30
  -8   6  -7   18.90    3.60
   9  -6   7   84.09    5.00
   9  -6   7   84.59    5.90
  -9  -6  -7   81.99    7.60
  -9   6  -7   83.89    6.20
 -10  -6  -7   91.49    8.10
  10  -6   7   89.89    6.50
  10  -6   7   94.79    5.50
 -10   6  -7   87.59    7.60
  11  -6   7    8.60    2.40
  11  -6   7   17.80    3.70
 -11  -6  -7   10.10    3.60
 -11   6  -7   18.20    4.10
  12  -6   7    9.80    2.60
 -12  -6  -7   -1.80    2.70
  12  -6   7    6.80    2.90
 -12   6  -7    9.20    3.50
 -13  -6  -7  160.48   10.10
  13  -6   7  130.89    8.50
  13  -6   7  145.79    7.70
 -13   6  -7  151.18    9.40
 -14  -6  -7   55.99    6.90
 -14  -6  -7   53.29    7.00
  14  -6   7   47.80    5.90
 -14   6  -7   47.10    6.30
 -15  -6  -7    5.70    3.60
 -15  -6  -7   -1.30    2.70
 -15   6  -7    2.90    3.30
 -16  -6  -7    3.10    3.80
 -16  -6  -7    4.80    4.30
 -16   6  -7    2.10    3.40
  18  -7  -7   16.40    5.70
  17  -7  -7   10.00    4.70
  16  -7  -7  137.19   11.00
 -16   7   7  127.39    6.80
 -16   7   7  129.99    7.70
  15  -7  -7   -0.10    3.10
 -15   7   7    2.20    2.10
 -15   7   7    4.20    2.00
  14  -7  -7   18.60    4.90
 -14   7   7   12.20    2.70
 -14   7   7   19.30    3.30
  13  -7  -7   35.90    6.20
 -13   7   7   33.90    4.20
 -13   7   7   31.90    3.80
  12  -7  -7  179.88   11.10
 -12   7   7  191.38    8.20
 -12   7   7  181.48    8.50
  11  -7  -7   63.59    7.50
 -11   7   7   77.09    4.90
 -11   7   7   68.49    5.00
  10  -7  -7   94.29    7.70
 -10   7   7   93.19    5.30
 -10   7   7  103.99    5.80
   9  -7  -7  334.77   14.90
   9   7  -7  341.47   12.00
  -9   7   7  345.17   12.40
   8  -7  -7   29.50    4.80
   8   7  -7   25.60    2.80
  -7  -7   7  141.69    6.80
   7  -7  -7  127.99    8.10
   7   7  -7  127.89    5.50
   7   7  -7  128.69    5.10
  -6  -7   7    3.70    1.70
   6  -7  -7    9.50    3.00
   6   7  -7    6.20    1.30
   6   7  -7    5.60    1.40
   5  -7  -7  115.89    7.10
  -5  -7   7  101.69    5.50
   5   7  -7  110.39    4.80
   5   7  -7  114.09    4.20
  -5   7   7  102.79    4.90
   4  -7  -7  131.89    7.40
  -4  -7   7  135.09    6.20
   4   7  -7  140.49    5.70
  -4   7   7  138.49    5.90
  -3  -7   7    5.50    1.60
   3  -7  -7    2.80    2.10
   3  -7  -7    3.50    2.20
  -3   7   7    3.00    1.50
   3   7  -7    6.00    1.60
   2  -7  -7   70.09    4.90
   2  -7  -7   68.59    5.20
  -2  -7   7   69.19    4.00
   2   7  -7   68.29    4.00
  -2   7   7   66.29    4.20
   1  -7  -7   18.90    3.50
   1  -7  -7   28.70    3.60
  -1  -7   7   22.90    2.50
  -1   7   7   17.50    2.70
   1   7  -7   26.20    2.90
   0  -7  -7   58.19    4.20
   0  -7   7   46.10    3.00
   0  -7  -7   55.09    5.40
   0   7  -7   50.19    3.70
   0   7   7   56.39    4.10
   1  -7   7   44.90    2.80
  -1  -7  -7   50.09    5.30
  -1  -7  -7   48.80    3.60
   1   7   7   43.30    4.10
  -1   7  -7   47.20    4.30
  -2  -7  -7    1.20    2.00
   2  -7   7    0.60    0.50
  -2  -7  -7    0.60    1.30
  -2   7  -7    0.10    1.50
   2   7   7    1.20    1.60
   3  -7   7  101.39    6.40
   3  -7   7  101.09    4.50
   3  -7   7  107.79    4.10
  -3  -7  -7  112.39    7.00
   3   7   7   96.29    5.90
  -3   7  -7  114.09    6.20
   4  -7   7    3.30    1.10
   4  -7   7    2.80    1.20
   4  -7   7    1.90    2.10
  -4  -7  -7    4.40    2.40
   4   7   7    2.10    1.80
  -4   7  -7    1.40    1.70
   5  -7   7   44.70    3.00
   5  -7   7   49.60    3.10
   5  -7   7   40.90    4.90
  -5  -7  -7   33.50    4.80
  -5   7  -7   51.59    5.00
  -5   7  -7   47.20    2.30
  -6  -7  -7   60.69    6.30
   6  -7   7   57.19    3.70
   6  -7   7   54.59    5.60
   6  -7   7   56.29    3.50
  -6   7  -7   58.89    2.70
  -6   7  -7   53.09    5.40
   7  -7   7    5.10    2.50
   7  -7   7    3.40    1.40
  -7  -7  -7    6.70    2.80
   7  -7   7    3.20    1.70
  -7   7  -7    7.80    2.60
   8  -7   7   54.39    3.60
  -8  -7  -7   46.10    5.80
   8  -7   7   43.40    5.30
  -8   7  -7   48.70    5.50
  -9  -7  -7  132.09    8.50
   9  -7   7  119.19    7.60
   9  -7   7  123.89    6.00
  -9   7  -7  120.69    7.80
 -10  -7  -7   10.70    3.70
  10  -7   7   12.00    2.40
  10  -7   7    9.80    3.20
 -10   7  -7    7.30    3.20
  11  -7   7   27.20    3.40
  11  -7   7   28.10    4.60
 -11  -7  -7   21.80    4.40
 -11   7  -7   26.80    4.70
  12  -7   7   -0.50    2.20
 -12  -7  -7    4.50    3.20
 -12   7  -7    4.60    3.10
  13  -7   7    0.30    2.60
 -13  -7  -7   -3.10    2.50
 -13   7  -7    0.40    2.80
 -14  -7  -7   -2.10    3.00
  14  -7   7    1.40    2.60
 -14   7  -7   -0.30    2.80
 -15  -7  -7    7.60    3.80
 -15  -7  -7    5.20    3.50
  15  -7   7    3.10    3.50
 -15   7  -7    6.60    3.80
 -16  -7  -7  143.99   10.70
 -16   7  -7  150.68   10.50
  18  -8  -7   77.19   10.30
  17  -8  -7   34.00    7.20
  16  -8  -7   11.10    4.70
 -16   8   7    9.40    2.70
  15  -8  -7   19.60    5.60
 -15   8   7   30.10    4.00
  14  -8  -7   26.90    6.00
 -14   8   7   28.10    3.90
 -14   8   7   30.70    4.00
  13  -8  -7   90.49    9.40
 -13   8   7   63.99    5.10
 -13   8   7   86.09    5.60
  12  -8  -7   28.80    5.50
 -12   8   7   25.60    3.60
 -12   8   7   30.90    3.70
  11  -8  -7    4.90    3.40
 -11   8   7    2.60    1.80
 -11   8   7    0.80    1.70
  10  -8  -7   96.59    9.10
   9  -8  -7    4.00    3.00
   9   8  -7    9.50    2.10
   8  -8  -7  339.77   14.90
   8   8  -7  320.37   11.30
   7  -8  -7   52.09    6.10
  -7  -8   7   41.80    4.30
   7   8  -7   52.89    3.20
   7   8  -7   51.69    3.30
  -6  -8   7  176.18    7.80
   6  -8  -7  150.58    9.00
   6   8  -7  172.88    6.60
   6   8  -7  170.68    6.20
   5  -8  -7   13.60    3.40
  -5  -8   7   10.40    2.40
  -5   8   7   13.30    2.00
   5   8  -7   14.30    1.50
   5   8  -7   14.30    2.10
  -4  -8   7  134.49    6.20
   4  -8  -7  127.19    7.60
  -4   8   7  125.49    5.70
   4   8  -7  127.39    5.70
   3  -8  -7  682.03   23.50
  -3  -8   7  684.53   20.90
   3  -8  -7  692.13   23.00
   3   8  -7  710.83   20.90
  -3   8   7  700.73   20.90
   2  -8  -7  319.47   12.50
   2  -8  -7  302.07   13.10
  -2  -8   7  314.47   10.70
  -2   8   7  298.37   10.90
   2   8  -7  306.07   10.90
  -1  -8   7  202.38    7.40
   1  -8  -7  186.38    8.80
   1  -8  -7  178.78    9.40
   1   8  -7  184.08    7.90
  -1   8   7  202.58    8.20
   0  -8  -7   -0.30    1.60
   0  -8  -7   -1.60    2.00
   0  -8   7    1.40    1.10
   0   8  -7    0.90    1.60
   0   8   7   -0.90    1.40
   1  -8   7   31.30    2.70
  -1  -8  -7   32.20    3.70
  -1  -8  -7   31.00    4.50
   1   8   7   35.50    4.00
  -1   8  -7   31.10    3.60
  -2  -8  -7   37.00    3.80
   2  -8   7   29.30    1.50
   2  -8   7   30.00    1.50
  -2  -8  -7   26.70    4.30
   2   8   7   35.80    4.00
  -2   8  -7   29.90    3.70
   3  -8   7   64.99    3.00
   3  -8   7   68.99    6.50
  -3  -8  -7   65.29    6.40
  -3   8  -7   72.59    5.10
   3   8   7   65.79    5.70
   4  -8   7  194.98    9.90
   4  -8   7  191.78    6.90
  -4  -8  -7  212.18   10.40
   4   8   7  208.38    9.40
  -4   8  -7  193.68    9.20
   5  -8   7  666.93   18.90
  -5  -8  -7  693.33   23.50
   5  -8   7  619.14   22.40
   5  -8   7  653.93   19.30
   5   8   7  630.14   21.80
  -5   8  -7  669.13   22.00
   6  -8   7    5.10    1.60
   6  -8   7    4.90    1.30
  -6  -8  -7   12.40    3.40
   6  -8   7    4.20    2.50
  -6   8  -7    2.80    2.20
  -7  -8  -7   14.70    3.80
   7  -8   7   25.00    4.30
   7  -8   7   21.90    2.30
  -7   8  -7   24.20    4.10
   8  -8   7    7.10    1.70
  -8  -8  -7    6.80    3.10
   8  -8   7   10.60    3.30
  -8   8  -7    8.40    3.10
   9  -8   7  135.19    8.50
  -9  -8  -7  138.09    9.10
  -9   8  -7  116.39    8.00
 -10  -8  -7    4.80    3.10
  10  -8   7    1.20    2.90
 -10   8  -7    0.50    2.50
 -11  -8  -7   23.80    4.90
  11  -8   7   16.20    4.30
 -11   8  -7   17.20    4.20
  12  -8   7    7.30    3.30
 -12  -8  -7    7.60    3.70
 -12   8  -7    4.70    3.30
 -13  -8  -7   31.00    5.60
  13  -8   7   31.40    5.50
 -13   8  -7   32.60    5.50
  14  -8   7    0.60    2.90
 -14  -8  -7   -2.50    2.80
 -14   8  -7   -1.10    2.70
  15  -8   7    2.70    3.30
 -15   8  -7    6.10    3.80
  17  -9  -7    6.60    5.10
  16  -9  -7   42.30    7.80
 -16   9   7   53.79    5.40
  15  -9  -7    7.10    4.50
 -15   9   7    7.20    2.90
  14  -9  -7    6.10    4.30
 -14   9   7    6.90    2.70
  13  -9  -7    7.50    4.20
 -13   9   7    4.30    2.30
  12  -9  -7   23.10    5.30
 -12   9   7   26.70    3.80
 -11  -9   7    6.90    2.20
  11  -9  -7    8.60    3.70
 -11   9   7    5.60    2.30
  10  -9  -7   16.00    4.50
 -10  -9   7   19.10    2.80
   9  -9  -7   27.90    5.30
  -9  -9   7   32.20    3.20
   8  -9  -7  285.87   14.00
  -8  -9   7  302.37   10.10
  -7  -9   7   31.60    2.60
   7  -9  -7   28.80    4.90
  -7  -9   7   27.90    3.60
  -6  -9   7   39.30    2.40
   6  -9  -7   38.50    5.40
  -6  -9   7   49.90    4.60
   6   9  -7   39.60    2.70
   6   9  -7   40.80    3.40
   5  -9  -7   95.99    7.00
  -5  -9   7   95.99    5.50
  -5   9   7  103.29    4.80
   5   9  -7   94.49    5.00
  -4  -9   7  128.39    6.00
   4  -9  -7  116.79    7.40
   4  -9  -7   89.79    7.90
  -4   9   7  114.19    5.40
   4   9  -7  111.39    5.60
   3  -9  -7   59.09    6.00
   3  -9  -7   52.29    6.00
  -3  -9   7   62.49    4.00
  -3   9   7   56.29    3.90
   3   9  -7   64.99    4.20
   2  -9  -7  189.38    9.50
  -2  -9   7  188.38    7.60
   2  -9  -7  215.38   10.50
   2   9  -7  194.18    8.20
  -2   9   7  209.78    8.20
   1  -9  -7    0.90    1.70
   1  -9  -7   -1.80    2.30
  -1  -9   7    1.20    1.20
   1   9  -7    0.70    1.50
  -1   9   7   -1.30    1.30
   0  -9  -7  729.93   24.70
   0  -9  -7  721.13   23.50
   0  -9   7  736.23   21.10
   0   9   7  716.03   22.60
   0   9  -7  721.83   22.60
   1  -9   7   79.69    3.80
  -1  -9  -7   81.39    7.30
  -1  -9  -7   76.79    5.50
   1   9   7   87.99    5.50
  -1   9  -7   74.09    5.10
   2  -9   7   31.00    1.50
  -2  -9  -7   27.10    3.70
  -2  -9  -7   37.00    5.10
   2  -9   7   31.80    1.50
  -2   9  -7   27.20    3.80
   2   9   7   27.60    3.70
   3  -9   7   21.90    4.20
   3  -9   7   25.00    1.80
  -3  -9  -7   21.90    4.30
  -3   9  -7   19.50    3.30
   3   9   7   28.90    3.80
  -4  -9  -7  210.88   10.90
   4  -9   7  225.58   11.10
  -4   9  -7  221.58   10.00
   4   9   7  207.08    9.80
  -5  -9  -7   31.60    5.00
   5  -9   7   31.30    4.90
   5   9   7   29.90    4.30
  -5   9  -7   27.70    4.10
  -6  -9  -7   10.60    3.60
   6  -9   7    8.60    3.40
  -6   9  -7    9.80    3.00
  -7  -9  -7    9.50    3.40
   7  -9   7    5.00    3.10
  -7   9  -7   -0.20    1.70
  -8  -9  -7   52.89    6.50
   8  -9   7   43.60    6.00
  -8   9  -7   42.80    5.40
   9  -9   7    0.50    2.60
  -9  -9  -7   10.60    3.60
  -9   9  -7    0.10    2.40
  10  -9   7   12.90    4.10
 -10  -9  -7    9.60    3.80
 -10   9  -7    7.70    3.30
  11  -9   7   29.20    5.50
 -11  -9  -7   36.00    5.90
 -11   9  -7   31.00    5.20
 -12  -9  -7    0.00    3.10
  12  -9   7   -0.80    2.90
 -12   9  -7    1.40    2.80
  13  -9   7    0.60    2.90
 -13  -9  -7   -0.40    3.40
 -13   9  -7    2.20    3.10
 -14  -9  -7   11.70    4.70
  14  -9   7    4.80    3.80
 -14   9  -7    2.90    3.40
  16 -10  -7   15.70    5.90
 -16  10   7   20.10    4.00
  15 -10  -7   12.40    5.20
 -15  10   7    5.70    3.10
  14 -10  -7    4.20    4.10
 -14  10   7   15.90    3.40
  13 -10  -7    8.10    4.40
 -13  10   7    6.40    2.90
  12 -10  -7   22.90    5.60
 -12 -10   7   22.00    4.90
 -12  10   7   18.20    3.50
 -11 -10   7   44.50    4.20
  11 -10  -7   48.70    7.30
  10 -10  -7    2.20    3.20
 -10 -10   7    3.90    1.80
  -9 -10   7   35.80    3.30
   9 -10  -7   35.90    6.00
   8 -10  -7   -3.00    2.30
  -8 -10   7    2.30    1.30
   7 -10  -7   16.10    4.30
  -7 -10   7   11.40    1.80
  -7 -10   7   13.10    2.80
  -6 -10   7    4.70    2.00
   6 -10  -7    2.20    2.70
  -6 -10   7    3.00    1.10
   6  10  -7    2.50    1.60
  -5 -10   7   25.50    1.80
   5 -10  -7   28.40    4.90
   5 -10  -7   24.30    4.60
  -5 -10   7   21.20    3.10
  -5  10   7   21.80    2.50
   5  10  -7   24.90    3.10
  -4 -10   7  201.48    8.30
   4 -10  -7  208.28   10.70
   4 -10  -7  211.68   10.90
  -4  10   7  181.08    7.40
   4  10  -7  187.28    8.10
  -3 -10   7  315.67   11.10
   3 -10  -7  303.97   13.50
   3 -10  -7  292.67   13.60
   3  10  -7  338.67   11.80
  -3  10   7  298.67   10.80
   2 -10  -7   -0.20    2.10
   2 -10  -7    0.10    2.40
  -2 -10   7    1.60    1.30
  -2  10   7   -1.10    1.30
   2  10  -7   -1.60    1.50
   1 -10  -7    8.10    3.20
  -1 -10   7   16.80    2.20
   1 -10  -7   11.80    3.30
   1  10  -7   17.40    3.10
  -1  10   7   15.60    2.70
   0 -10  -7  137.79    8.50
   0 -10  -7  113.99    7.20
   0 -10   7  117.09    5.10
   0  10  -7  125.59    6.80
   0  10   7  123.29    6.50
  -1 -10  -7    6.90    2.40
  -1 -10  -7    5.00    3.00
   1 -10   7    6.00    1.30
  -1  10  -7    4.90    2.30
   1  10   7    7.50    2.30
  -2 -10  -7   54.59    6.30
  -2 -10  -7   61.99    5.70
   2  10   7   50.09    5.00
  -2  10  -7   53.59    5.20
  -3 -10  -7    1.50    2.60
  -3  10  -7    0.80    1.90
   3  10   7   -0.20    1.90
  -4 -10  -7   16.70    3.90
   4 -10   7   16.90    4.10
   4  10   7   16.40    3.60
  -4  10  -7   22.80    3.80
   5 -10   7    4.50    2.90
  -5 -10  -7    2.20    3.10
   5  10   7    8.40    2.80
  -5  10  -7    7.60    2.80
   6 -10   7    9.00    3.60
  -6 -10  -7   12.30    3.70
  -6  10  -7   13.00    3.40
   6  10   7   13.30    3.40
  -7 -10  -7   39.80    5.80
   7 -10   7   32.20    5.50
  -7  10  -7   33.10    4.80
  -8 -10  -7   -2.20    2.50
   8 -10   7    1.50    3.00
  -8  10  -7   -0.60    2.30
   9 -10   7   -4.00    2.30
  -9 -10  -7    2.70    3.00
  -9  10  -7   -2.80    2.20
  10 -10   7    7.80    4.00
 -10 -10  -7    4.20    3.30
 -10  10  -7   12.40    3.70
  11 -10   7   12.40    4.40
 -11 -10  -7   11.50    3.90
 -11  10  -7    1.10    2.70
 -12 -10  -7   16.10    4.70
  12 -10   7   31.80    6.10
 -12  10  -7   16.80    4.30
 -13 -10  -7   -1.60    3.30
  13 -10   7    0.70    3.20
 -13  10  -7   -4.90    2.60
  15 -11  -7   80.59   10.50
 -15  11   7   72.79    6.80
  14 -11  -7    3.70    4.20
 -14  11   7    8.00    3.00
  13 -11  -7   -0.40    3.60
  12 -11  -7   61.09    8.60
  11 -11  -7    4.10    3.70
  10 -11  -7   18.20    5.00
   9 -11  -7   73.59    8.70
  -8 -11   7    3.90    2.30
   8 -11  -7    4.80    3.40
  -7 -11   7   79.99    5.70
   7 -11  -7   71.19    8.20
  -6 -11   7   -1.20    1.60
   6 -11  -7   -0.40    2.60
   6 -11  -7    1.00    2.50
   6  11  -7    2.10    1.70
  -5 -11   7   19.80    3.20
   5 -11  -7   24.10    4.70
   5 -11  -7   12.10    3.70
   5  11  -7   18.10    2.90
  -5  11   7   27.60    3.30
   4 -11  -7  134.39    9.00
   4 -11  -7  143.29    9.10
  -4 -11   7  134.39    6.60
   4  11  -7  136.79    6.80
  -4  11   7  138.49    5.90
   3 -11  -7  210.98   11.20
   3 -11  -7  210.58   11.00
  -3 -11   7  206.88    8.40
   3  11  -7  197.48    8.80
  -3  11   7  200.48    8.00
   2 -11  -7    6.70    3.50
   2 -11  -7   10.10    3.40
  -2 -11   7   11.30    2.10
   2  11  -7    6.80    2.50
  -2  11   7    9.30    2.20
   1 -11  -7   88.79    7.00
   1 -11  -7   87.19    8.20
  -1 -11   7   75.49    4.30
  -1  11   7   89.69    5.30
   1  11  -7   86.69    5.60
   0 -11  -7   72.39    7.50
   0 -11  -7   80.49    6.30
   0 -11   7   93.19    5.70
   0  11  -7   83.59    5.80
   0  11   7   66.79    5.00
  -1 -11  -7    0.60    2.70
  -1 -11  -7    0.90    2.30
  -1  11  -7   -1.40    1.80
   1  11   7    1.00    1.70
  -2 -11  -7   79.09    7.90
  -2 -11  -7   88.69    6.50
  -2  11  -7   85.99    6.10
   2  11   7   85.09    5.90
  -3 -11  -7   43.40    6.00
  -3  11  -7   45.30    5.10
   3  11   7   35.80    4.50
   4 -11   7   -3.20    2.50
  -4 -11  -7    0.90    2.60
  -4  11  -7   -1.10    1.90
   4  11   7   -0.80    1.70
  -5 -11  -7    1.40    2.80
   5 -11   7    0.20    3.10
   5  11   7   -2.50    2.00
  -5  11  -7   -0.80    2.20
  -6 -11  -7   51.79    6.60
   6 -11   7   43.30    6.60
   6  11   7   54.09    6.10
  -6  11  -7   41.40    5.40
  -7 -11  -7   36.50    5.70
   7 -11   7   35.60    6.00
   7  11   7   33.60    5.20
  -7  11  -7   35.80    5.20
  -8 -11  -7   -3.30    2.60
   8 -11   7   -1.10    2.80
  -8  11  -7    0.80    2.70
  -9 -11  -7   45.80    6.70
   9 -11   7   44.90    6.70
  -9  11  -7   36.40    5.40
  10 -11   7    7.50    3.70
 -10 -11  -7    2.20    3.20
 -10  11  -7    1.70    2.90
  11 -11   7    4.90    3.60
 -11 -11  -7    1.00    3.20
 -11  11  -7    1.80    3.00
  12 -11   7    1.30    3.20
 -12 -11  -7    3.70    3.70
 -12  11  -7    2.90    3.40
  14 -12  -7   15.10    5.80
  13 -12  -7   13.10    5.40
  12 -12  -7    7.00    4.20
  11 -12  -7   84.29   10.00
  10 -12  -7    6.10    3.80
   9 -12  -7   75.39    9.00
   8 -12  -7   10.20    4.10
  -8 -12   7    2.60    2.30
   7 -12  -7  321.27   16.00
   7 -12  -7  318.87   15.20
  -7 -12   7  312.57   12.70
  -6 -12   7  150.38    7.70
   6 -12  -7  136.19    9.90
   6 -12  -7  145.99    9.80
  -5 -12   7   35.60    4.00
   5 -12  -7   37.00    6.00
   5 -12  -7   39.10    5.80
   5  12  -7   38.70    4.30
   4 -12  -7   69.09    7.70
  -4 -12   7   75.19    5.00
   4 -12  -7   76.69    8.10
   4  12  -7   72.69    5.40
   3 -12  -7   58.89    6.90
   3 -12  -7   68.19    7.50
  -3 -12   7   56.69    4.10
   3  12  -7   54.29    5.00
   2 -12  -7   -0.10    2.60
   2 -12  -7   -0.20    2.40
   2  12  -7    3.20    2.20
  -2  12   7    1.30    1.60
   1 -12  -7    2.30    2.80
   1 -12  -7    1.40    2.80
  -1  12   7   -0.10    1.60
   1  12  -7   -0.50    1.80
   0 -12  -7    9.60    3.60
   0 -12  -7   16.00    4.10
   0  12   7   11.00    2.70
   0  12  -7   14.50    3.20
  -1 -12  -7   83.39    8.40
  -1 -12  -7   94.49    7.30
  -1  12  -7   94.49    6.50
   1  12   7   98.39    6.10
  -2 -12  -7    2.50    2.90
  -2  12  -7    3.80    2.60
   2  12   7    6.50    2.50
  -3 -12  -7    0.40    2.60
  -3  12  -7   -2.00    2.10
   3  12   7    0.60    2.10
  -4 -12  -7   62.09    7.30
   4  12   7   56.79    5.90
  -4  12  -7   71.89    6.80
  -5 -12  -7   12.70    4.00
   5 -12   7    6.60    4.00
  -5  12  -7    2.60    2.80
   5  12   7    3.70    2.50
  -6 -12  -7   26.60    5.30
   6 -12   7   23.50    5.50
   6  12   7   32.00    5.00
  -6  12  -7   34.70    5.20
  -7 -12  -7   20.40    5.10
   7 -12   7   37.90    6.60
   7  12   7   32.50    5.20
  -7  12  -7   31.40    5.00
   8 -12   7    5.30    3.80
  -8 -12  -7   -1.90    2.80
  -8  12  -7    1.20    2.80
   8  12   7    4.20    3.20
   9 -12   7   21.30    5.40
  -9 -12  -7   16.30    4.80
  -9  12  -7   12.70    4.10
  10 -12   7    2.50    3.70
 -10 -12  -7    2.50    3.40
 -10  12  -7   -2.30    2.80
 -11 -12  -7    3.30    3.70
  11 -12   7    8.00    4.40
 -11  12  -7    0.20    3.40
  12 -13  -7   36.10    7.40
  11 -13  -7   59.59    8.80
 -10 -13   7    5.70    2.90
  10 -13  -7   17.00    5.10
  -9 -13   7   40.40    5.30
   9 -13  -7   31.80    6.30
   8 -13  -7   17.20    5.20
   8 -13  -7    6.60    3.70
  -8 -13   7    8.50    2.80
   7 -13  -7    3.20    3.30
   7 -13  -7   -2.00    2.90
  -7 -13   7    1.10    2.00
   6 -13  -7   28.30    5.50
  -6 -13   7   28.80    4.00
   6 -13  -7   26.00    5.60
  -5 -13   7   56.59    5.20
   5 -13  -7   47.90    6.80
   5 -13  -7   66.59    8.00
   5  13  -7   57.99    5.30
   4 -13  -7   98.09    9.50
   4 -13  -7   98.39    9.00
   4  13  -7  105.49    6.60
   3 -13  -7   32.20    5.60
   3 -13  -7   28.80    5.50
   3  13  -7   34.00    4.40
   2 -13  -7   -1.00    2.40
   2 -13  -7    2.50    2.90
   2  13  -7    0.50    2.10
   1 -13  -7   13.50    4.00
   1 -13  -7   14.50    4.00
   1  13  -7   11.70    3.20
   0 -13  -7   23.20    4.60
   0 -13  -7   23.10    4.80
   0  13  -7   21.40    4.00
  -1 -13  -7   64.99    7.50
  -1 -13  -7   71.59    7.30
   1  13   7   64.69    5.70
  -1  13  -7   65.99    6.30
  -2 -13  -7    3.10    3.10
   2  13   7    1.60    2.10
  -2  13  -7    0.20    2.20
  -3 -13  -7    1.50    3.00
   3  13   7   -0.70    1.80
  -3  13  -7    1.30    2.50
  -4 -13  -7    7.00    3.70
   4  13   7   10.70    3.10
  -4  13  -7   12.90    3.60
  -5 -13  -7   28.30    5.70
  -5  13  -7   11.70    3.90
   5  13   7   24.10    4.30
  -6 -13  -7   -5.00    2.40
   6 -13   7   -0.20    3.20
   6  13   7   -0.40    2.30
  -6  13  -7   -2.10    2.40
   7 -13   7    4.90    4.00
  -7 -13  -7    0.00    3.30
   7  13   7   -0.10    2.50
  -7  13  -7    3.60    3.20
   8 -13   7   -1.10    3.40
  -8 -13  -7   -1.00    3.00
   8  13   7   -0.40    2.30
  -8  13  -7   -3.20    2.60
  -9 -13  -7    4.00    3.80
   9 -13   7    9.00    4.50
  -9  13  -7    9.60    4.00
   9  13   7    9.70    3.80
 -10 -14   7   82.99    7.60
  10 -14  -7  102.69   11.30
  -9 -14   7    7.10    3.00
   9 -14  -7    9.00    4.20
   9 -14  -7   13.10    5.00
  -8 -14   7    0.00    2.10
   8 -14  -7   -2.50    3.20
   8 -14  -7    2.90    3.20
   7 -14  -7   37.20    6.80
   7 -14  -7   36.30    6.40
   6 -14  -7   64.89    8.40
   6 -14  -7   55.19    7.30
   5 -14  -7   17.60    4.60
   5 -14  -7   16.10    4.70
   4 -14  -7    1.40    3.10
   4 -14  -7   10.80    4.10
   4  14  -7    3.70    2.50
   3 -14  -7   18.90    5.00
   3 -14  -7   17.60    4.70
   3  14  -7   20.70    3.70
   2 -14  -7    4.10    3.30
   2 -14  -7    2.30    2.90
   2  14  -7    5.00    2.60
   1 -14  -7    3.20    3.00
   1 -14  -7    4.30    3.10
   1  14  -7   -1.10    2.10
   0 -14  -7   10.40    4.00
   0 -14  -7    6.90    3.70
   0  14  -7    1.80    2.60
  -1 -14  -7   16.80    4.40
  -1 -14  -7   20.70    4.90
  -1  14  -7   28.40    4.80
  -2 -14  -7   20.30    4.70
  -2  14  -7   15.20    3.70
  -3 -14  -7   83.79    8.90
  -3  14  -7   92.09    8.00
  -4 -14  -7   29.80    5.60
   4  14   7   29.70    4.60
  -4  14  -7   30.20    5.20
  -5 -14  -7   85.69    9.20
   5  14   7   99.99    7.40
  -5  14  -7   88.09    8.10
  -6 -14  -7   23.70    5.40
   6  14   7   16.00    4.00
  -6  14  -7   23.20    4.70
  -7 -14  -7   12.50    4.40
   7 -14   7   10.80    4.70
   7  14   7    6.80    3.50
  -7  14  -7    9.20    3.80
   8 -15  -7   -1.80    3.50
   8 -15  -7   -1.20    3.60
   7 -15  -7    4.60    3.80
   7 -15  -7   10.60    4.80
   6 -15  -7    8.40    3.90
   6 -15  -7   -1.10    3.20
   5 -15  -7   12.00    4.40
   5 -15  -7   18.50    5.50
   4 -15  -7   99.19    9.80
   4 -15  -7  107.09   10.60
   4  15  -7   99.79    7.10
   3 -15  -7   24.60    5.40
   3 -15  -7   25.50    5.70
   3  15  -7   24.90    4.40
   2 -15  -7  130.19    9.80
   2 -15  -7  139.19   10.60
   2  15  -7  136.59    8.40
   1 -15  -7   23.20    5.60
   1 -15  -7   21.90    5.30
   1  15  -7   27.00    4.50
   0 -15  -7   14.70    4.50
   0 -15  -7    3.40    3.50
   0  15  -7    4.80    3.00
  -1 -15  -7    9.70    4.50
  -1  15  -7   21.30    4.30
  -2 -15  -7    4.10    3.80
  -2  15  -7    5.30    3.30
  -3 -15  -7   11.90    4.20
  -3  15  -7   17.00    4.40
  -4 -15  -7   20.30    5.50
  -4  15  -7   19.00    4.60
  -5 -15  -7    1.50    3.10
  -5  15  -7   -3.80    3.00
 -20   0   8   15.40    4.40
  20   0  -8   25.60    6.10
 -19   0   8    2.90    2.90
 -18   0   8    0.90    2.70
 -17   0   8   -1.90    2.30
 -16   0   8    7.20    2.90
 -15   0   8   -2.40    2.00
 -14   0   8    1.10    2.20
 -13   0   8    2.20    2.20
 -12   0   8  126.19    7.20
 -11   0   8    0.20    1.70
 -10   0   8  148.19    7.40
   9   0  -8    0.30    0.30
  -9   0   8   -1.80    1.30
   8   0  -8  658.53   17.50
  -8   0   8  650.13   20.80
  -7   0   8   -1.00    1.20
   7   0  -8   -0.20    0.40
  -6   0   8   12.50    2.40
  -5   0   8   -1.80    1.00
  -4   0   8  199.08    8.10
  -4   0   8  206.28    7.80
  -3   0   8   -1.30    1.10
  -3   0   8   -1.90    1.10
  -2   0   8 2662.53   69.99
   2   0  -8 2593.64   69.59
  -2   0   8 2519.45   70.09
  -1   0   8    1.20    1.30
   1   0  -8   -1.70    1.20
   0   0  -8 1935.71   53.19
   0   0   8 1979.20   53.79
  -1   0  -8    1.10    1.30
   1   0   8    1.20    1.40
   1   0   8    2.50    1.40
   2   0   8 1975.20   53.79
  -2   0  -8 1954.30   53.69
   2   0   8 1921.61   54.19
  -2   0  -8 1951.10   51.69
  -2   0  -8 2023.80   54.89
   3   0   8    1.20    1.40
  -3   0  -8    2.20    1.30
  -3   0  -8    0.80    0.40
   3   0   8    1.50    1.30
  -3   0  -8    1.00    1.50
   4   0   8  475.35   16.40
   4   0   8  522.45   16.30
  -4   0  -8  489.65   17.00
  -4   0  -8  495.85   16.10
  -5   0  -8    1.40    1.40
  -5   0  -8   -0.80    1.50
   5   0   8    0.50    1.40
  -6   0  -8   28.90    3.50
   6   0   8   34.90    4.00
  -6   0  -8   26.90    3.90
  -7   0  -8   -0.70    1.50
   7   0   8    0.70    1.60
  -7   0  -8    3.10    2.20
  -8   0  -8    1.40    2.10
   8   0   8    1.00    0.60
  -8   0  -8    2.40    2.00
   8   0   8    0.50    1.90
  -9   0  -8    4.30    2.10
   9   0   8    0.30    0.80
  -9   0  -8    1.90    2.30
   9   0   8   -1.20    1.70
  10   0   8 1071.99   32.90
  10   0   8 1027.10   28.90
 -10   0  -8 1040.80   33.50
 -10   0  -8 1086.29   32.60
 -11   0  -8   -0.30    2.20
 -11   0  -8    5.00    2.90
 -12   0  -8   58.79    6.00
 -12   0  -8   46.80    6.20
 -13   0  -8   -1.40    2.50
 -13   0  -8    0.30    2.30
 -14   0  -8   -0.80    2.90
 -14   0  -8    0.40    2.60
 -15   0  -8    1.10    2.80
 -15   0  -8   -4.90    2.30
 -16   0  -8   -2.90    2.90
 -16   0  -8   -1.20    2.80
 -17   0  -8    2.50    3.00
 -17   0  -8   -2.80    3.00
  20  -1  -8    6.90    4.50
 -20  -1   8   10.30    3.90
 -20   1   8   10.40    3.90
  19  -1  -8   41.10    7.10
 -19  -1   8   36.60    5.90
 -19   1   8   42.30    5.90
  18  -1  -8   14.90    5.00
 -18  -1   8   14.70    4.00
 -18   1   8   21.30    4.50
 -17  -1   8   21.50    4.30
  17  -1  -8   18.90    4.90
 -17   1   8   15.40    3.90
 -16  -1   8   18.90    4.20
 -16   1   8   14.20    3.60
 -15  -1   8    0.50    2.40
 -15   1   8    4.40    2.80
 -14  -1   8   12.20    3.20
 -14   1   8    8.90    3.00
 -13  -1   8    1.00    2.30
 -13   1   8    0.00    2.00
  12  -1  -8  216.68    6.70
 -12  -1   8  214.78    9.90
 -12   1   8  229.28   10.10
  11  -1  -8  185.58    6.10
 -11  -1   8  225.98    9.50
 -11   1   8  182.38    8.80
  10  -1  -8   -0.30    0.60
 -10  -1   8   -1.60    1.40
 -10   1   8   -0.40    1.20
  -9  -1   8   37.60    4.00
   9  -1  -8   41.90    2.00
  -9   1   8   41.60    4.20
   8  -1  -8    2.20    0.70
  -8  -1   8    1.00    1.40
  -8   1   8    3.00    1.60
   8   1  -8    2.50    1.30
  -7  -1   8  214.48    8.70
   7  -1  -8  209.68    6.40
   7   1  -8  197.88    5.90
   7   1  -8  209.38    5.80
  -7   1   8  197.48    8.50
   6  -1  -8   23.20    1.60
  -6  -1   8   22.50    3.00
  -6   1   8   22.80    3.00
   6   1  -8   26.40    1.60
  -5  -1   8   65.59    4.30
   5   1  -8   71.29    3.20
  -5   1   8   71.99    4.50
  -4  -1   8    0.30    1.30
  -4   1   8    4.40    1.70
   4   1  -8    0.90    0.90
  -4   1   8    1.60    1.10
  -3  -1   8  736.53   21.70
  -3  -1   8  727.13   22.10
  -3   1   8  710.03   22.10
   3   1  -8  745.93   21.10
  -3   1   8  731.63   21.80
   2  -1  -8    0.50    1.30
  -2  -1   8    1.80    1.20
  -2  -1   8    1.30    1.20
  -2   1   8    2.50    1.50
   2   1  -8    2.50    1.20
   2   1  -8    3.40    1.30
  -2   1   8    5.10    1.60
  -1  -1   8  105.79    5.20
   1  -1  -8  106.29    5.20
  -1  -1   8  103.69    5.10
   1   1  -8  104.59    4.60
  -1   1   8   97.89    5.00
   1   1  -8   97.49    5.00
   0  -1   8   25.70    2.90
   0  -1  -8   28.30    3.00
   0   1  -8   31.30    2.70
   0   1  -8   24.40    2.90
   0   1   8   24.90    3.00
   1  -1   8 1188.98   34.20
  -1  -1  -8 1248.78   34.40
  -1   1  -8 1197.08   33.40
   1   1   8 1164.78   34.40
   1   1   8 1202.58   34.20
  -1   1  -8 1182.48   34.50
  -1   1  -8 1226.88   32.80
   2  -1   8   35.20    3.50
  -2  -1  -8   32.20    1.40
  -2  -1  -8   37.20    3.60
  -2  -1  -8   35.10    1.40
   2   1   8   38.70    3.60
  -2   1  -8   32.20    3.60
  -2   1  -8   39.50    2.20
   2   1   8   31.80    3.50
  -2   1  -8   36.50    2.80
   3  -1   8  112.09    5.80
   3  -1   8  113.69    5.40
  -3  -1  -8  129.79    6.10
   3   1   8  114.79    5.90
   3   1   8  119.69    6.10
  -3   1  -8  107.79    6.10
  -3   1  -8  110.19    4.30
  -3   1  -8  119.59    5.40
  -4  -1  -8  605.74   19.30
   4  -1   8  610.64   18.80
   4  -1   8  616.94   19.20
  -4   1  -8  578.94   16.80
   4   1   8  584.44   19.30
  -4   1  -8  583.94   19.70
  -4   1  -8  613.94   18.60
   4   1   8  641.14   20.70
   5  -1   8  425.46   14.30
  -5  -1  -8  425.76   15.20
   5  -1   8  404.16   13.90
  -5  -1  -8  395.46   14.20
  -5   1  -8  392.96   13.60
  -5   1  -8  381.46   14.60
   5   1   8  391.06   14.30
  -5   1  -8  419.16   11.80
   6  -1   8    6.10    2.30
  -6  -1  -8    3.30    2.00
  -6  -1  -8    4.90    2.20
   6   1   8    4.40    2.00
  -6   1  -8   11.40    2.80
  -6   1  -8    3.20    1.70
  -7  -1  -8   36.80    4.70
  -7  -1  -8   51.49    4.90
   7  -1   8   46.60    2.50
   7  -1   8   48.30    4.70
  -7   1  -8   46.40    4.30
  -7   1  -8   55.39    5.40
   7   1   8   45.40    4.70
  -8  -1  -8   80.39    7.00
  -8  -1  -8   88.19    5.80
   8  -1   8   75.09    3.60
   8  -1   8   67.59    5.10
  -8   1  -8   80.59    5.40
  -8   1  -8   89.99    6.30
   8   1   8   73.29    5.50
  -9  -1  -8  188.88    9.20
  -9  -1  -8  180.38    9.70
   9  -1   8  180.18    8.90
   9  -1   8  181.38    6.70
  -9   1  -8  195.98    9.90
   9   1   8  195.68    9.40
  -9   1  -8  190.78    8.90
   9   1   8  180.88    5.30
  10  -1   8   57.09    3.40
  10  -1   8   61.49    6.00
 -10  -1  -8   66.29    6.10
 -10  -1  -8   47.70    6.00
 -10   1  -8   58.39    6.20
 -10   1  -8   59.89    5.70
  11  -1   8   14.30    2.20
  11  -1   8   18.90    3.70
 -11  -1  -8   14.70    3.90
 -11  -1  -8   15.50    3.60
 -11   1  -8    8.60    3.30
 -11   1  -8   13.70    3.30
 -12  -1  -8   87.29    7.90
 -12  -1  -8   61.69    6.50
  12  -1   8   63.89    6.40
 -12   1  -8   51.49    5.80
 -12   1  -8   69.69    7.20
  13  -1   8  147.19    8.80
 -13  -1  -8  139.29    8.90
 -13  -1  -8  155.28    9.60
 -13   1  -8  124.29    8.10
 -13   1  -8  149.69    9.40
 -14  -1  -8    0.20    3.10
  14  -1   8    1.70    2.60
 -14  -1  -8   -5.50    2.30
 -14   1  -8   -1.40    2.70
 -14   1  -8   -3.80    2.00
  15  -1   8   13.10    4.00
 -15  -1  -8   21.30    4.70
 -15  -1  -8   10.60    3.90
 -15   1  -8   16.30    4.60
 -15   1  -8   16.40    4.10
 -16  -1  -8    0.80    2.90
  16  -1   8    5.20    3.20
 -16  -1  -8   -3.30    2.70
 -16   1  -8    0.80    3.40
 -16   1  -8   10.40    3.50
 -17  -1  -8   11.20    4.30
 -17  -1  -8    9.90    4.20
  17  -1   8   17.00    4.60
 -17   1  -8   12.50    3.80
 -17   1  -8   10.50    4.60
  20  -2  -8    8.00    4.60
 -20  -2   8    8.70    4.00
 -20   2   8    6.90    3.90
  19  -2  -8    3.40    4.00
 -19  -2   8   -3.60    2.80
 -19   2   8    4.70    3.20
  18  -2  -8   19.60    5.30
 -18  -2   8   20.50    4.60
 -18   2   8   18.20    4.10
  17  -2  -8   -1.00    2.80
 -17  -2   8   -0.60    2.40
 -17   2   8    1.10    2.40
  16  -2  -8    0.20    2.70
 -16  -2   8   -0.70    2.70
 -16   2   8    1.70    2.40
  15  -2  -8   45.90    6.70
 -15  -2   8   37.40    5.20
 -15   2   8   44.50    5.30
  14  -2  -8  108.59    8.50
 -14  -2   8  104.89    6.90
 -14   2   8  115.19    7.30
 -13  -2   8  180.48    9.30
 -13   2   8  181.38    9.10
 -12  -2   8  263.27   11.40
 -12   2   8  266.07   11.20
 -11  -2   8    5.10    2.30
  11  -2  -8    6.30    1.30
 -11   2   8    6.10    2.30
  10  -2  -8   16.90    1.80
 -10  -2   8   14.60    2.90
 -10   2   8   18.60    3.10
   9  -2  -8   76.89    3.30
  -9  -2   8   74.79    5.00
  -9   2   8   70.49    4.90
   8  -2  -8   45.50    2.40
  -8  -2   8   41.20    4.10
  -8   2   8   47.70    4.50
   8   2  -8   36.60    2.80
  -7  -2   8  281.87   10.90
   7  -2  -8  300.17    9.00
   7   2  -8  285.77    9.70
   7   2  -8  290.87    7.80
  -7   2   8  294.97   11.00
  -6  -2   8    1.80    1.50
   6  -2  -8   -0.10    0.70
   6   2  -8    0.60    0.50
  -6   2   8    0.10    1.40
  -5  -2   8  377.26   12.80
  -5   2   8  353.46   12.70
  -5   2   8  372.96   12.30
   5   2  -8  362.96   10.80
  -4  -2   8  116.59    5.50
   4   2  -8   99.19    4.20
  -4   2   8  100.09    5.40
  -4   2   8  101.49    5.10
  -3  -2   8 1472.05   41.90
  -3  -2   8 1530.95   41.60
  -3   2   8 1504.65   41.80
  -3   2   8 1497.85   42.30
   3   2  -8 1495.25   40.90
  -2  -2   8   25.70    2.80
   2  -2  -8   20.40    2.80
  -2  -2   8   22.80    2.70
  -2   2   8   18.50    2.60
   2   2  -8   22.20    2.50
   2   2  -8   19.60    1.90
  -1  -2   8    1.80    1.30
   1  -2  -8    2.50    1.10
  -1  -2   8    4.00    1.40
   1  -2  -8    1.10    1.40
   1   2  -8    1.30    1.20
  -1   2   8    1.10    1.40
   1   2  -8    1.10    0.80
   0  -2   8  202.58    7.80
   0  -2  -8  188.18    6.60
   0  -2  -8  191.48    8.10
   0   2  -8  203.08    6.80
   0   2  -8  195.68    7.90
   0   2   8  200.88    8.10
   1  -2   8  119.59    4.90
  -1  -2  -8  122.39    4.20
   1  -2   8  122.79    5.70
  -1  -2  -8  116.49    6.00
  -1   2  -8  115.79    4.80
  -1   2  -8  112.39    5.80
   1   2   8  119.49    6.00
   1   2   8  137.39    6.20
  -1   2  -8  113.79    5.40
  -2  -2  -8   17.00    2.70
   2  -2   8   19.80    2.20
  -2  -2  -8   18.40    0.90
   2  -2   8   16.80    2.50
  -2   2  -8   17.50    2.70
   2   2   8   18.10    2.80
  -2   2  -8   21.60    2.20
  -2   2  -8   17.70    2.00
   2   2   8   16.00    2.60
  -3  -2  -8   20.30    3.00
   3  -2   8   19.50    2.30
   3  -2   8   26.10    3.10
  -3   2  -8   19.90    2.30
  -3   2  -8   22.80    2.20
  -3   2  -8   24.30    3.30
   3   2   8   22.30    3.10
  -4  -2  -8    4.00    1.90
   4  -2   8    5.10    1.80
   4  -2   8    3.00    1.50
  -4   2  -8    5.60    1.30
  -4   2  -8    5.90    1.50
  -4   2  -8    3.60    1.80
   4   2   8    1.80    1.80
   5  -2   8   41.40    3.80
   5  -2   8   44.50    4.30
  -5  -2  -8   33.70    4.00
  -5   2  -8   48.50    2.80
  -5   2  -8   51.89    3.60
   5   2   8   41.70    4.40
  -5   2  -8   36.80    4.30
   6  -2   8   62.69    4.60
   6  -2   8   62.89    3.40
  -6  -2  -8   58.39    5.30
   6   2   8   70.49    4.80
  -6   2  -8   64.79    5.80
  -6   2  -8   75.19    4.40
  -6   2  -8   68.49    3.50
   7  -2   8   98.79    4.50
   7  -2   8   97.49    5.80
  -7  -2  -8   92.99    6.20
   7   2   8  102.09    6.30
  -7   2  -8  108.99    5.60
  -7   2  -8   97.89    6.50
  -8  -2  -8  133.69    7.50
  -8  -2  -8  141.39    8.10
   8  -2   8  128.49    5.50
   8  -2   8  132.39    7.00
   8   2   8  131.09    7.50
  -8   2  -8  118.39    7.60
  -8   2  -8  124.29    6.60
  -9  -2  -8   70.79    6.50
   9  -2   8   76.29    5.40
   9  -2   8   69.69    4.00
  -9  -2  -8   62.59    6.50
  -9   2  -8   70.99    5.10
  -9   2  -8   59.99    6.30
 -10  -2  -8   96.29    7.30
  10  -2   8   94.99    5.00
  10  -2   8   97.39    6.40
 -10  -2  -8  113.89    7.20
 -10   2  -8   96.99    6.20
 -10   2  -8   97.39    7.20
 -11  -2  -8    3.10    2.80
  11  -2   8    6.80    2.60
  11  -2   8    5.80    1.90
 -11  -2  -8    7.70    3.10
 -11   2  -8   -0.20    2.50
 -11   2  -8    5.50    2.60
 -12  -2  -8   62.89    7.10
  12  -2   8   46.70    5.60
  12  -2   8   61.59    6.30
 -12  -2  -8   60.89    6.40
 -12   2  -8   46.90    5.30
 -12   2  -8   49.80    6.20
 -13  -2  -8   -0.80    2.60
  13  -2   8    1.50    2.50
 -13  -2  -8    1.40    2.90
 -13   2  -8    3.80    2.90
 -13   2  -8    3.50    2.50
  14  -2   8    9.30    3.20
 -14  -2  -8    3.80    3.50
 -14  -2  -8    6.80    3.30
 -14   2  -8    8.40    3.60
 -14   2  -8    8.60    3.10
  15  -2   8    3.50    3.00
 -15  -2  -8   -2.50    2.80
 -15  -2  -8   -1.20    2.70
 -15   2  -8    4.70    3.80
 -15   2  -8    0.00    2.20
 -16  -2  -8   77.49    8.40
  16  -2   8   72.69    7.50
 -16  -2  -8   61.29    7.50
 -16   2  -8   85.99    8.70
 -16   2  -8   80.79    7.70
 -17  -2  -8   13.70    4.50
 -17  -2  -8   23.10    5.90
  17  -2   8   18.50    4.60
 -17   2  -8   16.40    4.30
 -17   2  -8   17.60    4.90
  20  -3  -8    1.10    4.10
 -20  -3   8    8.00    4.10
 -20   3   8    0.80    3.40
 -19  -3   8   25.30    5.30
  19  -3  -8   28.70    6.40
 -19   3   8   33.40    5.50
 -18  -3   8   17.80    4.50
  18  -3  -8   12.70    4.70
 -18   3   8   23.50    4.50
 -17  -3   8   15.90    4.20
  17  -3  -8   18.00    4.80
 -17   3   8   19.20    4.00
 -16  -3   8   52.99    6.30
  16  -3  -8   52.89    7.20
 -16   3   8   59.99    6.30
  15  -3  -8    9.30    3.70
 -15  -3   8   12.40    3.30
 -15   3   8   17.10    3.80
 -14  -3   8  126.29    8.10
  14  -3  -8  136.99    9.60
 -14   3   8  168.08    8.60
 -13  -3   8  422.26   16.20
  13  -3  -8  434.96   18.10
 -13   3   8  429.06   16.00
 -12  -3   8  104.09    6.70
  12  -3  -8  101.59    7.50
 -12   3   8  105.99    6.50
 -11  -3   8   46.30    4.80
  11  -3  -8   35.80    5.20
 -11   3   8   36.50    4.30
 -10  -3   8    1.10    1.90
  10  -3  -8    1.30    1.90
 -10   3   8    1.40    1.80
  -9  -3   8   -0.10    1.20
   9  -3  -8    1.30    2.10
  -9   3   8    1.90    1.70
   9   3  -8    1.30    1.20
  -8  -3   8  268.97   10.50
   8  -3  -8  255.77   11.40
  -8   3   8  264.37   10.50
   8   3  -8  272.37    9.40
   7  -3  -8  125.59    7.10
  -7  -3   8  126.69    6.40
   7   3  -8  133.49    5.30
  -7   3   8  115.79    6.30
   7   3  -8  125.79    3.70
  -6  -3   8   94.99    5.30
   6  -3  -8  102.49    6.00
   6   3  -8   96.99    3.50
  -6   3   8  105.09    5.50
   6   3  -8   99.59    4.20
  -5  -3   8    3.10    1.60
   5  -3  -8    1.60    1.60
   5   3  -8    3.80    1.00
  -5   3   8    4.50    1.50
  -5   3   8    5.40    1.80
   5   3  -8    3.50    0.90
  -4  -3   8  321.57   11.60
   4  -3  -8  347.97   12.00
  -4   3   8  341.57   11.50
  -4   3   8  335.57   12.00
   4   3  -8  325.67   10.30
   3  -3  -8  347.17   11.90
  -3  -3   8  347.67   12.00
   3   3  -8  354.86   11.10
  -3   3   8  342.47   11.80
   2  -3  -8  703.83   21.00
   2  -3  -8  710.73   22.10
  -2  -3   8  711.33   21.30
  -2  -3   8  706.43   21.00
  -2   3   8  715.13   21.40
   2   3  -8  701.63   19.50
   2   3  -8  700.03   20.70
   1  -3  -8  560.24   17.60
  -1  -3   8  500.25   16.20
  -1  -3   8  523.65   16.50
   1  -3  -8  533.45   15.90
   1   3  -8  537.45   14.80
   1   3  -8  522.15   16.40
  -1   3   8  513.65   16.80
   0  -3   8  417.96   13.60
   0  -3  -8  432.66   14.60
   0  -3   8  416.36   13.60
   0  -3  -8  405.16   12.70
   0   3  -8  428.66   12.10
   0   3  -8  429.76   13.90
   0   3   8  412.06   14.00
   1  -3   8    5.00    1.20
  -1  -3  -8    2.40    1.80
   1  -3   8    5.60    1.60
  -1  -3  -8    4.20    1.00
  -1   3  -8    4.70    1.00
   1   3   8    3.90    1.80
   1   3   8    4.30    1.90
  -1   3  -8    4.20    1.60
  -1   3  -8    3.90    1.60
  -2  -3  -8 1123.09   32.40
   2  -3   8 1067.69   30.90
  -2  -3  -8 1082.59   28.80
   2  -3   8 1091.69   29.90
  -2   3  -8 1103.79   29.70
   2   3   8 1050.09   31.60
  -2   3  -8 1037.80   31.60
   3  -3   8    5.70    1.60
   3  -3   8    1.70    0.80
  -3  -3  -8    2.30    1.80
  -3   3  -8    8.80    2.20
  -3   3  -8    7.40    1.40
   3   3   8    4.90    2.00
   4  -3   8  215.68    8.50
  -4  -3  -8  200.18    9.20
   4  -3   8  208.58    7.90
  -4   3  -8  222.78    7.70
   4   3   8  205.88    9.00
  -4   3  -8  201.08    9.10
  -5  -3  -8  447.86   16.40
   5  -3   8  483.45   15.70
   5  -3   8  462.15   14.70
   5  -3   8  489.95   15.30
  -5   3  -8  485.85   14.80
   5   3   8  448.76   16.20
  -5   3  -8  468.85   16.60
   6  -3   8  124.19    6.10
  -6  -3  -8  129.19    7.20
   6  -3   8  115.49    6.30
   6  -3   8  113.99    5.40
  -6   3  -8  123.99    5.80
  -6   3  -8  109.79    6.80
   6   3   8  123.79    6.90
   7  -3   8  141.29    6.30
  -7  -3  -8  158.78    8.30
   7  -3   8  133.79    6.90
   7   3   8  143.39    7.80
  -7   3  -8  147.79    8.10
  -7   3  -8  141.69    6.60
   8  -3   8   38.60    3.70
  -8  -3  -8   36.50    4.70
   8  -3   8   44.30    4.80
  -8   3  -8   36.00    4.80
  -8   3  -8   33.50    3.70
   9  -3   8   49.80    3.80
  -9  -3  -8   53.99    5.80
   9  -3   8   47.60    4.90
  -9   3  -8   54.89    5.90
  -9   3  -8   46.30    4.50
  10  -3   8   35.20    4.40
  10  -3   8   35.80    3.70
 -10  -3  -8   31.90    4.80
 -10  -3  -8   21.60    4.30
 -10   3  -8   33.20    4.10
 -10   3  -8   32.90    4.90
  11  -3   8   -0.90    1.30
 -11  -3  -8   -0.60    2.40
  11  -3   8    1.90    2.00
 -11  -3  -8   -1.20    2.20
 -11   3  -8    0.40    2.40
 -11   3  -8   -2.40    1.80
  12  -3   8  282.97   11.20
  12  -3   8  289.77   12.50
 -12  -3  -8  294.47   13.70
 -12  -3  -8  291.47   13.80
 -12   3  -8  292.57   12.40
 -12   3  -8  296.57   13.70
 -13  -3  -8   18.30    4.10
 -13  -3  -8   16.10    4.20
  13  -3   8   13.30    3.60
 -13   3  -8   17.90    4.20
 -13   3  -8   11.70    3.20
 -14  -3  -8   12.10    4.00
 -14  -3  -8   10.30    4.00
  14  -3   8   14.00    3.50
 -14   3  -8   10.70    3.80
 -14   3  -8   11.70    3.40
 -15  -3  -8    0.30    3.10
  15  -3   8    1.90    2.70
 -15  -3  -8   -0.60    3.20
 -15   3  -8   -0.20    2.40
 -15   3  -8    0.20    3.00
 -16  -3  -8   -2.90    2.60
  16  -3   8   -0.10    2.70
 -16  -3  -8    3.80    3.90
 -16   3  -8    3.80    3.50
  17  -3   8   31.90    5.50
 -17  -3  -8   38.80    6.60
 -17   3  -8   34.30    6.20
  20  -4  -8   41.80    7.90
 -20  -4   8   41.90    6.70
 -20   4   8   40.10    5.80
  19  -4  -8   91.79   10.60
 -19  -4   8   91.59    9.10
 -19   4   8   94.39    8.50
 -18  -4   8    1.30    3.10
  18  -4  -8    4.80    4.30
 -18   4   8   -0.40    2.30
  17  -4  -8   22.20    5.70
 -17  -4   8   18.30    4.00
 -17   4   8   25.80    4.60
 -16  -4   8  108.59    7.80
  16  -4  -8  109.39   10.50
 -16   4   8   89.79    6.80
 -15  -4   8   10.00    3.40
  15  -4  -8   10.10    4.00
 -15   4   8   16.10    3.70
 -14  -4   8    2.80    2.60
  14  -4  -8    7.90    3.50
 -14   4   8    5.00    2.60
  13  -4  -8   11.00    3.80
 -13  -4   8    8.70    3.00
 -13   4   8   14.10    3.20
  12  -4  -8    2.70    2.60
 -12  -4   8    6.80    2.70
 -12   4   8    0.40    2.00
  11  -4  -8   76.09    7.40
 -11  -4   8   87.59    6.00
 -11   4   8   91.39    5.90
  10  -4  -8  146.09    8.40
 -10  -4   8  129.19    7.10
 -10   4   8  120.29    6.70
   9  -4  -8   -0.70    1.90
  -9  -4   8    0.40    1.30
   9   4  -8    0.10    1.10
  -9   4   8   -0.50    1.60
  -8  -4   8  312.47   11.80
   8  -4  -8  312.57   13.00
  -8   4   8  304.77   11.70
   8   4  -8  314.67   10.60
   7  -4  -8   14.40    3.00
  -7  -4   8   12.60    2.60
   7   4  -8   15.00    2.00
   7   4  -8   14.10    1.10
  -7   4   8   15.00    2.70
  -6  -4   8  615.54   16.80
   6  -4  -8  581.24   19.60
  -6  -4   8  537.55   18.40
   6   4  -8  596.14   16.20
  -6   4   8  573.64   18.70
   6   4  -8  588.44   16.90
   5  -4  -8   43.50    4.40
  -5  -4   8   45.90    2.80
  -5  -4   8   46.80    3.60
   5   4  -8   45.30    2.40
   5   4  -8   49.30    2.50
  -5   4   8   49.70    3.40
  -5   4   8   52.29    4.60
  -4  -4   8   47.40    3.60
   4  -4  -8   49.99    3.90
  -4   4   8   61.89    3.80
   4   4  -8   56.89    3.00
   4   4  -8   51.09    2.30
  -3  -4   8   94.99    5.10
   3  -4  -8  100.39    5.40
   3   4  -8  106.49    4.60
  -3   4   8  107.69    5.20
   3   4  -8   93.89    3.40
   3   4  -8   94.69    3.20
   2  -4  -8 1289.17   38.00
  -2  -4   8 1278.47   36.80
   2  -4  -8 1295.07   36.80
   2   4  -8 1297.97   34.10
   2   4  -8 1330.67   36.40
   2   4  -8 1332.97   34.20
  -2   4   8 1319.57   37.10
   1  -4  -8  119.89    5.30
   1  -4  -8  122.79    6.50
  -1  -4   8  109.09    5.30
  -1  -4   8  105.89    5.10
   1   4  -8  109.99    5.30
  -1   4   8  114.59    5.70
   1   4  -8  110.99    3.30
   0  -4   8  626.24   19.40
   0  -4  -8  650.93   19.00
   0  -4  -8  647.54   21.00
   0  -4   8  637.64   19.50
   0   4   8  638.04   20.20
   0   4  -8  650.73   20.00
   0   4  -8  713.83   20.20
   0   4  -8  639.24   17.40
  -1  -4  -8   39.90    2.50
  -1  -4  -8   31.60    3.90
   1  -4   8   43.70    3.20
   1  -4   8   37.60    2.10
  -1   4  -8   47.80    2.90
   1   4   8   44.90    4.20
  -1   4  -8   34.30    3.60
  -1   4  -8   38.50    1.90
  -2  -4  -8  251.37   10.70
   2  -4   8  264.57    9.50
   2  -4   8  272.57    8.40
  -2  -4  -8  271.17    8.20
   2   4   8  258.27   10.30
  -2   4  -8  254.17    9.00
  -2   4  -8  262.67   10.30
  -2   4  -8  261.77    8.10
  -3  -4  -8    1.50    1.80
   3  -4   8    1.40    1.40
   3  -4   8    0.90    0.90
  -3   4  -8   -0.40    0.70
  -3   4  -8    0.30    1.20
  -3   4  -8    0.80    1.10
   3   4   8   -0.90    1.40
   4  -4   8   -1.40    0.50
  -4  -4  -8   -1.20    1.20
   4  -4   8    1.20    1.40
   4   4   8    1.00    1.70
  -4   4  -8   -0.70    1.00
  -4   4  -8    0.20    1.60
  -4   4  -8    0.50    0.90
   5  -4   8   25.90    3.10
   5  -4   8   31.90    3.10
   5  -4   8   32.90    3.50
  -5  -4  -8   21.50    3.60
   5   4   8   32.20    3.90
  -5   4  -8   29.20    2.70
  -5   4  -8   31.00    3.90
   6  -4   8  549.35   17.40
   6  -4   8  544.95   17.40
  -6  -4  -8  553.14   19.30
   6  -4   8  545.95   17.70
   6   4   8  545.05   18.90
  -6   4  -8  548.95   19.10
  -6   4  -8  531.45   16.80
  -7  -4  -8   47.20    5.30
   7  -4   8   39.70    4.10
   7  -4   8   47.30    4.20
  -7   4  -8   51.19    3.60
  -7   4  -8   45.00    5.10
  -8  -4  -8   32.00    4.60
   8  -4   8   27.10    3.40
   8  -4   8   33.30    3.80
  -8   4  -8   32.20    4.40
  -8   4  -8   27.50    3.30
   9  -4   8  254.27   10.50
  -9  -4  -8  236.98   11.60
   9  -4   8  242.88   10.00
  -9   4  -8  250.77   11.80
  -9   4  -8  269.27   10.20
  10  -4   8  118.99    6.50
  10  -4   8  114.79    6.80
 -10  -4  -8  125.79    7.90
 -10   4  -8  115.99    7.80
 -10   4  -8  100.59    6.30
 -11  -4  -8   12.50    3.60
  11  -4   8   12.60    2.80
 -11  -4  -8   15.90    4.10
  11  -4   8   16.20    3.20
 -11   4  -8   13.90    3.00
 -11   4  -8   11.70    3.70
 -12  -4  -8   50.09    6.40
  12  -4   8   44.60    4.80
 -12  -4  -8   44.00    6.30
  12  -4   8   60.29    5.90
 -12   4  -8   46.70    6.10
 -12   4  -8   40.70    4.90
 -13  -4  -8    9.90    3.80
  13  -4   8    9.90    3.00
 -13  -4  -8    5.80    3.40
 -13   4  -8   13.40    4.10
 -14  -4  -8    8.70    3.70
  14  -4   8    6.30    2.90
 -14  -4  -8    4.10    3.40
 -14   4  -8    6.80    3.50
 -15  -4  -8    1.10    3.20
 -15  -4  -8    1.70    3.10
  15  -4   8   -1.70    2.40
 -15   4  -8    5.30    3.50
 -16  -4  -8   11.80    4.40
  16  -4   8   10.30    3.60
 -16  -4  -8    7.70    4.10
 -16   4  -8   13.60    4.40
 -17  -4  -8    4.60    3.70
 -17   4  -8    0.00    3.30
 -19  -5   8   28.20    5.60
  19  -5  -8   24.10    6.50
 -19   5   8   40.10    5.60
 -18  -5   8   -5.20    2.50
  18  -5  -8   -3.40    3.20
 -18   5   8    1.60    2.70
  17  -5  -8   -4.60    2.70
 -17  -5   8   -1.00    2.10
 -17   5   8    1.00    2.60
  16  -5  -8    8.80    4.00
 -16  -5   8    4.70    3.10
 -16   5   8    1.50    2.60
 -15  -5   8    2.70    2.60
  15  -5  -8    6.40    4.00
 -15   5   8    6.00    2.90
 -14  -5   8   35.80    5.10
  14  -5  -8   48.30    6.90
 -14   5   8   41.20    5.10
  13  -5  -8   26.30    5.30
 -13  -5   8   28.40    4.20
 -13   5   8   24.20    3.90
 -12  -5   8  224.08   10.70
  12  -5  -8  231.98   12.30
 -12   5   8  236.68   10.30
 -11  -5   8   28.70    4.10
  11  -5  -8   29.70    5.10
 -11   5   8   29.30    3.90
  10  -5  -8   22.50    4.60
 -10  -5   8   23.50    3.70
 -10   5   8   23.40    3.50
   9  -5  -8    2.40    2.40
  -9  -5   8    0.40    1.60
  -9   5   8    1.70    1.60
   9   5  -8    0.70    1.20
  -8  -5   8  283.17    8.60
  -8  -5   8  281.77   11.20
   8  -5  -8  294.47   12.80
   8   5  -8  288.77    9.90
  -8   5   8  283.67   11.10
  -7  -5   8   73.79    3.30
   7  -5  -8   67.29    5.50
  -7  -5   8   66.09    4.70
   7   5  -8   71.19    3.70
   7   5  -8   73.49    2.90
  -7   5   8   66.29    4.60
  -6  -5   8   13.90    1.70
   6  -5  -8   11.60    2.90
  -6  -5   8   14.20    2.60
   6   5  -8   18.00    1.80
   6   5  -8   14.20    1.50
  -6   5   8   12.40    2.50
   5  -5  -8   21.60    3.40
  -5  -5   8   18.10    2.80
  -5   5   8   21.40    2.60
   5   5  -8   22.10    1.60
   5   5  -8   23.50    2.10
   4  -5  -8   64.69    4.70
  -4  -5   8   65.69    4.20
  -4   5   8   61.69    3.90
   4   5  -8   68.29    3.50
   4   5  -8   67.09    2.50
   3  -5  -8  350.66   12.90
   3  -5  -8  359.56   13.70
  -3  -5   8  362.76   12.40
  -3   5   8  366.46   12.40
   3   5  -8  374.46   11.70
  -2  -5   8    0.60    1.00
   2  -5  -8   -2.20    1.00
   2  -5  -8   -1.60    1.50
   2   5  -8   -0.70    0.90
  -2   5   8   -1.40    1.10
   1  -5  -8   68.29    4.20
   1  -5  -8   71.39    5.20
  -1  -5   8   72.09    4.20
  -1   5   8   79.19    4.60
   1   5  -8   79.19    4.40
   0  -5   8  152.08    6.40
   0  -5   8  144.49    6.30
   0  -5  -8  153.38    7.90
   0  -5  -8  164.28    6.60
   0   5   8  168.38    7.30
   0   5  -8  162.78    6.20
   0   5  -8  155.18    6.90
  -1  -5  -8   32.50    2.60
  -1  -5  -8   26.00    3.70
   1  -5   8   35.50    3.20
  -1   5  -8   31.40    2.70
   1   5   8   25.70    3.40
  -1   5  -8   31.30    3.40
  -2  -5  -8  543.35   16.30
  -2  -5  -8  556.14   19.00
   2  -5   8  538.45   17.00
   2  -5   8  560.64   15.60
  -2   5  -8  550.64   16.50
  -2   5  -8  576.94   18.30
   2   5   8  517.55   18.10
   2   5   8  579.54   16.40
   3  -5   8    1.40    1.30
   3  -5   8    2.70    1.00
  -3  -5  -8    0.40    1.80
   3   5   8    1.00    0.80
  -3   5  -8    1.10    1.00
   3   5   8    1.20    1.60
  -3   5  -8    1.60    1.60
   4  -5   8   50.79    3.90
   4  -5   8   50.69    3.50
  -4  -5  -8   42.10    4.90
  -4   5  -8   47.50    4.70
   4   5   8   51.09    5.00
   4   5   8   48.40    2.50
  -4   5  -8   45.20    3.00
   5  -5   8   58.09    4.40
  -5  -5  -8   61.49    6.00
   5  -5   8   59.39    4.00
   5  -5   8   60.79    3.70
  -5   5  -8   62.29    3.50
   5   5   8   62.49    5.60
   5   5   8   58.99    2.70
  -5   5  -8   58.69    5.50
  -6  -5  -8   72.29    6.30
   6  -5   8   65.29    4.30
   6  -5   8   62.19    4.60
   6  -5   8   59.49    4.00
   6   5   8   62.49    2.60
  -6   5  -8   63.29    5.80
  -6   5  -8   67.29    6.60
   6   5   8   57.49    5.60
  -7  -5  -8   22.20    4.00
   7  -5   8   20.40    3.30
   7  -5   8   22.90    3.10
   7   5   8   17.90    1.50
  -7   5  -8   23.60    3.90
  -8  -5  -8   -2.90    2.00
   8  -5   8    0.20    1.60
   8  -5   8   -0.90    1.50
  -8   5  -8   -3.00    1.80
   9  -5   8   54.69    5.00
   9  -5   8   45.70    4.80
  -9  -5  -8   54.49    6.10
  -9   5  -8   52.09    5.90
  10  -5   8   10.20    2.70
 -10  -5  -8   14.90    3.40
  10  -5   8    7.80    2.50
 -10   5  -8    8.70    3.40
  11  -5   8  128.19    7.30
 -11  -5  -8  129.29    8.80
  11  -5   8  129.79    7.50
 -11   5  -8  132.39    8.60
 -12  -5  -8   31.90    5.40
  12  -5   8   25.90    4.10
 -12  -5  -8   31.80    5.40
  12  -5   8   28.90    4.20
 -12   5  -8   38.60    5.60
  13  -5   8   33.00    4.70
  13  -5   8   33.00    4.50
 -13  -5  -8   35.70    5.90
 -13  -5  -8   35.60    5.70
 -13   5  -8   39.20    5.80
  14  -5   8    2.40    2.30
 -14  -5  -8   -0.70    3.10
 -14  -5  -8   -1.30    2.80
 -14   5  -8    1.80    2.90
 -15  -5  -8   -2.10    2.80
  15  -5   8   -1.50    2.10
 -15  -5  -8   -2.00    2.80
 -15   5  -8    3.30    3.40
 -16  -5  -8    7.20    4.10
 -16   5  -8   10.30    4.10
 -19  -6   8   -3.70    2.90
  19  -6  -8    5.70    4.60
 -18  -6   8   26.20    5.50
  18  -6  -8   43.20    7.80
 -18   6   8   41.40    5.40
  17  -6  -8    9.90    4.90
 -17  -6   8    8.90    3.80
 -17   6   8   11.70    3.50
 -16  -6   8    1.00    2.30
  16  -6  -8   -3.40    3.10
 -16   6   8    1.40    2.40
  15  -6  -8    9.10    4.20
 -15   6   8   16.30    3.60
 -14  -6   8    2.30    2.20
  14  -6  -8    1.50    3.00
 -14   6   8   -0.50    1.90
 -13  -6   8   50.49    5.80
  13  -6  -8   49.10    6.90
 -13   6   8   56.59    5.60
 -12  -6   8    0.90    2.40
  12  -6  -8   -1.70    2.60
 -12   6   8    1.80    2.10
 -11  -6   8   82.19    6.10
  11  -6  -8   80.99    8.10
 -11   6   8   93.29    5.90
 -10  -6   8   21.80    3.70
  10  -6  -8   15.90    4.00
 -10   6   8   28.20    3.70
   9  -6  -8   -1.50    1.40
  -9  -6   8    1.40    1.80
  -9  -6   8   -0.30    0.70
   9   6  -8    0.70    1.20
  -9   6   8   -1.40    1.50
  -8  -6   8    2.10    1.80
   8  -6  -8   -0.80    1.90
  -8  -6   8    0.90    0.90
  -8   6   8    2.00    1.60
   8   6  -8   -0.60    1.00
   7  -6  -8  152.18    8.60
  -7  -6   8  153.98    7.50
   7   6  -8  154.48    6.10
  -7   6   8  167.08    7.60
   7   6  -8  162.08    5.50
  -6  -6   8   21.40    3.20
   6  -6  -8   16.90    3.40
  -6   6   8   20.00    2.70
   6   6  -8   18.10    1.90
   6   6  -8   23.80    2.10
  -5  -6   8   61.09    4.30
   5  -6  -8   63.69    5.10
   5   6  -8   70.79    2.80
   5   6  -8   64.89    3.40
  -5   6   8   73.49    4.20
  -4  -6   8   51.29    3.70
   4  -6  -8   44.90    4.70
   4   6  -8   40.70    2.90
  -4   6   8   48.80    3.50
  -3  -6   8    3.40    1.50
   3  -6  -8    2.10    1.70
   3  -6  -8   -0.90    1.30
  -3   6   8    3.40    1.60
   3   6  -8    3.50    1.30
   2  -6  -8  120.49    7.20
   2  -6  -8  118.49    6.20
  -2  -6   8  132.59    5.90
  -2   6   8  112.19    5.90
   2   6  -8  139.49    5.80
  -1  -6   8    7.80    1.80
   1  -6  -8    6.40    2.60
   1  -6  -8    7.20    2.00
   1   6  -8    7.90    1.80
  -1   6   8    9.70    2.10
   0  -6  -8    8.60    1.90
   0  -6   8    5.50    1.50
   0  -6  -8   10.60    2.80
   0   6  -8    9.40    2.10
   0   6   8   10.30    2.30
  -1  -6  -8   98.29    6.30
   1  -6   8   94.99    4.60
  -1  -6  -8   95.59    4.80
   1   6   8   98.99    5.80
  -1   6  -8   90.59    5.30
  -1   6  -8   91.19    4.10
  -2  -6  -8    2.40    1.20
  -2  -6  -8    4.60    2.20
   2  -6   8    3.30    0.70
   2  -6   8    1.60    1.20
  -2   6  -8    2.70    1.10
  -2   6  -8    3.00    1.80
   2   6   8    5.20    2.10
  -3  -6  -8   22.70    3.70
   3  -6   8   25.10    2.80
   3  -6   8   21.30    1.90
  -3   6  -8   20.10    3.20
   3   6   8   27.30    3.70
  -3   6  -8   24.30    2.20
  -4  -6  -8   88.29    6.40
   4  -6   8  107.29    4.50
   4  -6   8   92.09    4.70
   4  -6   8   94.39    6.00
   4   6   8   96.79    6.10
  -4   6  -8   97.89    4.30
  -4   6  -8   83.89    5.80
   5  -6   8  103.19    6.20
   5  -6   8   96.49    4.80
   5  -6   8  101.49    5.10
  -5  -6  -8  100.79    6.90
   5   6   8   90.39    6.20
  -5   6  -8  104.39    6.40
  -5   6  -8  103.89    4.50
   5   6   8  102.99    4.40
   6  -6   8   60.49    4.90
   6  -6   8   65.29    4.10
  -6  -6  -8   68.69    6.60
   6  -6   8   64.39    4.10
   6   6   8   62.29    6.00
  -6   6  -8   66.29    6.10
  -6   6  -8   59.19    3.40
  -7  -6  -8   97.29    7.10
   7  -6   8   83.39    5.90
   7  -6   8   91.89    5.10
  -7   6  -8   89.89    6.40
  -8  -6  -8    4.50    2.70
   8  -6   8    5.60    2.00
   8  -6   8    7.80    2.50
  -8   6  -8    2.90    2.50
   9  -6   8   44.60    5.10
  -9  -6  -8   40.60    5.70
   9  -6   8   48.10    4.60
  -9   6  -8   34.20    4.90
  10  -6   8    1.30    2.10
  10  -6   8    1.20    1.70
 -10  -6  -8   -2.10    2.30
 -10   6  -8    3.00    2.60
  11  -6   8   33.30    4.10
 -11  -6  -8   28.70    5.20
  11  -6   8   31.90    4.60
 -11   6  -8   29.20    5.00
  12  -6   8   44.60    4.90
  12  -6   8   43.30    5.40
 -12  -6  -8   44.60    6.10
 -12   6  -8   40.20    5.80
 -13  -6  -8   39.10    6.10
  13  -6   8   34.70    5.00
 -13  -6  -8   39.00    6.20
  13  -6   8   36.20    4.50
 -13   6  -8   36.50    5.80
 -14  -6  -8   66.49    7.90
 -14  -6  -8   77.79    8.30
 -14   6  -8   82.69    8.40
 -15  -6  -8   64.89    7.80
 -15  -6  -8   70.59    8.20
 -15   6  -8   59.19    7.50
 -16  -6  -8   -3.20    2.80
 -16   6  -8   -0.80    3.20
  18  -7  -8   21.10    6.20
 -18  -7   8   38.70    6.40
  17  -7  -8   -5.50    3.00
  16  -7  -8   33.40    6.80
 -16   7   8   31.80    4.50
  15  -7  -8   31.90    6.30
 -15   7   8   40.50    5.00
  14  -7  -8    8.40    4.00
 -14   7   8    2.10    2.30
  13  -7  -8   14.00    4.50
 -13   7   8   17.30    3.30
 -12  -7   8  122.79    7.40
  12  -7  -8  110.39    8.90
 -12   7   8  108.59    6.50
  11  -7  -8   70.59    7.90
 -11  -7   8   81.19    6.10
 -11   7   8   74.09    5.40
 -10  -7   8   90.49    6.10
  10  -7  -8   79.39    8.10
 -10   7   8   84.09    5.60
   9  -7  -8   12.30    3.70
  -9  -7   8   12.40    2.90
   9   7  -8   12.60    2.30
  -9   7   8    9.20    2.30
  -8  -7   8  158.28    8.00
   8  -7  -8  168.38    9.60
   8   7  -8  168.78    6.70
  -7  -7   8  292.47   11.70
   7  -7  -8  305.47   13.40
   7   7  -8  309.57   10.00
   7   7  -8  308.17    9.70
   6  -7  -8   40.30    5.10
  -6  -7   8   44.50    4.40
   6   7  -8   45.20    2.60
  -6   7   8   54.89    3.50
   6   7  -8   44.10    2.80
  -5  -7   8  136.49    6.60
   5  -7  -8  137.49    8.00
   5   7  -8  139.29    5.60
  -5   7   8  138.69    6.20
   5   7  -8  134.49    4.40
  -4  -7   8   86.39    4.90
   4  -7  -8   84.59    6.00
  -4   7   8   82.89    4.70
   4   7  -8   88.29    4.30
   3  -7  -8   97.49    6.30
  -3  -7   8  116.59    5.70
   3  -7  -8  112.59    7.30
  -3   7   8  117.89    5.70
   3   7  -8  119.19    5.40
   2  -7  -8   24.20    4.00
   2  -7  -8   29.40    3.70
  -2  -7   8   21.90    2.80
   2   7  -8   24.80    3.00
  -2   7   8   25.70    3.10
   1  -7  -8    4.10    1.80
  -1  -7   8    3.60    1.50
   1  -7  -8    5.20    2.60
   1   7  -8    3.40    1.70
  -1   7   8    5.10    1.80
   0  -7  -8    3.00    1.60
   0  -7   8    2.00    1.30
   0  -7  -8   -1.40    1.50
   0   7  -8   -0.70    1.30
   0   7   8    3.20    1.70
  -1  -7  -8  478.55   15.60
  -1  -7  -8  487.45   17.70
   1  -7   8  451.35   14.60
  -1   7  -8  476.15   16.00
   1   7   8  484.85   16.30
  -2  -7  -8   12.70    2.20
   2  -7   8    8.70    0.70
  -2  -7  -8    8.10    2.80
  -2   7  -8    5.70    2.10
   2   7   8    9.20    2.40
   3  -7   8  187.08    7.10
  -3  -7  -8  179.38    9.50
   3  -7   8  184.08    6.10
   3   7   8  190.38    8.90
  -3   7  -8  180.88    8.60
  -4  -7  -8  114.99    7.60
   4  -7   8  109.99    7.00
   4  -7   8  119.39    5.30
   4  -7   8  121.29    4.90
  -4   7  -8  124.59    4.70
   4   7   8  128.39    7.30
  -4   7  -8  114.59    6.80
   5  -7   8  173.58    6.90
  -5  -7  -8  151.18    9.10
   5  -7   8  179.78    9.00
   5  -7   8  164.68    6.60
  -5   7  -8  177.98    6.00
   5   7   8  172.78    8.80
  -5   7  -8  164.68    8.50
   6  -7   8    7.60    2.70
  -6  -7  -8    9.70    3.20
   6  -7   8    8.90    1.90
   6  -7   8    6.00    1.70
  -6   7  -8   11.00    3.00
   6   7   8   10.60    3.10
   7  -7   8    3.60    2.50
  -7  -7  -8    7.10    3.10
   7  -7   8    3.90    1.50
  -7   7  -8    2.30    2.40
  -8  -7  -8   62.59    6.80
   8  -7   8   68.59    4.30
   8  -7   8   71.29    6.60
  -8   7  -8   75.19    7.10
   9  -7   8   35.40    4.90
   9  -7   8   44.50    4.10
  -9  -7  -8   35.00    5.50
  -9   7  -8   33.80    5.00
  10  -7   8    9.90    2.30
  10  -7   8    9.70    3.30
 -10  -7  -8    5.20    3.10
 -10   7  -8   15.10    3.90
  11  -7   8    0.90    1.80
 -11  -7  -8    5.20    3.40
  11  -7   8    2.00    2.90
 -11   7  -8    8.90    3.40
  12  -7   8    4.80    3.00
 -12  -7  -8    2.30    3.20
 -12   7  -8    2.10    2.90
  13  -7   8   45.40    5.90
 -13  -7  -8   45.50    6.70
 -13   7  -8   47.30    6.50
 -14  -7  -8   27.90    5.70
 -14  -7  -8   30.60    5.90
 -14   7  -8   38.10    6.00
 -15  -7  -8   57.39    7.60
 -15   7  -8   54.89    7.20
  18  -8  -8   38.00    7.80
 -18  -8   8   34.80    6.00
  17  -8  -8   95.29   11.10
  16  -8  -8   37.40    7.30
  15  -8  -8   -1.30    3.40
 -14   8   8   30.30    4.20
  13  -8  -8   -4.40    2.70
 -13   8   8    1.00    2.10
  12  -8  -8   14.20    4.20
 -12   8   8   12.10    2.80
  11  -8  -8    8.70    3.80
 -11  -8   8   10.30    3.10
 -11   8   8   12.50    2.90
  10  -8  -8    4.80    3.40
 -10  -8   8    2.20    2.30
   9  -8  -8   12.30    4.00
  -9  -8   8   11.00    2.80
  -8  -8   8    5.40    2.50
   8  -8  -8    6.40    3.00
   8   8  -8    1.70    2.00
  -7  -8   8  127.49    7.00
   7  -8  -8  125.29    8.30
   7   8  -8  130.79    5.30
   7   8  -8  127.89    5.30
  -6  -8   8   13.30    2.70
   6  -8  -8   12.00    3.20
   6   8  -8   11.40    1.90
  -6   8   8   18.50    2.50
   6   8  -8   14.80    1.60
   5  -8  -8    1.10    2.20
  -5  -8   8    4.90    1.90
   5   8  -8    1.00    1.30
  -5   8   8    2.80    1.50
   4  -8  -8   76.89    6.00
   4  -8  -8   66.29    6.60
  -4  -8   8   85.39    4.90
   4   8  -8   87.89    4.60
  -4   8   8   79.39    4.60
   3  -8  -8   12.90    3.30
   3  -8  -8   13.40    3.20
  -3  -8   8   17.00    2.50
  -3   8   8   14.30    2.40
   3   8  -8   11.20    2.10
  -2  -8   8   33.30    3.30
   2  -8  -8   38.00    5.00
   2  -8  -8   37.00    4.40
   2   8  -8   29.60    3.20
  -2   8   8   32.80    3.50
  -1  -8   8   -2.30    1.00
   1  -8  -8    0.40    2.10
   1  -8  -8    0.30    1.50
   1   8  -8    3.40    1.90
  -1   8   8    3.20    1.70
   0  -8   8  269.07    9.40
   0  -8  -8  263.17   12.10
   0  -8  -8  261.17   10.60
   0   8  -8  258.17   10.30
   0   8   8  272.97   10.70
  -1  -8  -8    1.40    1.80
   1  -8   8    2.50    1.30
  -1  -8  -8    1.60    2.50
   1   8   8    3.60    2.10
  -1   8  -8    2.10    1.80
  -2  -8  -8   15.70    2.70
  -2  -8  -8   14.00    3.60
  -2   8  -8   13.60    2.90
   2   8   8   10.80    2.80
   3  -8   8   26.90    1.80
  -3  -8  -8   20.60    3.80
  -3   8  -8   34.60    4.20
   3   8   8   33.40    4.20
   4  -8   8  126.09    7.70
  -4  -8  -8  107.69    7.70
   4  -8   8  122.89    4.80
   4   8   8  114.19    7.00
  -4   8  -8  118.09    7.10
   5  -8   8    8.10    1.70
   5  -8   8    7.00    2.90
  -5  -8  -8    5.60    2.90
  -5   8  -8    8.80    2.70
   5   8   8    5.70    2.60
   6  -8   8   81.59    4.20
   6  -8   8   79.69    6.30
  -6  -8  -8   82.49    7.80
  -6   8  -8   71.19    6.50
   6   8   8   82.09    7.20
  -7  -8  -8   99.39    8.60
   7  -8   8   84.19    6.80
   7  -8   8   89.99    4.60
  -7   8  -8   77.39    7.00
   7   8   8   98.19    7.00
   8  -8   8   58.19    6.40
   8  -8   8   62.19    3.90
  -8  -8  -8   60.29    6.80
  -8   8  -8   49.60    5.80
   9  -8   8   13.00    3.70
  -9  -8  -8   16.20    4.30
  -9   8  -8   14.10    3.80
  10  -8   8   56.99    6.60
 -10  -8  -8   42.70    6.20
 -10   8  -8   56.99    6.50
 -11  -8  -8    9.20    3.70
  11  -8   8   10.50    3.60
 -11   8  -8    7.00    3.40
 -12  -8  -8   12.40    4.20
  12  -8   8   14.10    4.00
 -12   8  -8    6.50    3.60
 -13  -8  -8    1.90    3.20
  13  -8   8    1.60    3.10
 -13   8  -8   -1.60    2.70
 -14  -8  -8   51.69    7.40
  14  -8   8   63.39   10.40
 -14   8  -8   68.79    7.70
  17  -9  -8   -3.70    4.10
  16  -9  -8   -0.50    4.00
  15  -9  -8   60.49    8.60
  14  -9  -8   28.40    6.20
  13  -9  -8    4.40    3.80
  12  -9  -8   -1.50    2.90
  11  -9  -8   14.50    4.40
 -11  -9   8   16.90    3.80
 -10  -9   8    3.30    2.30
  10  -9  -8    0.70    2.40
  -9  -9   8    3.50    2.30
   9  -9  -8    4.40    3.10
   8  -9  -8  384.16   16.90
  -8  -9   8  405.16   14.90
  -7  -9   8   10.50    2.80
   7  -9  -8    3.80    3.00
   7   9  -8   10.20    2.00
  -6  -9   8    6.70    2.20
   6  -9  -8    7.70    3.10
   6   9  -8    6.70    1.80
   5  -9  -8    0.80    1.90
   5  -9  -8    0.20    2.10
  -5  -9   8   -0.20    1.50
   5   9  -8    0.60    1.40
  -5   9   8    2.00    1.50
   4  -9  -8    6.00    3.10
   4  -9  -8    5.80    2.70
  -4  -9   8    8.80    2.20
  -4   9   8    5.40    1.90
   4   9  -8    7.50    2.00
   3  -9  -8  237.18   11.70
  -3  -9   8  243.38    9.40
   3  -9  -8  239.68   11.20
  -3   9   8  240.78    9.40
   3   9  -8  234.28    9.30
   2  -9  -8   68.09    6.80
  -2  -9   8   70.99    4.30
   2  -9  -8   83.49    6.10
  -2   9   8   67.79    4.70
   2   9  -8   65.09    4.70
  -1  -9   8   55.59    3.80
   1  -9  -8   57.29    5.60
   1  -9  -8   51.29    6.00
  -1   9   8   59.59    5.00
   1   9  -8   58.69    4.90
   0  -9  -8  216.18   11.20
   0  -9  -8  228.58   10.20
   0  -9   8  231.88    8.40
   0   9   8  236.98    9.80
   0   9  -8  237.08    9.90
  -1  -9  -8   19.10    3.30
  -1  -9  -8   15.80    3.80
   1   9   8   18.90    3.20
  -1   9  -8   16.20    3.00
  -2  -9  -8   10.40    3.10
  -2  -9  -8   13.10    2.80
   2   9   8    9.50    2.70
  -2   9  -8   12.50    2.90
  -3  -9  -8   16.70    4.00
   3  -9   8   14.90    1.40
   3   9   8   16.90    3.50
  -3   9  -8   19.50    3.50
  -4  -9  -8  176.68   10.10
  -4   9  -8  188.18    9.20
   4   9   8  179.08    9.20
   5  -9   8   17.00    3.80
  -5  -9  -8   16.30    4.10
  -5   9  -8   13.30    3.20
   5   9   8   16.90    3.60
   6  -9   8   51.69    6.20
  -6  -9  -8   58.39    6.80
   6   9   8   48.00    5.70
  -6   9  -8   51.39    5.70
  -7  -9  -8    5.80    3.30
   7  -9   8    1.80    2.70
   7   9   8    5.60    3.00
  -7   9  -8    6.40    2.80
   8  -9   8   74.09    7.40
  -8  -9  -8   59.89    7.20
  -8   9  -8   71.89    6.90
  -9  -9  -8   64.09    7.40
   9  -9   8   67.39    7.40
  -9   9  -8   68.09    7.00
  10  -9   8   -1.40    2.70
 -10  -9  -8   -3.60    2.40
 -10   9  -8    1.90    2.80
 -11  -9  -8   -0.80    2.90
  11  -9   8   -0.50    2.60
 -11   9  -8   -0.80    2.60
 -12  -9  -8   50.79    7.20
  12  -9   8   51.19    6.80
 -12   9  -8   49.90    6.60
 -13  -9  -8   28.60    5.60
  13  -9   8   33.10    5.80
 -13   9  -8   29.00    5.40
  14  -9   8   -1.90    3.00
 -14   9  -8   -0.40    3.30
  16 -10  -8   54.09    9.20
  15 -10  -8   24.70    6.50
  14 -10  -8    6.70    4.40
  13 -10  -8   77.19    9.60
  12 -10  -8    8.60    4.20
 -12 -10   8    6.70    3.00
  11 -10  -8   -1.30    2.80
 -11 -10   8    4.50    2.70
 -10 -10   8   31.20    4.70
  10 -10  -8   33.50    6.00
  -9 -10   8    7.80    2.90
   9 -10  -8   13.70    4.40
   8 -10  -8   41.10    6.40
  -8 -10   8   53.69    5.40
  -7 -10   8  103.19    6.40
   7 -10  -8   94.89    9.10
   7  10  -8   90.29    4.90
   6 -10  -8   21.90    4.50
  -6 -10   8   16.10    3.00
   6  10  -8   16.50    2.60
   5 -10  -8   62.99    6.90
   5 -10  -8   44.80    5.90
  -5 -10   8   51.39    4.70
   5  10  -8   60.59    4.20
  -5  10   8   58.89    3.80
  -4 -10   8   84.39    5.10
   4 -10  -8   94.29    8.30
   4 -10  -8   83.69    7.80
   4  10  -8   87.29    5.20
  -4  10   8   84.79    4.80
   3 -10  -8  221.98   11.50
   3 -10  -8  226.18   11.20
  -3 -10   8  222.08    9.00
  -3  10   8  218.28    8.90
   3  10  -8  222.98    9.20
  -2 -10   8   19.50    2.80
   2 -10  -8   22.20    4.30
   2 -10  -8   25.80    4.40
  -2  10   8   23.70    3.20
   2  10  -8   16.10    2.90
   1 -10  -8  105.29    6.90
   1 -10  -8  110.29    7.90
  -1 -10   8  102.39    5.20
   1  10  -8  119.09    6.40
  -1  10   8   97.39    5.90
   0 -10  -8   14.60    3.80
   0 -10   8    6.90    1.60
   0 -10  -8    9.10    2.90
   0  10   8    9.70    2.60
   0  10  -8   10.90    2.70
  -1 -10  -8    7.30    3.40
  -1 -10  -8   14.00    3.20
  -1  10  -8   16.20    3.30
   1  10   8   13.20    2.90
  -2 -10  -8  308.67   14.40
  -2 -10  -8  323.37   13.00
   2  10   8  339.57   13.10
  -2  10  -8  325.57   12.90
  -3 -10  -8   31.70    5.20
   3  10   8   30.60    4.40
  -3  10  -8   33.20    4.40
  -4 -10  -8   -0.10    2.00
   4  10   8    1.90    2.00
  -4  10  -8    2.00    2.30
   5 -10   8   46.30    6.30
  -5 -10  -8   59.39    7.00
  -5  10  -8   55.89    5.90
   5  10   8   46.20    5.50
   6 -10   8   46.20    6.20
  -6 -10  -8   50.49    6.70
  -6  10  -8   42.50    5.40
   6  10   8   34.50    5.10
  -7 -10  -8   67.29    7.70
   7 -10   8   80.89    8.10
  -7  10  -8   59.89    6.40
   7  10   8   77.89    7.50
  -8 -10  -8    9.80    3.80
   8 -10   8    7.90    3.50
  -8  10  -8   12.20    3.70
   8  10   8   11.20    3.70
   9 -10   8   35.40    5.80
  -9 -10  -8   22.40    5.10
  -9  10  -8   31.40    5.20
  10 -10   8   24.00    5.20
 -10 -10  -8   26.10    5.70
 -10  10  -8   10.60    3.90
  11 -10   8   49.99    6.90
 -11 -10  -8   35.30    6.10
 -11  10  -8   41.00    6.00
  12 -10   8    0.80    3.10
 -12 -10  -8   -4.50    2.70
 -12  10  -8   -2.30    2.70
  13 -10   8    4.90    4.00
 -13  10  -8    7.00    3.90
  15 -11  -8  102.49   11.80
 -14 -11   8    8.30    3.50
  14 -11  -8   11.20    5.10
 -13 -11   8   -0.90    2.60
  13 -11  -8    1.70    3.50
  12 -11  -8   33.60    6.70
 -12 -11   8   44.70    5.90
  11 -11  -8   22.60    5.50
 -11 -11   8   19.50    4.00
 -10 -11   8   83.79    6.50
  10 -11  -8   89.09    9.60
  -9 -11   8  125.19    7.60
   9 -11  -8  128.69    9.90
  -8 -11   8   11.60    3.10
   8 -11  -8   12.40    4.40
   7 -11  -8   64.39    7.70
  -7 -11   8   74.89    5.60
   6 -11  -8   70.99    7.80
   6 -11  -8   72.29    7.90
  -6 -11   8   66.99    5.20
   6  11  -8   71.99    4.70
   5 -11  -8   83.69    8.40
  -5 -11   8   79.19    5.30
   5 -11  -8   78.29    8.10
  -5  11   8   83.79    4.50
   5  11  -8   84.89    5.30
   4 -11  -8   67.19    7.40
   4 -11  -8   84.19    8.00
  -4 -11   8   72.59    4.90
  -4  11   8   66.89    4.30
   4  11  -8   72.59    4.90
   3 -11  -8   79.49    7.70
   3 -11  -8   58.49    6.80
  -3 -11   8   64.59    4.50
   3  11  -8   65.59    4.80
  -3  11   8   71.49    4.60
   2 -11  -8   25.20    4.40
  -2 -11   8   35.50    3.50
   2 -11  -8   41.60    5.80
  -2  11   8   32.40    3.70
   2  11  -8   32.10    4.00
   1 -11  -8    9.30    3.10
   1 -11  -8   10.10    3.60
  -1 -11   8    9.20    1.90
  -1  11   8    7.40    2.40
   1  11  -8   12.60    2.80
   0 -11  -8   50.59    5.90
   0 -11  -8   53.09    6.50
   0  11   8   46.30    4.80
   0  11  -8   48.50    5.00
  -1 -11  -8    8.70    3.10
  -1 -11  -8    1.50    2.80
   1  11   8    5.60    2.40
  -1  11  -8    8.90    2.70
  -2 -11  -8   20.50    4.50
  -2 -11  -8   35.70    4.70
   2  11   8   29.10    4.20
  -2  11  -8   25.10    4.00
  -3 -11  -8   -0.10    2.40
  -3  11  -8   -2.90    1.80
   3  11   8    0.20    2.10
  -4 -11  -8    0.20    2.60
   4  11   8    3.20    2.40
  -4  11  -8   -0.40    2.20
   5 -11   8   42.40    6.30
  -5 -11  -8   42.40    6.40
  -5  11  -8   43.80    5.40
   5  11   8   46.40    5.80
   6 -11   8   29.70    5.80
  -6 -11  -8   26.30    5.20
   6  11   8   35.10    5.10
  -6  11  -8   34.70    5.10
  -7 -11  -8   17.20    4.50
   7 -11   8   11.90    4.10
   7  11   8    2.20    2.80
  -7  11  -8   12.60    3.80
  -8 -11  -8    1.90    3.00
   8 -11   8   -0.50    2.90
  -8  11  -8    0.50    2.60
   8  11   8    2.50    3.10
  -9 -11  -8    0.90    3.30
   9 -11   8    5.20    3.70
  -9  11  -8    5.00    3.20
   9  11   8    6.80    3.40
 -10 -11  -8    4.10    3.60
  10 -11   8   -1.70    2.80
 -10  11  -8    1.70    3.00
  11 -11   8   37.20    6.60
 -11 -11  -8   34.40    6.50
 -11  11  -8   33.30    5.70
  12 -11   8    4.00    3.80
 -12  11  -8   16.00    4.50
 -13 -12   8   43.60    6.20
  13 -12  -8   41.00    7.70
  12 -12  -8    7.30    4.80
 -12 -12   8   11.00    3.70
 -11 -12   8   -2.20    2.30
  11 -12  -8    0.90    3.50
  10 -12  -8   86.29    9.70
 -10 -12   8  100.59    7.30
   9 -12  -8   26.90    5.80
  -9 -12   8   32.60    4.60
   8 -12  -8   20.30    5.10
  -8 -12   8   15.30    3.40
  -7 -12   8   31.70    4.30
   7 -12  -8   32.40    5.90
   7 -12  -8   30.20    5.50
   6 -12  -8   22.60    5.10
  -6 -12   8   16.60    3.30
   6 -12  -8   22.00    4.90
   6  12  -8   25.60    3.50
   5 -12  -8   45.30    6.50
  -5 -12   8   52.09    4.80
   5 -12  -8   40.20    6.20
   5  12  -8   46.20    4.60
   4 -12  -8    2.30    3.00
  -4 -12   8   -1.10    1.50
   4 -12  -8   -1.40    2.60
   4  12  -8    2.00    1.90
   3 -12  -8   43.40    6.10
  -3 -12   8   46.20    4.40
   3 -12  -8   53.09    6.70
   3  12  -8   50.49    5.10
   2 -12  -8    8.50    3.50
   2 -12  -8    2.80    3.10
  -2  12   8    6.50    2.20
   2  12  -8   11.40    2.80
   1 -12  -8   28.10    5.20
   1 -12  -8   27.10    4.80
   1  12  -8   31.40    4.30
  -1  12   8   29.80    3.90
   0 -12  -8   -1.00    2.00
   0 -12  -8   -0.70    2.70
   0  12   8    0.10    1.90
   0  12  -8   -1.90    1.90
  -1 -12  -8    1.50    2.80
  -1 -12  -8    2.00    2.50
  -1  12  -8    1.10    2.10
   1  12   8   -2.20    1.70
  -2 -12  -8   21.90    4.90
   2  12   8   21.90    3.90
  -2  12  -8   24.50    4.20
  -3 -12  -8    2.40    3.10
  -3  12  -8    0.30    2.40
   3  12   8   -0.80    2.10
  -4 -12  -8   43.50    6.50
   4  12   8   47.90    5.60
  -4  12  -8   49.99    5.80
  -5 -12  -8   -2.10    2.60
   5  12   8    1.70    2.40
  -5  12  -8    0.50    2.60
  -6 -12  -8    6.30    3.90
   6 -12   8   13.30    4.60
   6  12   8   12.00    3.70
  -6  12  -8   14.90    3.90
  -7 -12  -8   56.49    7.40
   7 -12   8   45.70    7.00
  -7  12  -8   57.39    6.60
   7  12   8   48.50    6.40
  -8 -12  -8   32.70    6.30
   8 -12   8   49.99    7.40
   8  12   8   41.30    6.00
  -8  12  -8   38.70    5.70
  -9 -12  -8    3.80    3.60
   9 -12   8   -0.50    3.70
   9  12   8   -0.30    2.80
  -9  12  -8   -0.30    2.80
 -10 -12  -8    2.80    3.70
  10 -12   8    0.20    3.50
 -10  12  -8   -0.60    3.10
  10  12   8   -2.00    2.80
 -12 -13   8   -1.00    2.60
  12 -13  -8    5.60    4.30
  11 -13  -8    9.30    5.00
 -11 -13   8   18.30    4.10
  10 -13  -8    5.10    4.10
 -10 -13   8    5.70    3.00
   9 -13  -8   42.70    7.20
  -9 -13   8   42.20    5.40
   8 -13  -8  114.99   10.70
   8 -13  -8   84.79    9.70
  -8 -13   8  107.49    7.20
  -7 -13   8   32.40    4.40
   7 -13  -8   24.50    5.60
   7 -13  -8   37.00    6.20
   6 -13  -8   64.99    8.00
   6 -13  -8   60.29    8.00
  -6 -13   8   68.69    5.30
   6  13  -8   66.29    5.70
   5 -13  -8    2.20    3.10
   5 -13  -8   -1.80    2.70
   5  13  -8   -2.50    1.70
   4 -13  -8   21.80    5.10
   4 -13  -8   33.80    6.00
   4  13  -8   34.20    4.30
   3 -13  -8   33.00    5.80
   3 -13  -8   33.60    5.80
   3  13  -8   32.90    4.30
   2 -13  -8   -0.80    3.00
   2 -13  -8   -2.00    2.50
   2  13  -8    0.80    2.20
   1 -13  -8   49.99    6.80
   1 -13  -8   46.60    6.40
   1  13  -8   50.49    5.40
   0 -13  -8  145.99   10.10
   0 -13  -8  146.49    9.40
   0  13  -8  146.19    8.50
  -1 -13  -8   30.40    5.70
  -1 -13  -8   25.10    4.80
   1  13   8   25.50    3.90
  -1  13  -8   34.20    4.70
  -2 -13  -8   -4.30    2.40
   2  13   8   -0.10    2.20
  -2  13  -8    0.10    2.20
  -3 -13  -8   31.90    5.80
  -3  13  -8   41.00    5.40
   3  13   8   39.30    5.10
  -4 -13  -8   16.00    4.60
  -4  13  -8   24.50    4.50
   4  13   8   23.40    4.20
  -5 -13  -8   64.69    7.90
   5  13   8   60.69    6.60
  -5  13  -8   48.70    6.10
  -6 -13  -8    4.70    3.50
   6  13   8    2.10    2.50
  -6  13  -8    0.20    2.80
   7 -13   8    1.70    3.50
  -7 -13  -8   -1.60    2.80
  -7  13  -8    1.00    3.00
   7  13   8    2.20    2.70
   8 -13   8   10.20    4.80
  -8 -13  -8    4.00    4.10
   8  13   8    6.50    3.40
  -8  13  -8   -0.50    3.10
   9 -13   8    3.50    4.30
   9  13   8    1.60    3.40
  -9  13  -8    0.70    3.30
  10 -14  -8   53.69    8.40
  10 -14  -8   42.20    7.10
 -10 -14   8   51.09    6.10
   9 -14  -8    8.30    4.20
  -9 -14   8   11.00    3.80
   9 -14  -8   17.50    5.30
   8 -14  -8    4.30    3.90
   8 -14  -8   -3.80    3.00
   7 -14  -8   13.00    4.40
   7 -14  -8   15.90    5.00
   6 -14  -8   92.09    9.40
   6 -14  -8   82.99    9.50
   5 -14  -8    8.30    3.70
   5 -14  -8    8.90    4.00
   5  14  -8   17.20    3.50
   4 -14  -8   25.00    5.20
   4 -14  -8   26.60    5.80
   4  14  -8   15.80    3.40
   3 -14  -8   32.10    6.30
   3 -14  -8   38.20    6.20
   3  14  -8   29.50    4.40
   2 -14  -8   31.80    5.60
   2 -14  -8   28.80    5.80
   2  14  -8   29.40    4.40
   1 -14  -8   49.20    6.80
   1 -14  -8   97.49    9.20
   1  14  -8   54.39    5.80
   0 -14  -8   -3.60    2.60
   0 -14  -8   -0.30    3.00
   0  14  -8   -2.00    2.20
  -1 -14  -8   22.60    5.20
  -2 -14  -8  191.38   11.80
  -2  14  -8  168.18    9.70
  -3 -14  -8   20.20    5.10
  -3  14  -8   26.20    4.70
  -4 -14  -8   30.00    5.90
  -4  14  -8   23.50    4.70
   4  14   8   28.30    4.80
  -5 -14  -8   19.10    5.30
  -5  14  -8   17.50    4.30
   5  14   8   24.10    4.80
  -6 -14  -8    0.20    3.30
   6  14   8   -3.90    2.10
  -6  14  -8   -5.60    2.30
  -7 -14  -8   73.29    9.00
  -7  14  -8   83.29    8.50
   7  14   8   98.59    8.80
   7 -15  -8    7.70    4.50
   7 -15  -8   -3.30    2.90
   6 -15  -8    0.00    3.30
   6 -15  -8   -2.70    3.10
   5 -15  -8    0.30    3.60
   5 -15  -8   -2.40    2.80
   4 -15  -8   52.69    7.70
   4 -15  -8   66.49    8.20
   4  15  -8   72.69    6.70
   3 -15  -8    7.20    4.50
   3 -15  -8   17.50    4.70
   3  15  -8   10.10    3.50
   2 -15  -8  178.08   11.80
   2 -15  -8  166.98   11.20
   2  15  -8  154.58    9.00
   1 -15  -8    6.70    4.00
   1 -15  -8   -3.80    3.10
   1  15  -8    0.40    2.70
   0 -15  -8   54.49    7.30
   0 -15  -8   65.09    8.40
   0  15  -8   52.29    6.10
  -1 -15  -8    2.00    3.30
  -1  15  -8   -1.40    2.70
  -2 -15  -8   -5.90    2.60
  -2  15  -8   -3.30    2.30
  -3 -15  -8    2.40    3.50
  -3  15  -8   -4.10    2.50
 -20   0   9    2.60    3.20
  20   0  -9   -0.60    3.40
 -19   0   9    1.50    3.00
 -18   0   9   -0.90    2.50
 -17   0   9   48.50    6.10
 -16   0   9    1.90    2.60
 -15   0   9   93.19    7.00
 -14   0   9   -1.60    2.10
 -13   0   9  189.48    9.50
 -12   0   9    1.70    2.10
 -11   0   9  467.45   16.80
 -10   0   9   -0.60    1.70
  -9   0   9   55.39    5.10
   9   0  -9   51.49    1.90
   8   0  -9   -0.50    0.40
  -8   0   9   -0.30    1.50
  -7   0   9   35.70    4.10
   7   0  -9   35.60    1.80
  -6   0   9    1.60    1.60
  -5   0   9   35.00    3.70
  -4   0   9   -0.30    1.20
  -4   0   9    1.30    1.50
  -3   0   9  292.67   11.00
  -3   0   9  294.97   10.60
  -2   0   9   -0.70    0.90
   2   0  -9   -0.10    1.10
  -2   0   9    0.70    1.30
  -1   0   9   59.99    4.10
   1   0  -9   59.39    3.70
   0   0   9    0.60    1.30
   0   0  -9    1.40    1.10
  -1   0  -9   57.19    4.20
  -1   0  -9   49.20    3.60
   1   0   9   54.09    4.70
   1   0   9   46.40    3.50
  -2   0  -9   -0.20    1.10
   2   0   9   -0.30    1.40
  -2   0  -9   -0.10    0.50
   2   0   9   -0.50    1.00
  -2   0  -9    0.30    1.20
  -3   0  -9  223.48    9.60
   3   0   9  231.38    8.90
  -3   0  -9  216.38    6.30
   3   0   9  212.78    9.10
  -3   0  -9  213.98    8.70
  -4   0  -9    0.70    1.40
  -4   0  -9   -2.60    1.50
   4   0   9    2.00    1.40
  -5   0  -9  174.58    8.70
  -5   0  -9  162.98    7.70
   5   0   9  172.28    8.10
  -6   0  -9   -0.70    1.70
  -6   0  -9   -1.20    1.20
   6   0   9   -0.20    1.50
   7   0   9  184.58    9.00
  -7   0  -9  199.38    9.80
  -7   0  -9  185.18    8.70
  -8   0  -9   -1.90    1.70
   8   0   9    0.80    1.90
  -8   0  -9   -1.50    2.00
  -9   0  -9  152.98    8.30
   9   0   9  165.58    8.80
  -9   0  -9  145.09    9.00
 -10   0  -9    4.00    2.90
  10   0   9    0.10    2.40
 -10   0  -9    2.50    2.30
 -11   0  -9   69.99    7.40
  11   0   9   62.79    6.70
 -11   0  -9   66.89    6.50
 -12   0  -9   -0.80    2.50
 -12   0  -9   -0.70    2.20
  12   0   9   -2.10    2.40
 -13   0  -9   22.20    4.80
  13   0   9   28.60    4.90
 -13   0  -9   25.60    4.60
 -14   0  -9   -0.50    2.70
  14   0   9    0.00    2.40
 -14   0  -9    0.90    3.10
 -15   0  -9  106.89   10.10
 -15   0  -9  100.29    8.90
  15   0   9  101.99    9.30
 -16   0  -9   -1.90    3.10
  16   0   9   -0.20    2.70
 -16   0  -9   -4.80    3.00
 -17   0  -9   -1.00    3.30
  17   0   9   -1.40    3.00
  20  -1  -9    1.30    4.00
 -20  -1   9    3.00    3.30
 -20   1   9    0.70    3.30
  19  -1  -9   -1.50    3.20
 -19  -1   9   -1.10    2.50
 -19   1   9    2.60    3.10
 -18  -1   9    1.60    2.80
  18  -1  -9   -2.70    2.80
 -18   1   9   -0.80    2.50
 -17  -1   9   20.30    4.60
 -17   1   9   21.20    4.40
 -16  -1   9    2.80    2.50
 -16   1   9    3.30    2.80
 -15  -1   9   90.09    6.90
 -15   1   9   82.29    7.40
 -14  -1   9   62.79    6.40
 -14   1   9   55.29    5.90
 -13  -1   9   61.79    6.10
 -13   1   9   68.59    6.40
 -12  -1   9    1.00    2.20
 -12   1   9   -0.70    2.10
 -11  -1   9   55.89    5.50
  11  -1  -9   57.99    2.50
 -11   1   9   60.49    5.70
 -10  -1   9  124.69    7.00
  10  -1  -9  124.29    4.30
 -10   1   9  128.19    7.10
  -9  -1   9   38.20    4.30
   9  -1  -9   34.30    1.90
  -9   1   9   37.00    4.20
   8  -1  -9   23.10    1.60
  -8  -1   9   30.20    3.80
   8   1  -9   26.70    1.20
   8   1  -9   28.00    1.10
  -8   1   9   32.00    3.80
  -7  -1   9   29.40    3.70
   7  -1  -9   33.50    1.90
  -7   1   9   37.80    4.00
   7   1  -9   34.70    1.90
  -6  -1   9    8.40    2.10
  -6   1   9    8.20    2.30
   6   1  -9    5.30    1.10
  -5  -1   9  105.19    5.60
   5   1  -9  106.39    4.40
  -5   1   9  108.79    5.70
  -5   1   9   99.69    5.30
  -4  -1   9  349.77   12.30
  -4  -1   9  343.97   11.90
   4   1  -9  350.86   11.10
  -4   1   9  332.27   12.30
  -4   1   9  333.77   11.90
  -3  -1   9   50.59    3.70
  -3  -1   9   56.09    4.10
  -3   1   9   42.70    4.20
  -3   1   9   50.49    3.80
   3   1  -9   51.19    3.30
  -2  -1   9 1016.90   30.00
   2  -1  -9 1021.00   29.70
  -2  -1   9 1029.60   29.70
  -2   1   9  997.20   29.70
   2   1  -9 1067.79   29.50
  -2   1   9 1013.00   30.10
   2   1  -9 1002.20   28.80
   1  -1  -9  447.56   14.60
  -1  -1   9  437.36   14.70
  -1  -1   9  444.56   14.60
  -1   1   9  453.85   14.80
   1   1  -9  413.76   14.30
   1   1  -9  441.56   13.80
   0  -1  -9  204.38    8.40
   0  -1   9  215.58    8.50
   0   1   9  207.18    8.60
   0   1  -9  211.18    7.80
   0   1  -9  210.68    8.60
  -1  -1  -9   40.60    4.00
   1  -1   9   37.90    3.30
  -1   1  -9   36.80    3.20
   1   1   9   42.80    4.00
  -1   1  -9   37.20    3.90
   1   1   9   44.60    4.20
  -1   1  -9   40.40    2.50
  -2  -1  -9   68.29    2.50
   2  -1   9   79.19    4.30
  -2  -1  -9   68.79    4.50
  -2  -1  -9   71.49    2.40
   2  -1   9   70.19    4.60
  -2   1  -9   73.19    4.10
   2   1   9   71.19    4.80
  -2   1  -9   71.99    4.90
  -2   1  -9   72.79    3.30
   2   1   9   73.39    4.60
   3  -1   9  182.58    8.00
  -3  -1  -9  194.08    8.10
   3  -1   9  196.48    7.70
  -3   1  -9  166.88    6.00
  -3   1  -9  172.28    7.30
   3   1   9  180.08    8.10
  -3   1  -9  195.58    8.70
   4  -1   9   -0.40    1.20
  -4  -1  -9    0.50    1.40
   4  -1   9    1.60    1.60
  -4   1  -9   -0.70    1.20
  -4   1  -9   -1.80    1.40
  -4   1  -9    0.40    0.70
   4   1   9   -2.60    1.30
   5  -1   9   -0.10    1.50
  -5  -1  -9   -0.70    1.60
  -5  -1  -9    2.10    1.90
  -5   1  -9    1.50    1.50
  -5   1  -9   -2.00    1.50
  -5   1  -9    2.80    0.80
   5   1   9   -0.40    1.60
   6  -1   9   29.90    3.90
  -6  -1  -9   32.90    4.00
  -6  -1  -9   38.80    4.70
  -6   1  -9   26.80    4.10
  -6   1  -9   36.30    3.80
   6   1   9   33.40    4.20
   7  -1   9    3.80    2.10
  -7  -1  -9    0.50    2.10
  -7  -1  -9    2.60    2.20
  -7   1  -9    1.00    1.70
  -7   1  -9    3.60    2.40
   7   1   9    2.80    2.00
   8  -1   9   29.70    4.10
  -8  -1  -9   37.20    4.90
  -8  -1  -9   37.70    4.50
   8   1   9   27.90    4.20
  -8   1  -9   23.50    3.60
  -8   1  -9   35.60    4.90
  -9  -1  -9  525.75   18.80
   9  -1   9  512.15   18.60
   9  -1   9  519.35   15.20
  -9  -1  -9  538.85   19.90
  -9   1  -9  531.45   18.30
   9   1   9  512.85   18.90
  -9   1  -9  523.55   19.60
 -10  -1  -9    6.90    3.00
  10  -1   9   15.80    3.50
 -10  -1  -9    3.80    2.50
 -10   1  -9    6.10    2.70
  10   1   9   14.80    3.50
 -10   1  -9    3.10    2.80
 -11  -1  -9   34.10    5.00
 -11  -1  -9   31.90    5.20
  11  -1   9   40.00    5.30
 -11   1  -9   42.20    5.80
 -11   1  -9   29.10    4.40
  11   1   9   31.90    5.10
 -12  -1  -9   35.20    5.60
  12  -1   9   40.10    5.50
 -12  -1  -9   40.60    5.40
 -12   1  -9   34.60    5.00
 -12   1  -9   41.60    6.20
  12   1   9   47.60    6.00
 -13  -1  -9    4.40    3.00
  13  -1   9    5.20    3.10
 -13  -1  -9    3.60    3.20
 -13   1  -9    3.30    3.20
  13   1   9    3.90    3.10
 -13   1  -9    3.50    2.80
 -14  -1  -9    6.80    3.50
 -14  -1  -9   12.30    4.50
  14  -1   9   10.80    3.70
 -14   1  -9   11.90    4.00
  14   1   9   21.50    4.80
 -14   1  -9   11.70    3.60
 -15  -1  -9    5.30    3.40
 -15  -1  -9    5.20    3.30
  15  -1   9    3.20    3.30
  15   1   9   11.60    4.00
 -15   1  -9    2.00    3.30
 -15   1  -9    5.30    3.40
 -16  -1  -9    1.80    3.10
 -16  -1  -9    7.90    3.90
  16  -1   9    8.70    4.10
 -16   1  -9    4.10    3.50
  16   1   9    5.60    3.80
 -16   1  -9    2.60    3.00
 -17  -1  -9  127.39   11.20
 -17   1  -9  125.19   11.00
 -20  -2   9    2.40    3.40
  20  -2  -9   13.40    5.20
 -20   2   9    8.80    3.90
  19  -2  -9    6.20    4.50
 -19  -2   9    2.70    3.60
 -19   2   9    5.40    3.40
  18  -2  -9   24.40    5.90
 -18  -2   9   23.80    5.00
 -18   2   9   29.00    5.20
 -17  -2   9   10.20    3.30
  17  -2  -9    8.00    3.80
 -17   2   9    8.10    3.30
  16  -2  -9   -0.70    2.90
 -16  -2   9    0.80    2.30
 -16   2   9    5.10    3.20
 -15  -2   9    1.60    2.50
  15  -2  -9    2.10    3.00
 -15   2   9    4.40    2.60
  14  -2  -9   34.70    5.80
 -14  -2   9   31.00    4.80
 -14   2   9   33.80    4.70
 -13  -2   9    5.30    2.90
 -13   2   9    6.90    2.70
 -12  -2   9   46.10    5.20
 -12   2   9   49.50    5.30
  11  -2  -9  221.48    7.40
 -11  -2   9  217.38   10.10
 -11   2   9  226.28   10.10
 -10  -2   9   -0.30    1.20
  10  -2  -9   -0.50    0.70
 -10   2   9    0.90    1.50
   9  -2  -9   -0.70    0.80
  -9  -2   9    0.30    1.20
  -9   2   9    1.20    2.00
  -8  -2   9   90.29    5.70
   8  -2  -9   99.49    3.90
   8   2  -9   93.19    4.60
  -8   2   9   96.19    5.80
  -7  -2   9    4.20    1.90
   7  -2  -9    3.40    1.00
   7   2  -9    0.80    1.10
  -7   2   9    2.70    1.80
   7   2  -9    2.90    0.60
  -6  -2   9   57.09    4.20
   6   2  -9   49.80    2.50
  -6   2   9   51.69    4.70
  -5  -2   9   97.29    5.50
  -5   2   9   88.69    5.00
   5   2  -9   94.39    4.00
  -5   2   9  101.89    5.70
  -4  -2   9  213.98    8.60
   4   2  -9  195.38    7.20
  -4   2   9  196.68    8.10
  -4   2   9  204.38    8.70
  -3  -2   9    8.20    2.10
  -3  -2   9    9.20    2.00
   3   2  -9    9.40    1.70
   3   2  -9    8.20    1.50
  -3   2   9    6.00    2.00
  -3   2   9    7.20    1.90
  -2  -2   9   82.59    4.90
  -2  -2   9   88.59    4.80
   2  -2  -9   87.09    5.20
   2   2  -9   87.89    4.50
  -2   2   9   86.89    5.00
   2   2  -9   87.49    4.00
   1  -2  -9  254.57   10.10
  -1  -2   9  272.97    9.90
   1  -2  -9  271.47    9.00
  -1  -2   9  266.97   10.00
   1   2  -9  271.67    9.80
  -1   2   9  257.37   10.00
   1   2  -9  261.07    8.70
   0  -2  -9  220.78    9.10
   0  -2  -9  216.18    7.50
   0  -2   9  233.28    8.90
   0   2  -9  226.48    9.00
   0   2   9  223.08    9.10
   0   2  -9  240.08    7.90
  -1  -2  -9  170.18    5.40
   1  -2   9  129.29    5.90
  -1  -2  -9  161.28    7.40
   1  -2   9  141.29    6.80
   1   2   9  170.88    7.50
  -1   2  -9  167.98    7.50
  -1   2  -9  160.38    6.10
   1   2   9  166.98    7.50
   2  -2   9  695.73   21.80
  -2  -2  -9  712.03   18.70
  -2  -2  -9  720.03   22.40
  -2   2  -9  683.23   20.60
   2   2   9  706.13   22.30
  -2   2  -9  700.23   22.40
  -2   2  -9  751.02   23.40
   3  -2   9  208.18    8.00
   3  -2   9  200.18    8.50
  -3  -2  -9  203.88    9.00
  -3   2  -9  205.68    7.30
  -3   2  -9  215.98    7.90
   3   2   9  199.88    9.00
  -3   2  -9  210.98    9.30
   4  -2   9  146.49    6.90
   4  -2   9  139.09    6.30
  -4  -2  -9  131.99    7.20
  -4   2  -9  135.99    5.40
  -4   2  -9  132.29    7.20
   4   2   9  126.69    7.00
  -4   2  -9  138.29    6.10
   5  -2   9  106.79    5.60
  -5  -2  -9   80.89    5.70
   5  -2   9   97.29    5.70
   5   2   9  102.49    6.20
  -5   2  -9   94.49    6.30
  -5   2  -9  105.29    4.40
  -5   2  -9   96.69    5.20
  -6  -2  -9    3.50    2.00
   6  -2   9    3.70    2.20
  -6   2  -9    5.40    2.30
  -6   2  -9    4.70    1.20
  -6   2  -9    1.30    1.60
   6   2   9    1.90    2.00
   7  -2   9  295.07   11.50
  -7  -2  -9  285.47   12.50
  -7  -2  -9  256.07   11.60
   7   2   9  261.57   11.60
  -7   2  -9  275.57   10.70
  -7   2  -9  299.57   12.50
  -8  -2  -9    1.40    2.00
  -8  -2  -9    1.50    2.40
   8  -2   9    1.80    2.10
   8  -2   9    2.90    1.30
  -8   2  -9    2.60    1.80
  -8   2  -9    0.80    2.20
   8   2   9    5.10    2.10
  -9  -2  -9   -1.40    2.10
  -9  -2  -9    2.00    2.10
   9  -2   9   -0.60    2.00
   9  -2   9    1.00    1.10
  -9   2  -9    0.50    1.90
  -9   2  -9   -2.00    2.30
   9   2   9   -2.90    1.80
  10  -2   9   62.19    3.80
 -10  -2  -9   68.79    7.10
  10  -2   9   66.49    6.20
 -10  -2  -9   56.49    6.00
  10   2   9   57.39    6.40
 -10   2  -9   56.19    6.40
 -10   2  -9   65.39    5.90
 -11  -2  -9  175.18   10.50
 -11  -2  -9  169.68    9.70
  11  -2   9  180.78    9.40
  11   2   9  154.58    9.50
 -11   2  -9  178.68    9.10
 -11   2  -9  177.48   10.20
  12  -2   9    4.40    2.70
 -12  -2  -9    5.30    3.30
 -12  -2  -9    3.70    2.80
 -12   2  -9    5.20    2.60
  12   2   9    1.50    2.80
 -12   2  -9    2.00    3.00
 -13  -2  -9   39.80    5.60
  13  -2   9   23.00    4.40
 -13  -2  -9   28.90    5.40
 -13   2  -9   36.90    5.00
 -13   2  -9   37.50    6.00
  14  -2   9    1.40    2.50
 -14  -2  -9    1.50    3.10
 -14  -2  -9    4.20    3.00
 -14   2  -9   -0.60    2.80
 -14   2  -9    0.70    2.40
  15  -2   9   21.00    4.70
 -15  -2  -9   19.00    4.70
 -15  -2  -9   17.20    4.70
 -15   2  -9   14.50    4.50
 -15   2  -9   27.00    4.60
 -16  -2  -9   13.40    4.40
 -16  -2  -9   11.80    4.70
  16  -2   9   13.90    4.20
 -16   2  -9   16.00    4.30
 -16   2  -9   20.30    5.00
  20  -3  -9   10.00    4.90
 -20  -3   9    0.50    3.60
 -20   3   9    5.00    3.30
  19  -3  -9   39.50    7.50
 -19  -3   9   62.29    7.60
 -19   3   9   65.89    7.40
 -18  -3   9   -1.50    2.90
  18  -3  -9    1.50    3.40
 -18   3   9   -2.40    2.20
 -17  -3   9   -1.00    2.70
  17  -3  -9   -1.20    2.90
 -17   3   9    3.10    3.00
  16  -3  -9    1.40    3.10
 -16  -3   9   -2.40    2.40
 -16   3   9   -3.30    2.00
 -15  -3   9    5.10    3.00
  15  -3  -9    1.80    3.00
 -15   3   9    4.10    2.60
  14  -3  -9    6.60    3.50
 -14  -3   9   10.30    3.50
 -14   3   9    4.70    2.70
 -13  -3   9   33.40    4.80
  13  -3  -9   46.30    6.40
 -13   3   9   42.00    5.10
 -12  -3   9    1.10    2.20
  12  -3  -9    2.80    2.80
 -12   3   9    2.20    2.00
  11  -3  -9  364.66   15.70
 -11  -3   9  359.96   14.20
 -11   3   9  378.26   14.30
 -10  -3   9  262.17   11.10
  10  -3  -9  258.07   12.30
 -10   3   9  273.47   11.20
   9  -3  -9    2.90    2.30
  -9  -3   9    3.70    2.00
   9   3  -9    1.90    1.30
  -9   3   9    5.10    2.10
  -8  -3   9   11.60    2.60
   8  -3  -9    6.10    2.50
  -8   3   9    5.40    2.10
   8   3  -9    7.60    1.60
   7  -3  -9  464.05   17.00
  -7  -3   9  462.85   16.30
   7   3  -9  479.65   13.20
  -7   3   9  475.05   16.40
   7   3  -9  504.25   14.70
   6  -3  -9  113.59    6.60
  -6  -3   9  116.99    6.20
   6   3  -9  116.89    4.70
   6   3  -9  118.29    4.30
  -6   3   9  119.09    6.20
   5  -3  -9   11.10    2.50
  -5  -3   9   13.30    2.40
   5   3  -9   11.80    1.50
  -5   3   9    9.00    2.30
  -5   3   9   14.40    2.40
  -4  -3   9   26.20    3.30
   4  -3  -9   32.60    3.50
  -4   3   9   26.30    3.50
  -4   3   9   27.30    3.20
   4   3  -9   32.20    2.40
   3  -3  -9   16.40    2.60
  -3  -3   9   18.80    2.70
   3  -3  -9   19.60    3.00
   3   3  -9   15.00    2.10
  -3   3   9   14.60    2.40
   3   3  -9   16.60    1.70
  -2  -3   9    6.00    1.80
   2  -3  -9    9.90    1.90
  -2  -3   9    5.50    1.80
   2  -3  -9   12.50    2.60
   2   3  -9   10.10    1.30
   2   3  -9    5.80    1.60
  -2   3   9    4.90    1.80
  -1  -3   9  191.68    7.90
  -1  -3   9  175.98    7.50
   1  -3  -9  201.28    7.20
   1  -3  -9  207.38    8.70
   1   3  -9  182.88    7.60
  -1   3   9  184.78    8.10
   1   3  -9  181.18    6.20
   0  -3  -9  116.29    6.30
   0  -3  -9  115.39    4.70
   0  -3   9  110.49    5.50
   0  -3   9  110.29    5.50
   0   3  -9   97.39    5.50
   0   3   9  103.79    5.80
   0   3  -9  106.09    4.20
   1  -3   9  446.66   13.40
  -1  -3  -9  447.96   13.00
   1  -3   9  453.35   14.70
  -1  -3  -9  451.05   15.60
  -1   3  -9  442.56   13.20
   1   3   9  429.46   15.20
  -1   3  -9  435.56   15.10
  -2  -3  -9   32.60    1.60
   2  -3   9   35.20    2.50
   2  -3   9   34.80    3.70
  -2  -3  -9   29.60    3.80
  -2   3  -9   33.60    2.40
   2   3   9   31.70    3.80
  -2   3  -9   31.40    3.80
   3  -3   9    7.60    1.60
  -3  -3  -9   19.90    3.20
   3  -3   9   19.10    2.90
  -3   3  -9   15.30    1.90
  -3   3  -9   13.60    2.80
   3   3   9   18.20    3.00
   4  -3   9  196.68    8.10
  -4  -3  -9  188.98    8.80
   4  -3   9  183.78    7.40
   4   3   9  165.98    8.40
  -4   3  -9  178.18    7.00
  -4   3  -9  171.48    8.60
   5  -3   9   17.30    2.60
  -5  -3  -9   13.60    2.90
   5  -3   9   14.40    2.70
   5   3   9   16.40    3.10
  -5   3  -9   14.00    3.10
  -5   3  -9   10.90    2.00
  -6  -3  -9   31.60    4.20
   6  -3   9   32.80    4.00
  -6   3  -9   25.10    3.90
   6   3   9   25.10    3.90
  -6   3  -9   27.20    3.10
   7  -3   9  439.16   15.50
   7  -3   9  428.76   13.90
  -7  -3  -9  426.56   16.30
   7   3   9  419.36   16.20
  -7   3  -9  436.46   14.70
  -7   3  -9  450.15   16.80
   8  -3   9   22.90    2.80
   8  -3   9   17.10    3.10
  -8  -3  -9   15.10    3.60
   8   3   9   24.50    4.20
  -8   3  -9   19.30    3.90
  -8   3  -9   16.00    2.80
  -9  -3  -9    2.10    2.80
   9  -3   9    0.50    1.30
  -9  -3  -9    4.90    2.60
   9  -3   9    3.00    2.20
  -9   3  -9    0.90    2.70
  -9   3  -9   -1.20    1.40
   9   3   9    0.10    2.20
 -10  -3  -9   19.80    4.00
  10  -3   9   18.10    3.50
 -10  -3  -9   14.10    4.00
  10  -3   9   23.00    3.00
 -10   3  -9   19.00    4.30
  10   3   9   16.90    4.00
 -10   3  -9   20.50    3.40
  11  -3   9    1.70    2.30
  11  -3   9    1.50    1.60
 -11  -3  -9    1.80    2.80
 -11  -3  -9    1.40    2.50
 -11   3  -9    6.40    2.70
 -11   3  -9    3.80    3.00
 -12  -3  -9  107.69    8.20
  12  -3   9  126.79    7.80
 -12  -3  -9  125.19    9.00
 -12   3  -9  122.69    8.70
 -12   3  -9  121.59    7.50
 -13  -3  -9   18.50    4.50
  13  -3   9    9.50    3.30
 -13  -3  -9    4.90    3.40
 -13   3  -9    9.60    3.10
 -13   3  -9   15.40    4.20
  14  -3   9   16.60    4.00
 -14  -3  -9   21.40    5.00
 -14  -3  -9   26.20    5.10
 -14   3  -9   24.50    5.20
 -14   3  -9   16.10    3.80
 -15  -3  -9   41.80    6.40
 -15  -3  -9   34.40    6.10
  15  -3   9   31.60    5.10
 -15   3  -9   33.20    5.30
 -15   3  -9   46.00    6.60
  16  -3   9    2.50    2.60
 -16  -3  -9    2.90    3.30
 -16  -3  -9   -1.50    3.50
 -16   3  -9    1.60    3.40
 -19  -4   9    4.90    3.90
  19  -4  -9   11.70    5.00
 -19   4   9   12.10    4.10
  18  -4  -9    1.60    4.00
 -18  -4   9   -0.30    3.10
 -18   4   9    1.60    2.80
  17  -4  -9   39.00    6.80
 -17  -4   9   40.40    5.80
 -17   4   9   33.00    5.10
  16  -4  -9    0.80    2.90
 -16  -4   9    1.00    2.80
 -16   4   9    2.70    2.60
 -15  -4   9   69.59    7.10
  15  -4  -9   68.79    8.10
 -15   4   9   77.39    7.10
  14  -4  -9  147.69   10.20
 -14  -4   9  152.58    9.00
 -14   4   9  161.68    8.80
 -13  -4   9   58.29    6.00
  13  -4  -9   49.60    6.60
 -13   4   9   50.99    5.70
 -12  -4   9   20.40    3.80
  12  -4  -9   26.50    4.90
 -12   4   9   24.50    4.10
 -11  -4   9  444.56   16.60
  11  -4  -9  464.75   18.20
 -11   4   9  440.56   16.30
 -10  -4   9  109.09    6.40
  10  -4  -9  110.09    7.60
 -10   4   9  102.39    6.40
   9  -4  -9   22.00    4.10
  -9  -4   9   18.00    3.20
   9   4  -9   23.60    2.70
  -9   4   9   26.80    3.80
   8  -4  -9    8.60    2.60
  -8  -4   9    4.60    2.10
   8   4  -9    2.80    1.30
  -8   4   9    3.60    2.00
  -7  -4   9   84.09    5.50
   7  -4  -9  109.99    6.60
   7   4  -9   93.89    4.30
   7   4  -9   92.99    3.30
  -7   4   9   88.49    5.60
  -6  -4   9    2.40    1.70
   6  -4  -9    4.50    2.00
   6   4  -9    3.20    1.10
   6   4  -9    2.90    0.90
  -6   4   9    5.10    1.90
  -6   4   9    5.50    2.10
   5  -4  -9  272.87   10.70
  -5  -4   9  243.18   10.00
  -5   4   9  251.97    9.60
  -5   4   9  268.87   10.50
   5   4  -9  246.88    8.30
   5   4  -9  257.57    8.00
  -4  -4   9  250.87    9.80
   4  -4  -9  252.07   10.10
  -4   4   9  254.97    9.70
   4   4  -9  251.97    8.60
   4   4  -9  258.17    7.60
   3  -4  -9  142.29    6.70
   3  -4  -9  127.89    7.20
  -3  -4   9  136.29    6.60
   3   4  -9  142.59    5.90
  -3   4   9  142.59    6.70
   3   4  -9  144.29    4.40
   3   4  -9  136.59    4.60
   2  -4  -9   67.79    4.20
   2  -4  -9   73.49    5.30
  -2  -4   9   68.19    4.50
  -2   4   9   76.69    4.70
   2   4  -9   70.39    2.60
   2   4  -9   73.29    4.20
   1  -4  -9   43.60    4.60
  -1  -4   9   43.60    3.70
   1  -4  -9   42.10    3.20
  -1  -4   9   40.50    3.80
   1   4  -9   45.10    1.90
   1   4  -9   47.40    3.50
  -1   4   9   43.20    4.20
   0  -4  -9   35.30    2.70
   0  -4   9   33.00    3.30
   0  -4   9   37.20    3.60
   0  -4  -9   28.20    3.90
   0   4  -9   37.00    3.70
   0   4  -9   35.00    1.70
   0   4   9   36.90    4.00
   1  -4   9  315.57   11.00
  -1  -4  -9  307.97   12.20
  -1  -4  -9  298.27    9.70
  -1   4  -9  317.77   11.70
   1   4   9  320.07   11.90
  -1   4  -9  304.67    9.20
  -2  -4  -9  202.08    9.30
   2  -4   9  197.18    8.10
   2  -4   9  195.98    6.90
  -2  -4  -9  209.98    6.50
  -2   4  -9  195.78    8.80
   2   4   9  200.18    8.90
  -2   4  -9  190.08    6.60
   3  -4   9   42.80    3.90
   3  -4   9   27.50    2.60
  -3  -4  -9   46.50    4.80
  -3   4  -9   37.70    4.20
   3   4   9   36.70    4.30
  -3   4  -9   42.70    2.60
   4  -4   9    0.50    1.10
  -4  -4  -9    4.60    2.30
   4  -4   9   -0.90    1.40
  -4   4  -9    0.50    1.00
  -4   4  -9   -0.10    1.60
   4   4   9   -1.00    1.60
  -5  -4  -9   22.30    3.80
   5  -4   9   20.60    2.70
   5  -4   9   22.70    3.10
  -5   4  -9   26.10    2.70
  -5   4  -9   23.10    3.70
   5   4   9   17.70    3.40
   6  -4   9   10.20    2.20
  -6  -4  -9    5.80    2.70
   6  -4   9    6.50    2.00
   6  -4   9    7.80    2.30
  -6   4  -9   11.30    2.90
   6   4   9    6.80    2.60
  -6   4  -9    9.50    2.00
   7  -4   9    7.80    2.20
   7  -4   9    1.40    1.50
  -7  -4  -9    0.20    2.10
  -7   4  -9    4.90    1.70
  -7   4  -9    4.10    2.40
   7   4   9    1.20    2.10
   8  -4   9   17.10    2.80
  -8  -4  -9   23.60    4.20
   8  -4   9   21.70    3.50
   8   4   9   20.20    3.90
  -8   4  -9   20.30    4.10
  -8   4  -9   18.30    2.90
   9  -4   9  113.19    6.20
   9  -4   9  117.59    6.80
  -9  -4  -9  119.59    8.00
  -9   4  -9  122.69    8.10
   9   4   9  122.69    8.00
  -9   4  -9  122.79    6.50
 -10  -4  -9   13.70    3.80
  10  -4   9   20.60    3.20
  10  -4   9   21.80    3.60
 -10   4  -9   14.70    4.00
  10   4   9   24.40    4.40
 -10   4  -9   22.50    3.30
 -11  -4  -9    2.70    2.70
 -11  -4  -9   -2.50    2.20
  11  -4   9   -0.20    2.10
  11  -4   9   -0.20    1.60
 -11   4  -9    0.00    2.00
 -11   4  -9   -1.60    2.30
 -12  -4  -9   21.30    4.80
 -12  -4  -9   23.50    4.50
  12  -4   9   22.20    4.10
 -12   4  -9   16.60    4.30
 -12   4  -9   20.90    3.80
 -13  -4  -9   12.50    4.00
  13  -4   9    6.20    3.00
 -13  -4  -9   13.00    4.30
 -13   4  -9   10.70    3.80
 -13   4  -9   13.00    3.20
  14  -4   9   55.19    6.30
 -14  -4  -9   57.59    7.50
 -14  -4  -9   63.69    7.40
 -14   4  -9   47.20    6.70
  15  -4   9   16.00    4.00
 -15  -4  -9    1.60    3.30
 -15  -4  -9   11.10    4.70
 -15   4  -9   11.40    4.40
 -16  -4  -9    4.90    3.90
  16  -4   9   12.10    3.80
 -16   4  -9   10.70    4.20
 -19  -5   9    0.50    3.40
  19  -5  -9   -1.90    3.70
 -19   5   9    0.00    2.90
 -18  -5   9   -1.80    2.80
  18  -5  -9   -3.00    3.20
 -18   5   9   -1.00    2.50
 -17  -5   9   -0.70    2.70
  17  -5  -9    0.50    3.70
 -17   5   9    3.70    3.00
  16  -5  -9   20.60    5.30
 -16  -5   9   14.80    3.80
 -16   5   9   28.00    4.60
 -15  -5   9   25.30    4.50
  15  -5  -9   29.00    6.00
 -15   5   9   25.40    4.30
 -14  -5   9   20.80    4.20
  14  -5  -9   12.50    4.30
 -14   5   9   21.00    4.00
 -13  -5   9    9.70    3.20
  13  -5  -9   13.70    4.30
 -13   5   9    8.90    3.00
 -12  -5   9   57.19    6.00
  12  -5  -9   60.69    7.20
 -12   5   9   53.19    5.60
  11  -5  -9   25.00    4.80
 -11  -5   9   20.60    3.70
 -11   5   9   23.80    3.80
 -10  -5   9    1.30    2.10
  10  -5  -9    2.40    2.20
 -10   5   9   -2.20    1.40
  -9  -5   9    6.80    2.40
   9  -5  -9    4.60    2.80
   9   5  -9    5.50    1.70
  -9   5   9    2.80    2.10
   8  -5  -9    0.30    2.20
  -8  -5   9   -1.10    1.60
   8   5  -9    0.10    0.50
   8   5  -9    1.20    1.10
  -8   5   9    0.90    1.70
  -7  -5   9    0.20    1.60
  -7  -5   9    1.70    0.90
   7  -5  -9    0.90    1.90
   7   5  -9   -0.30    0.80
  -7   5   9   -2.10    1.40
   7   5  -9    0.60    0.80
   6  -5  -9   19.50    3.60
  -6  -5   9   17.20    2.90
  -6   5   9   18.80    2.70
   6   5  -9   19.30    1.90
  -6   5   9   14.30    2.90
   6   5  -9   19.00    1.90
   5  -5  -9   27.30    3.80
  -5  -5   9   25.30    3.40
   5   5  -9   26.20    2.30
  -5   5   9   32.10    3.40
   5   5  -9   26.40    1.70
   4  -5  -9   46.70    4.70
  -4  -5   9   37.50    3.90
  -4   5   9   52.09    3.70
   4   5  -9   40.00    2.80
   4   5  -9   44.20    1.80
   3  -5  -9    5.80    2.50
   3  -5  -9    9.60    2.30
  -3  -5   9    8.00    2.10
   3   5  -9   11.50    1.90
  -3   5   9   10.90    2.20
   2  -5  -9   19.10    2.80
   2  -5  -9   17.50    3.30
  -2  -5   9   18.50    2.70
   2   5  -9   14.60    2.40
  -2   5   9   19.70    2.90
   1  -5  -9  122.49    7.30
   1  -5  -9  143.79    6.40
  -1  -5   9  150.48    6.50
   1   5  -9  139.49    6.50
  -1   5   9  138.59    6.80
   0  -5   9    9.70    1.90
   0  -5  -9    8.10    1.70
   0  -5  -9    4.80    2.40
   0  -5   9    9.10    2.00
   0   5  -9    9.30    2.10
   0   5   9    7.70    2.20
  -1  -5  -9   -0.10    1.00
  -1  -5  -9    2.30    2.00
   1  -5   9    2.90    1.60
   1   5   9    2.00    1.70
  -1   5  -9   -1.20    1.20
  -2  -5  -9  500.55   14.60
  -2  -5  -9  461.85   17.40
   2  -5   9  485.35   15.70
   2  -5   9  499.85   14.10
   2   5   9  466.05   16.80
  -2   5  -9  513.05   17.00
  -3  -5  -9   59.39    5.80
   3  -5   9   71.19    3.50
   3  -5   9   68.49    4.30
  -3   5  -9   66.39    5.00
   3   5   9   66.79    5.80
  -3   5  -9   73.69    3.20
   4  -5   9  134.79    6.20
  -4  -5  -9  107.79    7.10
   4   5   9  109.09    6.80
  -4   5  -9  117.19    4.80
  -4   5  -9  119.29    6.90
   5  -5   9   22.10    2.90
  -5  -5  -9   16.50    3.50
   5  -5   9   21.00    2.60
   5   5   9   19.70    3.60
  -5   5  -9   15.80    2.00
  -5   5  -9   15.00    3.10
   6  -5   9   16.80    3.00
   6  -5   9   24.20    3.20
  -6  -5  -9   18.70    3.70
   6  -5   9   21.60    2.90
  -6   5  -9   23.00    2.60
   6   5   9   25.40    3.90
  -6   5  -9   18.40    3.50
   7  -5   9  222.38    9.40
   7  -5   9  222.58    9.30
  -7  -5  -9  208.08   10.70
   7   5   9  220.18   10.70
  -7   5  -9  210.48   10.50
  -7   5  -9  219.98    8.50
   8  -5   9    3.60    2.00
  -8  -5  -9    5.90    2.90
   8  -5   9    4.80    2.20
  -8   5  -9    2.90    2.60
   8   5   9    6.40    2.90
  -8   5  -9    4.20    1.80
  -9  -5  -9   32.50    5.10
   9  -5   9   36.30    4.30
   9  -5   9   36.50    4.20
   9   5   9   34.20    5.10
  -9   5  -9   31.80    4.90
 -10  -5  -9   53.99    6.60
  10  -5   9   61.89    4.90
  10  -5   9   72.49    6.30
 -10   5  -9   58.49    6.70
 -11  -5  -9    7.10    3.30
  11  -5   9    9.50    2.80
  11  -5   9    8.40    2.90
 -11   5  -9    9.10    3.50
  12  -5   9   34.10    5.20
  12  -5   9   40.00    5.10
 -12  -5  -9   36.80    5.90
 -12  -5  -9   29.40    5.30
 -12   5  -9   43.80    6.10
  13  -5   9    0.40    2.00
 -13  -5  -9    0.00    2.70
 -13  -5  -9   -0.70    2.80
 -13   5  -9   -2.20    2.50
 -14  -5  -9   32.00    5.70
 -14  -5  -9   20.70    5.30
  14  -5   9   30.80    4.90
 -14   5  -9   25.70    5.40
 -15  -5  -9    3.40    3.60
  15  -5   9    7.40    3.10
 -15  -5  -9    7.50    4.30
 -15   5  -9    0.60    3.30
 -16  -5  -9   -0.60    3.60
 -16   5  -9    0.70    3.50
  19  -6  -9   -2.20    4.00
 -19  -6   9   -0.50    3.00
  18  -6  -9    0.90    3.80
 -18  -6   9    0.90    3.20
 -18   6   9    4.10    3.50
  17  -6  -9   16.30    5.40
 -17  -6   9   15.70    4.40
 -17   6   9    7.40    3.20
  16  -6  -9  172.78   12.00
 -16  -6   9  151.08    9.80
 -16   6   9  153.98    9.00
 -15  -6   9   -0.70    2.60
  15  -6  -9    2.70    3.50
 -15   6   9    6.60    2.80
 -14  -6   9   30.90    5.10
  14  -6  -9   42.90    6.80
 -14   6   9   46.50    5.60
  13  -6  -9    1.90    3.10
 -13  -6   9    1.80    2.50
 -13   6   9    0.00    1.80
  12  -6  -9    0.40    2.60
 -12  -6   9    2.10    2.60
 -12   6   9    2.00    2.20
 -11  -6   9   33.40    4.60
  11  -6  -9   17.50    4.00
 -11   6   9   18.50    3.70
 -10  -6   9  315.57   12.90
  10  -6  -9  292.17   14.10
 -10   6   9  322.07   12.60
   9  -6  -9   53.79    6.30
  -9  -6   9   66.89    5.80
   9   6  -9   62.59    3.90
  -9   6   9   59.29    5.50
  -8  -6   9    4.90    1.90
   8  -6  -9    3.60    2.50
  -8  -6   9    4.30    1.20
   8   6  -9    3.60    0.90
  -8   6   9    2.00    1.70
   8   6  -9    2.30    1.30
  -7  -6   9    2.20    1.90
  -7  -6   9    0.20    0.50
   7  -6  -9    3.10    2.30
   7   6  -9    2.20    1.10
   7   6  -9    2.00    1.00
  -6  -6   9   27.70    3.60
   6  -6  -9   28.60    4.20
  -6   6   9   36.40    3.60
   6   6  -9   33.50    2.40
   6   6  -9   33.10    2.10
   5  -6  -9   56.79    5.70
  -5  -6   9   50.29    4.60
   5   6  -9   54.59    3.20
  -5   6   9   58.19    4.00
   5   6  -9   50.59    2.20
   4  -6  -9  246.88   10.80
  -4  -6   9  265.97   10.20
   4   6  -9  257.37    9.00
  -4   6   9  259.57    9.90
  -3  -6   9   14.80    2.60
   3  -6  -9   16.50    3.50
   3  -6  -9   19.60    3.20
   3   6  -9   20.00    2.40
  -3   6   9   14.20    2.50
  -2  -6   9   46.70    4.10
   2  -6  -9   42.10    5.10
   2  -6  -9   41.50    4.10
   2   6  -9   43.00    3.80
  -2   6   9   44.90    4.20
  -1  -6   9  259.87    9.80
   1  -6  -9  260.67   11.50
   1  -6  -9  263.87   10.10
  -1   6   9  251.97   10.30
   1   6  -9  271.17   10.00
   0  -6   9  311.37   11.00
   0  -6  -9  316.97   13.10
   0  -6  -9  319.37   11.20
   0   6  -9  304.17   11.50
   0   6   9  323.97   12.10
   1  -6   9    5.10    1.50
  -1  -6  -9    2.50    2.20
  -1  -6  -9   10.90    1.90
   1   6   9   10.10    2.50
  -1   6  -9    8.60    2.30
  -2  -6  -9   14.10    3.20
   2  -6   9   10.80    2.00
   2  -6   9   12.40    1.20
  -2  -6  -9   13.20    1.90
   2   6   9   12.40    2.90
  -2   6  -9    6.80    2.30
  -3  -6  -9   70.69    6.50
   3  -6   9   70.29    3.20
   3  -6   9   65.19    4.10
  -3   6  -9   67.59    4.10
   3   6   9   58.29    5.60
  -3   6  -9   56.79    5.30
   4  -6   9   49.30    3.10
   4  -6   9   60.19    3.90
  -4  -6  -9   41.60    5.30
   4   6   9   59.09    3.10
   4   6   9   58.39    5.80
  -4   6  -9   57.99    3.80
  -4   6  -9   53.49    5.20
   5  -6   9   60.59    3.70
   5  -6   9   58.19    4.10
  -5  -6  -9   52.99    6.00
  -5   6  -9   57.99    5.70
   5   6   9   63.99    6.20
   6  -6   9   15.90    2.50
   6  -6   9   10.50    2.60
  -6  -6  -9    9.90    3.30
   6  -6   9   14.60    2.50
  -6   6  -9   14.10    3.20
   6   6   9   14.60    3.50
   7  -6   9   24.40    3.30
  -7  -6  -9   17.40    4.00
   7  -6   9   18.20    3.50
   7   6   9   30.80    4.50
  -7   6  -9   21.30    3.90
  -8  -6  -9   47.50    5.90
   8  -6   9   39.10    4.60
   8  -6   9   46.50    4.50
  -8   6  -9   35.50    4.90
   8   6   9   47.60    5.70
   9  -6   9   90.39    5.70
  -9  -6  -9   88.49    8.10
   9  -6   9   79.29    5.90
  -9   6  -9   86.09    7.80
   9   6   9   81.59    7.70
  10  -6   9    6.70    2.80
 -10  -6  -9   10.80    3.60
  10  -6   9   14.20    3.10
 -10   6  -9    8.90    3.30
 -11  -6  -9    0.60    3.00
  11  -6   9   -0.60    2.10
  11  -6   9    1.00    2.20
 -11   6  -9    2.10    3.00
  12  -6   9   -1.40    2.00
  12  -6   9   -3.60    1.60
 -12  -6  -9    3.00    3.20
 -12   6  -9   -3.30    2.30
 -13  -6  -9   47.20    6.80
 -13  -6  -9   24.90    5.30
  13  -6   9   34.30    5.20
 -13   6  -9   41.90    6.30
 -14  -6  -9    3.70    3.70
 -14  -6  -9   12.40    4.60
 -14   6  -9    8.10    3.90
 -15  -6  -9   25.80    5.90
 -15   6  -9   10.70    4.30
  18  -7  -9  118.59   12.60
 -18  -7   9  115.49   10.40
  17  -7  -9   51.69    8.40
 -17  -7   9   50.29    7.00
 -16  -7   9   -0.60    2.70
  16  -7  -9    1.80    3.60
 -16   7   9    0.80    2.40
  15  -7  -9   28.50    6.10
 -15  -7   9   42.30    6.00
 -15   7   9   38.90    5.20
 -14  -7   9  111.89    7.80
  14  -7  -9  132.49   10.40
 -14   7   9  133.09    7.70
  13  -7  -9    9.60    4.00
 -13  -7   9    7.30    3.20
 -13   7   9   13.60    3.20
 -12  -7   9    0.60    2.20
  12  -7  -9    3.20    3.30
 -12   7   9    1.40    2.10
 -11  -7   9   72.29    6.60
  11  -7  -9   61.39    7.50
 -11   7   9   65.79    6.00
 -10  -7   9  217.88   10.20
  10  -7  -9  216.98   11.90
 -10   7   9  208.68    9.70
  -9  -7   9   34.70    4.50
   9  -7  -9   39.70    5.60
   9   7  -9   54.19    5.50
  -8  -7   9   87.79    5.80
   8  -7  -9   85.59    6.80
   8   7  -9   81.39    4.20
   8   7  -9   76.89    3.60
   7  -7  -9   28.80    4.60
  -7  -7   9   17.20    3.20
   7   7  -9   22.00    2.10
   7   7  -9   21.50    2.10
   6  -7  -9  456.85   17.30
  -6  -7   9  439.96   15.60
   6   7  -9  448.76   12.90
  -6   7   9  454.25   14.80
   6   7  -9  454.55   13.80
  -5  -7   9   55.49    4.30
   5  -7  -9   59.89    5.90
  -5   7   9   57.59    4.00
   5   7  -9   57.29    3.50
   4  -7  -9   16.10    3.50
   4  -7  -9   12.50    3.00
  -4  -7   9   11.10    2.50
   4   7  -9   13.30    2.10
  -4   7   9   11.70    2.30
  -3  -7   9  133.39    6.50
   3  -7  -9  136.39    8.10
   3  -7  -9  141.99    7.50
   3   7  -9  136.29    6.10
  -3   7   9  128.89    6.60
   2  -7  -9   69.99    6.60
  -2  -7   9   74.69    4.70
   2  -7  -9   73.99    5.20
  -2   7   9   85.29    5.30
   2   7  -9   91.69    4.90
   1  -7  -9  107.09    6.10
  -1  -7   9  115.19    5.70
   1  -7  -9  120.09    7.60
  -1   7   9  114.89    6.20
   1   7  -9  115.49    5.90
   0  -7   9   29.60    3.20
   0  -7  -9   28.90    3.50
   0  -7  -9   31.70    4.60
   0   7  -9   39.00    4.00
   0   7   9   32.90    4.00
  -1  -7  -9  147.39    8.60
  -1  -7  -9  141.79    6.70
  -1   7  -9  156.18    7.50
   1   7   9  150.18    7.60
  -2  -7  -9   99.79    5.10
  -2  -7  -9  108.59    7.30
  -2   7  -9   93.09    6.00
   2   7   9  102.59    6.30
   3  -7   9  347.97   11.50
   3  -7   9  340.67   10.00
  -3  -7  -9  338.37   14.30
   3   7   9  310.17   13.10
  -3   7  -9  333.27   10.70
  -3   7  -9  350.26   13.40
  -4  -7  -9    1.20    2.30
   4  -7   9    2.30    1.40
   4  -7   9    3.30    1.20
   4   7   9    0.60    2.10
  -4   7  -9    1.30    1.70
  -4   7  -9    2.30    1.60
   5  -7   9  148.49    6.80
  -5  -7  -9  119.59    8.40
   5  -7   9  157.78    6.70
  -5   7  -9  162.48    8.50
   5   7   9  154.28    8.50
  -6  -7  -9   58.99    6.50
   6  -7   9   56.69    4.00
   6  -7   9   52.19    5.50
  -6   7  -9   58.79    6.10
   6   7   9   65.49    6.60
   7  -7   9   43.30    5.10
  -7  -7  -9   37.90    5.50
   7  -7   9   44.50    4.10
   7   7   9   54.49    6.20
  -7   7  -9   49.99    5.70
  -8  -7  -9   52.19    6.40
   8  -7   9   62.69    4.40
   8  -7   9   50.29    5.70
  -8   7  -9   55.29    6.20
   8   7   9   37.60    5.40
  -9  -7  -9    3.30    3.10
   9  -7   9    3.30    2.20
   9  -7   9    7.20    2.30
  -9   7  -9    7.60    3.10
   9   7   9    7.80    3.20
 -10  -7  -9   19.60    4.70
  10  -7   9   13.90    2.90
  10  -7   9   12.70    3.60
 -10   7  -9   14.30    4.10
 -11  -7  -9   15.40    4.10
  11  -7   9   23.50    4.30
 -11   7  -9   21.10    4.60
 -12  -7  -9   32.00    5.70
  12  -7   9   31.70    5.00
 -12   7  -9   34.10    5.70
 -13  -7  -9    7.40    3.70
 -13   7  -9    1.70    3.30
 -14  -7  -9    0.60    3.20
 -14  -7  -9   -4.10    2.90
 -14   7  -9    6.00    3.50
 -17  -8   9    4.20    3.50
  17  -8  -9    9.00    5.10
  16  -8  -9    5.30    4.50
 -16  -8   9   10.80    4.00
  15  -8  -9    5.20    4.20
 -15  -8   9    5.50    3.40
 -15   8   9    2.10    2.50
 -14  -8   9    2.40    2.90
  14  -8  -9   -0.80    3.30
 -14   8   9   -3.20    1.60
 -13  -8   9   53.79    6.20
  13  -8  -9   59.89    8.00
 -13   8   9   55.89    5.70
 -12  -8   9   -2.20    2.10
  12  -8  -9    1.70    3.10
 -12   8   9    1.30    2.10
  11  -8  -9   26.00    5.20
 -11  -8   9   21.50    4.10
 -10  -8   9   24.20    4.10
  10  -8  -9   26.30    5.30
  -9  -8   9   69.59    6.30
   9  -8  -9   50.89    6.70
   8  -8  -9    4.50    2.90
  -8  -8   9    4.70    2.40
   8   8  -9    5.20    1.40
   7  -8  -9  119.79    8.10
  -7  -8   9  121.99    6.70
   7   8  -9  109.99    5.00
   6  -8  -9   88.39    6.90
  -6  -8   9   89.09    5.60
   6   8  -9   88.29    4.40
  -6   8   9   82.39    4.80
   6   8  -9   82.59    3.10
  -5  -8   9   -0.40    1.70
   5  -8  -9   -0.20    2.10
   5   8  -9   -0.80    1.20
  -5   8   9   -2.30    1.20
   4  -8  -9  203.88   10.70
  -4  -8   9  208.38    8.80
   4  -8  -9  207.68   10.10
  -4   8   9  208.38    8.50
   4   8  -9  204.48    8.10
   3  -8  -9    0.40    1.80
  -3  -8   9    2.90    1.80
   3  -8  -9    0.00    2.20
  -3   8   9    1.20    1.70
   3   8  -9    0.50    1.50
   2  -8  -9   91.89    7.00
  -2  -8   9   93.59    5.20
   2  -8  -9   86.09    6.00
   2   8  -9   84.49    5.10
  -2   8   9   91.59    5.60
   1  -8  -9  216.98    9.40
   1  -8  -9  193.68   10.40
  -1  -8   9  205.88    8.20
   1   8  -9  198.28    8.50
  -1   8   9  192.38    8.80
   0  -8  -9   35.10    4.10
   0  -8   9   32.70    3.30
   0  -8  -9   33.10    4.90
   0   8  -9   33.60    3.80
   0   8   9   24.20    3.60
  -1  -8  -9   17.50    3.80
  -1  -8  -9   14.60    2.70
   1   8   9   15.70    3.10
  -1   8  -9   13.30    2.90
  -2  -8  -9  140.19    6.80
  -2  -8  -9  141.19    8.90
   2   8   9  153.38    8.10
  -2   8  -9  149.29    7.70
  -3  -8  -9   53.09    6.20
   3  -8   9   53.09    2.30
  -3   8  -9   55.59    5.40
   3   8   9   46.70    5.30
  -4  -8  -9   16.40    3.90
   4  -8   9   18.20    2.40
   4   8   9   19.80    3.70
  -4   8  -9   14.50    3.20
   5  -8   9    5.00    1.70
  -5  -8  -9    4.00    2.60
   5   8   9    4.90    2.80
  -5   8  -9    6.10    2.60
  -6  -8  -9   -0.20    2.60
   6  -8   9    2.30    2.40
   6  -8   9    0.70    1.30
   6   8   9    2.30    2.40
  -6   8  -9    1.70    2.30
   7  -8   9   83.19    4.70
  -7  -8  -9   89.29    8.30
   7  -8   9   89.69    6.90
  -7   8  -9   81.69    7.40
   7   8   9   73.39    7.30
   8  -8   9  192.78    7.90
   8  -8   9  180.98   10.00
  -8  -8  -9  189.58   11.10
   8   8   9  189.58   10.50
  -8   8  -9  171.58    9.90
   9  -8   9   32.60    5.00
  -9  -8  -9   21.00    4.80
  -9   8  -9   28.30    5.00
   9   8   9   35.40    5.50
 -10  -8  -9   -0.80    2.80
  10  -8   9    1.30    2.60
  10   8   9    2.50    2.90
 -10   8  -9   -5.10    2.30
  11  -8   9   11.10    3.80
 -11  -8  -9    8.50    3.80
 -11   8  -9    8.80    3.70
  12  -8   9   -5.40    2.10
 -12  -8  -9    3.10    3.30
 -12   8  -9   -4.00    2.40
 -13  -8  -9    4.00    3.90
 -13   8  -9    9.20    3.90
 -14   8  -9   35.60    6.20
  17  -9  -9    8.00    5.30
 -17  -9   9   22.40    5.30
  16  -9  -9   13.10    5.10
 -16  -9   9   10.10    4.20
 -15  -9   9   57.69    7.00
  15  -9  -9   61.89    9.00
  14  -9  -9   23.80    6.20
 -14  -9   9   23.20    4.80
  13  -9  -9   19.90    5.50
 -13  -9   9   17.00    4.10
  12  -9  -9   -1.10    3.00
 -12  -9   9   -2.00    2.40
 -11  -9   9  108.49    7.30
  11  -9  -9   94.99    9.70
 -10  -9   9   21.70    3.90
  10  -9  -9   22.30    5.20
   9  -9  -9   34.80    5.80
  -9  -9   9   25.10    4.00
  -8  -9   9   24.30    3.90
   8  -9  -9   28.50    5.40
   7  -9  -9   23.90    4.60
  -7  -9   9   24.50    3.70
   7   9  -9   19.20    2.50
  -6  -9   9   62.79    4.80
   6  -9  -9   56.29    6.70
   6   9  -9   60.89    3.90
  -6   9   9   66.99    4.30
   5  -9  -9   11.10    3.40
  -5  -9   9   10.50    2.60
   5  -9  -9    8.70    3.30
  -5   9   9   11.00    2.30
   5   9  -9   10.40    2.20
  -4  -9   9   18.60    3.00
   4  -9  -9   22.10    4.10
   4  -9  -9   16.20    3.90
   4   9  -9   20.40    2.90
  -4   9   9   12.80    2.60
  -3  -9   9  107.59    5.80
   3  -9  -9  112.09    7.20
   3  -9  -9   91.59    8.20
  -3   9   9  111.59    6.00
   3   9  -9  108.59    5.90
  -2  -9   9  205.38    8.40
   2  -9  -9  194.68   10.70
   2  -9  -9  201.18    9.80
  -2   9   9  217.18    9.20
   2   9  -9  212.58    8.80
   1  -9  -9    6.80    2.50
  -1  -9   9    5.50    1.90
   1  -9  -9    4.60    2.70
   1   9  -9    6.60    2.30
  -1   9   9    2.00    1.90
   0  -9   9  154.88    6.60
   0  -9  -9  169.98    9.60
   0  -9  -9  152.88    7.90
   0   9   9  153.38    7.80
   0   9  -9  146.59    7.60
  -1  -9  -9   11.90    3.50
  -1  -9  -9   11.90    2.90
  -1   9  -9   12.20    2.80
   1   9   9   13.90    3.20
  -2  -9  -9   33.10    5.20
  -2  -9  -9   37.40    4.20
  -2   9  -9   35.50    4.40
   2   9   9   35.00    4.60
  -3  -9  -9   47.90    6.20
  -3   9  -9   39.10    4.90
   3   9   9   45.30    5.20
  -4  -9  -9  198.18   11.00
  -4   9  -9  185.28    9.50
   4   9   9  206.68   10.10
  -5  -9  -9  221.88   12.10
   5   9   9  224.88   11.10
  -5   9  -9  219.78   10.70
   6  -9   9    0.20    2.60
  -6  -9  -9    5.50    3.30
  -6   9  -9    0.90    2.30
   6   9   9   -2.90    1.80
  -7  -9  -9   -1.70    2.60
   7  -9   9   -4.40    2.30
  -7   9  -9    0.40    2.30
   7   9   9   -1.60    2.30
  -8  -9  -9    2.90    3.20
   8  -9   9   -0.70    2.40
   8   9   9   -1.00    2.50
  -8   9  -9   -0.30    2.40
   9  -9   9   62.29    7.00
  -9  -9  -9   60.59    7.50
  -9   9  -9   50.49    6.30
   9   9   9   57.19    6.90
  10  -9   9   15.60    4.00
 -10  -9  -9    9.70    4.10
  10   9   9   12.90    4.20
 -10   9  -9   15.10    4.20
 -11  -9  -9    1.00    3.40
  11  -9   9   -0.30    2.50
  11   9   9   -4.80    2.60
 -11   9  -9    0.00    2.80
 -12  -9  -9   31.60    6.10
  12  -9   9   25.80    5.20
 -12   9  -9   29.80    5.70
 -13   9  -9   83.59    8.80
 -16 -10   9   73.19    8.20
  16 -10  -9   67.19    9.90
  15 -10  -9   -2.80    3.50
 -15 -10   9    3.50    3.20
 -14 -10   9   24.40    4.90
  14 -10  -9   36.70    7.10
  13 -10  -9    6.60    4.30
 -13 -10   9    6.50    3.30
 -12 -10   9    6.80    3.10
  12 -10  -9    8.70    4.10
  11 -10  -9   -0.10    3.00
 -11 -10   9    1.90    2.60
 -10 -10   9   -1.50    2.10
  10 -10  -9   -1.10    2.90
  -9 -10   9  364.46   14.70
   9 -10  -9  360.46   17.00
   8 -10  -9  200.18   11.60
  -8 -10   9  180.78    9.20
  -7 -10   9   16.00    3.40
   7 -10  -9   11.10    3.90
   7  10  -9   15.10    2.40
  -6 -10   9   93.79    5.90
   6 -10  -9   98.69    8.80
   6 -10  -9  103.99    7.90
  -6  10   9   87.49    5.00
   6  10  -9   95.79    5.20
  -5 -10   9    3.10    2.10
   5 -10  -9    1.70    2.70
   5 -10  -9    4.20    2.80
  -5  10   9    2.40    1.70
   5  10  -9    3.30    1.90
   4 -10  -9   47.20    5.90
   4 -10  -9   48.60    6.30
  -4 -10   9   48.30    4.70
   4  10  -9   44.80    4.20
  -4  10   9   49.00    4.40
   3 -10  -9   86.29    8.20
   3 -10  -9   84.49    6.60
  -3 -10   9   86.69    5.20
  -3  10   9   80.09    5.20
   3  10  -9   79.99    5.20
   2 -10  -9   68.39    7.30
   2 -10  -9   76.69    6.10
  -2 -10   9   70.59    4.60
   2  10  -9   85.59    5.30
  -2  10   9   77.09    5.20
  -1 -10   9   11.50    2.30
   1 -10  -9   12.80    3.40
   1 -10  -9   16.80    4.10
   1  10  -9   11.00    2.60
  -1  10   9   13.90    2.80
   0 -10   9    0.50    1.30
   0 -10  -9   -0.80    2.00
   0 -10  -9    0.30    2.50
   0  10   9    0.70    1.80
   0  10  -9    2.10    2.00
  -1 -10  -9   59.89    5.70
  -1 -10  -9   47.70    6.30
  -1  10  -9   63.59    5.90
   1  10   9   65.49    6.00
  -2 -10  -9    5.50    3.20
  -2 -10  -9    2.20    2.10
  -2  10  -9    3.20    2.30
   2  10   9    0.90    2.10
  -3 -10  -9   -0.40    2.50
   3  10   9    3.70    2.30
  -3  10  -9    0.60    2.00
  -4 -10  -9   45.10    6.20
   4  10   9   53.79    5.90
  -4  10  -9   43.10    5.10
  -5 -10  -9   32.00    5.60
   5  10   9   44.40    5.50
  -5  10  -9   27.20    4.50
  -6 -10  -9    5.00    3.30
  -6  10  -9   -2.10    2.30
   6  10   9    8.90    3.30
   7 -10   9    3.40    3.10
  -7 -10  -9   -1.50    2.60
  -7  10  -9    1.80    2.60
   7  10   9   -1.60    2.20
   8 -10   9   24.00    4.90
  -8 -10  -9   35.90    5.80
   8  10   9   30.70    5.40
  -8  10  -9   31.90    5.20
   9 -10   9   20.10    4.80
  -9 -10  -9   21.60    5.00
   9  10   9   21.30    4.70
  -9  10  -9   20.80    4.60
 -10 -10  -9    1.60    3.30
  10 -10   9   -1.20    2.90
  10  10   9    2.60    2.90
 -10  10  -9   -1.80    2.80
 -11 -10  -9   14.60    4.70
  11 -10   9   21.90    4.90
 -11  10  -9   29.40    5.50
  11  10   9   19.30    5.00
  12 -10   9   -0.40    3.10
 -12  10  -9    3.60    3.50
  12  10   9    2.00    3.50
  14 -11  -9   58.69    8.90
 -14 -11   9   39.20    6.10
 -13 -11   9    0.40    2.60
  13 -11  -9    6.50    4.40
  12 -11  -9   10.00    4.60
 -12 -11   9   12.00    3.60
  11 -11  -9    5.10    3.70
 -11 -11   9    8.80    3.20
  10 -11  -9    2.20    3.60
 -10 -11   9   12.30    3.40
  -9 -11   9    1.70    2.30
   9 -11  -9    8.00    3.90
   8 -11  -9   -0.80    2.70
  -8 -11   9    0.50    1.90
   7 -11  -9   17.40    4.50
  -7 -11   9   11.30    2.90
   7 -11  -9   12.30    3.90
   7  11  -9   12.90    2.50
  -6 -11   9   19.70    3.50
   6 -11  -9   27.00    5.10
   6 -11  -9   24.50    5.10
   6  11  -9   22.60    3.10
   5 -11  -9   -2.40    2.30
  -5 -11   9   -0.20    1.50
   5 -11  -9    0.70    2.90
   5  11  -9   -0.90    1.60
  -5  11   9    1.00    1.50
   4 -11  -9   -2.30    2.20
  -4 -11   9    1.00    1.80
   4 -11  -9    2.50    2.80
   4  11  -9   -0.60    1.70
  -4  11   9    0.50    1.60
   3 -11  -9  127.69    9.00
  -3 -11   9  118.79    6.40
   3 -11  -9  120.19    8.20
  -3  11   9  122.19    6.50
   3  11  -9  127.49    6.90
   2 -11  -9    4.20    3.10
  -2 -11   9    6.00    1.90
   2 -11  -9    3.30    2.70
  -2  11   9    2.10    1.80
   2  11  -9    3.80    2.00
   1 -11  -9  177.28   10.60
   1 -11  -9  178.68    9.60
  -1 -11   9  158.78    9.20
  -1  11   9  174.88    8.40
   1  11  -9  172.88    8.60
   0 -11  -9  122.39    7.70
   0 -11  -9  107.19    9.40
   0  11  -9  114.79    6.80
   0  11   9   96.79    6.50
  -1 -11  -9   35.80    4.80
  -1 -11  -9   44.60    6.40
   1  11   9   42.20    4.80
  -1  11  -9   44.50    5.10
  -2 -11  -9   23.80    3.90
  -2 -11  -9   21.40    4.80
  -2  11  -9   16.00    3.50
   2  11   9   25.30    4.20
  -3 -11  -9   45.40    6.30
  -3  11  -9   45.50    5.40
   3  11   9   41.00    5.20
  -4 -11  -9   37.50    6.00
  -4  11  -9   34.20    4.90
   4  11   9   41.60    5.40
  -5 -11  -9   40.70    6.30
  -5  11  -9   63.69    6.70
   5  11   9   74.89    7.30
  -6 -11  -9   17.70    4.90
  -6  11  -9   22.60    4.40
   6  11   9   27.30    5.00
  -7 -11  -9   96.39    9.40
   7 -11   9  102.99    9.70
   7  11   9   85.99    8.40
  -7  11  -9   81.59    7.90
   8 -11   9   18.50    4.90
  -8 -11  -9    6.80    4.20
  -8  11  -9   11.30    3.90
   8  11   9   11.90    4.10
   9 -11   9  121.09    9.30
  -9 -11  -9   98.79   10.00
  -9  11  -9  131.39    9.00
   9  11   9  111.69    9.80
  10 -11   9   -3.80    2.70
 -10 -11  -9    0.10    3.40
  10  11   9    2.30    3.10
 -10  11  -9    4.10    3.30
  11 -11   9   84.69    9.10
  11  11   9   81.29    8.90
 -11  11  -9   93.79    9.00
  13 -12  -9    7.60    4.70
 -13 -12   9    5.90    3.40
 -12 -12   9   -1.20    3.20
  12 -12  -9    2.10    3.80
 -11 -12   9   -2.00    2.50
  11 -12  -9   -5.20    3.00
 -10 -12   9   49.10    6.00
  10 -12  -9   54.29    8.00
  -9 -12   9   12.90    3.40
   9 -12  -9   22.00    5.50
   8 -12  -9  167.58   11.20
  -8 -12   9  171.28    9.20
   8 -12  -9  176.08   11.60
  -7 -12   9    1.80    2.10
   7 -12  -9   -2.50    2.50
   7 -12  -9    2.40    3.10
   7  12  -9    1.40    1.80
   6 -12  -9   55.29    7.40
   6 -12  -9   51.89    7.10
  -6 -12   9   61.59    5.80
   6  12  -9   72.89    4.80
  -5 -12   9   -0.70    1.80
   5 -12  -9   -1.00    2.50
   5 -12  -9   -0.80    2.40
   5  12  -9    1.60    1.90
   4 -12  -9   34.40    5.80
   4 -12  -9   28.10    5.30
  -4 -12   9   23.00    3.50
   4  12  -9   28.40    3.90
   3 -12  -9    6.20    3.20
   3 -12  -9    3.20    3.00
   3  12  -9    3.30    2.10
  -3  12   9    4.40    3.00
   2 -12  -9   28.70    5.00
   2 -12  -9   22.30    4.90
   2  12  -9   30.10    4.10
  -2  12   9   33.40    4.00
   1 -12  -9   -0.50    2.60
   1 -12  -9   -0.60    2.30
  -1  12   9    2.40    2.00
   1  12  -9    1.10    2.10
   0 -12  -9   49.60    6.10
   0 -12  -9   48.80    6.50
   0  12  -9   42.30    5.00
   0  12   9   41.10    4.70
  -1 -12  -9    5.20    3.30
  -1 -12  -9    2.50    2.50
  -1  12  -9    3.90    2.50
   1  12   9   -1.40    2.10
  -2 -12  -9   -3.00    2.60
   2  12   9   -2.00    2.10
  -2  12  -9   -3.20    1.90
  -3 -12  -9   33.90    5.80
  -3  12  -9   28.80    4.50
   3  12   9   24.00    4.50
  -4 -12  -9   15.10    4.60
  -4  12  -9   12.30    3.60
   4  12   9   10.20    3.80
  -5 -12  -9   66.99    8.00
   5  12   9   53.39    6.30
  -5  12  -9   53.09    6.30
  -6 -12  -9    0.50    3.30
  -6  12  -9   -2.90    2.50
   6  12   9    1.00    2.60
  -7 -12  -9   16.70    4.70
   7  12   9   20.20    4.40
  -7  12  -9   14.40    4.10
   8 -12   9   -3.30    2.80
  -8 -12  -9   -0.80    3.10
   8  12   9    2.20    3.00
  -8  12  -9    1.20    3.00
   9 -12   9   14.40    4.90
  -9 -12  -9    8.60    4.20
   9  12   9    3.80    3.30
  -9  12  -9    5.50    3.50
  11 -13  -9   -3.80    3.10
 -11 -13   9   -0.10    2.60
  10 -13  -9    4.20    4.00
 -10 -13   9    3.40    3.20
  -9 -13   9   15.20    3.80
   9 -13  -9    5.00    4.20
   9 -13  -9    6.10    4.10
   8 -13  -9   17.20    5.10
   8 -13  -9   11.90    4.40
  -8 -13   9   18.80    3.80
  -7 -13   9   38.80    4.90
   7 -13  -9   41.30    6.70
   7 -13  -9   44.80    7.20
   6 -13  -9    6.10    3.80
   6 -13  -9    8.40    4.00
   6  13  -9    8.40    2.60
   5 -13  -9   40.10    6.40
   5 -13  -9   64.39    7.90
   5  13  -9   46.20    4.90
   4 -13  -9    0.50    3.00
   4 -13  -9    3.90    3.50
   4  13  -9    3.90    2.30
   3 -13  -9    2.40    3.00
   3 -13  -9   -2.40    2.70
   3  13  -9   -0.10    2.20
   2 -13  -9   -2.40    2.40
   2 -13  -9    2.80    3.10
   2  13  -9   -0.10    2.30
   1 -13  -9   23.30    5.00
   1 -13  -9   22.50    4.60
   1  13  -9   21.40    3.80
   0 -13  -9   98.29    9.70
   0 -13  -9  120.99    8.30
   0  13  -9  108.99    7.50
   0  13   9  117.89   10.70
  -1 -13  -9    2.40    2.60
  -1 -13  -9   -2.50    2.60
   1  13   9   -1.60    2.10
  -1  13  -9    2.00    2.70
  -2 -13  -9    4.10    3.70
  -2  13  -9   12.70    3.60
   2  13   9   13.10    3.50
  -3 -13  -9    9.60    4.10
   3  13   9    6.30    2.90
  -3  13  -9    8.60    3.40
  -4 -13  -9   11.20    4.50
  -4  13  -9    0.10    2.60
   4  13   9    8.90    3.30
  -5 -13  -9   31.70    6.30
  -5  13  -9   46.20    6.00
   5  13   9   32.90    5.20
  -6 -13  -9   50.69    7.50
  -6  13  -9   53.69    6.70
   6  13   9   51.19    6.60
  -7 -13  -9   -1.90    3.00
  -7  13  -9   -0.60    3.00
   7  13   9    5.20    3.00
   8  13   9   12.60    4.10
  -8  13  -9    8.50    3.90
   9 -14  -9   44.10    7.10
   9 -14  -9   24.50    6.20
   8 -14  -9   -0.40    3.30
   8 -14  -9    0.00    3.40
   7 -14  -9    2.90    3.80
   7 -14  -9    2.50    3.50
   6 -14  -9   20.70    5.20
   6 -14  -9   18.30    5.40
   5 -14  -9    3.00    3.30
   5 -14  -9    1.50    3.30
   5  14  -9   -2.90    2.00
   4 -14  -9    4.60    3.90
   4 -14  -9    6.90    4.20
   4  14  -9    5.80    2.70
   3 -14  -9    0.20    3.20
   3 -14  -9    6.70    4.30
   3  14  -9    2.30    2.60
   2 -14  -9   46.80    7.00
   2 -14  -9   48.80    7.10
   2  14  -9   50.69    5.60
   1 -14  -9    4.30    3.80
   1 -14  -9    7.00    3.60
   1  14  -9    2.70    2.50
   0 -14  -9  101.49    9.40
   0 -14  -9  111.99   10.50
   0  14  -9  121.59    7.90
  -1 -14  -9    2.80    3.30
  -1  14  -9    6.60    3.20
  -2 -14  -9   35.10    6.40
  -2  14  -9   48.50    6.00
  -3 -14  -9    1.80    3.40
  -3  14  -9    0.20    2.70
  -4 -14  -9   -5.80    2.60
  -4  14  -9    1.60    2.80
   4  14   9   -3.70    2.20
  -5 -14  -9   29.60    6.20
   5  14   9   25.40    4.90
  -5  14  -9   19.70    4.60
   5 -15  -9    0.50    3.60
   5 -15  -9   -1.40    3.10
   5  15  -9    2.90    2.40
   4 -15  -9    1.50    3.80
   4 -15  -9    0.80    3.30
   4  15  -9    4.60    2.90
   3 -15  -9   68.09    8.40
   3 -15  -9   70.49    8.70
   3  15  -9   66.89    6.60
   2 -15  -9   50.99    7.30
   2 -15  -9   39.80    6.60
   2  15  -9   35.40    5.10
   1 -15  -9    1.30    3.30
   1 -15  -9    2.00    3.50
   1  15  -9    1.20    3.00
   0 -15  -9    0.30    3.30
   0 -15  -9    1.40    3.10
   0  15  -9    2.90    2.90
  -1 -15  -9   36.30    6.50
  -1  15  -9   35.20    5.30
  -2 -15  -9   30.80    6.10
  -2  15  -9   44.30    6.20
 -20   0  10   40.60    6.50
  20   0 -10   24.90    6.20
 -19   0  10   -1.90    2.60
 -18   0  10    9.80    3.70
 -17   0  10   -1.20    2.40
 -16   0  10    3.00    2.90
 -15   0  10   -2.00    1.70
 -14   0  10   13.20    3.70
 -13   0  10    2.00    2.50
 -12   0  10   72.29    5.60
 -11   0  10   -1.10    2.00
 -10   0  10  177.68    8.90
   9   0 -10    0.00    0.50
   9   0 -10   -0.70    0.50
  -9   0  10   -2.10    1.00
  -8   0  10   43.60    4.70
   8   0 -10   45.80    2.10
  -7   0  10   -0.10    1.70
  -6   0  10  231.18    9.90
  -5   0  10   -0.80    1.40
  -4   0  10    3.00    1.70
  -4   0  10    3.30    1.80
  -3   0  10   -0.30    1.00
  -3   0  10   -0.80    1.40
   3   0 -10   -1.20    1.20
  -2   0  10  534.95   17.70
   2   0 -10  569.94   17.40
  -2   0  10  538.75   18.10
   1   0 -10    0.00    1.30
  -1   0  10   -0.20    1.10
   0   0 -10   29.50    3.60
   0   0  10   36.10    3.90
   0   0 -10   27.70    3.10
   1   0  10    0.10    1.20
  -1   0 -10    0.90    1.60
  -1   0 -10    1.00    1.30
   1   0  10    0.10    1.10
  -2   0 -10  333.37   12.80
  -2   0 -10  347.17   12.10
  -2   0 -10  327.27    9.70
   2   0  10  331.27   12.40
   2   0  10  315.37   11.80
  -3   0 -10   -0.50    1.60
  -3   0 -10    0.50    0.40
  -3   0 -10   -1.80    1.10
   3   0  10   -1.20    1.40
   4   0  10   42.10    4.50
  -4   0 -10   40.00    4.20
  -4   0 -10   39.20    4.70
   5   0  10    0.90    1.70
  -5   0 -10   -0.10    1.40
  -5   0 -10   -1.70    1.40
  -6   0 -10   11.70    2.70
  -6   0 -10   10.20    3.10
   6   0  10   15.40    3.20
  -7   0 -10   -0.40    2.10
  -7   0 -10    2.20    1.90
   7   0  10   -3.10    1.40
   8   0  10 1444.46   42.30
  -8   0 -10 1426.26   43.10
  -8   0 -10 1345.87   41.30
   9   0  10    7.00    2.90
  -9   0 -10    2.30    2.70
  -9   0 -10    1.80    2.30
  10   0  10  303.17   13.60
 -10   0 -10  309.77   13.10
 -10   0 -10  309.97   14.40
 -11   0 -10    0.20    2.20
  11   0  10   -3.40    2.00
 -11   0 -10   -3.40    2.10
  12   0  10   12.30    3.80
 -12   0 -10   11.20    3.50
 -12   0 -10    1.90    3.10
 -13   0 -10   -4.30    1.90
 -13   0 -10   -2.40    2.90
  13   0  10   -0.10    2.70
  14   0  10   40.30    6.10
 -14   0 -10   33.30    5.30
 -14   0 -10   35.10    6.10
 -15   0 -10   -3.60    2.30
  15   0  10    1.90    3.40
 -15   0 -10    2.40    3.40
 -16   0 -10    0.90    3.80
  16   0  10   -1.90    2.70
 -16   0 -10    5.50    3.80
  20  -1 -10   42.40    7.90
 -20  -1  10   47.60    6.90
 -20   1  10   45.80    6.70
  19  -1 -10    2.10    3.80
 -19  -1  10    1.10    3.00
 -19   1  10    0.90    3.20
  18  -1 -10   -0.70    3.20
 -18  -1  10   -1.10    2.30
 -18   1  10   -1.50    2.70
 -17  -1  10   15.00    4.00
 -17   1  10   18.40    4.30
 -16  -1  10   -3.50    2.30
 -16   1  10   -2.30    2.40
 -15  -1  10   13.30    3.80
 -15   1  10    8.80    3.40
 -14  -1  10   64.89    6.70
 -14   1  10   51.99    6.10
 -13  -1  10  368.16   15.30
 -13   1  10  405.56   15.70
 -12  -1  10   33.80    4.70
 -12   1  10   37.10    4.90
  11  -1 -10  367.26   10.90
 -11  -1  10  362.16   14.60
 -11   1  10  418.36   15.10
  10  -1 -10  404.66   11.60
 -10  -1  10  421.66   15.50
 -10   1  10  390.76   15.10
   9  -1 -10  157.78    5.30
  -9  -1  10  155.28    8.10
  -9   1  10  161.78    8.20
  -8  -1  10    2.90    2.00
   8  -1 -10    4.20    1.00
  -8   1  10    2.00    1.90
   8   1 -10    6.20    0.90
   8   1 -10    6.10    0.80
  -7  -1  10   32.40    4.10
   7  -1 -10   37.80    2.20
  -7   1  10   29.00    3.80
   7   1 -10   35.10    2.20
  -6  -1  10  139.39    7.20
   6   1 -10  157.58    5.70
  -6   1  10  148.99    7.50
  -5  -1  10  121.59    6.60
   5   1 -10  123.59    5.30
  -5   1  10  129.19    6.80
  -5   1  10  122.09    6.10
  -4  -1  10   36.60    3.70
  -4  -1  10   37.00    4.00
   4   1 -10   30.10    2.90
  -4   1  10   32.50    3.80
  -4   1  10   37.40    3.90
  -3  -1  10  197.68    8.50
  -3  -1  10  184.18    8.00
   3  -1 -10  183.18    8.10
   3   1 -10  195.08    7.70
  -3   1  10  182.08    8.40
  -3   1  10  198.58    8.20
   3   1 -10  191.28    7.50
  -2  -1  10  250.67    9.80
   2  -1 -10  256.67   10.00
  -2  -1  10  262.17   10.30
   2   1 -10  252.67    9.20
  -2   1  10  254.87   10.00
   2   1 -10  265.77    9.80
  -1  -1  10  198.88    8.30
   1  -1 -10  190.18    8.20
   1   1 -10  179.28    7.40
  -1   1  10  210.58    8.50
   1   1 -10  203.98    8.40
   0  -1  10   21.80    3.10
   0  -1 -10   30.30    3.40
   0   1 -10   30.90    3.60
   0   1 -10   39.00    3.40
   0   1  10   36.40    3.90
   1  -1  10    8.70    2.30
  -1  -1 -10    6.50    2.00
   1  -1  10    6.70    1.70
   1   1  10    7.60    2.30
  -1   1 -10   13.50    2.10
  -1   1 -10    7.90    1.50
  -1   1 -10    6.30    2.10
  -2  -1 -10   34.60    1.60
  -2  -1 -10   36.20    4.00
  -2  -1 -10   36.50    1.60
   2  -1  10   35.50    3.50
   2  -1  10   36.30    4.00
   2   1  10   41.00    4.40
  -2   1 -10   30.20    3.20
  -2   1 -10   34.20    4.10
  -2   1 -10   34.30    2.30
   3  -1  10   18.30    3.00
  -3  -1 -10   15.00    2.80
   3  -1  10   18.70    2.70
  -3   1 -10   20.40    2.80
  -3   1 -10   22.60    3.50
  -3   1 -10   15.70    1.60
   3   1  10   22.00    3.30
   4  -1  10   11.60    2.70
  -4  -1 -10   12.40    2.60
  -4  -1 -10   14.90    3.10
   4   1  10   11.80    2.80
  -4   1 -10   12.60    1.40
  -4   1 -10   13.60    3.00
  -4   1 -10   12.80    2.30
  -5  -1 -10    2.50    2.10
   5  -1  10    5.50    2.20
  -5  -1 -10    2.30    1.90
   5   1  10    2.10    1.90
  -5   1 -10    2.50    0.70
  -5   1 -10    2.30    2.20
  -5   1 -10    4.70    1.80
   6  -1  10   10.10    2.80
  -6  -1 -10    9.90    2.70
  -6  -1 -10    9.10    2.90
  -6   1 -10    6.50    2.60
  -6   1 -10   10.80    2.50
   6   1  10   15.20    3.10
   7  -1  10  128.09    7.50
  -7  -1 -10  135.29    8.40
  -7  -1 -10  150.28    7.90
  -7   1 -10  125.99    7.00
  -7   1 -10  136.99    8.30
   7   1  10  148.79    8.10
   8  -1  10   54.99    5.70
  -8  -1 -10   61.49    5.90
  -8  -1 -10   47.10    5.90
  -8   1 -10   49.40    5.90
   8   1  10   46.90    5.70
  -8   1 -10   62.49    5.60
   9  -1  10    4.70    2.70
  -9  -1 -10    3.70    2.90
  -9  -1 -10    7.10    2.80
   9   1  10    3.20    2.60
  -9   1 -10    5.50    2.60
  -9   1 -10    4.20    3.10
 -10  -1 -10   62.59    7.00
  10  -1  10   54.19    6.00
 -10  -1 -10   70.19    6.80
  10   1  10   52.09    6.20
 -10   1 -10   54.29    5.80
 -10   1 -10   49.20    6.50
  11  -1  10   31.60    4.90
 -11  -1 -10   29.50    5.30
 -11  -1 -10   23.20    4.40
 -11   1 -10   34.50    4.80
 -11   1 -10   29.40    5.20
  11   1  10   39.30    5.50
 -12  -1 -10   33.20    5.70
  12  -1  10   32.20    5.10
 -12  -1 -10   33.50    5.20
 -12   1 -10   40.70    5.30
 -12   1 -10   26.50    5.30
  12   1  10   35.80    5.60
 -13  -1 -10   -0.90    2.70
  13  -1  10    2.10    2.60
 -13  -1 -10   -0.80    2.80
 -13   1 -10    0.60    3.10
 -13   1 -10    1.00    2.50
  13   1  10   -1.90    2.60
  14  -1  10   76.99    8.00
 -14  -1 -10   90.09    9.30
 -14  -1 -10   68.79    7.50
  14   1  10   88.39    8.80
 -14   1 -10   88.69    8.10
 -14   1 -10   82.29    8.80
 -15  -1 -10    2.50    3.30
 -15  -1 -10    6.10    3.70
  15  -1  10    4.80    3.50
 -15   1 -10   -0.20    2.70
 -15   1 -10    5.70    4.00
  15   1  10   -4.00    2.50
 -16  -1 -10   -3.10    2.90
  16  -1  10    2.40    3.10
 -16  -1 -10   -3.80    2.60
  16   1  10    1.10    3.10
 -16   1 -10   -7.00    2.50
 -16   1 -10    3.00    3.10
 -20  -2  10    5.80    3.90
  20  -2 -10    7.80    4.90
 -20   2  10    6.70    3.70
  19  -2 -10   28.70    6.20
 -19  -2  10   42.20    6.40
 -19   2  10   43.10    6.30
  18  -2 -10   10.20    4.80
 -18  -2  10    9.40    4.00
 -18   2  10   16.90    4.50
 -17  -2  10    0.30    2.90
  17  -2 -10    0.00    3.50
 -17   2  10    4.20    3.10
  16  -2 -10   77.39    9.00
 -16  -2  10   88.19    8.20
 -16   2  10   78.39    7.70
 -15  -2  10    5.20    3.10
  15  -2 -10    5.40    3.40
 -15   2  10    9.40    3.50
 -14  -2  10   54.69    6.20
 -14   2  10   55.59    6.20
 -13  -2  10  140.89    8.20
 -13   2  10  134.19    7.90
 -12  -2  10  127.39    7.80
 -12   2  10  134.69    7.90
 -11  -2  10    3.00    2.40
 -11   2  10   -1.50    1.90
  10  -2 -10   89.79    3.80
 -10  -2  10  100.99    6.40
 -10   2  10   87.09    6.20
  -9  -2  10   67.59    5.30
   9  -2 -10   71.39    3.30
  -9   2  10   65.29    6.00
  -8  -2  10  243.98   10.50
   8   2 -10  239.98    6.90
   8   2 -10  248.18    8.90
  -8   2  10  249.78   10.60
  -7  -2  10   26.70    3.70
   7   2 -10   23.90    1.70
  -7   2  10   23.20    3.50
  -6  -2  10   60.59    4.50
   6   2 -10   67.29    3.20
  -6   2  10   66.59    4.90
  -5  -2  10  321.17   12.10
  -5   2  10  308.47   11.50
   5   2 -10  343.57   10.60
  -5   2  10  314.87   12.30
  -4  -2  10  350.26   12.90
   4   2 -10  359.26   11.60
  -4   2  10  332.27   12.80
  -4   2  10  363.26   12.60
  -3  -2  10  287.67   10.90
   3  -2 -10  281.87   11.00
  -3  -2  10  274.67   10.40
  -3   2  10  259.27   10.40
   3   2 -10  279.67    9.90
   3   2 -10  281.17    9.50
   2  -2 -10  241.78    9.90
  -2  -2  10  239.98    9.70
  -2  -2  10  246.88    9.60
   2   2 -10  243.88    8.50
   2   2 -10  240.48    9.20
  -2   2  10  247.38    9.80
   1  -2 -10   69.99    3.70
   1  -2 -10   62.49    4.60
  -1  -2  10   65.59    4.40
  -1  -2  10   66.69    4.50
  -1   2  10   64.89    4.60
   1   2 -10   63.29    3.60
   1   2 -10   68.69    4.40
   0  -2 -10  432.26   14.90
   0  -2  10  448.06   14.70
   0  -2 -10  407.16   12.80
   0   2  10  414.16   14.80
   0   2 -10  416.26   14.60
   0   2 -10  436.86   13.30
   1  -2  10  403.96   14.30
  -1  -2 -10  410.66   12.00
  -1  -2 -10  400.56   14.60
  -1   2 -10  442.46   14.90
   1   2  10  410.56   14.70
  -1   2 -10  416.66   13.10
   2  -2  10  163.78    7.70
  -2  -2 -10  171.88    4.80
   2  -2  10  171.98    7.00
  -2  -2 -10  172.98    8.10
  -2   2 -10  152.78    7.90
  -2   2 -10  160.98    6.70
   2   2  10  170.68    8.10
   3  -2  10    3.40    1.80
  -3  -2 -10    1.30    1.70
   3  -2  10   -0.10    1.30
   3   2  10   -0.10    1.70
  -3   2 -10    3.20    1.30
  -3   2 -10    1.00    1.80
  -3   2 -10    2.10    1.40
   4  -2  10    4.50    2.00
   4  -2  10    0.20    1.20
  -4  -2 -10    1.70    1.90
   4   2  10    2.10    1.90
  -4   2 -10    3.10    1.10
  -4   2 -10    3.80    1.90
  -4   2 -10    5.30    1.70
   5  -2  10   35.20    4.20
  -5  -2 -10   39.30    4.60
  -5   2 -10   39.80    2.60
   5   2  10   37.60    4.60
  -5   2 -10   47.00    5.20
  -5   2 -10   40.10    3.90
  -6  -2 -10   74.39    5.60
   6  -2  10   74.29    5.40
  -6   2 -10   75.19    3.60
   6   2  10   69.99    6.30
  -6   2 -10   69.99    4.70
  -6   2 -10   69.49    6.50
   7  -2  10    1.40    2.10
  -7  -2 -10    1.60    2.30
  -7  -2 -10    5.40    2.50
  -7   2 -10    3.10    2.40
   7   2  10   -1.10    1.90
  -7   2 -10    4.50    2.00
   8  -2  10   16.20    3.30
  -8  -2 -10   24.60    4.30
  -8  -2 -10   14.10    3.90
   8   2  10   14.60    3.50
  -8   2 -10   13.50    2.90
  -8   2 -10   12.80    3.60
  -9  -2 -10  125.49    8.60
   9  -2  10  121.99    7.50
  -9  -2 -10  114.39    7.60
   9   2  10  116.99    7.90
  -9   2 -10  103.69    8.00
  -9   2 -10  122.79    7.10
 -10  -2 -10  112.49    8.50
  10  -2  10  116.39    7.90
 -10  -2 -10  128.39    8.20
  10   2  10  137.19    8.70
 -10   2 -10  138.59    9.10
 -10   2 -10  121.09    7.30
 -11  -2 -10   67.19    7.60
 -11  -2 -10   68.09    7.00
  11  -2  10   73.89    7.00
 -11   2 -10   80.49    7.10
 -11   2 -10   68.79    7.60
  11   2  10   59.69    6.90
 -12  -2 -10    9.10    3.80
 -12  -2 -10    4.20    3.00
  12  -2  10    4.50    2.80
  12   2  10    7.30    3.50
 -12   2 -10    2.70    3.00
 -12   2 -10    0.90    2.30
 -13  -2 -10   33.70    5.90
 -13  -2 -10   30.30    5.20
  13  -2  10   44.20    6.00
 -13   2 -10   36.50    6.00
  13   2  10   41.60    6.20
 -13   2 -10   33.30    4.90
 -14  -2 -10   61.69    7.40
  14  -2  10   53.59    6.60
 -14  -2 -10   58.19    7.50
 -14   2 -10   45.60    6.80
  14   2  10   57.09    7.40
 -14   2 -10   59.19    6.40
 -15  -2 -10    0.70    3.50
 -15  -2 -10   -0.70    3.10
  15  -2  10    0.00    2.90
 -15   2 -10    3.60    3.20
 -15   2 -10    5.10    4.20
  15   2  10    4.40    3.50
  16  -2  10    6.90    3.40
 -16  -2 -10    3.40    3.40
 -16   2 -10   -1.10    3.20
  16   2  10    7.80    4.00
 -16   2 -10    4.00    3.50
  20  -3 -10    9.60    5.20
  19  -3 -10   54.29    8.30
 -19  -3  10   73.79    8.30
 -19   3  10   69.39    7.80
  18  -3 -10    5.00    4.00
 -18  -3  10    2.90    3.20
 -18   3  10    1.40    3.10
  17  -3 -10    4.10    3.90
 -17  -3  10    1.70    3.10
 -17   3  10    2.10    2.90
  16  -3 -10   -1.40    2.80
 -16  -3  10    6.50    3.00
 -16   3  10    4.30    2.90
  15  -3 -10    4.70    3.50
 -15  -3  10   -0.70    2.00
 -15   3  10    2.80    2.60
 -14  -3  10   81.89    7.60
  14  -3 -10   77.69    8.50
 -14   3  10   94.49    6.90
 -13  -3  10   41.80    5.30
  13  -3 -10   34.60    5.60
 -13   3  10   42.20    5.30
 -12  -3  10    3.30    2.40
  12  -3 -10    4.10    2.80
 -12   3  10    6.70    2.80
 -11  -3  10   13.40    3.30
  11  -3 -10   15.60    3.90
 -11   3  10   14.70    3.30
  10  -3 -10   10.10    3.00
 -10  -3  10   12.90    2.90
 -10   3  10   10.10    2.90
  -9  -3  10   44.60    4.80
   9  -3 -10   52.79    6.00
   9   3 -10   49.40    4.50
  -9   3  10   54.89    5.50
   8  -3 -10  105.59    6.80
  -8  -3  10   99.29    6.20
   8   3 -10   88.39    4.60
   8   3 -10   95.69    3.00
  -8   3  10   94.19    6.10
  -7  -3  10   60.99    5.50
   7  -3 -10   48.60    5.30
  -7   3  10   56.39    5.40
   7   3 -10   59.09    3.30
   7   3 -10   52.39    2.40
  -6  -3  10  115.29    6.50
   6  -3 -10  120.49    6.80
   6   3 -10  112.39    4.50
  -6   3  10  128.89    6.80
  -6   3  10  106.69    5.80
   6   3 -10  116.59    4.70
  -5  -3  10   29.80    3.70
   5  -3 -10   28.70    3.60
  -5   3  10   28.30    3.80
   5   3 -10   25.10    2.40
  -5   3  10   34.00    3.60
  -4  -3  10  166.18    7.90
   4  -3 -10  171.08    7.70
   4   3 -10  183.88    6.80
  -4   3  10  168.38    7.60
  -3  -3  10   13.40    2.60
   3  -3 -10   11.70    2.20
   3  -3 -10   13.90    2.80
  -3   3  10   11.00    2.40
   3   3 -10   10.30    1.90
   3   3 -10   11.40    1.60
   2  -3 -10  127.09    6.80
  -2  -3  10  117.89    6.00
  -2  -3  10  120.19    6.30
   2  -3 -10  116.09    5.60
   2   3 -10  123.89    4.80
   2   3 -10  122.09    5.90
  -2   3  10  127.49    6.40
  -1  -3  10    1.10    1.40
   1  -3 -10    0.30    1.70
  -1  -3  10    0.80    1.50
   1  -3 -10    1.10    1.10
   1   3 -10   -0.80    0.70
   1   3 -10    1.30    1.40
  -1   3  10    0.20    1.40
   0  -3 -10  186.88    6.80
   0  -3 -10  177.18    8.50
   0  -3  10  179.58    7.90
   0   3  10  197.78    8.60
   0   3 -10  187.58    8.20
   0   3 -10  191.08    6.60
  -1  -3 -10  210.88    6.90
   1  -3  10  199.58    8.60
  -1  -3 -10  217.98    9.50
  -1   3 -10  211.88    7.40
   1   3  10  205.88    9.30
  -1   3 -10  218.28    9.30
  -2  -3 -10  121.39    3.80
  -2  -3 -10  111.79    6.70
   2  -3  10  109.99    6.00
  -2   3 -10  115.69    6.60
  -2   3 -10  123.79    5.10
   2   3  10  131.29    7.00
  -3  -3 -10  287.47   11.90
   3  -3  10  307.57   11.30
   3  -3  10  299.17   10.30
   3   3  10  290.77   11.90
  -3   3 -10  276.87    9.80
  -3   3 -10  280.07   11.80
   4  -3  10  209.58    9.30
  -4  -3 -10  266.27   10.70
   4  -3  10  212.58    8.50
  -4   3 -10  220.88    8.30
  -4   3 -10  210.98   10.10
   4   3  10  226.18   10.00
  -5  -3 -10   -3.10    1.50
   5  -3  10   -0.40    1.60
   5  -3  10    0.60    1.40
   5   3  10    0.40    1.90
  -5   3 -10    2.90    2.20
  -5   3 -10    0.40    1.30
  -6  -3 -10   79.59    6.80
   6  -3  10   83.89    5.70
  -6   3 -10   77.09    6.90
   6   3  10   71.79    6.40
  -6   3 -10   69.29    4.50
   7  -3  10    1.00    1.90
  -7  -3 -10   -2.10    1.90
  -7   3 -10   -0.60    1.40
   7   3  10    0.00    1.60
  -7   3 -10   -1.40    2.10
   8  -3  10   22.80    3.80
  -8  -3 -10   25.60    4.40
   8   3  10   23.00    4.10
  -8   3 -10   21.60    3.40
  -8   3 -10   14.40    3.80
  -9  -3 -10   15.50    4.20
  -9  -3 -10   22.20    4.20
   9  -3  10   21.20    3.80
  -9   3 -10   16.40    3.10
   9   3  10   23.00    4.40
  -9   3 -10   15.30    4.10
 -10  -3 -10    1.30    2.50
  10  -3  10    2.50    2.50
 -10  -3 -10    6.20    3.20
  10   3  10    6.20    3.20
 -10   3 -10    6.50    3.40
 -10   3 -10    6.80    2.60
 -11  -3 -10   76.49    8.10
  11  -3  10   77.19    7.00
 -11  -3 -10   73.99    7.50
  11   3  10   80.69    8.00
 -11   3 -10   85.89    6.30
 -11   3 -10   85.09    8.30
  12  -3  10  103.79    7.40
 -12  -3 -10  100.39    9.00
 -12  -3 -10  107.39    9.60
 -12   3 -10   86.89    8.70
  12   3  10   94.69    9.00
 -12   3 -10  107.09    7.20
 -13  -3 -10   13.30    4.40
  13  -3  10   27.90    4.80
 -13  -3 -10   28.60    5.20
 -13   3 -10   14.00    4.50
  13   3  10   20.10    4.60
 -13   3 -10   28.90    4.50
 -14  -3 -10   41.60    6.30
 -14  -3 -10   39.10    6.50
  14  -3  10   40.20    5.80
  14   3  10   32.40    6.00
 -14   3 -10   43.10    5.60
 -14   3 -10   39.20    6.30
 -15  -3 -10   39.60    6.50
  15  -3  10   34.50    5.70
 -15  -3 -10   31.30    5.90
  15   3  10   29.80    6.00
 -15   3 -10   31.30    4.90
 -15   3 -10   32.60    6.10
 -16  -3 -10   18.90    5.50
  16  -3  10   18.40    4.70
 -16   3 -10   18.40    4.40
  16   3  10   21.00    5.50
 -16   3 -10   28.30    5.90
 -19  -4  10   -2.60    3.10
  19  -4 -10    2.40    4.40
 -19   4  10    4.50    3.10
  18  -4 -10   14.30    5.50
 -18  -4  10   18.90    5.00
 -18   4  10   21.40    4.90
  17  -4 -10   -0.20    3.60
 -17  -4  10    4.60    3.20
 -17   4  10    8.50    3.40
  16  -4 -10   14.80    4.80
 -16  -4  10    3.60    3.00
 -16   4  10   12.00    3.50
 -15  -4  10    4.70    3.10
  15  -4 -10    3.00    3.00
 -15   4  10   -4.30    2.20
  14  -4 -10  153.48   10.40
 -14  -4  10  138.19    8.50
 -14   4  10  156.08    8.90
 -13  -4  10    8.90    3.20
  13  -4 -10   11.90    3.90
 -13   4  10    7.40    2.90
  12  -4 -10    7.10    3.40
 -12  -4  10    9.00    3.10
 -12   4  10    7.90    3.10
 -11  -4  10   33.30    4.60
  11  -4 -10   29.10    5.10
 -11   4  10   22.40    3.90
 -10  -4  10   43.40    5.10
  10  -4 -10   50.29    6.10
 -10   4  10   47.90    5.20
   9  -4 -10  554.74   19.90
  -9  -4  10  542.15   18.60
  -9   4  10  519.05   18.40
   9   4 -10  503.45   16.40
  -8  -4  10   21.30    3.50
   8  -4 -10   18.70    3.70
   8   4 -10   24.10    2.60
  -8   4  10   22.20    3.60
   8   4 -10   21.50    1.30
  -7  -4  10  102.99    6.20
   7  -4 -10  116.79    7.00
   7   4 -10  102.49    4.60
   7   4 -10  106.59    3.90
  -7   4  10  111.99    6.50
  -6  -4  10   33.30    4.00
   6  -4 -10   36.50    4.40
   6   4 -10   35.80    2.30
   6   4 -10   31.60    2.20
  -6   4  10   31.90    3.60
  -6   4  10   28.40    3.90
  -5  -4  10  102.89    5.90
   5  -4 -10  108.59    6.30
   5   4 -10   98.39    3.90
   5   4 -10   98.09    4.40
  -5   4  10   99.69    5.50
   4  -4 -10  366.46   13.30
  -4  -4  10  379.26   13.40
   4   4 -10  374.16   11.90
  -4   4  10  351.86   12.90
   4   4 -10  363.66   11.00
   4   4 -10  361.86   10.60
   3  -4 -10  118.49    6.10
  -3  -4  10  120.39    6.30
   3  -4 -10  118.59    7.00
   3   4 -10  121.09    4.30
  -3   4  10  130.19    6.50
   3   4 -10  120.39    5.60
  -2  -4  10    3.30    1.60
   2  -4 -10   -0.10    1.90
  -2  -4  10    3.40    1.60
   2  -4 -10    0.60    1.20
   2   4 -10    2.40    0.70
   2   4 -10    1.70    1.50
  -2   4  10    1.00    1.60
   1  -4 -10   59.79    3.80
  -1  -4  10   63.89    4.20
   1  -4 -10   55.09    5.30
  -1  -4  10   60.29    4.30
  -1   4  10   62.49    4.60
   1   4 -10   58.79    4.20
   1   4 -10   62.89    2.60
   0  -4  10  212.38    8.70
   0  -4 -10  223.88    7.90
   0  -4 -10  230.18   10.10
   0   4 -10  214.08    9.10
   0   4  10  221.18    9.50
   0   4 -10  217.68    6.80
  -1  -4 -10   78.89    3.60
  -1  -4 -10   76.99    5.60
   1  -4  10   89.69    5.10
  -1   4 -10   76.19    3.30
   1   4  10   74.49    5.30
  -1   4 -10   78.39    5.20
   2  -4  10   25.00    2.40
   2  -4  10   23.00    3.20
  -2  -4 -10   18.40    1.50
  -2  -4 -10   20.00    3.50
  -2   4 -10   20.50    3.30
   2   4  10   17.50    3.30
  -2   4 -10   21.50    2.00
  -3  -4 -10   34.00    4.50
   3  -4  10   35.10    3.80
  -3   4 -10   40.70    4.50
  -3   4 -10   36.60    2.60
   3   4  10   36.90    4.40
   4  -4  10   -0.90    1.00
  -4  -4 -10   -2.80    1.60
   4  -4  10   -0.10    1.50
  -4   4 -10    0.70    2.00
   4   4  10   -1.40    1.70
  -4   4 -10   -0.20    1.00
   5  -4  10   80.79    4.80
  -5  -4 -10   75.39    6.80
   5  -4  10   84.49    5.30
   5   4  10   87.39    6.20
  -5   4 -10   80.79    4.40
  -5   4 -10   78.99    6.00
  -6  -4 -10  109.19    7.40
   6  -4  10  119.49    6.60
   6   4  10  122.59    7.40
  -6   4 -10  123.59    7.60
  -6   4 -10  117.99    5.70
  -7  -4 -10    5.00    2.90
   7  -4  10    7.20    2.50
  -7   4 -10    9.20    2.20
   7   4  10    7.90    3.00
  -7   4 -10    9.90    3.10
  -8  -4 -10    2.20    2.60
   8  -4  10    5.10    2.50
  -8   4 -10    3.50    1.90
   8   4  10    6.90    3.10
  -8   4 -10    4.60    2.80
   9  -4  10   72.59    4.70
   9  -4  10   76.99    6.50
  -9  -4 -10   66.09    6.90
  -9   4 -10   73.19    5.10
   9   4  10   53.59    6.40
  -9   4 -10   73.19    7.40
 -10  -4 -10   23.00    4.90
  10  -4  10   32.40    4.60
  10  -4  10   18.70    3.00
 -10  -4 -10   27.40    4.90
 -10   4 -10   23.20    4.70
 -10   4 -10   25.50    3.60
  10   4  10   19.80    4.40
 -11  -4 -10   -1.30    2.60
  11  -4  10    1.80    2.40
 -11  -4 -10    1.30    2.70
 -11   4 -10   -0.50    1.90
  11   4  10    2.60    2.90
 -11   4 -10    1.60    2.70
  12  -4  10    0.40    2.50
 -12  -4 -10   -0.30    3.00
 -12  -4 -10   -0.10    2.80
 -12   4 -10   -2.30    2.00
 -12   4 -10    2.40    3.20
  12   4  10    0.70    2.60
  13  -4  10   46.00    5.80
 -13  -4 -10   42.60    6.80
 -13  -4 -10   52.19    6.70
  13   4  10   56.19    7.30
 -13   4 -10   39.80    5.10
 -13   4 -10   38.00    6.20
 -14  -4 -10    0.10    2.90
  14  -4  10    0.70    2.30
 -14  -4 -10   -3.60    3.40
 -14   4 -10    3.90    3.40
  14   4  10    0.40    3.20
 -15  -4 -10    3.50    3.70
 -15  -4 -10   -1.50    2.80
  15  -4  10    2.00    2.80
 -15   4 -10   -1.80    3.20
  15   4  10    2.60    3.60
 -19  -5  10    4.00    3.90
  19  -5 -10   11.80    5.30
 -19   5  10   10.40    3.90
  18  -5 -10   -4.10    3.10
 -18  -5  10    3.70    3.50
 -18   5  10   -3.30    2.70
 -17  -5  10    3.60    3.50
  17  -5 -10   14.40    5.30
 -17   5  10   11.50    3.80
  16  -5 -10    4.00    4.00
 -16  -5  10    9.00    3.70
 -16   5  10    2.50    2.70
 -15  -5  10   -3.50    2.20
  15  -5 -10    1.00    3.20
 -15   5  10    3.50    2.70
 -14  -5  10    3.80    2.70
  14  -5 -10   -2.00    2.80
 -14   5  10   -0.50    2.20
 -13  -5  10    9.50    3.40
  13  -5 -10   11.50    4.10
 -13   5  10   13.90    3.50
  12  -5 -10    4.10    3.40
 -12  -5  10   10.30    3.20
 -12   5  10   13.40    3.30
  11  -5 -10   26.10    5.00
 -11  -5  10   18.30    3.80
 -11   5  10   20.10    3.80
  10  -5 -10    4.20    2.90
 -10  -5  10    3.40    2.30
 -10   5  10    1.10    2.30
  -9  -5  10  112.99    6.80
   9  -5 -10  100.89    7.50
   9   5 -10  104.29    5.20
  -9   5  10  112.79    6.80
   8  -5 -10    1.20    2.20
  -8  -5  10    4.20    2.00
   8   5 -10    1.70    1.20
   8   5 -10    0.40    0.60
  -8   5  10    1.70    2.00
   7  -5 -10  305.77   13.00
  -7  -5  10  299.77   12.00
   7   5 -10  301.07    9.80
   7   5 -10  305.27    9.20
  -7   5  10  297.87   12.10
  -6  -5  10   46.70    4.70
   6  -5 -10   49.30    5.30
  -6   5  10   46.70    4.30
   6   5 -10   56.39    2.90
   6   5 -10   48.50    2.70
   5  -5 -10    7.20    2.40
  -5  -5  10   10.90    2.50
   5   5 -10    8.30    1.10
   5   5 -10    7.40    1.50
  -5   5  10    6.00    2.10
   4  -5 -10  104.79    6.10
  -4  -5  10  111.69    6.10
   4  -5 -10  104.09    6.90
   4   5 -10  111.29    3.60
  -4   5  10  108.79    6.00
   4   5 -10  116.89    3.70
   4   5 -10  109.29    5.10
   3  -5 -10  190.48    9.60
  -3  -5  10  207.68    8.70
   3  -5 -10  203.08    8.80
   3   5 -10  203.28    7.90
  -3   5  10  201.58    8.70
   2  -5 -10    7.20    2.90
  -2  -5  10    9.40    2.30
   2  -5 -10   14.30    2.50
  -2   5  10    8.00    2.30
   2   5 -10   13.50    2.40
  -1  -5  10  591.94   19.00
   1  -5 -10  591.24   20.60
   1  -5 -10  591.74   18.50
   1   5 -10  605.24   19.00
  -1   5  10  596.04   19.60
   0  -5  10   47.10    4.10
   0  -5  10   56.89    4.00
   0  -5 -10   53.89    3.50
   0  -5 -10   50.59    5.40
   0   5 -10   44.00    4.40
   0   5  10   52.89    5.00
   1  -5  10  211.48    8.50
  -1  -5 -10  210.18   10.00
  -1  -5 -10  204.98    7.50
   1   5  10  204.78    9.40
  -1   5 -10  206.48    6.20
  -1   5 -10  211.78    9.20
   2  -5  10   83.69    5.00
  -2  -5 -10   75.49    6.80
  -2  -5 -10   93.09    4.00
   2  -5  10   89.69    3.80
  -2   5 -10   86.79    5.80
  -2   5 -10   93.29    3.50
   2   5  10   91.49    6.10
  -3  -5 -10   19.00    3.80
   3  -5  10   35.30    3.80
   3  -5  10   31.30    2.70
   3   5  10   37.30    4.50
  -3   5 -10   32.10    2.20
  -3   5 -10   33.40    4.20
   4  -5  10   64.69    3.70
  -4  -5 -10   73.89    6.80
   4  -5  10   58.39    4.40
   4   5  10   59.59    5.80
  -4   5 -10   58.49    5.70
  -4   5 -10   66.79    3.40
   5  -5  10   18.90    3.00
  -5  -5 -10   21.80    4.00
   5  -5  10   17.20    2.50
  -5   5 -10   20.40    2.30
  -5   5 -10   15.40    3.40
   5   5  10   17.00    3.60
  -6  -5 -10    8.10    2.80
   6  -5  10    7.50    2.20
   6  -5  10    7.80    2.10
   6   5  10    6.40    2.80
  -6   5 -10    6.40    1.70
  -6   5 -10    4.00    2.50
  -7  -5 -10    2.90    2.70
   7  -5  10    7.50    2.40
   7   5  10    5.10    2.80
  -7   5 -10    4.40    1.70
  -7   5 -10    6.10    2.80
   8  -5  10  112.49    6.60
  -8  -5 -10  124.09    8.10
   8  -5  10  114.89    6.40
  -8   5 -10  113.99    7.90
  -8   5 -10  113.79    5.90
   8   5  10  103.89    7.60
  -9  -5 -10   67.99    7.30
   9  -5  10   86.89    5.60
   9  -5  10   88.39    6.10
   9   5  10   78.19    7.50
  -9   5 -10   77.89    5.10
  -9   5 -10   84.79    8.10
  10  -5  10   66.99    6.20
  10  -5  10   62.79    4.90
 -10  -5 -10   64.19    7.10
 -10   5 -10   62.59    7.00
  10   5  10   66.89    7.20
  11  -5  10   59.69    6.00
 -11  -5 -10   50.29    6.60
  11   5  10   55.89    6.90
 -11   5 -10   46.90    6.50
  12  -5  10   32.30    4.90
 -12  -5 -10   35.90    6.20
 -12  -5 -10   28.30    5.30
  12   5  10   30.20    5.70
 -12   5 -10   25.70    5.10
 -13  -5 -10    4.60    3.40
  13  -5  10    2.60    2.90
 -13  -5 -10    8.30    3.80
 -13   5 -10    0.70    3.40
  13   5  10   -2.40    2.80
 -14  -5 -10    3.40    3.50
 -14  -5 -10    2.10    3.40
  14  -5  10    2.30    2.70
 -14   5 -10    0.30    3.30
  14   5  10   -1.60    3.10
 -15  -5 -10    3.80    3.70
 -15   5 -10    9.70    4.60
  15   5  10    8.10    4.30
  18  -6 -10    6.40    4.90
 -18  -6  10    9.50    4.40
 -18   6  10    5.90    3.40
 -17  -6  10   -0.50    3.10
  17  -6 -10   -3.30    3.50
 -17   6  10   -4.50    2.30
  16  -6 -10   57.29    8.20
 -16  -6  10   63.19    7.40
 -16   6  10   50.79    6.30
 -15  -6  10   92.19    8.70
  15  -6 -10   91.09   10.00
 -15   6  10   96.89    7.30
  14  -6 -10   71.29    8.60
 -14  -6  10   44.50    5.90
 -14   6  10   50.29    5.80
  13  -6 -10   44.60    6.90
 -13  -6  10   37.90    5.50
 -13   6  10   39.90    5.20
 -12  -6  10   35.10    5.00
  12  -6 -10   51.19    6.90
 -12   6  10   47.40    5.40
  11  -6 -10  168.38   10.60
 -11  -6  10  183.58    9.60
 -11   6  10  191.68    9.40
  10  -6 -10  111.29    8.30
 -10  -6  10  114.09    7.30
 -10   6  10  115.39    7.20
   9  -6 -10   19.60    4.20
  -9  -6  10   23.20    4.00
   9   6 -10   22.90    2.80
  -9   6  10   26.40    4.00
  -8  -6  10    0.80    2.10
   8  -6 -10    4.50    2.60
   8   6 -10    2.00    1.20
   8   6 -10    2.90    1.00
  -8   6  10    4.50    2.30
  -7  -6  10   56.69    5.30
   7  -6 -10   70.09    6.60
   7   6 -10   43.10    2.70
   7   6 -10   49.99    2.90
  -6  -6  10  133.29    7.20
   6  -6 -10  140.89    8.20
   6   6 -10  139.19    5.50
   6   6 -10  137.99    4.90
  -6   6  10  147.69    6.80
   5  -6 -10   50.99    5.40
  -5  -6  10   58.09    5.10
  -5   6  10   59.09    4.20
   5   6 -10   48.50    1.90
   5   6 -10   57.39    3.40
   4  -6 -10    2.50    2.00
   4  -6 -10    6.60    2.40
  -4  -6  10    1.40    1.80
   4   6 -10    3.00    1.40
  -4   6  10    0.20    1.70
  -3  -6  10  396.26   14.00
   3  -6 -10  408.76   14.50
   3  -6 -10  391.26   15.60
  -3   6  10  390.76   14.00
   3   6 -10  398.76   13.30
   2  -6 -10    7.60    2.80
   2  -6 -10    9.10    2.40
  -2  -6  10    9.80    2.30
   2   6 -10    7.70    2.00
  -2   6  10    9.50    2.50
   1  -6 -10   -0.50    1.80
  -1  -6  10    1.10    1.60
   1  -6 -10    0.40    1.40
   1   6 -10   -0.40    1.30
  -1   6  10    3.30    1.90
   0  -6 -10    9.20    2.00
   0  -6  10    4.90    1.90
   0  -6 -10    6.90    2.70
   0   6  10   11.50    2.70
   0   6 -10    8.90    2.40
   1  -6  10  118.69    5.90
  -1  -6 -10  119.59    5.50
  -1  -6 -10  140.09    7.90
  -1   6 -10  122.79    6.70
   1   6  10  120.99    6.90
  -2  -6 -10    4.60    2.60
  -2  -6 -10    4.80    1.40
   2  -6  10    6.50    2.00
  -2   6 -10    7.50    2.40
   2   6  10    1.70    2.20
   3  -6  10   53.19    2.90
  -3  -6 -10   55.99    6.00
   3  -6  10   51.79    3.90
  -3   6 -10   54.99    5.50
   3   6  10   66.19    6.20
   4  -6  10   91.79    5.50
  -4  -6 -10  114.79    7.70
   4   6  10  113.29    7.20
  -4   6 -10  124.89    7.20
   5  -6  10  219.08    8.60
   5  -6  10  220.68    9.30
  -5  -6 -10  273.17   12.20
   5   6  10  221.98   10.90
  -5   6 -10  237.38   11.00
  -6  -6 -10    5.50    3.10
   6  -6  10   11.10    2.50
   6   6  10    3.50    2.60
  -6   6 -10    6.00    2.70
   7  -6  10   23.10    3.50
  -7  -6 -10   28.10    4.70
  -7   6 -10   25.50    4.40
   7   6  10   29.00    4.70
  -8  -6 -10    5.10    3.30
   8  -6  10    4.00    2.20
   8  -6  10    6.40    2.50
   8   6  10    5.10    2.80
  -8   6 -10    6.60    3.10
   9  -6  10   18.30    3.50
   9  -6  10   16.80    3.10
  -9  -6 -10   10.50    3.90
   9   6  10   17.30    4.20
  -9   6 -10   13.50    3.90
 -10  -6 -10   -1.90    2.60
  10  -6  10    0.30    2.00
  10  -6  10    0.80    2.00
 -10   6 -10    0.80    2.70
  10   6  10   -0.80    2.40
  11  -6  10   25.90    6.00
  11  -6  10   25.20    4.20
 -11  -6 -10   32.40    5.40
  11   6  10   25.00    5.10
 -11   6 -10   25.70    4.90
 -12  -6 -10   39.10    6.20
  12  -6  10   34.90    4.60
  12   6  10   42.90    6.50
 -12   6 -10   39.00    6.10
 -13  -6 -10   -1.40    3.20
 -13  -6 -10    0.40    3.00
 -13   6 -10   -2.70    2.90
  13   6  10    2.00    3.30
 -14  -6 -10   15.20    5.30
 -14  -6 -10   13.00    4.60
  14   6  10   11.70    4.40
 -14   6 -10   10.50    4.30
 -18  -7  10   47.20    7.20
  18  -7 -10   48.60    8.60
  17  -7 -10  160.18   12.40
 -17  -7  10  117.09    9.00
 -17   7  10  139.39    9.00
  16  -7 -10   53.49    8.00
 -16  -7  10   43.70    6.30
 -16   7  10   50.99    6.10
 -15  -7  10    4.60    3.30
  15  -7 -10    2.50    3.60
 -15   7  10   -0.60    2.40
 -14  -7  10   -1.40    2.60
  14  -7 -10    2.90    3.40
 -14   7  10    4.80    2.70
 -13  -7  10   -1.90    1.70
  13  -7 -10    1.80    3.30
 -13   7  10   -3.70    1.70
 -12  -7  10    1.30    2.60
  12  -7 -10    7.70    3.70
 -12   7  10    7.50    2.70
  11  -7 -10   13.60    4.30
 -11  -7  10    7.80    2.90
 -11   7  10   11.40    3.10
 -10  -7  10   17.00    3.70
  10  -7 -10   11.10    4.00
 -10   7  10   14.20    3.20
  -9  -7  10   21.00    3.80
   9  -7 -10   25.50    4.90
   8  -7 -10   22.80    4.50
  -8  -7  10   18.20    3.50
   8   7 -10   22.70    2.10
  -7  -7  10  100.79    6.20
   7  -7 -10   94.29    7.00
   7   7 -10   97.19    4.10
   7   7 -10   88.49    4.20
  -6  -7  10    5.10    2.20
   6  -7 -10    7.40    3.10
   6   7 -10    6.00    0.80
  -6   7  10    8.10    2.20
   6   7 -10    4.60    1.50
  -5  -7  10   17.80    3.10
   5  -7 -10   13.90    3.40
   5   7 -10   15.60    2.20
  -5   7  10   20.20    3.10
   4  -7 -10  103.29    7.60
  -4  -7  10  122.39    6.50
   4  -7 -10  119.39    7.10
   4   7 -10  123.19    5.70
  -4   7  10  120.59    6.30
  -3  -7  10   37.50    4.00
   3  -7 -10   31.20    4.00
   3  -7 -10   31.60    4.70
   3   7 -10   27.70    3.20
  -3   7  10   33.60    3.90
   2  -7 -10  235.78   10.20
   2  -7 -10  236.48   11.50
  -2  -7  10  240.68    9.60
  -2   7  10  231.78   10.00
   2   7 -10  255.57    9.70
   1  -7 -10  482.15   18.80
  -1  -7  10  509.95   16.60
   1  -7 -10  498.35   16.90
   1   7 -10  499.05   16.80
  -1   7  10  524.05   17.60
   0  -7  10    1.70    1.60
   0  -7 -10   -3.30    2.20
   0  -7 -10   -0.70    1.50
   0   7  10   -1.40    1.70
   0   7 -10    2.30    1.80
  -1  -7 -10    2.10    1.50
  -1  -7 -10    1.60    2.50
  -1   7 -10    4.40    2.10
   1   7  10    1.10    1.90
  -2  -7 -10  145.99    8.80
   2  -7  10  143.29    6.50
  -2  -7 -10  139.09    6.30
   2   7  10  136.19    7.80
  -2   7 -10  148.89    7.80
   3  -7  10    1.40    0.80
  -3  -7 -10   -0.90    2.20
   3  -7  10   -1.20    1.30
  -3   7 -10   -1.10    1.80
   3   7  10   -2.50    1.70
  -4  -7 -10  275.27   13.00
   4  -7  10  274.97   10.30
  -4   7 -10  292.17   12.20
   4   7  10  268.87   12.20
   5  -7  10    4.50    1.80
  -5  -7 -10    3.00    2.80
  -5   7 -10    5.90    2.60
   5   7  10    0.40    2.10
  -6  -7 -10   -2.50    2.20
   6  -7  10   -0.10    1.50
   6   7  10    2.40    2.40
  -6   7 -10   -0.60    2.20
   7  -7  10   -1.30    1.40
  -7  -7 -10   -0.20    2.40
   7   7  10    5.90    2.90
  -7   7 -10   -3.10    2.10
  -8  -7 -10   -1.00    2.80
   8  -7  10    5.20    2.60
   8  -7  10    9.30    2.40
  -8   7 -10    7.40    3.30
   8   7  10    2.50    2.90
   9  -7  10   80.39    6.30
   9  -7  10   84.89    5.60
  -9  -7 -10   86.79    8.40
   9   7  10   87.69    8.50
  -9   7 -10   88.79    8.30
  10  -7  10    3.00    2.40
 -10  -7 -10    6.00    3.50
  10  -7  10   12.80    2.90
 -10   7 -10    5.40    3.50
  10   7  10   12.00    3.70
 -11  -7 -10    6.30    3.50
  11  -7  10    3.00    2.60
 -11   7 -10   -1.10    2.90
  11   7  10    1.30    3.00
 -12  -7 -10   18.10    4.80
 -12   7 -10   15.60    4.60
  12   7  10   20.40    5.10
 -13  -7 -10   68.69    8.40
 -13   7 -10   83.69    8.80
  13   7  10   64.99    8.40
 -14  -7 -10   22.40    5.50
  14   7  10   19.30    5.20
 -14   7 -10   35.50    6.40
  17  -8 -10   -0.60    4.00
 -17  -8  10   -6.10    2.90
  16  -8 -10    1.60    4.00
 -16  -8  10    0.50    3.20
  15  -8 -10   21.10    5.60
 -15  -8  10   15.10    4.40
 -15   8  10   14.20    3.70
  14  -8 -10   35.90    6.80
 -14  -8  10   49.70    6.50
 -14   8  10   37.30    5.10
 -13  -8  10    2.10    2.80
  13  -8 -10   -0.50    3.10
 -13   8  10   -0.40    2.30
 -12  -8  10   29.90    4.90
  12  -8 -10   27.30    5.70
 -12   8  10   32.20    4.50
  11  -8 -10   28.40    5.50
 -11  -8  10   25.20    4.40
 -10  -8  10    1.10    2.30
  10  -8 -10    5.80    3.30
   9  -8 -10   18.40    4.60
  -9  -8  10   21.10    3.90
   8  -8 -10   36.60    5.60
  -8  -8  10   31.30    4.40
   8   8 -10   29.80    2.60
  -7  -8  10   64.39    5.70
   7  -8 -10   49.70    6.10
   7   8 -10   49.80    3.30
   6  -8 -10  131.09    8.30
  -6  -8  10  131.79    7.20
   6   8 -10  132.89    5.80
  -6   8  10  125.39    6.40
   5  -8 -10   68.39    6.70
  -5  -8  10   59.39    5.40
   5  -8 -10   59.69    6.70
   5   8 -10   59.29    3.90
  -5   8  10   60.09    4.50
   4  -8 -10   79.19    7.60
  -4  -8  10   86.99    5.50
   4  -8 -10   72.49    5.90
   4   8 -10   82.29    4.80
  -4   8  10   87.09    5.30
   3  -8 -10    0.60    2.30
   3  -8 -10   -1.80    2.20
  -3  -8  10    2.50    1.90
   3   8 -10    1.00    1.60
  -3   8  10    0.20    1.60
   2  -8 -10   12.30    3.50
  -2  -8  10   11.20    2.50
   2  -8 -10   11.20    2.80
   2   8 -10   14.20    2.60
  -2   8  10   16.00    3.10
  -1  -8  10    4.60    1.90
   1  -8 -10    0.80    1.90
   1  -8 -10    0.60    1.80
   1   8 -10    2.00    1.90
  -1   8  10    1.50    2.10
   0  -8 -10   28.20    3.70
   0  -8 -10   28.20    4.70
   0  -8  10   25.40    3.10
   0   8  10   27.50    3.90
   0   8 -10   29.60    3.90
  -1  -8 -10  417.36   17.10
  -1  -8 -10  433.36   14.70
   1   8  10  425.56   15.80
  -1   8 -10  413.76   15.30
  -2  -8 -10   28.10    4.90
  -2  -8 -10   33.80    3.60
   2   8  10   40.20    5.00
  -2   8 -10   35.00    4.40
  -3  -8 -10   72.39    7.30
  -3   8 -10   62.69    6.00
   3   8  10   71.89    6.60
   4  -8  10  273.87   10.00
  -4  -8 -10  276.97   13.30
   4   8  10  286.37   12.60
  -4   8 -10  262.27   11.90
  -5  -8 -10  128.79    8.80
   5  -8  10  134.29    6.20
   5   8  10  118.59    7.90
  -5   8 -10  120.99    7.80
   6  -8  10    6.40    2.00
  -6  -8 -10    8.90    3.70
  -6   8 -10    8.30    3.20
   6   8  10    5.60    3.10
   7  -8  10    1.10    1.50
  -7  -8 -10    2.20    2.60
  -7   8 -10    0.20    2.40
   7   8  10    2.20    2.80
  -8  -8 -10    3.20    3.30
   8  -8  10    7.50    2.20
   8  -8  10    3.50    2.50
   8   8  10    8.50    3.50
  -8   8 -10    5.60    3.00
   9  -8  10  120.49    8.10
  -9  -8 -10  103.89    9.70
   9   8  10  112.29    8.50
  -9   8 -10  119.29    8.60
 -10  -8 -10   10.40    4.00
  10  -8  10    3.20    2.90
  10   8  10    8.80    3.90
 -10   8 -10    4.90    3.40
  11  -8  10    3.10    2.80
 -11  -8 -10    1.50    2.90
  11   8  10    2.10    3.20
 -11   8 -10   -1.20    2.70
 -12  -8 -10   -1.20    2.90
 -12   8 -10    5.70    3.80
  12   8  10   -1.60    2.70
  13   8  10    3.10    3.60
 -13   8 -10    6.90    4.00
  16  -9 -10   -2.70    3.30
 -16  -9  10   -6.10    2.80
 -15  -9  10    6.70    3.70
  15  -9 -10    3.90    4.10
 -14  -9  10    5.00    3.40
  14  -9 -10   11.10    4.70
 -13  -9  10    3.70    2.90
  13  -9 -10    2.40    3.60
  12  -9 -10    3.30    3.40
 -12  -9  10    1.20    2.70
  11  -9 -10    2.20    3.30
 -11  -9  10    4.90    3.00
 -10  -9  10  115.79    7.60
  10  -9 -10  102.49    9.90
  -9  -9  10   19.10    3.80
   9  -9 -10   20.40    4.70
   8  -9 -10   44.40    6.30
  -8  -9  10   46.60    5.30
   8   9 -10   48.20    3.30
   7  -9 -10   13.60    4.00
  -7  -9  10   12.10    3.00
   7   9 -10    8.70    1.90
  -6  -9  10   19.40    3.40
   6  -9 -10   26.20    4.70
   6  -9 -10   20.40    4.40
   6   9 -10   26.10    2.90
  -6   9  10   15.40    2.80
   5  -9 -10   99.79    8.80
   5  -9 -10   90.69    7.20
  -5  -9  10  108.29    6.30
   5   9 -10   92.59    5.10
  -5   9  10   90.79    5.50
   4  -9 -10    4.10    3.30
   4  -9 -10    5.30    2.70
  -4  -9  10    7.30    2.50
  -4   9  10    4.80    2.30
   4   9 -10    5.00    2.00
  -3  -9  10  109.79    6.10
   3  -9 -10  101.39    7.10
   3  -9 -10  120.09    8.30
   3   9 -10   95.99    5.70
  -3   9  10  103.69    6.20
   2  -9 -10  148.09    9.30
  -2  -9  10  141.09    6.90
   2  -9 -10  145.49    8.20
   2   9 -10  137.69    7.10
  -2   9  10  139.49    7.30
   1  -9 -10    9.10    2.90
   1  -9 -10    6.10    3.30
  -1  -9  10   11.10    2.40
   1   9 -10   13.40    2.90
  -1   9  10    9.50    2.70
   0  -9  10    7.20    2.00
   0  -9 -10    3.00    2.90
   0  -9 -10    9.30    2.50
   0   9  10    6.90    2.70
   0   9 -10   10.30    2.70
  -1  -9 -10   17.00    3.10
  -1  -9 -10   10.70    3.80
  -1   9 -10   12.80    3.10
   1   9  10   11.50    3.00
  -2  -9 -10  190.08    8.40
  -2  -9 -10  174.08   10.50
   2   9  10  181.48    9.40
  -2   9 -10  181.18    9.10
  -3  -9 -10    0.00    2.60
   3   9  10    2.70    2.60
  -3   9 -10    3.20    2.40
  -4  -9 -10   16.00    4.30
   4   9  10   12.10    3.50
  -4   9 -10   14.40    3.50
  -5  -9 -10   25.80    5.20
   5   9  10   30.40    5.00
  -5   9 -10   38.80    5.20
  -6  -9 -10  141.19    9.80
  -6   9 -10  145.89    8.80
   6   9  10  135.99    8.80
  -7  -9 -10   46.00    6.50
   7   9  10   40.70    5.90
  -7   9 -10   57.69    6.50
  -8  -9 -10   38.00    6.20
   8  -9  10   22.50    4.60
  -8   9 -10   25.70    4.90
   8   9  10   25.80    5.10
   9  -9  10   -0.20    2.50
  -9  -9 -10    6.50    3.70
   9   9  10    5.00    3.30
  -9   9 -10   -6.00    2.30
  10  -9  10    7.70    3.40
 -10  -9 -10    8.10    4.00
 -10   9 -10    8.60    4.00
  10   9  10    9.10    4.00
  11  -9  10    3.60    2.90
 -11  -9 -10    4.40    3.50
 -11   9 -10    4.70    3.60
  11   9  10    0.50    3.10
 -12   9 -10   18.30    4.70
  12   9  10   24.70    5.60
 -15 -10  10   51.99    7.10
  15 -10 -10   57.29    8.90
 -14 -10  10   14.50    4.30
  14 -10 -10   15.30    5.60
 -13 -10  10   59.49    7.00
  13 -10 -10   50.29    8.20
 -12 -10  10   18.10    4.30
  12 -10 -10    9.00    4.30
  11 -10 -10    3.10    3.80
 -11 -10  10    2.60    2.70
 -10 -10  10    8.10    3.10
  10 -10 -10    7.90    3.90
  -9 -10  10   56.59    6.10
   9 -10 -10   73.49    8.30
   8 -10 -10   85.89    8.80
  -8 -10  10   71.59    6.60
   8  10 -10   76.89    4.40
  -7 -10  10   86.09    6.10
   7 -10 -10   90.09    8.90
   7  10 -10   81.59    4.70
  -6 -10  10    3.00    2.00
   6 -10 -10    6.60    3.50
   6 -10 -10    4.70    3.40
  -6  10  10    9.80    2.30
   6  10 -10    6.80    2.10
   5 -10 -10   46.10    6.10
  -5 -10  10   49.10    5.00
   5 -10 -10   41.80    5.90
  -5  10  10   41.60    4.20
   5  10 -10   51.19    4.40
   4 -10 -10  141.39    9.60
   4 -10 -10  135.89    8.60
  -4 -10  10  148.29    7.50
  -4  10  10  143.29    7.20
   4  10 -10  148.99    7.00
   3 -10 -10   10.90    3.20
  -3 -10  10    8.80    2.40
   3 -10 -10   15.50    3.90
   3  10 -10    6.00    2.10
  -3  10  10    5.20    2.20
   2 -10 -10   10.40    3.10
  -2 -10  10    8.90    2.30
   2 -10 -10    8.70    3.70
  -2  10  10    8.40    2.60
   2  10 -10   15.70    2.90
   1 -10 -10  301.27   12.40
   1 -10 -10  267.27   13.50
  -1 -10  10  265.97   10.20
  -1  10  10  260.17   11.40
   1  10 -10  273.57   11.20
   0 -10  10    2.00    1.50
   0 -10 -10    0.30    2.70
   0 -10 -10    4.10    2.40
   0  10  10    3.60    2.30
   0  10 -10    1.20    2.10
  -1 -10 -10   10.00    3.80
  -1 -10 -10   15.10    3.20
  -1  10 -10   15.40    3.40
   1  10  10   16.00    3.40
  -2 -10 -10   15.60    3.20
  -2 -10 -10   12.20    4.00
   2  10  10    9.30    3.30
  -2  10 -10   10.70    3.00
  -3 -10 -10   69.39    7.70
  -3  10 -10   52.39    5.80
   3  10  10   67.89    6.60
  -4 -10 -10    4.50    3.30
   4  10  10    8.80    3.10
  -4  10 -10    4.70    2.70
  -5 -10 -10    1.20    3.10
  -5  10 -10   -1.50    2.20
   5  10  10    1.10    2.60
  -6 -10 -10  117.49   10.20
   6  10  10   77.69    7.90
  -6  10 -10  111.39    7.80
  -7 -10 -10    7.60    3.80
  -7  10 -10    1.30    2.70
   7  10  10    6.00    3.20
  -8 -10 -10    2.40    3.40
  -8  10 -10    3.80    3.10
   8  10  10    2.70    3.10
   9 -10  10   15.00    4.30
  -9 -10 -10    3.40    3.60
  -9  10 -10    9.00    3.80
   9  10  10    6.20    3.60
 -10 -10 -10   58.49    8.00
  10 -10  10   69.29    7.70
  10  10  10   46.90    7.00
 -10  10 -10   63.59    7.70
  11 -10  10   -1.10    3.10
  11  10  10    1.10    3.20
 -11  10 -10   -2.20    3.10
 -14 -11  10   73.69    7.90
  14 -11 -10   53.89    8.80
  13 -11 -10   19.10    5.70
 -13 -11  10    9.70    3.70
  12 -11 -10   23.40    5.90
 -12 -11  10   23.70    4.80
 -11 -11  10   11.80    3.90
  11 -11 -10   10.10    4.40
 -10 -11  10   91.39    6.90
  10 -11 -10   62.59    8.60
   9 -11 -10   14.40    4.70
  -9 -11  10   13.30    3.40
   8 -11 -10   24.50    5.30
  -8 -11  10   28.00    4.30
  -7 -11  10    1.40    2.30
   7 -11 -10   -2.20    2.50
   7 -11 -10    5.20    3.40
   7  11 -10    0.80    1.70
  -6 -11  10  126.59    7.50
   6 -11 -10  116.89   10.40
   6 -11 -10  142.19    9.50
   6  11 -10  137.39    6.70
   5 -11 -10    3.50    3.40
  -5 -11  10    4.50    2.30
   5 -11 -10    6.80    3.60
  -5  11  10    2.30    1.90
   5  11 -10    6.30    2.20
   4 -11 -10   45.80    6.20
   4 -11 -10   38.40    6.20
  -4 -11  10   48.80    4.80
  -4  11  10   52.39    4.60
   4  11 -10   37.80    4.30
  -3 -11  10   30.60    3.80
   3 -11 -10   35.70    5.80
   3 -11 -10   28.20    4.80
  -3  11  10   24.30    3.60
   3  11 -10   24.70    3.70
  -2 -11  10   69.39    4.80
   2 -11 -10   87.79    6.90
   2 -11 -10   79.49    8.30
   2  11 -10   77.99    5.50
  -2  11  10   85.89    5.70
   1 -11 -10    7.60    2.90
   1 -11 -10    4.60    3.40
   1  11 -10    6.90    2.50
  -1  11  10    2.60    2.30
   0 -11 -10   24.30    4.30
   0 -11 -10   21.30    4.80
   0  11  10   23.30    3.80
   0  11 -10   18.10    3.40
  -1 -11 -10    2.70    2.30
  -1 -11 -10    3.00    2.90
   1  11  10   -0.50    2.20
  -1  11 -10   -1.10    1.90
  -2 -11 -10    9.50    2.80
  -2 -11 -10    5.60    3.50
   2  11  10    2.60    2.70
  -2  11 -10    2.20    2.50
  -3 -11 -10    1.60    3.20
   3  11  10    7.70    3.40
  -3  11 -10   13.80    3.50
  -4 -11 -10   27.50    5.40
   4  11  10   29.30    4.90
  -4  11 -10   31.10    4.80
  -5 -11 -10   -0.50    2.90
   5  11  10   -1.80    2.50
  -5  11 -10    0.40    2.80
  -6 -11 -10   76.89    8.70
   6  11  10   74.59    8.00
  -6  11 -10   81.09    7.80
  -7 -11 -10    7.10    3.90
  -7  11 -10    4.50    3.10
   7  11  10    8.60    3.60
  -8 -11 -10   -0.30    3.60
  -8  11 -10    1.10    2.90
   8  11  10   -0.30    2.70
  -9 -11 -10    9.90    4.40
  -9  11 -10   18.60    4.70
   9  11  10   16.40    4.50
  10 -11  10    0.40    3.50
 -10  11 -10    5.60    3.60
  10  11  10    4.60    3.90
  13 -12 -10   24.40    6.40
  12 -12 -10    5.00    4.10
 -12 -12  10    3.30    3.10
  11 -12 -10   16.20    5.20
 -11 -12  10   12.30    3.80
  10 -12 -10    6.30    4.20
 -10 -12  10    9.70    3.60
   9 -12 -10   30.90    6.20
  -9 -12  10   30.60    4.80
  -8 -12  10    5.10    2.80
   8 -12 -10    3.20    3.30
   8 -12 -10    2.20    3.10
   7 -12 -10   90.69    9.40
   7 -12 -10   88.89    9.50
  -7 -12  10   87.39    6.50
   7  12 -10   95.49    5.60
   6 -12 -10   98.99    9.60
   6 -12 -10   80.99    8.90
  -6 -12  10   87.99    6.30
   6  12 -10   87.79    5.60
  -5 -12  10   67.19    5.90
   5 -12 -10   58.59    7.60
   5 -12 -10   88.59    8.90
   5  12 -10   70.39    5.20
   4 -12 -10   17.60    4.80
   4 -12 -10   18.00    4.40
   4  12 -10   15.90    3.20
   3 -12 -10   23.00    4.80
   3 -12 -10   22.00    5.10
   3  12 -10   30.20    4.10
  -3  12  10   33.90    4.10
   2 -12 -10    4.40    3.40
   2 -12 -10    9.30    3.40
   2  12 -10   11.60    2.90
  -2  12  10    6.60    2.50
   1 -12 -10    3.60    3.30
   1 -12 -10    6.00    3.00
  -1  12  10   10.40    3.00
   1  12 -10   11.60    3.10
   0 -12 -10   73.79    7.20
   0 -12 -10   64.69    7.90
   0  12  10   54.99    5.60
   0  12 -10   68.29    6.50
  -1 -12 -10   70.29    6.90
  -1 -12 -10   74.29    8.40
   1  12  10   72.09    6.70
  -1  12 -10   69.19    6.50
  -2 -12 -10   17.00    4.60
  -2  12 -10   17.20    3.80
   2  12  10   12.80    3.40
  -3 -12 -10    2.90    3.40
   3  12  10    0.50    2.40
  -3  12 -10   -1.40    2.10
  -4 -12 -10   65.89    8.20
   4  12  10   65.79    7.00
  -4  12 -10   75.69    7.40
  -5 -12 -10   -3.70    2.60
  -5  12 -10    1.20    2.80
   5  12  10    4.10    2.90
  -6 -12 -10   44.80    7.10
  -6  12 -10   48.70    6.30
   6  12  10   45.40    6.20
  -7 -12 -10    2.40    3.80
  -7  12 -10    0.80    3.00
   7  12  10    3.10    3.20
  -8 -12 -10   14.60    5.00
   8  12  10   21.60    4.90
  -8  12 -10   14.50    4.50
   9  12  10   26.10    5.40
  -9  12 -10   22.40    5.20
 -11 -13  10    3.30    3.00
  11 -13 -10    6.40    4.30
  10 -13 -10   -4.00    3.00
  10 -13 -10   -0.10    3.70
 -10 -13  10   -2.00    2.60
   9 -13 -10    1.30    3.80
   9 -13 -10    2.50    3.40
  -9 -13  10    0.70    2.40
  -8 -13  10   35.50    5.00
   8 -13 -10   29.80    6.10
   8 -13 -10   30.20    6.20
   7 -13 -10   23.60    5.70
   7 -13 -10   20.60    5.40
   6 -13 -10   -2.30    3.30
   6 -13 -10   -3.50    2.50
   6  13 -10   -0.10    2.00
   5 -13 -10   13.60    4.30
   5 -13 -10   13.80    4.60
   5  13 -10    9.90    2.90
   4 -13 -10   14.80    4.80
   4 -13 -10   18.10    4.60
   4  13 -10   14.10    3.40
   3 -13 -10    1.10    3.00
   3 -13 -10    4.70    3.20
   3  13 -10    3.80    2.70
   2 -13 -10   35.00    6.20
   2 -13 -10   30.90    5.50
   2  13 -10   32.70    4.70
   1 -13 -10   14.70    3.90
   1 -13 -10   19.80    4.90
   1  13 -10   17.60    3.60
   0 -13 -10   33.50    5.30
   0 -13 -10   34.90    6.20
   0  13 -10   33.50    4.90
   0  13  10   31.30    4.60
  -1 -13 -10   10.10    3.60
  -1 -13 -10   20.20    5.20
   1  13  10   10.20    3.30
  -1  13 -10    3.50    2.70
  -2 -13 -10   17.40    5.20
  -2  13 -10   10.90    3.60
   2  13  10   12.10    3.50
  -3 -13 -10   20.80    5.40
  -3  13 -10   20.40    4.70
   3  13  10   25.40    4.70
  -4 -13 -10   25.60    5.70
  -4  13 -10   25.30    4.70
   4  13  10   17.60    4.20
  -5 -13 -10   -1.20    3.20
   5  13  10    2.30    3.00
  -5  13 -10    0.60    2.90
  -6 -13 -10    2.40    3.90
   6  13  10   -0.40    3.00
  -6  13 -10   -1.00    2.80
   7  13  10   -0.70    2.80
  -7  13 -10   -4.70    2.60
   8 -14 -10   17.40    5.40
   8 -14 -10   29.70    6.40
   7 -14 -10   16.20    5.20
   7 -14 -10   22.70    5.70
   6 -14 -10    4.10    3.60
   6 -14 -10   11.20    4.20
   6  14 -10    0.80    2.20
   5 -14 -10    3.60    3.80
   5 -14 -10    7.70    4.00
   5  14 -10    4.40    2.50
   4 -14 -10   32.70    6.10
   4 -14 -10   54.99    7.70
   4  14 -10   49.60    5.40
   3 -14 -10   24.90    5.30
   3 -14 -10   23.10    5.60
   3  14 -10   29.60    4.40
   2 -14 -10    2.10    3.40
   2 -14 -10   -1.70    2.70
   2  14 -10    0.60    2.40
   1 -14 -10    8.10    4.30
   1 -14 -10    9.30    3.60
   1  14 -10    5.30    3.30
   0 -14 -10   -0.40    2.70
   0 -14 -10    1.60    3.30
   0  14 -10    4.40    2.90
  -1 -14 -10   13.20    4.70
  -1  14 -10   21.40    4.50
  -2 -14 -10   43.90    7.20
  -2  14 -10   30.40    5.00
  -3 -14 -10    5.90    4.00
  -3  14 -10    4.90    3.10
  -4 -14 -10    7.00    5.00
  -4  14 -10    5.20    3.50
   4  14  10    6.50    3.60
  20   0 -11    3.40    4.00
 -20   0  11   -1.50    3.30
 -19   0  11    7.40    3.60
 -18   0  11    2.80    3.00
 -17   0  11    9.80    3.90
 -16   0  11    0.10    2.70
 -15   0  11  377.86   16.20
 -14   0  11   -1.70    2.30
 -13   0  11  304.97   13.60
 -12   0  11    6.00    3.00
 -11   0  11  312.07   13.30
 -10   0  11    0.50    2.10
  10   0 -11    0.50    0.60
  10   0 -11    0.50    0.50
   9   0 -11  209.18    7.00
  -9   0  11  223.38   10.30
   9   0 -11  227.78    6.70
  -8   0  11    5.50    2.40
  -7   0  11  419.76   15.50
  -6   0  11    0.30    1.30
  -5   0  11    0.50    1.30
  -5   0  11    0.70    1.20
  -4   0  11   -1.90    1.40
  -4   0  11   -2.30    1.20
  -3   0  11  547.75   18.20
  -3   0  11  555.34   18.70
   3   0 -11  564.64   17.90
  -2   0  11   -0.80    1.40
   2   0 -11   -0.40    1.50
   1   0 -11   17.60    2.90
  -1   0  11   19.00    3.10
   1   0 -11   14.80    2.50
   0   0 -11    3.60    2.00
   0   0 -11    8.30    2.10
   0   0  11    8.30    2.20
  -1   0 -11  839.62   25.70
   1   0  11  858.11   26.50
  -1   0 -11  860.41   26.90
  -2   0 -11   -1.20    1.20
  -2   0 -11    0.50    0.70
   2   0  11   -1.10    1.50
  -2   0 -11    3.20    2.00
  -3   0 -11    7.10    2.60
  -3   0 -11    6.30    2.00
  -3   0 -11    9.00    0.90
   3   0  11    6.10    2.30
  -4   0 -11    1.40    1.90
   4   0  11   -1.70    1.50
  -4   0 -11   -0.90    1.80
   5   0  11  276.17   11.70
  -5   0 -11  260.27   11.00
  -5   0 -11  278.07   12.40
  -6   0 -11   -2.80    1.80
  -6   0 -11    3.60    2.20
   6   0  11   -1.10    1.80
  -7   0 -11    5.70    2.50
  -7   0 -11    4.30    2.50
   7   0  11   -2.20    2.10
   8   0  11    0.50    2.50
  -8   0 -11   -1.20    1.90
  -8   0 -11    3.70    2.70
   9   0  11  539.45   20.00
  -9   0 -11  534.75   20.80
  -9   0 -11  532.25   19.30
 -10   0 -11    0.10    2.90
 -10   0 -11   -0.80    2.00
  10   0  11   -1.60    2.30
  11   0  11   33.00    5.20
 -11   0 -11   37.90    5.20
 -11   0 -11   31.80    5.60
 -12   0 -11    1.90    3.30
 -12   0 -11   -0.20    2.50
  12   0  11    3.90    2.80
  13   0  11  151.98   10.00
 -13   0 -11  168.28    9.90
 -13   0 -11  153.38   10.80
  14   0  11    0.40    2.80
 -14   0 -11    0.50    2.90
 -14   0 -11    2.00    3.50
 -15   0 -11   10.80    3.80
 -15   0 -11    9.00    4.30
  15   0  11    5.90    3.40
 -20  -1  11   19.50    5.20
  20  -1 -11   21.40    6.10
 -20   1  11   18.40    5.00
  19  -1 -11   12.40    5.00
 -19  -1  11   11.80    4.30
 -19   1  11   11.00    4.20
 -18  -1  11    2.10    2.70
  18  -1 -11    2.30    3.70
 -18   1  11   -1.70    2.80
 -17  -1  11   45.90    6.50
 -17   1  11   50.59    6.60
 -16  -1  11   58.29    6.80
 -16   1  11   47.00    6.30
 -15  -1  11    4.60    2.80
 -15   1  11    7.50    3.20
 -14  -1  11   -1.10    2.40
 -14   1  11    1.10    2.60
 -13  -1  11   26.20    4.80
 -13   1  11   34.20    5.10
 -12  -1  11  232.68   11.30
 -12   1  11  266.27   11.90
 -11  -1  11   53.09    5.90
 -11   1  11   73.69    6.70
  10  -1 -11    9.00    1.40
 -10  -1  11    7.40    2.90
 -10   1  11    7.80    3.00
   9  -1 -11   15.50    1.50
  -9  -1  11   13.20    3.20
  -9   1  11   12.60    3.10
   9   1 -11   14.00    1.10
   9   1 -11   14.30    0.90
  -8  -1  11   47.70    5.10
   8  -1 -11   48.60    2.60
   8   1 -11   47.50    2.50
  -8   1  11   49.99    5.30
  -7  -1  11   31.40    4.10
   7   1 -11   31.40    2.40
  -7   1  11   28.30    4.00
  -6  -1  11  103.79    6.20
  -6   1  11  102.29    6.40
   6   1 -11  107.59    4.80
  -5  -1  11   32.40    4.10
  -5   1  11   36.40    3.90
   5   1 -11   32.50    3.00
  -5   1  11   24.50    3.70
  -4  -1  11   -1.20    1.30
  -4  -1  11    3.20    1.70
  -4   1  11    1.40    1.60
  -4   1  11    2.40    1.90
   4   1 -11   -0.50    1.20
   4   1 -11    3.20    1.40
   3  -1 -11   13.10    2.50
  -3  -1  11   16.70    3.10
  -3  -1  11   20.30    3.00
   3   1 -11   18.30    2.60
  -3   1  11   16.20    2.70
   3   1 -11   18.10    2.60
  -3   1  11   16.70    3.10
   2  -1 -11  184.68    8.10
  -2  -1  11  184.58    8.40
  -2  -1  11  179.58    8.10
   2   1 -11  172.98    7.30
   2   1 -11  173.98    7.80
  -2   1  11  182.48    8.20
  -1  -1  11   27.90    3.40
   1  -1 -11   29.90    3.50
  -1   1  11   24.00    3.30
   1   1 -11   26.70    2.90
   1   1 -11   29.30    3.60
   0  -1 -11   17.80    2.90
   0  -1  11   18.40    3.00
   0   1 -11   13.50    2.20
   0   1 -11   14.30    2.80
   0   1  11   13.70    2.80
  -1  -1 -11  135.29    6.70
   1  -1  11  122.59    6.50
  -1   1 -11  121.59    6.00
   1   1  11  133.29    7.10
  -1   1 -11  117.79    6.90
   2  -1  11    1.20    1.70
  -2  -1 -11    2.50    0.60
  -2  -1 -11    0.30    1.60
   2  -1  11    4.10    1.70
  -2  -1 -11    2.20    0.60
  -2   1 -11   -0.10    1.80
  -2   1 -11    2.70    1.60
  -2   1 -11    2.60    1.00
   2   1  11    2.00    1.90
  -3  -1 -11  103.99    6.10
   3  -1  11  105.59    6.30
  -3   1 -11  102.09    4.10
   3   1  11   96.39    6.30
  -3   1 -11  117.79    7.00
  -3   1 -11   94.09    5.50
   4  -1  11   63.19    5.80
  -4  -1 -11   73.99    5.20
  -4  -1 -11   56.89    5.90
   4   1  11   83.69    5.80
  -4   1 -11   56.09    5.80
  -4   1 -11   72.19    4.80
  -4   1 -11   68.79    2.90
   5  -1  11   28.20    4.10
  -5  -1 -11   31.40    4.10
  -5  -1 -11   34.80    4.90
  -5   1 -11   34.50    4.70
   5   1  11   33.00    4.50
  -5   1 -11   33.10    3.80
  -6  -1 -11  136.59    8.60
  -6  -1 -11  130.39    7.80
   6  -1  11  146.89    8.10
  -6   1 -11  148.09    7.50
  -6   1 -11  143.19    8.60
   6   1  11  149.69    8.30
   7  -1  11   10.80    3.10
  -7  -1 -11   18.10    4.00
  -7  -1 -11   12.70    3.20
   7   1  11   14.60    3.50
  -7   1 -11   20.30    4.00
  -7   1 -11   17.70    3.20
   8  -1  11    8.90    3.20
  -8  -1 -11   11.90    3.40
  -8  -1 -11   11.50    3.60
  -8   1 -11   12.50    2.90
  -8   1 -11    7.10    3.20
   8   1  11    7.50    3.10
   9  -1  11  155.68    9.10
  -9  -1 -11  159.48    8.90
  -9  -1 -11  155.08    9.80
   9   1  11  135.99    8.50
  -9   1 -11  149.99    8.20
  -9   1 -11  133.79    9.30
 -10  -1 -11  107.09    9.70
  10  -1  11  127.59    8.20
 -10  -1 -11  121.19    8.10
  10   1  11  133.19    8.60
 -10   1 -11  122.59    8.90
 -10   1 -11  120.09    7.50
  11  -1  11   89.69    8.20
 -11  -1 -11  100.79    7.70
 -11  -1 -11   97.29    9.30
 -11   1 -11   91.09    7.00
  11   1  11  104.69    9.10
 -11   1 -11  105.69    9.50
 -12  -1 -11   19.80    4.80
 -12  -1 -11   36.20    5.60
  12  -1  11   31.60    5.20
  12   1  11   18.30    4.60
 -12   1 -11   20.60    5.00
 -12   1 -11   27.60    4.50
 -13  -1 -11   22.00    5.20
  13  -1  11   22.80    4.80
 -13  -1 -11   17.60    4.20
 -13   1 -11   16.10    4.80
 -13   1 -11   21.50    4.30
  13   1  11   14.50    4.30
 -14  -1 -11    6.00    4.00
  14  -1  11    0.50    2.80
 -14  -1 -11   -1.00    2.70
 -14   1 -11   -1.80    3.20
  14   1  11   -3.30    2.40
 -14   1 -11    2.40    2.90
 -15  -1 -11    0.80    3.40
  15  -1  11   -2.40    2.80
 -15  -1 -11    2.60    3.50
  15   1  11    2.50    3.40
 -15   1 -11    0.60    3.60
 -15   1 -11   -0.40    3.10
 -19  -2  11    3.10    3.50
  19  -2 -11    4.10    4.20
 -19   2  11    4.70    3.80
 -18  -2  11   20.80    4.80
  18  -2 -11   12.50    5.00
 -18   2  11   19.50    4.80
  17  -2 -11   42.80    7.00
 -17  -2  11   40.50    6.10
 -17   2  11   26.10    5.20
  16  -2 -11   -2.20    2.80
 -16  -2  11   -5.60    2.20
 -16   2  11   -3.00    2.20
 -15  -2  11   80.79    7.60
  15  -2 -11   52.69    7.40
 -15   2  11   70.39    7.40
 -14  -2  11   39.10    5.70
 -14   2  11   37.90    5.40
 -13  -2  11    3.90    3.00
 -13   2  11    2.70    2.80
 -12  -2  11   60.29    6.50
 -12   2  11   64.99    6.50
 -11  -2  11   57.49    6.10
 -11   2  11   69.79    6.50
 -10  -2  11   11.90    3.30
 -10   2  11   16.40    3.60
  -9  -2  11  212.58   10.10
  -9   2  11  210.38   10.10
  -8  -2  11    7.00    2.60
  -8   2  11    7.70    2.70
   8   2 -11    7.50    1.00
  -7  -2  11   15.40    3.20
  -7   2  11   19.00    3.60
   7   2 -11   17.50    1.80
  -6  -2  11   38.80    4.50
   6   2 -11   37.50    2.70
  -6   2  11   43.60    4.80
  -6   2  11   35.90    3.90
  -5  -2  11   52.49    5.00
  -5   2  11   61.59    4.50
  -5   2  11   62.09    4.70
   5   2 -11   57.19    3.50
   4  -2 -11   14.00    2.80
  -4  -2  11   19.50    3.20
  -4   2  11   20.30    3.40
  -4   2  11   13.20    2.60
   4   2 -11   15.10    2.30
   4   2 -11   19.40    2.40
  -3  -2  11    3.00    1.70
   3  -2 -11    2.60    1.80
  -3  -2  11    4.30    1.80
   3   2 -11    0.60    1.00
   3   2 -11    0.70    1.40
  -3   2  11    0.60    1.70
  -2  -2  11  102.39    5.70
   2  -2 -11  105.29    6.00
  -2  -2  11   98.29    5.90
  -2   2  11   90.49    5.70
   2   2 -11   90.69    4.60
   2   2 -11  101.19    5.50
   1  -2 -11  102.39    6.10
   1  -2 -11   98.59    4.80
  -1  -2  11  100.49    5.80
  -1   2  11   98.99    6.00
   1   2 -11  110.29    4.90
   1   2 -11  106.09    5.80
   0  -2 -11  299.27   11.70
   0  -2  11  273.47   11.10
   0  -2 -11  288.57    9.50
   0   2 -11  300.67   11.60
   0   2  11  302.07   11.80
   0   2 -11  294.47   10.10
  -1  -2 -11    0.30    0.70
   1  -2  11    2.90    1.70
  -1  -2 -11    3.50    2.10
  -1   2 -11   -2.40    1.40
   1   2  11    1.40    1.70
  -1   2 -11    1.10    1.30
  -2  -2 -11   36.10    1.30
  -2  -2 -11   33.20    4.10
   2  -2  11   35.80    4.10
   2  -2  11   36.90    3.60
   2   2  11   35.60    4.30
  -2   2 -11   31.60    4.20
  -2   2 -11   40.80    3.50
  -3  -2 -11    5.90    2.30
   3  -2  11    4.50    2.20
   3  -2  11    7.30    1.90
   3   2  11    7.40    2.60
  -3   2 -11    5.90    1.80
  -3   2 -11    9.90    2.80
   4  -2  11   93.59    6.00
  -4  -2 -11   78.69    5.70
   4   2  11   67.29    6.40
  -4   2 -11   77.79    3.90
  -4   2 -11   83.09    4.90
  -4   2 -11   88.19    6.40
   5  -2  11   -3.20    1.40
  -5  -2 -11   -0.30    1.80
  -5   2 -11   -1.70    1.30
  -5   2 -11    0.40    1.50
   5   2  11    1.80    2.10
  -6  -2 -11   84.09    6.10
  -6  -2 -11   64.89    6.80
   6  -2  11   80.99    6.10
  -6   2 -11   79.09    5.20
  -6   2 -11   87.09    7.50
   6   2  11   72.89    6.70
  -7  -2 -11   24.10    4.60
  -7  -2 -11   36.00    4.80
   7  -2  11   40.60    4.90
  -7   2 -11   38.10    5.30
   7   2  11   33.70    4.80
  -7   2 -11   34.30    4.10
  -8  -2 -11   24.00    4.90
   8  -2  11   38.50    5.00
  -8  -2 -11   39.70    5.30
   8   2  11   28.20    4.60
  -8   2 -11   30.90    4.00
  -8   2 -11   32.30    5.20
   9  -2  11  103.89    7.20
  -9  -2 -11  115.49    8.60
  -9  -2 -11  100.29    7.40
   9   2  11   91.09    8.30
  -9   2 -11  116.59    8.40
  -9   2 -11   96.39    6.60
 -10  -2 -11  117.09    8.80
 -10  -2 -11  113.09    7.90
  10  -2  11  117.19    7.80
 -10   2 -11  119.19    8.50
 -10   2 -11  108.39    7.20
  10   2  11  105.29    9.20
  11  -2  11   12.30    3.90
 -11  -2 -11   12.90    4.00
 -11  -2 -11    4.60    3.60
 -11   2 -11   17.80    4.50
 -11   2 -11   11.80    3.30
  11   2  11   17.60    4.30
  12  -2  11   -0.50    2.80
 -12  -2 -11    0.30    3.00
 -12  -2 -11   -2.60    2.70
  12   2  11    9.10    3.60
 -12   2 -11   -0.90    2.40
 -12   2 -11   -1.90    2.80
 -13  -2 -11    3.80    3.60
 -13  -2 -11   11.10    4.00
  13  -2  11   13.80    4.00
  13   2  11    5.10    3.60
 -13   2 -11    8.10    3.40
 -13   2 -11   11.20    4.30
 -14  -2 -11   10.40    4.10
  14  -2  11    8.80    3.90
 -14  -2 -11    7.20    4.40
 -14   2 -11    6.70    4.00
 -14   2 -11    8.50    3.40
  14   2  11    1.40    3.40
  15  -2  11    5.20    3.50
 -15  -2 -11   -2.00    3.20
 -15  -2 -11   10.10    4.20
  15   2  11   -1.80    3.10
 -15   2 -11   -1.50    2.40
 -15   2 -11    2.20    3.50
 -19  -3  11   26.10    5.70
  19  -3 -11   19.60    5.90
 -19   3  11   20.90    5.00
 -18  -3  11   10.60    4.30
  18  -3 -11   20.90    5.60
 -18   3  11   16.00    4.30
  17  -3 -11    8.60    4.20
 -17  -3  11   12.20    4.30
 -17   3  11    8.60    3.70
 -16  -3  11   12.10    3.90
  16  -3 -11    6.80    4.00
 -16   3  11    3.40    3.00
  15  -3 -11    2.30    2.80
 -15  -3  11   11.90    3.80
 -15   3  11    1.90    2.80
 -14  -3  11   63.19    6.60
  14  -3 -11   51.69    7.20
 -14   3  11   67.39    6.90
  13  -3 -11  108.99    8.60
 -13  -3  11  105.09    7.60
 -13   3  11  106.29    7.50
 -12  -3  11  109.79    7.20
  12  -3 -11  108.09    8.30
 -12   3  11  116.29    7.60
 -11  -3  11    6.90    2.90
  11  -3 -11    3.30    2.90
 -11   3  11    4.50    2.70
  10  -3 -11  229.48   11.70
 -10  -3  11  240.68   10.90
 -10   3  11  241.98   11.10
   9  -3 -11   30.10    4.80
  -9  -3  11   31.40    4.30
  -9   3  11   33.90    4.70
  -8  -3  11  102.19    6.60
   8  -3 -11   91.09    6.70
   8   3 -11  101.39    3.50
  -8   3  11  113.69    6.90
   8   3 -11  106.79    5.00
  -7  -3  11   50.89    5.20
   7  -3 -11   43.90    5.10
  -7   3  11   55.99    5.50
   7   3 -11   55.29    3.30
   7   3 -11   57.29    2.80
  -6  -3  11   11.00    2.80
   6  -3 -11   12.10    2.80
  -6   3  11   14.00    3.10
   6   3 -11   13.70    1.80
  -6   3  11   10.50    2.50
  -5  -3  11   82.79    5.60
   5  -3 -11   83.99    5.50
  -5   3  11   78.39    5.40
   5   3 -11   78.39    4.10
  -5   3  11   79.09    5.20
   4  -3 -11  387.66   14.50
  -4  -3  11  380.96   14.00
   4  -3 -11  362.66   13.40
   4   3 -11  375.86   12.60
   4   3 -11  377.56   12.10
  -4   3  11  399.76   13.90
   3  -3 -11   -0.90    1.90
   3  -3 -11    3.10    1.60
  -3  -3  11    2.00    1.90
  -3  -3  11    1.40    1.60
  -3   3  11    3.80    1.90
   3   3 -11    0.90    1.10
   3   3 -11    4.50    1.50
  -2  -3  11  469.65   15.70
  -2  -3  11  479.65   16.20
   2  -3 -11  463.75   16.60
   2  -3 -11  464.75   15.00
  -2   3  11  462.35   16.10
   2   3 -11  439.56   13.90
   2   3 -11  472.65   15.50
   1  -3 -11  255.97    9.30
  -1  -3  11  275.77   10.70
   1  -3 -11  263.47   11.10
  -1  -3  11  264.07   10.40
   1   3 -11  270.67    8.80
  -1   3  11  260.07   10.80
   1   3 -11  245.68   10.20
   0  -3  11  343.87   12.50
   0  -3 -11  352.46   13.30
   0  -3 -11  339.97   10.90
   0   3 -11  342.27   12.80
   0   3 -11  324.77   10.70
   0   3  11  330.77   13.00
  -1  -3 -11  245.58    7.80
   1  -3  11  249.38   10.00
  -1  -3 -11  245.18   10.70
  -1   3 -11  253.97    8.60
  -1   3 -11  237.88   10.30
   1   3  11  227.48   10.30
  -2  -3 -11  188.58    9.00
   2  -3  11  169.18    8.10
   2  -3  11  181.58    7.20
  -2  -3 -11  182.08    5.20
  -2   3 -11  180.08    8.80
  -2   3 -11  177.48    6.90
   2   3  11  177.78    8.80
   3  -3  11  161.28    7.70
   3  -3  11  160.78    6.70
  -3  -3 -11  147.39    8.10
   3   3  11  135.89    7.70
  -3   3 -11  141.89    8.00
  -3   3 -11  145.89    6.30
   4  -3  11   49.99    3.80
  -4  -3 -11   36.20    4.80
   4  -3  11   45.20    4.70
  -4   3 -11   44.70    3.80
   4   3  11   43.10    5.00
  -4   3 -11   44.20    5.10
  -5  -3 -11   54.29    5.60
   5  -3  11   45.10    4.80
   5   3  11   45.40    5.30
  -5   3 -11   45.70    4.00
  -5   3 -11   35.40    4.80
   6  -3  11   61.19    5.90
  -6  -3 -11   79.89    7.10
  -6   3 -11   75.79    4.70
  -6   3 -11   66.29    6.60
   6   3  11   66.89    6.70
  -7  -3 -11   12.80    3.60
   7  -3  11    6.80    2.90
  -7   3 -11   10.90    2.50
   7   3  11    9.20    3.30
  -7   3 -11    9.30    3.30
  -8  -3 -11   -1.50    2.60
  -8  -3 -11    1.60    2.30
   8  -3  11    1.00    2.00
  -8   3 -11    1.90    2.00
  -8   3 -11    0.70    2.40
   8   3  11    1.30    2.40
  -9  -3 -11  274.37   13.10
   9  -3  11  305.27   13.00
  -9  -3 -11  284.77   14.10
  -9   3 -11  298.57   14.00
   9   3  11  283.37   13.50
  -9   3 -11  285.97   11.70
 -10  -3 -11   45.40    6.40
  10  -3  11   53.49    6.10
 -10  -3 -11   54.29    6.50
 -10   3 -11   49.40    5.30
 -10   3 -11   42.70    6.30
  10   3  11   52.19    6.50
 -11  -3 -11    7.80    4.00
  11  -3  11   21.80    4.40
 -11  -3 -11   21.70    4.60
 -11   3 -11   18.70    3.70
  11   3  11   18.00    4.50
 -11   3 -11   16.30    4.50
 -12  -3 -11   23.30    5.10
 -12  -3 -11   24.50    5.60
  12  -3  11   26.60    4.90
 -12   3 -11   33.80    5.70
  12   3  11   30.20    5.40
 -12   3 -11   19.90    3.90
 -13  -3 -11   -0.10    3.60
 -13  -3 -11    0.90    3.00
  13  -3  11    7.40    3.40
  13   3  11    7.80    3.90
 -13   3 -11   -1.90    3.00
 -13   3 -11   -2.50    2.00
 -14  -3 -11   19.50    4.80
  14  -3  11   22.00    4.70
 -14  -3 -11   26.50    5.80
 -14   3 -11   13.70    4.70
 -14   3 -11   17.90    3.90
  14   3  11   12.30    4.60
  15  -3  11   22.70    4.90
 -15  -3 -11   13.80    4.70
 -15   3 -11   20.50    5.40
  15   3  11   21.40    5.30
 -15   3 -11   17.70    4.30
 -19  -4  11   54.29    7.60
  19  -4 -11   58.29    9.20
 -19   4  11   44.30    6.50
 -18  -4  11    2.00    3.30
  18  -4 -11    0.50    3.60
 -18   4  11    0.10    2.80
 -17  -4  11   25.30    5.20
  17  -4 -11   40.80    7.10
 -17   4  11   39.00    5.80
  16  -4 -11    3.80    3.50
 -16  -4  11    9.20    3.70
 -16   4  11   13.10    4.00
 -15  -4  11   14.30    3.60
  15  -4 -11   14.20    4.70
 -15   4  11   22.10    4.70
  14  -4 -11    5.40    3.30
 -14  -4  11    0.00    2.50
 -14   4  11    0.50    2.60
  13  -4 -11    4.70    3.30
 -13  -4  11    1.30    2.60
 -13   4  11    0.30    2.40
  12  -4 -11   -1.10    2.50
 -12  -4  11    2.20    2.60
 -12   4  11    3.10    2.70
 -11  -4  11   18.40    3.90
  11  -4 -11   22.10    4.50
 -11   4  11   25.30    4.30
 -10  -4  11   12.60    3.20
  10  -4 -11   12.30    3.60
 -10   4  11   13.00    3.20
   9  -4 -11   76.09    7.20
  -9  -4  11   63.59    6.20
   9   4 -11   82.29    4.50
  -9   4  11   86.09    6.20
  -8  -4  11   20.70    3.70
   8  -4 -11   16.10    3.50
  -8   4  11   18.60    3.50
   8   4 -11   14.70    2.10
   8   4 -11   14.70    1.30
  -7  -4  11   17.30    3.30
   7  -4 -11   37.00    4.90
   7   4 -11   26.40    2.40
  -7   4  11   28.70    4.10
   7   4 -11   29.00    2.00
   6  -4 -11   25.00    3.70
  -6  -4  11   15.60    3.20
  -6   4  11   10.50    2.80
  -6   4  11   13.00    2.70
   6   4 -11   15.40    1.80
   5  -4 -11   43.10    4.70
  -5  -4  11   39.30    4.40
   5   4 -11   37.80    2.90
   5   4 -11   41.60    2.30
  -5   4  11   37.70    4.10
   4  -4 -11  563.14   18.20
   4  -4 -11  547.35   19.10
  -4  -4  11  517.25   18.00
   4   4 -11  522.95   15.50
   4   4 -11  537.95   16.70
  -4   4  11  525.65   17.80
  -3  -4  11  332.17   12.40
   3  -4 -11  321.57   11.80
   3  -4 -11  319.47   13.10
  -3   4  11  301.97   12.10
   3   4 -11  305.87   11.20
   3   4 -11  333.67    9.80
   2  -4 -11   38.70    4.70
   2  -4 -11   39.50    3.80
  -2  -4  11   37.40    4.10
  -2  -4  11   37.80    4.00
  -2   4  11   51.89    4.90
   2   4 -11   37.90    3.80
   2   4 -11   32.90    2.10
  -1  -4  11   28.40    3.60
  -1  -4  11   38.30    4.00
   1  -4 -11   32.30    4.40
   1  -4 -11   38.00    3.40
   1   4 -11   37.40    2.10
   1   4 -11   30.30    3.60
  -1   4  11   31.80    4.00
   0  -4 -11    6.00    2.50
   0  -4  11    1.70    1.70
   0  -4 -11    4.90    1.50
   0   4  11    8.80    2.60
   0   4 -11    3.00    1.90
   0   4 -11    3.30    1.00
  -1  -4 -11   15.80    3.40
   1  -4  11   16.80    2.80
  -1  -4 -11   15.70    1.80
   1   4  11   16.30    3.30
  -1   4 -11   16.00    3.00
  -1   4 -11   14.70    1.70
  -2  -4 -11   20.50    3.80
   2  -4  11   24.70    3.40
  -2  -4 -11   20.50    1.40
   2   4  11   17.60    3.30
  -2   4 -11   20.90    3.50
  -2   4 -11   19.90    2.10
   3  -4  11    4.00    1.40
  -3  -4 -11    6.10    2.70
   3  -4  11    3.20    2.00
  -3   4 -11    2.20    2.10
   3   4  11    0.20    2.00
  -3   4 -11    1.80    1.10
   4  -4  11  227.58    8.70
  -4  -4 -11  236.08   11.10
   4  -4  11  231.48    9.80
   4   4  11  229.18   10.70
  -4   4 -11  223.78   10.70
  -4   4 -11  207.28    8.10
  -5  -4 -11    1.60    2.30
   5  -4  11    1.90    1.50
   5  -4  11    3.90    2.10
   5   4  11   -1.30    2.20
  -5   4 -11    4.60    1.60
  -5   4 -11    1.40    2.30
  -6  -4 -11    3.00    2.50
   6  -4  11   -1.20    1.70
  -6   4 -11    0.60    1.40
  -6   4 -11   -1.60    2.20
   6   4  11    2.50    2.40
   7  -4  11  236.78   10.50
  -7  -4 -11  221.18   11.40
  -7   4 -11  216.68   11.30
   7   4  11  234.08   11.50
  -7   4 -11  233.68    9.30
   8  -4  11    1.30    2.00
  -8  -4 -11    1.30    2.50
  -8   4 -11   -1.30    1.40
   8   4  11    2.70    2.60
  -8   4 -11   -0.80    2.40
   9  -4  11   23.60    4.20
  -9  -4 -11   26.20    4.80
   9   4  11   22.80    4.70
  -9   4 -11   23.00    3.50
  -9   4 -11   25.20    4.90
 -10  -4 -11    1.90    3.20
 -10  -4 -11    7.20    3.30
  10  -4  11   11.90    3.40
 -10   4 -11    6.20    2.40
  10   4  11    5.90    3.10
 -10   4 -11    6.80    3.60
 -11  -4 -11   10.20    3.80
  11  -4  11    5.20    2.90
 -11  -4 -11    0.50    2.80
 -11   4 -11    0.90    2.00
 -11   4 -11    2.80    3.30
  11   4  11    0.80    2.80
 -12  -4 -11   16.90    4.90
 -12  -4 -11    6.20    3.50
  12  -4  11   15.90    3.90
 -12   4 -11   10.40    3.20
 -12   4 -11    6.80    3.70
  12   4  11   16.10    4.40
  13  -4  11  221.28   11.50
 -13  -4 -11  213.78   13.00
 -13  -4 -11  222.08   12.50
 -13   4 -11  197.28   12.20
  13   4  11  208.28   12.50
 -13   4 -11  202.38   10.50
 -14  -4 -11   -4.50    2.70
  14  -4  11   -4.70    2.20
 -14  -4 -11    3.10    4.00
 -14   4 -11    6.40    4.00
  14   4  11   -1.40    3.00
 -15  -4 -11   25.00    5.80
 -15   4 -11   26.60    5.90
 -18  -5  11    6.80    3.90
  18  -5 -11    1.30    4.30
 -18   5  11    6.30    3.80
  17  -5 -11    6.60    4.50
 -17  -5  11    4.70    3.70
 -17   5  11    8.00    4.00
  16  -5 -11   44.00    7.30
 -16  -5  11   34.70    5.90
 -16   5  11   40.90    6.00
  15  -5 -11    7.00    3.90
 -15  -5  11    7.00    3.50
 -15   5  11   10.40    3.70
 -14  -5  11    8.00    3.50
  14  -5 -11   10.10    4.10
 -14   5  11    8.00    3.10
  13  -5 -11   -0.20    2.10
 -13  -5  11    1.30    2.60
 -13   5  11    2.80    2.90
  12  -5 -11   35.70    5.80
 -12  -5  11   48.20    5.70
 -12   5  11   51.29    5.90
  11  -5 -11   -1.90    2.20
 -11  -5  11   -0.10    2.40
 -11   5  11   -1.00    2.30
 -10  -5  11  230.28   10.70
  10  -5 -11  222.78   11.80
 -10   5  11  225.28   10.70
  -9  -5  11   59.79    6.00
   9  -5 -11   50.89    6.20
   9   5 -11   54.59    3.70
  -9   5  11   62.69    6.10
   8  -5 -11  161.48    8.90
  -8  -5  11  129.39    7.60
   8   5 -11  142.19    5.80
   8   5 -11  131.19    4.70
  -8   5  11  148.49    8.00
   7  -5 -11  141.69    8.50
  -7  -5  11  159.18    8.20
   7   5 -11  154.88    5.60
  -7   5  11  161.38    8.40
   7   5 -11  157.28    5.90
  -6  -5  11  182.18    8.60
   6  -5 -11  159.08    8.60
   6   5 -11  180.68    6.50
   6   5 -11  165.88    5.90
  -6   5  11  169.38    7.90
  -5  -5  11   46.60    4.80
   5  -5 -11   56.29    5.30
  -5   5  11   44.40    4.50
   5   5 -11   47.30    3.20
   5   5 -11   47.00    2.50
   5   5 -11   47.30    2.30
  -4  -5  11  109.89    6.40
   4  -5 -11  120.09    7.60
   4  -5 -11  118.09    6.70
   4   5 -11  110.59    5.30
   4   5 -11  108.69    3.60
   4   5 -11  117.39    3.80
  -4   5  11  113.49    6.30
  -3  -5  11  238.48    9.80
   3  -5 -11  231.38    9.60
   3  -5 -11  220.28   10.70
  -3   5  11  223.28    9.70
   3   5 -11  219.98    8.80
  -2  -5  11  147.79    7.50
   2  -5 -11  156.98    8.70
   2  -5 -11  152.98    7.10
   2   5 -11  158.48    7.20
  -2   5  11  155.88    7.80
   1  -5 -11    3.70    1.60
  -1  -5  11    3.20    2.00
  -1  -5  11    6.70    2.10
   1  -5 -11    0.70    2.40
   1   5 -11    3.60    2.00
  -1   5  11    2.60    2.00
   0  -5 -11  227.98    8.40
   0  -5  11  206.78    8.90
   0  -5 -11  220.58   10.60
   0   5 -11  219.98    6.20
   0   5  11  221.38    9.90
   0   5 -11  225.48    9.60
  -1  -5 -11   35.50    4.90
   1  -5  11   38.40    4.00
  -1  -5 -11   44.70    2.90
  -1   5 -11   37.30    1.90
  -1   5 -11   39.30    4.50
   1   5  11   38.70    4.60
   2  -5  11  160.18    7.70
  -2  -5 -11  181.58    9.50
  -2  -5 -11  172.48    6.00
  -2   5 -11  166.68    8.50
   2   5  11  153.58    8.50
  -2   5 -11  176.78    5.80
   3  -5  11   88.79    5.60
  -3  -5 -11   87.69    6.70
  -3   5 -11   90.59    4.00
  -3   5 -11   87.49    6.20
   3   5  11   95.69    6.60
   4  -5  11  186.28    8.60
   4  -5  11  189.08    7.50
  -4  -5 -11  179.88   10.00
  -4   5 -11  192.88    9.70
  -4   5 -11  196.28    7.00
   4   5  11  199.78    9.90
   5  -5  11   89.19    5.00
   5  -5  11   96.69    5.80
  -5  -5 -11   88.49    7.90
   5   5  11   89.89    6.80
  -5   5 -11   91.49    6.80
  -5   5 -11   90.29    4.50
  -6  -5 -11   26.70    4.80
   6  -5  11   27.20    3.80
   6   5  11   35.70    5.10
  -6   5 -11   26.10    2.90
  -6   5 -11   23.60    4.30
  -7  -5 -11   24.50    4.50
   7  -5  11   18.50    3.40
  -7   5 -11   23.50    2.90
   7   5  11   27.40    4.70
  -7   5 -11   18.20    4.20
   8  -5  11   26.90    4.10
  -8  -5 -11   23.90    4.50
   8   5  11   23.30    4.60
  -8   5 -11   24.90    4.70
  -8   5 -11   16.80    2.70
  -9  -5 -11    2.10    2.90
   9  -5  11    0.40    2.20
  -9   5 -11    0.10    1.70
   9   5  11   -1.40    2.50
  -9   5 -11   -2.30    2.40
  10  -5  11   29.10    4.60
 -10  -5 -11   33.10    5.50
  10   5  11   25.60    5.10
 -10   5 -11   29.00    5.20
 -10   5 -11   26.40    3.80
 -11  -5 -11   33.50    6.20
  11  -5  11   42.20    5.30
 -11  -5 -11   33.80    5.80
  11   5  11   49.10    7.00
 -11   5 -11   37.90    6.10
 -12  -5 -11   32.20    5.80
  12  -5  11   33.90    5.10
 -12  -5 -11   34.70    6.40
  12   5  11   29.50    5.70
 -12   5 -11   34.80    6.00
  13  -5  11   13.80    3.90
 -13  -5 -11    9.20    4.00
 -13  -5 -11   13.70    4.80
 -13   5 -11    9.80    4.40
  13   5  11    4.80    3.80
  14  -5  11   94.69    8.20
 -14  -5 -11   65.79    8.60
  14   5  11   88.69    9.70
 -14   5 -11   95.59    9.70
  18  -6 -11    5.40    4.90
 -18  -6  11    7.40    4.10
 -18   6  11    1.70    2.70
 -17  -6  11   32.30    6.10
  17  -6 -11   38.80    7.80
 -17   6  11   42.90    6.10
  16  -6 -11    6.10    4.20
 -16  -6  11    0.90    3.20
 -16   6  11    0.20    2.30
  15  -6 -11    7.10    4.20
 -15  -6  11   13.40    3.80
 -15   6  11   10.20    3.40
 -14  -6  11   12.40    4.00
  14  -6 -11    9.90    4.20
 -14   6  11   12.00    3.70
 -13  -6  11   57.19    6.60
  13  -6 -11   65.79    8.20
 -13   6  11   69.59    6.80
 -12  -6  11    0.60    2.20
  12  -6 -11    2.60    3.20
 -12   6  11    1.10    2.20
 -11  -6  11    0.90    2.30
  11  -6 -11    1.70    2.70
 -11   6  11   -0.40    2.10
 -10  -6  11    5.20    2.90
  10  -6 -11    2.80    3.10
 -10   6  11    6.70    2.80
   9  -6 -11    0.70    2.50
  -9  -6  11    2.30    2.20
  -9   6  11    0.40    2.10
   8  -6 -11  222.78   11.30
  -8  -6  11  217.68   10.30
   8   6 -11  223.88    7.20
  -7  -6  11    6.10    2.60
   7  -6 -11   12.80    3.40
   7   6 -11    9.90    1.50
   7   6 -11    9.30    1.50
   6  -6 -11   48.10    5.60
  -6  -6  11   55.69    5.40
  -6   6  11   57.99    5.00
   6   6 -11   58.39    3.40
   6   6 -11   57.29    2.60
   5  -6 -11   -2.00    1.80
   5  -6 -11    2.50    2.60
  -5  -6  11    2.30    2.00
   5   6 -11    0.70    1.20
  -5   6  11   -1.00    1.70
  -4  -6  11  523.25   17.60
   4  -6 -11  480.25   18.90
   4  -6 -11  528.75   18.10
   4   6 -11  516.45   16.10
  -4   6  11  491.55   17.20
   3  -6 -11  229.48    9.70
  -3  -6  11  217.28    9.40
   3  -6 -11  209.88   10.80
   3   6 -11  209.18    8.60
  -3   6  11  210.38    9.50
  -2  -6  11  314.37   12.20
   2  -6 -11  333.57   14.10
   2  -6 -11  315.37   12.10
   2   6 -11  341.37   12.10
  -2   6  11  331.37   12.80
   1  -6 -11   25.70    3.30
  -1  -6  11   27.50    3.60
   1  -6 -11   18.10    4.00
  -1   6  11   30.60    4.10
   1   6 -11   26.40    3.40
   0  -6 -11   51.39    3.70
   0  -6 -11   51.39    5.80
   0   6 -11   46.90    4.70
   0   6  11   47.30    5.00
   1  -6  11   -0.90    1.40
  -1  -6 -11    0.80    1.20
  -1  -6 -11   -0.80    2.40
  -1   6 -11    2.40    1.90
   1   6  11   -1.20    1.80
  -2  -6 -11   46.40    3.00
   2  -6  11   41.60    4.20
  -2  -6 -11   50.89    6.00
  -2   6 -11   48.30    5.10
   2   6  11   52.19    5.50
   3  -6  11    0.70    1.10
   3  -6  11    2.80    1.80
  -3  -6 -11   -0.80    2.40
   3   6  11    3.00    2.40
  -3   6 -11    4.20    2.40
   4  -6  11   99.19    5.80
  -4  -6 -11   94.99    8.30
   4   6  11  100.09    7.00
  -4   6 -11   98.99    6.80
   5  -6  11  110.19    6.30
  -5  -6 -11  113.39    8.00
  -5   6 -11  114.59    7.50
   5   6  11  100.09    7.40
  -6  -6 -11  450.15   17.90
   6  -6  11  413.76   15.10
   6   6  11  409.86   17.00
  -6   6 -11  443.86   17.20
   7  -6  11   16.70    3.20
  -7  -6 -11   19.30    4.20
  -7   6 -11   20.20    4.20
   7   6  11   18.90    4.20
  -8  -6 -11   33.90    5.50
   8  -6  11   46.90    5.00
  -8   6 -11   39.90    5.60
   8   6  11   37.00    5.60
   9  -6  11    2.70    2.30
  -9  -6 -11    0.30    2.80
   9   6  11    3.00    2.50
  -9   6 -11    1.30    2.90
  10  -6  11    2.40    2.30
 -10  -6 -11   -2.10    2.70
  10   6  11   -1.30    2.50
 -10   6 -11    0.10    2.90
  11  -6  11    1.30    2.30
 -11  -6 -11   -2.10    2.60
  11   6  11    1.70    3.10
 -11   6 -11   -0.60    2.80
 -12  -6 -11    3.40    3.40
  12  -6  11    4.00    2.70
 -12  -6 -11    7.30    4.20
 -12   6 -11    5.80    3.70
  12   6  11    1.10    3.20
 -13  -6 -11   77.99    8.80
 -13  -6 -11   60.29    8.10
  13   6  11   62.19    8.20
 -13   6 -11   70.99    8.30
 -14  -6 -11   14.20    5.40
 -14   6 -11   15.20    5.00
  14   6  11   24.10    5.80
  17  -7 -11    0.30    3.80
 -17  -7  11    7.00    4.10
 -17   7  11    1.00    3.00
  16  -7 -11    4.50    3.80
 -16  -7  11   -0.90    3.00
 -16   7  11    0.50    2.80
  15  -7 -11   42.60    7.30
 -15  -7  11   50.79    6.80
 -15   7  11   52.69    6.20
 -14  -7  11   35.90    5.70
  14  -7 -11   36.80    6.70
 -14   7  11   45.10    5.80
  13  -7 -11    0.90    3.10
 -13  -7  11   -3.10    2.20
 -13   7  11   -1.00    2.10
  12  -7 -11   15.50    4.70
 -12  -7  11   21.60    4.30
 -12   7  11   13.80    3.60
 -11  -7  11    3.40    2.60
  11  -7 -11    4.10    3.00
 -11   7  11    1.50    2.10
  10  -7 -11   60.59    7.30
 -10  -7  11   60.49    6.30
   9  -7 -11   -3.00    2.50
  -9  -7  11    8.90    3.00
   8  -7 -11  214.68   11.30
  -8  -7  11  209.88   10.00
   8   7 -11  203.58    7.10
  -7  -7  11   11.50    3.10
   7  -7 -11   11.10    3.50
   7   7 -11   11.90    1.90
   6  -7 -11  145.39    8.60
  -6  -7  11  163.58    8.10
   6   7 -11  146.09    6.10
  -6   7  11  144.29    7.30
  -5  -7  11    5.60    2.30
   5  -7 -11   -0.60    2.40
   5  -7 -11    1.20    2.30
  -5   7  11    5.10    2.10
   5   7 -11    7.20    1.80
   4  -7 -11   11.80    3.00
   4  -7 -11    7.30    3.30
  -4  -7  11    6.40    2.40
  -4   7  11    8.90    2.60
   4   7 -11    7.20    2.00
  -3  -7  11   21.30    3.50
   3  -7 -11   14.10    3.60
   3  -7 -11   18.40    3.40
  -3   7  11   10.90    2.80
   3   7 -11   12.80    2.50
   2  -7 -11  479.75   18.50
   2  -7 -11  467.85   16.60
  -2  -7  11  475.25   16.20
  -2   7  11  453.55   16.60
   2   7 -11  483.95   16.00
   1  -7 -11   47.20    4.60
   1  -7 -11   52.59    6.20
  -1  -7  11   51.69    4.70
  -1   7  11   50.69    5.20
   1   7 -11   52.39    4.90
   0  -7 -11  384.46   16.00
   0  -7 -11  385.96   13.40
   0   7 -11  377.86   14.10
   0   7  11  376.86   14.70
  -1  -7 -11  203.88   11.10
  -1  -7 -11  213.78    8.50
   1   7  11  225.78   10.40
  -1   7 -11  219.78    9.90
   2  -7  11  234.88    9.20
  -2  -7 -11  207.08   11.30
  -2  -7 -11  233.78    8.60
   2   7  11  226.28   10.80
  -2   7 -11  232.98   10.60
   3  -7  11   36.20    3.80
  -3  -7 -11   32.80    5.20
   3   7  11   45.30    5.50
  -3   7 -11   33.00    4.70
   4  -7  11  163.38    7.40
  -4  -7 -11  158.88    9.60
   4   7  11  129.19    8.40
  -4   7 -11  158.88    8.80
   5  -7  11   37.20    4.00
  -5  -7 -11   39.40    5.70
   5   7  11   39.10    5.50
  -5   7 -11   39.50    5.20
   6  -7  11  126.99    6.60
  -6  -7 -11  111.19    8.40
  -6   7 -11  118.69    8.00
   6   7  11  101.09    7.80
  -7  -7 -11   15.00    4.20
   7  -7  11   16.60    3.20
  -7   7 -11   14.80    4.00
   7   7  11   15.60    4.00
  -8  -7 -11   11.40    4.00
   8  -7  11   12.30    2.90
   8   7  11   15.00    4.10
  -8   7 -11   14.40    4.20
   9  -7  11   28.50    3.90
  -9  -7 -11   14.50    4.30
  -9   7 -11   13.50    4.10
   9   7  11   19.60    4.30
 -10  -7 -11   59.99    7.50
  10  -7  11   53.69    5.30
 -10   7 -11   54.39    7.00
  10   7  11   56.49    7.20
 -11  -7 -11    1.30    3.10
 -11   7 -11   -0.70    3.00
  11   7  11   -1.00    2.70
 -12  -7 -11   -2.50    3.00
  12   7  11   -4.10    2.60
 -12   7 -11    1.90    3.50
 -13  -7 -11    3.90    3.80
  13   7  11    5.70    4.10
 -13   7 -11    1.90    3.70
  17  -8 -11    6.00    5.00
 -17  -8  11   -1.30    3.10
 -16  -8  11    5.10    3.60
  16  -8 -11    1.20    4.20
  15  -8 -11   -4.10    3.10
 -15  -8  11    8.60    4.00
 -15   8  11   13.30    3.60
  14  -8 -11    8.60    4.70
 -14  -8  11   11.40    4.00
 -14   8  11   12.00    3.50
 -13  -8  11    5.20    3.30
  13  -8 -11    4.20    3.80
 -13   8  11    3.30    2.90
 -12  -8  11   27.50    5.00
  12  -8 -11   37.40    6.60
  11  -8 -11   37.50    6.40
 -11  -8  11   34.10    5.10
  10  -8 -11   18.20    4.70
 -10  -8  11   13.60    3.50
   9  -8 -11  114.79    8.70
  -9  -8  11  114.19    7.50
  -8  -8  11   -0.70    2.10
   8  -8 -11    1.10    2.50
   8   8 -11    1.80    1.20
  -7  -8  11  113.79    7.10
   7  -8 -11  117.69    8.40
   7   8 -11  117.89    5.20
  -6  -8  11   10.20    3.00
   6  -8 -11   11.20    3.50
   6  -8 -11    9.70    3.70
   6   8 -11   11.80    2.10
  -6   8  11   12.50    2.70
  -5  -8  11   -1.90    1.50
   5  -8 -11    0.50    2.00
   5  -8 -11   -1.10    2.30
   5   8 -11    2.40    1.40
  -5   8  11    0.30    1.60
   4  -8 -11  182.38    9.50
  -4  -8  11  185.38    8.70
   4  -8 -11  176.48   10.40
  -4   8  11  180.98    8.50
   4   8 -11  175.28    7.60
   3  -8 -11    1.20    2.10
  -3  -8  11    0.70    1.60
   3  -8 -11    4.90    3.20
  -3   8  11    1.10    1.90
   3   8 -11    1.70    1.60
   2  -8 -11   75.59    5.60
  -2  -8  11   66.69    4.90
   2  -8 -11   76.59    7.60
  -2   8  11   72.29    5.40
   2   8 -11   74.49    5.00
   1  -8 -11   10.00    2.60
   1  -8 -11    5.20    3.20
  -1  -8  11    4.90    2.10
   1   8 -11    4.90    2.10
  -1   8  11    5.80    2.50
   0  -8 -11   52.89    4.90
   0  -8 -11   38.40    5.60
   0   8  11   36.40    4.70
   0   8 -11   46.60    4.70
  -1  -8 -11   -1.50    2.40
  -1  -8 -11   -0.10    1.50
   1   8  11    4.50    2.40
  -1   8 -11    0.50    2.00
  -2  -8 -11  216.48    8.60
  -2  -8 -11  197.48   11.20
   2   8  11  201.28   10.30
  -2   8 -11  224.38   10.20
  -3  -8 -11   91.19    8.50
  -3   8 -11  106.49    7.00
   3   8  11  103.69    7.20
  -4  -8 -11   63.49    7.10
   4  -8  11   67.29    4.40
  -4   8 -11   53.19    5.90
   4   8  11   60.39    6.50
   5  -8  11  412.76   14.40
  -5  -8 -11  390.26   17.60
  -5   8 -11  459.25   17.20
   5   8  11  424.26   17.20
   6  -8  11   36.60    4.00
  -6  -8 -11   25.70    5.30
  -6   8 -11   35.40    5.10
   6   8  11   35.00    5.40
   7  -8  11   16.30    2.80
  -7  -8 -11   13.80    4.30
  -7   8 -11   23.20    4.50
   7   8  11   13.90    4.00
  -8  -8 -11   -0.60    2.90
  -8   8 -11   -0.30    2.70
   8   8  11    1.00    2.90
  -9  -8 -11   -2.30    2.70
   9   8  11    0.50    2.90
  -9   8 -11    0.80    2.90
 -10  -8 -11    3.30    3.70
  10   8  11   -2.20    2.80
 -10   8 -11   -2.20    2.90
 -11  -8 -11   20.20    5.20
 -11   8 -11   23.80    5.40
  11   8  11    8.30    4.00
  12   8  11   33.40    6.30
 -12   8 -11   32.10    6.30
  16  -9 -11   51.49    8.80
 -16  -9  11   50.79    7.20
 -15  -9  11   -0.40    2.80
  15  -9 -11   -2.70    3.50
 -14  -9  11    2.70    3.30
  14  -9 -11    8.80    4.90
 -13  -9  11   17.00    4.50
  13  -9 -11   29.20    6.20
 -12  -9  11    6.20    3.20
  12  -9 -11    5.00    4.00
  11  -9 -11   -3.80    2.70
 -11  -9  11    0.50    2.30
 -10  -9  11   11.40    3.50
  10  -9 -11   13.10    4.40
   9  -9 -11   18.20    4.80
  -9  -9  11   22.50    4.40
   8  -9 -11   21.40    5.00
  -8  -9  11   24.80    4.10
   8   9 -11   22.50    2.50
  -7  -9  11   13.40    3.30
   7  -9 -11   10.00    3.80
   7   9 -11    9.40    2.00
  -6  -9  11   67.49    6.20
   6  -9 -11   55.39    6.90
   6  -9 -11   63.09    7.00
  -6   9  11   74.19    5.00
   6   9 -11   64.99    4.20
   5  -9 -11    2.10    2.80
   5  -9 -11    5.60    2.90
  -5  -9  11    0.30    1.80
   5   9 -11   -0.10    1.50
  -5   9  11    1.20    2.00
  -4  -9  11    4.40    2.10
   4  -9 -11   -1.40    2.60
   4  -9 -11    5.60    2.80
   4   9 -11    3.20    1.80
  -4   9  11    1.40    2.00
   3  -9 -11    1.60    2.10
   3  -9 -11   -3.00    2.40
  -3  -9  11    1.60    1.80
  -3   9  11    2.50    2.10
   3   9 -11    1.50    1.90
  -2  -9  11   91.89    5.60
   2  -9 -11   93.89    6.50
   2  -9 -11   89.59    8.50
   2   9 -11   87.39    5.60
  -2   9  11   97.19    6.40
   1  -9 -11    4.00    2.30
  -1  -9  11    1.60    1.80
   1  -9 -11   -0.50    2.90
   1   9 -11    8.90    2.60
  -1   9  11    6.50    2.60
   0  -9 -11   95.09    5.90
   0  -9 -11   83.89    8.20
   0   9 -11   88.89    6.00
   0   9  11   84.89    7.20
  -1  -9 -11   16.30    3.00
  -1  -9 -11   20.80    4.50
   1   9  11   21.70    3.90
  -1   9 -11   14.70    3.20
  -2  -9 -11   45.90    6.10
  -2  -9 -11   41.30    4.30
  -2   9 -11   38.10    4.80
   2   9  11   36.80    5.10
  -3  -9 -11   63.99    7.30
   3   9  11   56.49    6.30
  -3   9 -11   70.69    6.60
  -4  -9 -11    4.90    3.40
  -4   9 -11    0.30    2.30
   4   9  11    3.00    2.80
  -5  -9 -11   11.50    4.10
  -5   9 -11   10.60    3.40
   5   9  11    8.90    3.40
  -6  -9 -11   45.80    6.60
   6   9  11   69.29    7.50
  -6   9 -11   48.30    6.00
  -7  -9 -11    3.00    3.30
   7   9  11    1.60    2.80
  -7   9 -11    1.50    2.90
  -8  -9 -11   51.99    7.20
   8   9  11   41.80    6.30
  -8   9 -11   57.19    6.80
  -9  -9 -11   25.50    5.60
   9   9  11   23.40    5.20
  -9   9 -11   20.50    4.80
 -10  -9 -11    3.90    3.80
  10   9  11   17.30    4.80
 -10   9 -11    8.40    4.10
 -11   9 -11   87.39    9.00
  11   9  11   84.19    9.20
 -15 -10  11   12.20    4.20
  15 -10 -11    3.70    4.20
  14 -10 -11    0.70    3.80
 -14 -10  11    7.20    3.70
  13 -10 -11    1.20    3.70
 -13 -10  11    6.90    3.60
  12 -10 -11    1.20    3.50
 -12 -10  11    0.90    2.80
  11 -10 -11   28.60    6.30
 -11 -10  11   50.39    6.20
  10 -10 -11    7.20    3.80
 -10 -10  11    5.10    2.90
  -9 -10  11  114.79    7.60
   9 -10 -11  108.69   10.40
   8 -10 -11   39.20    6.30
  -8 -10  11   29.50    4.50
   7 -10 -11    9.90    3.80
  -7 -10  11    9.40    3.10
   7 -10 -11    7.60    3.80
   7  10 -11    9.20    2.20
  -6 -10  11   57.09    5.80
   6 -10 -11   24.10    5.30
   6 -10 -11   31.30    5.40
  -6  10  11   38.10    4.00
   6  10 -11   36.90    3.70
  -5 -10  11    7.70    2.60
   5 -10 -11   13.10    4.20
   5 -10 -11   18.30    4.10
  -5  10  11    9.50    2.50
   5  10 -11   11.60    2.50
   4 -10 -11    5.10    2.70
   4 -10 -11    0.30    2.70
  -4 -10  11    4.00    2.20
  -4  10  11    0.60    2.10
   4  10 -11    2.40    2.00
  -3 -10  11   -2.20    1.60
   3 -10 -11   -1.50    2.60
   3 -10 -11    2.00    2.40
  -3  10  11   -0.80    1.60
   3  10 -11   -0.60    1.50
  -2 -10  11   20.70    3.20
   2 -10 -11   33.50    4.80
   2 -10 -11   19.50    4.60
  -2  10  11   20.60    3.60
   2  10 -11   23.80    3.50
   1 -10 -11    1.80    2.30
  -1 -10  11    1.20    1.70
   1 -10 -11   -1.60    2.30
   1  10 -11   -0.70    1.80
  -1  10  11    1.00    2.10
   0 -10 -11   60.49    5.80
   0 -10 -11   66.69    7.50
   0  10  11   75.29    6.60
   0  10 -11   64.59    5.90
  -1 -10 -11   88.19    8.80
  -1 -10 -11   93.09    6.10
  -1  10 -11   84.39    6.20
   1  10  11   78.69    7.20
  -2 -10 -11   29.70    3.90
  -2 -10 -11   44.80    6.50
  -2  10 -11   33.70    4.70
   2  10  11   31.00    4.80
  -3 -10 -11    2.30    3.30
   3  10  11   -0.20    2.30
  -3  10 -11   -1.70    2.10
  -4 -10 -11  123.79    9.50
   4  10  11  135.09    8.90
  -4  10 -11  141.39    8.60
  -5 -10 -11   62.79    7.70
   5  10  11   78.39    7.60
  -5  10 -11   72.19    7.20
  -6 -10 -11   21.90    5.10
  -6  10 -11   19.90    4.40
   6  10  11   32.30    5.50
  -7 -10 -11   12.20    4.40
  -7  10 -11    4.70    3.30
   7  10  11   11.10    4.00
  -8 -10 -11   14.00    4.60
  -8  10 -11   12.40    4.00
   8  10  11    6.20    3.50
  -9 -10 -11   81.99    9.30
   9  10  11   75.29    8.50
  -9  10 -11   85.49    8.50
  10  10  11  190.68   12.20
 -10  10 -11  197.38   11.80
 -13 -11  11    6.00    3.70
  13 -11 -11    8.20    4.50
  12 -11 -11   14.30    4.90
 -12 -11  11   15.50    4.20
  11 -11 -11    5.20    4.00
 -11 -11  11    6.00    3.30
  10 -11 -11   15.50    4.70
 -10 -11  11   15.90    4.20
  -9 -11  11   32.20    4.90
   9 -11 -11   29.30    6.10
   8 -11 -11    1.80    3.10
  -8 -11  11   -2.30    2.30
   8 -11 -11    4.10    3.70
   7 -11 -11  113.79   10.40
   7 -11 -11  127.99    9.40
  -7 -11  11  129.09    7.80
   7  11 -11  123.79    6.20
  -6 -11  11    1.20    2.10
   6 -11 -11    2.10    2.80
   6 -11 -11    3.10    3.30
   6  11 -11    0.10    1.60
  -6  11  11   -0.80    1.80
   5 -11 -11   14.00    4.40
   5 -11 -11   17.50    4.20
  -5 -11  11   20.60    3.60
   5  11 -11   17.80    3.10
  -5  11  11   18.80    3.10
   4 -11 -11   69.99    8.10
  -4 -11  11   77.49    5.50
   4 -11 -11   72.69    7.60
  -4  11  11   77.39    5.40
   4  11 -11   67.59    5.60
   3 -11 -11   32.60    5.80
  -3 -11  11   36.20    4.30
   3 -11 -11   33.70    5.20
  -3  11  11   35.90    4.30
   3  11 -11   35.80    4.20
   2 -11 -11   13.80    3.90
   2 -11 -11    8.40    3.80
   2  11 -11   14.50    3.00
  -2  11  11   13.60    2.90
   1 -11 -11    9.40    3.80
   1 -11 -11    3.60    2.60
   1  11 -11   15.80    3.50
  -1  11  11   13.90    3.40
   0 -11 -11   48.30    5.50
   0 -11 -11   45.70    6.70
   0  11  11   38.20    4.90
   0  11 -11   46.30    5.10
  -1 -11 -11   44.30    5.10
  -1 -11 -11   58.49    7.40
   1  11  11   55.89    6.00
  -1  11 -11   50.19    5.60
  -2 -11 -11   26.70    5.30
  -2  11 -11   20.80    4.00
   2  11  11   18.50    4.00
  -3 -11 -11    3.30    3.30
  -3  11 -11    0.10    2.20
   3  11  11   -0.20    2.40
  -4 -11 -11    6.30    3.90
  -4  11 -11    4.40    3.00
   4  11  11    2.50    3.30
  -5 -11 -11    0.80    3.10
  -5  11 -11    3.10    2.90
   5  11  11    5.40    3.20
  -6 -11 -11   13.40    4.60
   6  11  11   17.20    4.50
  -6  11 -11   24.50    4.90
  -7 -11 -11   35.70    6.40
   7  11  11   48.60    6.80
  -7  11 -11   27.90    5.30
  -8 -11 -11    0.20    3.40
  -8  11 -11    4.80    3.40
   8  11  11    5.40    3.60
  -9  11 -11   65.49    7.90
   9  11  11   46.10    6.90
  12 -12 -11   11.70    5.10
 -12 -12  11   15.90    4.40
 -11 -12  11    9.20    3.40
  11 -12 -11    6.70    4.40
 -10 -12  11   79.09    7.70
  10 -12 -11   81.09    9.70
   9 -12 -11   -4.10    2.80
   9 -12 -11    0.70    3.20
  -9 -12  11   -1.00    2.30
   8 -12 -11    9.90    4.30
  -8 -12  11    8.70    3.30
   8 -12 -11   12.30    4.60
   7 -12 -11    2.50    3.40
   7 -12 -11    6.20    3.90
  -7 -12  11    5.10    2.60
   6 -12 -11   48.10    7.00
   6 -12 -11   44.20    6.60
  -6 -12  11   39.10    4.90
   6  12 -11   40.00    4.30
   5 -12 -11    3.20    3.00
   5 -12 -11    0.50    2.90
  -5 -12  11    0.70    2.40
   5  12 -11    0.70    2.00
   4 -12 -11    6.90    3.80
   4 -12 -11    5.70    3.20
   4  12 -11    6.70    2.60
   3 -12 -11    3.30    3.10
   3 -12 -11    5.20    3.20
  -3  12  11    2.80    2.20
   3  12 -11    0.70    2.00
   2 -12 -11    1.70    3.10
   2 -12 -11    1.90    2.70
   2  12 -11    0.60    2.10
  -2  12  11   -0.70    2.10
   1 -12 -11   16.50    4.60
   1 -12 -11    9.60    3.50
   1  12 -11   11.10    3.30
  -1  12  11    9.40    3.10
   0 -12 -11   13.80    4.50
   0 -12 -11    4.80    2.80
   0  12  11   11.10    3.30
   0  12 -11    3.90    2.70
  -1 -12 -11    2.00    2.60
  -1 -12 -11    4.90    3.70
  -1  12 -11    2.80    2.60
   1  12  11    0.60    2.50
  -2 -12 -11   23.30    5.30
  -2  12 -11   17.00    3.90
   2  12  11   19.50    4.20
  -3 -12 -11   33.10    6.40
   3  12  11   30.30    5.10
  -3  12 -11   27.60    4.80
  -4 -12 -11   14.80    4.80
  -4  12 -11   10.40    3.80
   4  12  11   17.20    4.20
  -5 -12 -11   25.50    5.90
  -5  12 -11   22.60    4.70
   5  12  11   33.20    5.50
  -6 -12 -11    2.10    3.40
   6  12  11    3.90    3.50
  -6  12 -11    3.90    3.10
  -7  12 -11   40.30    6.20
   7  12  11   42.30    6.50
 -10 -13  11    3.50    3.10
  10 -13 -11   -1.40    3.30
  -9 -13  11   77.29    7.40
   9 -13 -11   79.79    9.70
   9 -13 -11   73.09    8.90
   8 -13 -11   22.80    5.50
   8 -13 -11   41.00    7.10
   7 -13 -11    4.70    3.80
   7 -13 -11   -3.40    2.70
   6 -13 -11    6.70    4.10
   6 -13 -11   -1.50    3.10
   6  13 -11    1.80    2.20
   5 -13 -11   49.30    7.10
   5 -13 -11   43.00    6.90
   5  13 -11   35.80    4.40
   4 -13 -11   81.99    9.40
   4 -13 -11   87.59    9.00
   4  13 -11   78.19    5.80
   3 -13 -11   13.50    4.50
   3 -13 -11   12.60    4.10
   3  13 -11   13.90    3.40
   2 -13 -11   23.90    5.10
   2 -13 -11   14.80    4.80
   2  13 -11   13.20    3.50
   1 -13 -11   31.10    5.20
   1 -13 -11   25.20    5.60
   1  13 -11   31.50    4.70
   0 -13 -11   14.20    4.70
   0 -13 -11    9.30    3.50
   0  13  11   15.20    3.80
   0  13 -11   14.90    3.80
  -1 -13 -11    4.70    3.10
  -1 -13 -11   10.90    4.60
  -1  13 -11   -0.80    2.40
   1  13  11   -1.50    2.40
  -2 -13 -11    4.70    3.70
  -2  13 -11   -0.10    2.90
   2  13  11    4.50    2.90
  -3 -13 -11   89.19    9.80
   3  13  11   81.49    8.00
  -3  13 -11   77.69    7.60
  -4 -13 -11    3.50    3.80
   4  13  11    2.40    3.10
  -4  13 -11    5.50    3.50
   5  13  11    4.50    3.10
  -5  13 -11    3.00    3.40
   7 -14 -11    7.60    4.30
   6 -14 -11   33.80    6.40
   6 -14 -11   10.20    5.00
   5 -14 -11   -3.00    2.90
   5 -14 -11    8.00    3.70
   5  14 -11    5.20    2.70
   4 -14 -11    3.80    3.60
   4 -14 -11    2.40    3.60
   4  14 -11   -3.00    2.20
   3 -14 -11    1.10    3.10
   3 -14 -11    0.80    3.70
   3  14 -11    2.70    2.40
   2 -14 -11    8.40    4.40
   2 -14 -11   19.60    4.90
   2  14 -11   17.60    3.90
   1 -14 -11    1.10    3.60
   1 -14 -11    1.40    3.10
   1  14 -11    0.60    2.60
   0 -14 -11    2.40    3.60
   0 -14 -11    3.50    3.10
   0  14 -11    0.30    2.70
  -1 -14 -11   43.20    7.40
  -1  14 -11   36.30    5.50
  -2  14 -11    5.10    3.20
 -19   0  12   -1.80    2.90
 -18   0  12  212.38   12.30
 -17   0  12    1.80    3.10
 -16   0  12   95.89    9.10
 -15   0  12   -0.80    3.00
 -14   0  12  441.66   18.00
 -13   0  12    4.50    3.20
 -12   0  12  862.91   28.60
 -11   0  12    8.10    3.30
  10   0 -12   90.69    3.50
 -10   0  12   87.39    6.70
  -9   0  12   -0.80    2.10
   9   0 -12   -1.00    1.10
   9   0 -12    0.10    0.90
  -8   0  12    8.60    3.00
   8   0 -12   11.40    1.90
  -7   0  12   -0.50    1.30
   7   0 -12    0.20    1.10
  -6   0  12   18.90    3.60
   6   0 -12   13.40    2.30
  -5   0  12   -0.10    1.60
  -5   0  12   -1.40    1.20
  -4   0  12   17.20    3.10
   4   0 -12   15.00    2.40
  -4   0  12   11.70    2.70
   4   0 -12   15.70    2.80
  -3   0  12    1.90    1.80
   3   0 -12    0.50    1.50
   3   0 -12   -1.40    1.40
  -3   0  12    2.20    2.00
   2   0 -12  302.97   11.20
  -2   0  12  273.37   11.40
   2   0 -12  292.97   11.40
   1   0 -12   -1.20    1.60
   1   0 -12    0.90    1.50
  -1   0  12   -1.30    1.40
   0   0  12   35.70    4.20
   0   0 -12   28.60    3.50
   0   0 -12   33.10    4.20
  -1   0 -12    0.70    1.40
  -1   0 -12    1.00    2.00
  -1   0 -12    0.00    0.90
   1   0  12   -0.50    1.80
  -2   0 -12  229.58    7.50
   2   0  12  230.48   10.50
  -2   0 -12  219.28   10.70
  -2   0 -12  282.47   10.40
   3   0  12    0.00    1.90
  -3   0 -12   -1.20    2.00
  -3   0 -12    0.90    1.70
  -3   0 -12    0.40    0.50
  -4   0 -12   30.80    4.00
  -4   0 -12   44.40    5.40
   4   0  12   26.40    4.20
  -5   0 -12   -0.50    1.80
  -5   0 -12    0.20    2.20
   5   0  12   -0.20    2.00
  -6   0 -12   85.19    6.10
  -6   0 -12   84.69    7.90
   6   0  12   82.49    7.30
  -7   0 -12    4.20    2.50
   7   0  12    0.90    2.50
  -7   0 -12    5.60    2.90
   8   0  12  151.78    9.00
  -8   0 -12  142.09    8.20
  -8   0 -12  120.09    9.00
   9   0  12    3.70    2.70
  -9   0 -12   -2.30    2.20
  -9   0 -12   -2.20    2.50
  10   0  12    2.40    2.90
 -10   0 -12   -1.80    2.40
 -10   0 -12    3.60    3.20
  11   0  12    1.00    2.70
 -11   0 -12   -1.80    3.00
 -11   0 -12   -1.20    2.50
 -12   0 -12   49.90    7.30
 -12   0 -12   39.30    5.70
  12   0  12   43.20    6.40
 -13   0 -12   -1.40    2.70
 -13   0 -12   -0.40    3.40
  13   0  12    2.60    3.30
 -14   0 -12  170.48   11.70
  14   0  12  176.28   11.40
 -14   0 -12  155.38   10.50
 -19  -1  12   11.70    4.70
  19  -1 -12    3.70    4.30
 -19   1  12    5.80    3.90
 -18  -1  12    9.80    4.30
  18  -1 -12    9.90    4.80
 -18   1  12   14.40    4.40
 -17  -1  12    1.60    3.00
 -17   1  12   -2.00    2.70
 -16  -1  12   20.90    5.00
 -16   1  12   21.60    4.70
 -15  -1  12   78.09    8.40
 -15   1  12   87.59    8.30
 -14  -1  12   30.10    5.10
 -14   1  12   19.20    4.30
 -13  -1  12  260.47   12.50
 -13   1  12  244.28   12.20
 -12  -1  12  465.15   18.30
 -12   1  12  477.65   18.30
 -11  -1  12  258.77   12.20
 -11   1  12  272.27   12.40
 -10  -1  12  205.58   10.50
 -10   1  12  235.18   11.00
  -9  -1  12   47.10    5.40
   9   1 -12   41.50    2.30
  -9   1  12   47.60    5.60
   9   1 -12   48.50    3.00
  -8  -1  12  217.48    9.90
  -8   1  12  196.08    9.70
   8   1 -12  191.68    6.90
  -7  -1  12  161.08    8.30
  -7   1  12  145.79    8.00
   7   1 -12  146.99    6.00
  -6  -1  12   19.20    3.50
   6   1 -12   17.10    2.30
  -6   1  12   19.30    3.60
  -5  -1  12  254.97   11.10
  -5   1  12  265.87   10.60
   5   1 -12  249.78    9.50
  -5   1  12  255.17   11.10
  -4  -1  12   79.29    5.60
   4  -1 -12   70.29    5.10
  -4  -1  12   77.19    5.20
  -4   1  12   79.79    5.70
   4   1 -12   79.59    4.80
   4   1 -12   78.49    4.70
  -4   1  12   73.79    5.00
  -3  -1  12    0.50    1.80
   3  -1 -12   -0.70    1.80
  -3  -1  12    3.80    2.10
  -3   1  12    0.30    1.70
   3   1 -12    0.30    1.30
   3   1 -12   -0.70    1.30
   2  -1 -12  118.19    6.70
  -2  -1  12  129.29    7.00
   2   1 -12  144.99    6.50
   2   1 -12  136.69    6.90
  -2   1  12  126.89    7.00
  -1  -1  12  619.34   20.00
   1  -1 -12  603.74   19.70
  -1   1  12  585.74   20.00
   1   1 -12  599.54   19.90
   1   1 -12  593.24   18.90
   0  -1 -12  104.89    6.30
   0  -1  12  104.99    6.30
   0   1 -12  126.59    6.90
   0   1  12  101.99    6.20
   0   1 -12  105.49    5.60
  -1  -1 -12   66.89    5.10
   1  -1  12   63.19    5.60
  -1   1 -12   54.59    4.20
  -1   1 -12   58.99    5.60
   1   1  12   57.69    5.60
  -2  -1 -12  560.44   15.60
   2  -1  12  572.44   19.60
  -2  -1 -12  567.94   15.60
  -2  -1 -12  578.84   19.30
   2   1  12  572.24   19.80
  -2   1 -12  581.54   20.10
  -2   1 -12  576.54   18.50
  -2   1 -12  573.84   16.80
  -3  -1 -12    1.60    1.70
   3  -1  12    2.30    2.00
  -3  -1 -12   -0.70    1.70
   3   1  12    0.40    2.00
  -3   1 -12    0.60    2.10
  -3   1 -12   -1.00    0.70
  -3   1 -12   -0.80    1.50
  -4  -1 -12   24.70    4.30
   4  -1  12   21.40    3.70
  -4  -1 -12   18.00    3.20
   4   1  12   24.20    4.00
  -4   1 -12   22.70    3.30
  -4   1 -12   16.20    3.60
   5  -1  12  420.46   16.00
  -5  -1 -12  382.96   16.50
  -5  -1 -12  449.36   15.90
  -5   1 -12  410.96   14.90
  -5   1 -12  400.16   16.50
   5   1  12  428.16   16.30
  -6  -1 -12   14.70    3.90
   6  -1  12   28.20    4.50
  -6  -1 -12   21.30    3.80
  -6   1 -12   19.40    3.30
   6   1  12   18.00    3.90
  -6   1 -12   24.80    4.50
   7  -1  12  273.97   12.20
  -7  -1 -12  251.97   12.80
  -7  -1 -12  234.18   11.30
  -7   1 -12  249.18   10.90
   7   1  12  271.87   12.40
  -7   1 -12  252.07   12.60
  -8  -1 -12   10.50    3.20
  -8  -1 -12    7.30    3.40
   8  -1  12   16.10    3.80
  -8   1 -12   14.20    4.30
   8   1  12   14.30    3.90
  -8   1 -12    7.40    2.90
   9  -1  12    7.60    3.30
  -9  -1 -12    8.80    3.70
  -9  -1 -12    5.20    2.90
  -9   1 -12    6.50    2.90
  -9   1 -12    6.40    3.50
   9   1  12    6.70    3.20
  10  -1  12    2.70    2.60
 -10  -1 -12    4.70    2.90
 -10  -1 -12    1.80    2.90
 -10   1 -12    1.00    2.50
 -10   1 -12    0.50    2.90
  10   1  12    2.90    2.90
 -11  -1 -12    1.60    2.90
  11  -1  12    6.90    3.20
 -11  -1 -12    7.20    3.60
  11   1  12    5.00    3.30
 -11   1 -12    2.30    2.70
 -11   1 -12    3.70    3.50
 -12  -1 -12    0.10    2.70
  12  -1  12   -2.80    2.30
 -12  -1 -12    3.30    3.60
 -12   1 -12   -6.50    1.90
  12   1  12   -1.30    3.10
 -12   1 -12    0.80    3.30
 -13  -1 -12    4.40    3.80
  13  -1  12    0.70    2.90
 -13  -1 -12    1.70    3.10
 -13   1 -12    0.50    2.90
  13   1  12   -0.60    2.90
 -13   1 -12    0.70    3.20
  14  -1  12   32.70    5.80
 -14  -1 -12   33.10    5.80
 -14  -1 -12   21.10    5.60
 -14   1 -12   30.00    6.30
 -14   1 -12   23.70    4.80
  14   1  12   29.20    5.70
 -19  -2  12   82.49    9.00
  19  -2 -12   62.69    9.20
 -19   2  12   62.39    7.80
 -18  -2  12   -1.60    2.80
  18  -2 -12    0.80    3.90
 -18   2  12   -0.90    2.80
 -17  -2  12   34.20    5.80
  17  -2 -12   27.50    6.40
 -17   2  12   44.20    6.60
  16  -2 -12   -3.60    2.50
 -16  -2  12    0.30    3.00
 -16   2  12   -1.30    2.50
  15  -2 -12    0.00    2.70
 -15  -2  12    0.40    2.80
 -15   2  12   -2.90    2.40
 -14  -2  12  163.58    9.90
 -14   2  12  154.68    9.50
 -13  -2  12   46.90    6.10
 -13   2  12   50.89    6.20
 -12  -2  12    4.20    2.90
 -12   2  12   -1.90    1.60
 -11  -2  12    6.50    2.80
 -11   2  12   10.10    3.40
 -10  -2  12  191.08    9.80
 -10   2  12  176.58    9.40
  -9  -2  12  124.69    7.50
  -9   2  12  142.39    8.20
   9   2 -12  125.29    4.00
  -8  -2  12    1.90    2.40
   8   2 -12    5.90    1.20
  -8   2  12    5.40    2.70
  -7  -2  12   18.50    3.60
  -7   2  12   16.50    3.50
   7   2 -12   16.80    2.00
  -6  -2  12  380.76   14.70
  -6   2  12  390.06   14.90
  -6   2  12  394.56   14.10
   6   2 -12  377.26   12.40
  -5  -2  12  122.29    7.00
  -5   2  12  114.29    7.00
   5   2 -12  109.99    5.40
  -5   2  12   98.79    6.10
  -4  -2  12   89.79    5.60
   4  -2 -12   92.19    6.00
  -4  -2  12   69.49    6.20
   4   2 -12   96.99    5.10
   4   2 -12   73.39    4.50
  -4   2  12   82.39    5.50
  -3  -2  12  126.09    6.60
  -3  -2  12  136.99    7.20
   3  -2 -12  103.79    6.60
   3   2 -12  107.19    5.50
   3   2 -12  125.29    6.20
  -3   2  12  107.39    6.30
  -2  -2  12  479.05   16.70
   2  -2 -12  455.25   15.10
   2  -2 -12  473.25   16.70
  -2  -2  12  453.95   16.10
   2   2 -12  493.35   16.10
   2   2 -12  456.95   14.80
  -2   2  12  450.45   16.40
   1  -2 -12   58.19    5.50
  -1  -2  12   61.09    4.50
   1  -2 -12   63.69    3.70
   1   2 -12   63.69    4.00
   1   2 -12   62.79    4.80
  -1   2  12   58.69    5.50
   0  -2 -12   17.60    2.10
   0  -2  12   26.00    3.60
   0  -2 -12   19.00    3.40
   0   2 -12   19.50    3.30
   0   2  12   18.50    3.50
   0   2 -12   22.70    2.70
  -1  -2 -12  260.27    8.30
   1  -2  12  273.97   11.10
  -1  -2 -12  267.87   11.20
   1   2  12  274.87   11.40
  -1   2 -12  261.27   11.20
  -1   2 -12  252.97    9.60
   2  -2  12  204.38    9.50
   2  -2  12  215.48    8.60
  -2  -2 -12  226.78   10.10
   2   2  12  205.98    9.90
  -2   2 -12  190.48    8.20
  -2   2 -12  219.98   10.30
   3  -2  12   44.90    4.90
  -3  -2 -12   55.19    5.40
   3  -2  12   52.99    5.20
  -3   2 -12   43.30    4.00
   3   2  12   41.00    5.10
  -3   2 -12   39.70    5.10
  -4  -2 -12   56.19    5.70
   4  -2  12   62.49    5.90
  -4   2 -12   72.19    4.60
  -4   2 -12   77.59    6.90
   4   2  12   65.29    6.30
  -5  -2 -12   17.10    3.40
   5  -2  12   10.80    3.10
  -5   2 -12    9.70    3.20
  -5   2 -12   14.00    2.50
   5   2  12    9.10    3.20
  -6  -2 -12   34.80    5.40
   6  -2  12   36.80    4.90
  -6  -2 -12   34.50    4.90
  -6   2 -12   29.50    4.80
   6   2  12   28.40    4.60
  -6   2 -12   31.40    3.80
  -7  -2 -12   32.80    5.10
   7  -2  12   34.50    4.80
  -7  -2 -12   21.50    4.70
   7   2  12   22.60    4.30
  -7   2 -12   25.20    4.70
  -7   2 -12   33.10    4.00
  -8  -2 -12   93.19    8.70
  -8  -2 -12   76.59    7.40
   8  -2  12   75.79    7.20
  -8   2 -12   72.09    7.60
   8   2  12   79.19    7.80
  -8   2 -12   77.79    5.80
  -9  -2 -12   88.39    7.90
   9  -2  12  101.89    7.50
  -9  -2 -12   92.19    9.00
  -9   2 -12   87.79    8.60
   9   2  12  117.79    8.40
  -9   2 -12  115.19    7.10
  10  -2  12  123.19    8.40
 -10  -2 -12  132.29    8.70
 -10  -2 -12  143.59   10.20
 -10   2 -12  124.29    9.20
 -10   2 -12  124.79    7.70
  10   2  12  125.09    9.00
 -11  -2 -12    3.70    3.00
  11  -2  12    5.20    3.30
 -11  -2 -12    5.50    3.60
 -11   2 -12    3.10    2.90
 -11   2 -12    5.60    3.70
  11   2  12    2.60    3.20
  12  -2  12   30.90    5.10
 -12  -2 -12   25.40    4.90
 -12  -2 -12   35.20    6.20
 -12   2 -12   21.80    5.60
 -12   2 -12   28.10    4.60
  12   2  12   21.00    5.00
 -13  -2 -12   -0.80    2.90
  13  -2  12   -5.30    2.20
 -13  -2 -12    2.70    3.80
 -13   2 -12    1.90    2.50
 -13   2 -12    0.60    3.40
  13   2  12   -0.70    2.80
 -14  -2 -12    0.60    3.90
 -14  -2 -12   -1.00    2.80
  14  -2  12   -2.40    3.00
  14   2  12    4.90    3.50
 -14   2 -12    0.80    3.40
 -14   2 -12   -0.60    2.80
  19  -3 -12   72.99    9.80
 -19  -3  12   92.49    9.60
 -19   3  12   92.29    9.40
  18  -3 -12    6.00    4.40
 -18  -3  12    9.40    4.30
 -18   3  12   12.90    4.20
  17  -3 -12   37.50    6.90
 -17  -3  12   34.80    6.10
 -17   3  12   60.09    7.40
 -16  -3  12   32.70    5.70
  16  -3 -12   22.20    5.80
 -16   3  12   30.90    5.50
  15  -3 -12   12.00    4.50
 -15  -3  12   16.90    4.40
 -15   3  12   16.80    4.10
  14  -3 -12    3.30    2.80
 -14  -3  12    3.30    3.00
 -14   3  12   -3.10    2.40
  13  -3 -12   28.30    5.40
 -13  -3  12   25.90    4.80
 -13   3  12   39.40    5.60
 -12  -3  12   53.59    6.30
  12  -3 -12   49.80    6.60
 -12   3  12   60.19    6.50
  11  -3 -12  132.89    9.00
 -11  -3  12  130.99    8.20
 -11   3  12  119.29    8.00
 -10  -3  12   -1.00    2.30
  10  -3 -12    0.70    2.30
 -10   3  12   -2.10    2.10
  -9  -3  12   42.30    5.00
   9  -3 -12   41.30    5.40
  -9   3  12   49.99    5.50
   9   3 -12   41.10    1.50
   8  -3 -12    4.70    2.70
  -8  -3  12    1.10    2.30
  -8   3  12    4.40    2.20
   8   3 -12    1.30    0.80
   8   3 -12    3.10    1.40
   7  -3 -12  678.43   23.30
  -7  -3  12  692.63   23.10
   7   3 -12  704.93   20.30
  -7   3  12  675.33   23.10
   7   3 -12  685.23   19.70
  -6  -3  12  219.28   10.20
   6  -3 -12  226.68   10.30
  -6   3  12  214.38   10.30
   6   3 -12  215.98    7.90
  -6   3  12  217.08    9.50
  -5  -3  12    3.00    2.10
   5  -3 -12    2.40    1.90
  -5   3  12   -0.70    1.60
   5   3 -12    1.70    1.30
   5   3 -12    3.10    1.40
   4  -3 -12   17.50    3.60
   4  -3 -12    9.70    2.50
  -4  -3  12   18.10    3.40
   4   3 -12   18.10    2.50
   4   3 -12   18.00    2.30
  -4   3  12   20.30    3.20
  -3  -3  12  289.57   11.20
   3  -3 -12  276.47   10.70
   3  -3 -12  293.97   12.10
  -3  -3  12  285.57   11.70
   3   3 -12  278.87    9.60
   3   3 -12  280.47   10.70
  -3   3  12  287.37   11.60
   2  -3 -12   64.39    5.90
  -2  -3  12   58.39    5.20
  -2  -3  12   59.09    5.50
   2  -3 -12   50.59    3.80
   2   3 -12   61.09    4.60
   2   3 -12   61.99    3.50
  -2   3  12   77.79    5.40
   1  -3 -12  176.78    7.00
  -1  -3  12  162.88    7.90
   1  -3 -12  191.48    9.10
  -1   3  12  162.68    8.30
   1   3 -12  165.28    8.00
   1   3 -12  158.58    6.40
   0  -3  12   48.60    4.60
   0  -3 -12   38.30    4.50
   0   3  12   51.99    5.00
   0   3 -12   50.29    3.20
  -1  -3 -12  107.89    6.80
   1  -3  12  100.49    6.10
  -1  -3 -12  102.69    4.10
  -1   3 -12  109.89    5.00
  -1   3 -12  111.39    6.70
   1   3  12   94.49    6.50
  -2  -3 -12    8.20    2.80
   2  -3  12   11.50    2.70
  -2   3 -12    6.60    1.70
  -2   3 -12   12.90    3.10
   2   3  12    3.00    2.40
   3  -3  12   25.30    3.80
  -3  -3 -12   27.60    4.10
   3  -3  12   24.50    3.10
  -3   3 -12   24.40    2.90
  -3   3 -12   18.70    3.70
   3   3  12   22.80    4.00
   4  -3  12   23.60    3.80
   4  -3  12   19.60    3.80
  -4  -3 -12   20.10    3.80
   4   3  12   22.70    4.10
  -4   3 -12   20.70    4.00
  -4   3 -12   22.90    2.90
  -5  -3 -12   96.19    6.90
   5  -3  12   92.39    6.40
  -5   3 -12   94.19    7.10
   5   3  12   84.69    7.50
  -5   3 -12   96.69    5.40
   6  -3  12  755.62   24.60
  -6  -3 -12  770.62   25.40
  -6   3 -12  726.53   22.90
  -6   3 -12  693.33   25.40
   6   3  12  749.62   25.50
  -7  -3 -12   35.20    5.10
   7  -3  12   28.00    4.40
   7   3  12   42.40    5.60
  -7   3 -12   36.20    4.00
  -7   3 -12   34.00    5.40
  -8  -3 -12   68.79    7.10
  -8  -3 -12   49.60    6.60
   8  -3  12   55.29    6.10
  -8   3 -12   46.90    6.20
  -8   3 -12   63.99    4.80
   8   3  12   62.79    7.10
   9  -3  12    3.20    2.60
  -9  -3 -12   -0.70    2.70
  -9  -3 -12    1.30    2.60
  -9   3 -12    3.40    2.30
   9   3  12   -0.80    2.80
  -9   3 -12    2.50    3.10
  10  -3  12    3.50    2.60
 -10  -3 -12   -3.60    2.60
 -10  -3 -12    1.20    2.60
 -10   3 -12   -1.20    2.60
  10   3  12    0.90    3.00
 -10   3 -12   -1.00    1.80
 -11  -3 -12   58.99    7.70
  11  -3  12   79.59    7.80
 -11  -3 -12   79.79    8.10
 -11   3 -12   72.29    6.50
 -11   3 -12   82.89    8.90
  11   3  12   66.09    7.80
 -12  -3 -12   44.40    7.00
  12  -3  12   55.29    6.70
 -12  -3 -12   41.10    6.30
 -12   3 -12   56.09    7.60
  12   3  12   42.60    6.70
 -12   3 -12   46.30    5.60
 -13  -3 -12   39.50    6.30
  13  -3  12   52.39    6.80
 -13  -3 -12   43.40    7.00
 -13   3 -12   41.00    6.70
 -13   3 -12   44.70    5.80
  13   3  12   36.90    6.30
  14  -3  12   -0.50    2.80
 -14  -3 -12   -6.20    2.90
 -14  -3 -12   -2.00    2.60
  14   3  12   -2.80    2.70
 -14   3 -12    4.20    3.90
 -18  -4  12   32.20    6.10
  18  -4 -12   27.00    6.50
 -18   4  12   40.00    6.20
 -17  -4  12    0.40    3.00
  17  -4 -12   11.00    4.50
 -17   4  12    0.60    3.10
  16  -4 -12    2.10    3.50
 -16  -4  12   -0.20    2.80
 -16   4  12   -0.40    2.80
 -15  -4  12   60.29    7.10
  15  -4 -12   48.60    7.30
 -15   4  12   55.09    6.80
  14  -4 -12   -2.00    2.90
 -14  -4  12    6.90    3.10
 -14   4  12    5.90    3.30
  13  -4 -12   21.30    5.10
 -13  -4  12   11.50    3.70
 -13   4  12   16.70    4.10
  12  -4 -12   41.00    6.00
 -12  -4  12   44.00    5.60
 -12   4  12   46.20    5.80
 -11  -4  12   27.70    4.60
  11  -4 -12   17.80    4.40
 -11   4  12   42.70    5.40
  10  -4 -12   19.20    4.30
 -10  -4  12   20.70    4.30
 -10   4  12   25.90    4.40
  -9  -4  12   47.00    5.60
   9  -4 -12   41.90    5.50
   9   4 -12   41.60    3.60
  -9   4  12   44.00    5.40
   8  -4 -12  117.59    7.60
  -8  -4  12   95.99    6.80
   8   4 -12  118.89    4.20
  -8   4  12  112.09    7.20
   8   4 -12  110.89    5.10
  -7  -4  12   85.29    6.30
   7  -4 -12   99.19    6.90
   7   4 -12   94.99    4.40
   7   4 -12   93.59    4.10
  -7   4  12   95.79    6.40
   6  -4 -12  205.88    9.50
  -6  -4  12  177.78    9.10
  -6   4  12  181.58    8.60
   6   4 -12  190.58    7.10
   6   4 -12  189.68    6.70
  -5  -4  12   77.39    5.60
   5  -4 -12   73.19    5.50
   5  -4 -12   67.19    6.30
   5   4 -12   72.89    3.80
   5   4 -12   75.59    3.40
  -5   4  12   71.99    5.30
   5   4 -12   68.49    4.10
   4  -4 -12   21.20    4.00
  -4  -4  12   23.10    3.70
   4  -4 -12   18.10    3.20
   4   4 -12   25.20    2.30
  -4   4  12   24.00    3.60
   4   4 -12   24.70    3.00
   3  -4 -12   38.40    5.10
   3  -4 -12   45.20    4.40
  -3  -4  12   54.29    5.30
   3   4 -12   49.80    2.80
  -3   4  12   39.40    4.60
   3   4 -12   48.50    4.30
  -2  -4  12  551.34   18.30
   2  -4 -12  547.95   17.60
   2  -4 -12  554.14   19.70
  -2  -4  12  550.64   18.80
   2   4 -12  561.84   15.90
  -2   4  12  521.15   18.70
   2   4 -12  560.34   18.20
  -1  -4  12    1.50    1.80
  -1  -4  12    2.60    2.10
   1  -4 -12   -1.10    2.20
   1  -4 -12    4.00    1.60
   1   4 -12    1.20    0.90
  -1   4  12    2.10    2.20
   1   4 -12    2.90    1.80
   0  -4  12    7.30    2.20
   0  -4 -12    4.40    2.60
   0  -4 -12    6.80    1.60
   0   4 -12    7.70    2.50
   0   4  12    8.60    2.80
   0   4 -12    4.90    1.20
  -1  -4 -12  139.39    8.20
  -1  -4 -12  145.19    5.30
   1  -4  12  140.49    7.30
  -1   4 -12  146.69    7.80
   1   4  12  134.99    7.90
  -1   4 -12  140.99    5.50
   2  -4  12   88.29    5.60
  -2  -4 -12   75.39    6.80
  -2  -4 -12   84.29    2.90
  -2   4 -12   90.99    6.30
   2   4  12   85.29    6.30
  -2   4 -12   81.19    4.10
   3  -4  12    1.60    1.40
  -3  -4 -12   -1.80    1.90
   3  -4  12   -1.70    1.50
   3   4  12    0.70    2.30
  -3   4 -12    2.30    1.20
  -3   4 -12   -1.60    1.90
  -4  -4 -12  218.78   11.20
   4  -4  12  244.48    9.40
   4  -4  12  250.27   10.70
  -4   4 -12  237.18    8.80
  -4   4 -12  247.98   11.50
   4   4  12  246.78   11.60
  -5  -4 -12    7.80    3.10
   5  -4  12   13.80    3.10
   5   4  12    4.80    2.90
  -5   4 -12   13.30    2.30
  -5   4 -12   12.10    3.50
   6  -4  12   25.80    4.10
  -6  -4 -12   22.90    4.30
  -6   4 -12   14.10    2.60
   6   4  12   18.70    4.00
  -6   4 -12   18.60    4.10
   7  -4  12   12.30    3.10
  -7  -4 -12    9.40    3.40
  -7   4 -12    8.40    3.40
   7   4  12    6.80    3.20
  -7   4 -12   13.10    2.50
  -8  -4 -12   51.99    6.50
   8  -4  12   48.70    5.70
  -8   4 -12   50.09    6.50
  -8   4 -12   58.79    5.10
   8   4  12   48.50    6.30
   9  -4  12   79.59    7.20
  -9  -4 -12   93.59    8.60
  -9  -4 -12   77.89    8.50
   9   4  12   88.69    8.50
  -9   4 -12   83.29    8.30
  -9   4 -12   76.59    5.50
  10  -4  12   22.60    4.30
 -10  -4 -12   21.70    5.30
 -10  -4 -12   17.30    4.30
 -10   4 -12   17.40    3.40
  10   4  12   16.70    4.40
 -10   4 -12   10.70    4.30
  11  -4  12   23.20    4.50
 -11  -4 -12   13.70    4.50
 -11  -4 -12   11.90    4.00
  11   4  12    7.40    3.50
 -11   4 -12    7.80    4.00
 -11   4 -12   10.20    3.00
 -12  -4 -12   13.40    4.80
 -12  -4 -12   11.10    4.10
  12  -4  12   16.20    4.10
  12   4  12   13.50    4.60
 -12   4 -12    3.20    3.60
 -12   4 -12   12.60    3.40
 -13  -4 -12   18.50    5.00
 -13  -4 -12   19.40    5.60
  13  -4  12   22.50    4.60
 -13   4 -12   12.50    3.60
 -13   4 -12   10.40    4.50
  13   4  12   14.00    4.70
  14  -4  12   47.20    6.40
 -14  -4 -12   45.50    7.50
 -14   4 -12   45.10    7.20
 -14   4 -12   47.80    5.80
  14   4  12   40.90    7.00
 -18  -5  12   25.70    5.60
  18  -5 -12   33.50    7.40
 -18   5  12   28.30    5.70
 -17  -5  12    7.90    4.30
  17  -5 -12    2.60    3.90
 -17   5  12    3.40    3.40
 -16  -5  12    4.40    3.70
  16  -5 -12    5.60    3.70
 -16   5  12    1.50    2.90
 -15  -5  12   39.60    6.10
  15  -5 -12   51.19    7.80
 -15   5  12   39.50    6.00
  14  -5 -12   17.30    5.00
 -14  -5  12   18.30    4.70
 -14   5  12   18.50    4.40
 -13  -5  12   97.09    8.70
  13  -5 -12  101.59    9.90
 -13   5  12  103.89    7.60
  12  -5 -12    0.30    2.80
 -12  -5  12    2.70    2.70
 -12   5  12    5.90    2.90
  11  -5 -12   12.20    4.00
 -11  -5  12   13.70    3.70
 -11   5  12   12.00    3.50
 -10  -5  12   45.40    5.70
  10  -5 -12   35.50    5.60
 -10   5  12   39.40    5.20
   9  -5 -12   30.90    5.10
  -9  -5  12   38.30    5.20
  -9   5  12   41.90    5.30
  -8  -5  12  160.98    8.80
   8  -5 -12  162.58    9.40
  -8   5  12  169.48    9.10
   8   5 -12  165.98    5.70
   7  -5 -12   86.79    6.50
  -7  -5  12   74.79    5.80
   7   5 -12   69.79    3.60
  -7   5  12   77.59    5.30
   7   5 -12   65.89    3.50
  -6  -5  12    3.40    2.30
   6  -5 -12   -1.30    2.00
   6   5 -12    3.60    1.40
   6   5 -12    0.70    0.80
  -6   5  12    2.90    2.10
  -5  -5  12  253.47   11.20
   5  -5 -12  270.87   12.40
   5  -5 -12  260.47   11.30
   5   5 -12  267.17    8.00
   5   5 -12  256.57    8.20
  -5   5  12  265.67   10.90
   5   5 -12  259.37    9.40
   4  -5 -12  190.38   10.40
   4  -5 -12  206.68    9.50
  -4  -5  12  221.18    9.80
   4   5 -12  215.18    8.40
  -4   5  12  211.88    9.50
   4   5 -12  209.98    6.20
   4   5 -12  202.48    6.40
   3  -5 -12  377.96   15.50
  -3  -5  12  392.26   14.50
   3  -5 -12  377.56   13.90
   3   5 -12  399.76   10.50
   3   5 -12  386.56   10.40
   3   5 -12  397.16   13.50
  -3   5  12  370.26   14.40
  -2  -5  12   16.00    3.10
   2  -5 -12   15.50    3.70
   2  -5 -12   14.60    2.70
   2   5 -12   13.00    2.50
  -2   5  12    8.60    2.70
  -1  -5  12   31.00    4.10
   1  -5 -12   33.30    3.40
   1  -5 -12   26.20    4.50
  -1  -5  12   36.30    4.00
  -1   5  12   30.50    4.30
   1   5 -12   30.00    1.30
   1   5 -12   27.50    3.60
   0  -5 -12    6.20    1.70
   0  -5  12    3.20    1.90
   0  -5 -12    0.90    2.60
   0   5 -12    2.90    2.10
   0   5  12    1.40    2.10
   0   5 -12    5.70    0.80
  -1  -5 -12   15.70    2.00
  -1  -5 -12    9.60    3.30
   1  -5  12   17.10    3.00
  -1   5 -12   10.60    1.30
  -1   5 -12    9.80    2.80
   1   5  12   15.70    3.40
  -2  -5 -12  109.09    4.10
   2  -5  12  118.59    6.50
  -2  -5 -12  104.99    7.50
   2   5  12   94.99    6.90
  -2   5 -12  106.79    7.00
  -2   5 -12  114.29    4.40
   3  -5  12  120.69    7.00
  -3  -5 -12  121.59    8.30
  -3   5 -12  134.79    5.30
   3   5  12  148.19    8.40
  -3   5 -12  140.29    8.10
   4  -5  12   16.10    3.10
  -4  -5 -12   11.00    3.40
   4   5  12   15.30    3.40
  -4   5 -12   13.00    3.40
  -4   5 -12   14.20    2.00
  -5  -5 -12    4.40    2.90
   5  -5  12    0.30    1.80
  -5   5 -12    6.90    3.00
   5   5  12    0.90    2.30
  -5   5 -12    3.30    1.50
   6  -5  12    0.90    1.90
  -6  -5 -12   -2.40    2.20
  -6   5 -12   -2.20    2.10
   6   5  12    5.50    2.90
  -6   5 -12   -0.70    1.20
   7  -5  12   17.50    3.50
  -7  -5 -12   13.80    3.80
  -7   5 -12   17.60    2.70
  -7   5 -12   15.70    4.00
   7   5  12   22.30    4.40
  -8  -5 -12   55.09    6.80
   8  -5  12   50.19    5.60
   8   5  12   58.79    7.10
  -8   5 -12   46.40    4.30
  -8   5 -12   45.50    6.20
  -9  -5 -12   28.60    5.30
   9  -5  12   28.20    4.40
  -9   5 -12   25.40    3.50
  -9   5 -12   23.50    4.90
   9   5  12   33.80    5.60
  10  -5  12  105.99    7.20
 -10  -5 -12   85.29    8.80
 -10   5 -12  109.29    6.50
  10   5  12  108.99   10.00
 -10   5 -12  100.49    9.50
 -11  -5 -12   79.19    9.00
  11  -5  12   75.79    7.40
 -11  -5 -12   78.69    8.60
 -11   5 -12   71.79    8.20
  11   5  12   81.69    8.90
 -12  -5 -12   24.70    5.60
 -12  -5 -12   24.60    5.60
  12  -5  12   18.10    4.10
  12   5  12   25.70    5.60
 -12   5 -12   17.10    4.90
 -13  -5 -12   10.80    4.80
 -13  -5 -12    5.50    3.90
  13  -5  12    8.40    3.70
  13   5  12   10.50    4.40
 -13   5 -12    9.40    4.60
  18  -6 -12   69.69    9.80
 -18  -6  12   74.19    8.80
 -18   6  12   63.69    7.60
 -17  -6  12   40.50    6.70
  17  -6 -12   32.70    7.30
 -17   6  12   44.90    6.40
  16  -6 -12   15.80    5.20
 -16  -6  12    9.10    4.30
 -16   6  12    4.90    3.20
  15  -6 -12    2.20    3.80
 -15  -6  12    4.20    3.40
 -15   6  12    5.00    3.00
  14  -6 -12    5.20    3.90
 -14  -6  12   11.80    3.90
 -14   6  12    7.20    3.30
 -13  -6  12   60.99    7.10
  13  -6 -12   55.69    7.80
 -13   6  12   66.09    6.90
  12  -6 -12    6.50    3.60
 -12  -6  12    7.10    3.10
 -12   6  12    1.20    2.50
 -11  -6  12   60.29    6.50
  11  -6 -12   59.29    7.50
 -11   6  12   47.80    5.90
  10  -6 -12  100.59    8.10
 -10  -6  12  102.19    7.30
 -10   6  12   85.59    6.70
   9  -6 -12   -1.10    2.50
  -9  -6  12   -1.80    2.00
  -9   6  12   -0.80    2.30
  -8  -6  12    4.70    2.40
   8  -6 -12    0.60    2.30
   8   6 -12    1.40    1.00
  -7  -6  12  168.88    9.10
   7  -6 -12  176.78    9.70
   7   6 -12  187.58    6.70
  -7   6  12  177.48    8.40
   6  -6 -12  256.97   11.50
  -6  -6  12  243.88   10.80
   6   6 -12  229.38    8.40
   6   6 -12  230.48    7.30
  -6   6  12  241.38   10.30
   5  -6 -12  149.09    8.30
   5  -6 -12  134.09    8.90
  -5  -6  12  138.59    7.80
  -5   6  12  151.68    7.70
   5   6 -12  155.48    6.50
   4  -6 -12   -2.60    1.90
  -4  -6  12    3.50    2.40
   4  -6 -12   -5.90    2.20
   4   6 -12    2.00    1.60
  -4   6  12    3.10    2.20
  -3  -6  12  477.85   17.00
   3  -6 -12  478.75   18.70
   3  -6 -12  492.75   17.00
  -3   6  12  497.55   17.30
   3   6 -12  477.65   16.10
   2  -6 -12  193.58    8.60
  -2  -6  12  197.78    9.00
   2  -6 -12  187.18   10.40
  -2   6  12  195.18    9.40
   2   6 -12  202.98    8.70
  -1  -6  12   19.50    3.30
   1  -6 -12   15.70    4.00
   1  -6 -12   15.00    2.70
  -1   6  12   22.90    3.80
   1   6 -12   13.80    2.80
   0  -6  12   89.39    5.50
   0  -6 -12   88.39    4.90
   0  -6 -12   76.19    7.30
   0   6 -12   92.09    5.90
   0   6  12   95.29    6.50
  -1  -6 -12 1112.39   31.00
  -1  -6 -12 1103.59   35.20
   1  -6  12 1066.59   32.40
  -1   6 -12 1060.69   33.40
   1   6  12 1149.98   34.40
  -2  -6 -12  406.66   12.50
  -2  -6 -12  403.66   16.90
   2  -6  12  400.66   14.40
  -2   6 -12  426.26   15.80
   2   6  12  398.96   15.90
   3  -6  12  109.09    6.40
  -3  -6 -12  102.99    7.90
  -3   6 -12  125.79    7.60
   3   6  12  105.09    7.40
  -4  -6 -12    6.50    3.40
   4  -6  12   12.40    2.70
   4   6  12   12.80    3.60
  -4   6 -12   10.40    3.20
   5  -6  12   -0.80    1.70
  -5  -6 -12   -3.80    2.20
   5   6  12    2.10    2.50
  -5   6 -12   -0.20    2.20
  -6  -6 -12   55.29    6.70
   6  -6  12   60.49    5.60
   6   6  12   61.99    6.90
  -6   6 -12   57.09    6.70
  -7  -6 -12    4.70    3.20
   7  -6  12    2.80    2.20
  -7   6 -12    5.10    3.10
   7   6  12   10.00    3.70
  -8  -6 -12   15.50    4.30
   8  -6  12   13.50    3.30
   8   6  12    8.70    3.70
  -8   6 -12   11.00    3.90
   9  -6  12   46.90    5.30
  -9  -6 -12   28.30    5.50
   9   6  12   45.70    6.40
  -9   6 -12   42.90    6.30
 -10  -6 -12    4.60    3.40
  10  -6  12    6.40    2.90
  10   6  12    4.60    3.50
 -10   6 -12    7.10    3.80
 -11  -6 -12   12.10    4.10
  11  -6  12   10.60    3.20
 -11   6 -12   10.20    4.20
  11   6  12   11.60    4.20
 -12  -6 -12    1.50    3.70
 -12  -6 -12    1.00    3.90
 -12   6 -12   -0.50    3.30
  12   6  12    5.70    3.80
 -13  -6 -12   28.00    6.20
 -13   6 -12   32.40    6.40
  13   6  12   26.70    6.00
  17  -7 -12   31.90    7.30
 -17  -7  12   41.80    6.70
 -17   7  12   41.20    6.20
 -16  -7  12    0.90    3.30
  16  -7 -12    1.70    3.50
 -16   7  12   -1.20    3.00
 -15  -7  12    7.70    3.80
  15  -7 -12    8.40    4.60
 -15   7  12    7.10    3.30
  14  -7 -12    2.20    3.40
 -14  -7  12    7.40    3.70
 -14   7  12    5.60    3.00
  13  -7 -12    0.40    3.10
 -13  -7  12   -0.30    2.60
 -13   7  12    0.00    2.30
  12  -7 -12   14.30    4.60
 -12  -7  12    9.90    3.60
 -12   7  12   18.20    3.90
  11  -7 -12   31.50    5.60
 -11  -7  12   28.00    4.80
 -11   7  12   30.00    4.70
 -10  -7  12   10.60    3.30
  10  -7 -12   16.40    4.50
  -9  -7  12    2.50    2.40
   9  -7 -12   -1.50    2.50
   8  -7 -12  165.98   10.00
  -8  -7  12  179.18    9.30
   8   7 -12  165.98    6.20
  -7  -7  12   59.79    6.10
   7  -7 -12   62.29    6.80
  -7   7  12   69.29    5.10
   7   7 -12   65.29    3.70
   6  -7 -12   15.70    3.70
   6  -7 -12   19.00    4.40
  -6  -7  12   22.20    3.90
  -6   7  12   23.70    3.50
   6   7 -12   17.40    2.30
  -5  -7  12    0.80    1.90
   5  -7 -12   -3.60    2.30
   5  -7 -12   -0.20    2.00
   5   7 -12    0.90    1.40
  -5   7  12   -2.90    1.50
   4  -7 -12   39.30    5.60
   4  -7 -12   32.40    4.50
  -4  -7  12   35.20    4.40
  -4   7  12   34.20    4.40
   4   7 -12   33.30    3.50
   3  -7 -12  538.05   20.20
   3  -7 -12  524.65   18.10
  -3  -7  12  511.35   17.80
   3   7 -12  508.05   16.90
  -3   7  12  498.15   18.00
   2  -7 -12   -0.10    1.70
   2  -7 -12   -2.00    2.30
  -2  -7  12    1.20    1.80
  -2   7  12    0.50    2.00
   2   7 -12    2.00    1.80
   1  -7 -12    7.60    3.30
  -1  -7  12    9.30    2.40
   1  -7 -12    6.90    2.20
   1   7 -12    9.60    2.50
  -1   7  12    4.40    2.50
   0  -7 -12   40.90    3.90
   0  -7 -12   36.30    5.40
   0   7  12   30.20    4.40
   0   7 -12   34.00    4.30
  -1  -7 -12  276.97   10.00
  -1  -7 -12  277.87   13.30
   1   7  12  253.87   12.10
  -1   7 -12  271.57   11.70
  -2  -7 -12   91.89    4.70
   2  -7  12   98.59    5.80
  -2  -7 -12   92.79    8.40
  -2   7 -12  108.19    6.90
   2   7  12   96.69    7.10
   3  -7  12   25.20    3.50
  -3  -7 -12   20.90    4.40
   3   7  12   31.40    4.80
  -3   7 -12   19.90    3.90
  -4  -7 -12   96.49    8.70
   4  -7  12   86.79    5.50
   4   7  12   72.09    7.40
  -4   7 -12   73.69    7.00
   5  -7  12    5.90    2.50
  -5  -7 -12    7.00    3.40
  -5   7 -12    9.00    3.40
   5   7  12    6.50    3.10
   6  -7  12   -2.10    1.60
  -6  -7 -12    1.40    2.80
   6   7  12   -2.60    2.40
  -6   7 -12    2.70    2.70
   7  -7  12    5.90    2.50
  -7  -7 -12    2.60    3.10
   7   7  12    5.40    3.30
  -7   7 -12    2.80    2.90
  -8  -7 -12   42.90    6.50
   8  -7  12   41.30    4.80
  -8   7 -12   45.60    6.30
   8   7  12   36.60    6.00
  -9  -7 -12   -0.40    3.10
   9  -7  12    5.70    2.50
   9   7  12    4.10    2.90
  -9   7 -12    4.10    3.40
 -10  -7 -12   31.90    6.00
 -10   7 -12   25.70    5.50
  10   7  12   29.80    5.80
 -11  -7 -12    5.90    3.80
 -11   7 -12    2.80    3.80
  11   7  12    5.40    3.90
  12   7  12   11.10    4.60
 -12   7 -12   10.30    4.60
 -16  -8  12   25.10    5.40
  16  -8 -12   15.60    5.60
 -16   8  12   24.90    7.80
  15  -8 -12    5.60    4.30
 -15  -8  12    1.20    3.20
 -15   8  12    4.20    3.10
  14  -8 -12   15.60    5.40
 -14  -8  12   19.60    4.70
 -14   8  12    7.40    3.20
  13  -8 -12    0.30    3.60
 -13  -8  12    4.80    3.30
  12  -8 -12   59.19    8.10
 -12  -8  12   70.79    7.40
  11  -8 -12    2.70    3.50
 -11  -8  12    2.80    2.70
  10  -8 -12   58.99    7.50
 -10  -8  12   63.49    6.80
   9  -8 -12   42.60    6.40
  -9  -8  12   42.40    5.50
   8  -8 -12   57.89    7.10
  -8  -8  12   49.00    5.70
   8   8 -12   57.69    5.10
   7  -8 -12   13.00    3.80
  -7  -8  12   16.30    3.50
   7   8 -12   14.40    2.20
  -7   8  12   16.20    3.10
  -6  -8  12    9.30    2.90
   6  -8 -12   14.90    3.90
   6  -8 -12   10.20    4.00
   6   8 -12   13.20    2.20
  -6   8  12    7.20    2.60
   5  -8 -12    0.50    1.90
   5  -8 -12    1.40    2.70
  -5  -8  12   -1.60    1.90
   5   8 -12   -1.60    1.30
  -5   8  12    3.50    2.10
   4  -8 -12   32.90    5.30
  -4  -8  12   39.00    4.70
   4  -8 -12   35.70    4.80
  -4   8  12   32.90    4.20
   4   8 -12   40.80    4.00
  -3  -8  12    4.20    2.30
   3  -8 -12    3.30    2.40
   3  -8 -12    0.10    2.20
   3   8 -12    2.20    1.70
  -3   8  12    1.50    2.00
   2  -8 -12    5.90    2.70
  -2  -8  12    6.50    2.40
   2  -8 -12    7.10    2.60
  -2   8  12    7.30    2.70
   2   8 -12   10.10    2.50
  -1  -8  12    1.70    1.90
   1  -8 -12   -4.20    1.90
   1  -8 -12    0.70    1.70
  -1   8  12   -3.90    1.70
   1   8 -12   -0.20    1.90
   0  -8 -12   87.69    5.40
   0  -8 -12   87.89    8.30
   0   8  12   75.29    6.90
   0   8 -12   81.59    6.00
  -1  -8 -12   96.49    8.70
  -1  -8 -12   81.99    5.10
   1   8  12  106.79    7.40
  -1   8 -12   88.19    6.30
  -2  -8 -12  115.79    6.10
  -2  -8 -12   98.59    9.00
  -2   8 -12   95.89    7.00
   2   8  12   90.59    7.90
  -3  -8 -12   22.40    4.80
   3   8  12   17.50    4.10
  -3   8 -12   29.90    4.60
  -4  -8 -12   10.30    3.80
   4  -8  12    6.50    2.20
   4   8  12    1.80    2.80
  -4   8 -12    6.30    2.90
   5  -8  12   10.80    2.50
  -5  -8 -12    7.80    3.90
   5   8  12    9.40    3.50
  -5   8 -12    9.50    3.40
  -6  -8 -12  298.97   14.70
   6  -8  12  278.97   11.10
   6   8  12  281.37   13.80
  -6   8 -12  276.17   13.30
  -7  -8 -12    9.00    3.90
   7  -8  12    4.70    2.40
  -7   8 -12    7.30    3.50
   7   8  12   10.20    3.90
  -8  -8 -12  107.19   10.00
  -8   8 -12  101.99    9.20
   8   8  12  100.09    9.50
  -9  -8 -12   63.19    8.00
   9   8  12   78.79    8.50
  -9   8 -12   65.69    7.80
 -10  -8 -12    2.50    3.50
  10   8  12    3.60    3.40
 -10   8 -12    1.10    3.30
 -11   8 -12   -1.50    3.40
  11   8  12    2.20    3.30
  15  -9 -12   14.40    5.50
 -15  -9  12    5.00    3.60
  14  -9 -12    5.90    4.50
 -14  -9  12   11.50    4.00
 -13  -9  12    7.00    3.40
  13  -9 -12    0.10    3.40
 -12  -9  12   44.50    6.20
  12  -9 -12   47.40    7.70
  11  -9 -12   19.80    5.50
 -11  -9  12   19.60    4.20
  10  -9 -12    9.20    4.30
 -10  -9  12   11.60    3.50
  -9  -9  12   99.19    7.40
   9  -9 -12  131.99    9.50
   8  -9 -12    5.60    3.20
  -8  -9  12    6.90    2.90
  -7  -9  12   -0.10    2.20
   7  -9 -12   -1.00    2.80
   7  -9 -12    0.70    2.60
   7   9 -12    1.50    1.40
   6  -9 -12    5.40    3.10
  -6  -9  12    2.50    2.20
   6  -9 -12    2.90    3.00
  -6   9  12    7.00    2.40
   6   9 -12    3.80    1.80
  -5  -9  12  236.68   11.20
   5  -9 -12  293.97   14.20
   5  -9 -12  262.77   12.60
   5   9 -12  275.37   10.30
  -5   9  12  279.87   11.30
   4  -9 -12   11.80    3.30
  -4  -9  12   16.50    3.40
   4  -9 -12   11.30    3.80
  -4   9  12   13.70    3.10
   4   9 -12   17.50    2.80
   3  -9 -12   15.60    4.30
  -3  -9  12   12.20    2.90
   3  -9 -12   14.80    3.50
   3   9 -12   16.60    2.90
  -3   9  12   16.20    3.30
   2  -9 -12    5.10    2.50
  -2  -9  12    4.40    2.20
   2  -9 -12    2.00    2.90
  -2   9  12    1.20    2.20
   2   9 -12    2.30    2.00
  -1  -9  12   28.70    3.70
   1  -9 -12   30.20    4.20
   1  -9 -12   28.20    5.10
  -1   9  12   30.60    4.50
   1   9 -12   34.00    4.40
   0  -9 -12    0.90    1.80
   0  -9 -12   -2.30    2.40
   0   9  12    1.30    2.40
   0   9 -12    0.60    2.30
  -1  -9 -12   25.60    3.60
  -1  -9 -12   30.50    5.50
  -1   9 -12   21.00    3.80
   1   9  12   20.80    4.10
  -2  -9 -12   10.90    4.00
   2   9  12    8.90    3.30
  -2   9 -12    7.90    2.90
  -3  -9 -12  300.87   15.10
   3   9  12  316.57   14.10
  -3   9 -12  318.77   13.60
  -4  -9 -12   25.50    5.20
  -4   9 -12   21.30    4.30
   4   9  12   33.00    5.30
  -5  -9 -12  149.19   10.40
  -5   9 -12  183.68   10.00
   5   9  12  140.19    9.50
  -6  -9 -12   70.79    8.30
  -6   9 -12   71.29    7.40
   6   9  12   76.99    8.00
  -7  -9 -12   69.59    8.30
  -7   9 -12   76.59    7.90
   7   9  12   84.99    8.60
  -8  -9 -12    3.30    3.50
  -8   9 -12    1.90    3.10
   8   9  12    2.60    3.30
  -9  -9 -12   25.50    5.70
  -9   9 -12   27.50    5.50
   9   9  12   26.90    5.50
 -10   9 -12    0.10    3.10
  10   9  12    0.90    3.30
  14 -10 -12   10.20    4.90
 -14 -10  12   -1.00    3.20
 -13 -10  12    9.70    3.90
  13 -10 -12    7.40    4.50
  12 -10 -12   -3.60    3.10
 -12 -10  12   -0.60    2.80
 -11 -10  12    1.00    3.10
  11 -10 -12    1.90    3.40
  10 -10 -12   65.49    8.30
 -10 -10  12   59.59    6.70
   9 -10 -12    0.60    2.90
  -9 -10  12    3.60    2.60
   8 -10 -12   10.60    4.00
   8 -10 -12    8.60    3.90
  -8 -10  12    4.70    2.90
   7 -10 -12    2.70    2.90
  -7 -10  12    4.70    2.60
   7 -10 -12   -2.60    2.80
   7  10 -12    4.50    1.80
  -6 -10  12   39.60    5.00
   6 -10 -12   41.80    6.00
   6 -10 -12   47.50    6.80
   6  10 -12   39.20    3.90
  -6  10  12   49.60    4.80
   5 -10 -12  101.79    7.70
  -5 -10  12   98.99    6.70
   5 -10 -12   88.49    9.00
   5  10 -12  100.89    5.80
  -5  10  12  102.89    6.40
  -4 -10  12   39.30    4.70
   4 -10 -12   49.30    6.70
   4 -10 -12   46.80    5.90
  -4  10  12   35.30    4.40
   4  10 -12   37.40    4.20
  -3 -10  12    0.10    1.90
   3 -10 -12    1.60    2.90
   3 -10 -12    2.10    2.40
  -3  10  12   -0.70    2.00
   3  10 -12   -1.40    1.60
   2 -10 -12   14.20    4.30
   2 -10 -12   12.40    3.10
  -2 -10  12    6.20    2.40
  -2  10  12   11.80    3.10
   2  10 -12   12.60    3.00
   1 -10 -12   48.30    6.70
   1 -10 -12   47.20    5.30
  -1 -10  12   56.09    5.00
   1  10 -12   53.69    5.40
  -1  10  12   56.09    5.80
   0 -10 -12    1.70    3.10
   0 -10 -12    2.10    2.20
   0  10 -12    0.20    2.00
   0  10  12    1.40    2.20
  -1 -10 -12   28.90    5.60
  -1 -10 -12   19.10    3.40
  -1  10 -12   23.10    4.20
   1  10  12   24.00    4.50
  -2 -10 -12   72.79    8.30
  -2  10 -12   68.79    6.60
   2  10  12   69.29    7.00
  -3 -10 -12    1.80    3.30
  -3  10 -12    3.10    2.60
   3  10  12   -1.00    2.60
  -4 -10 -12   11.10    4.20
   4  10  12   19.00    4.60
  -4  10 -12   16.10    3.90
  -5 -10 -12    6.70    3.80
   5  10  12    1.80    2.90
  -5  10 -12    4.80    3.20
  -6 -10 -12   14.90    4.70
   6  10  12   15.90    4.50
  -6  10 -12   16.60    4.50
  -7 -10 -12   36.00    6.50
  -7  10 -12   54.89    6.90
   7  10  12   51.49    7.00
  -8 -10 -12   39.00    6.70
  -8  10 -12   50.69    6.90
   8  10  12   35.30    6.20
  -9  10 -12   -1.80    3.00
   9  10  12   -3.70    2.90
 -13 -11  12   -0.50    2.90
  13 -11 -12    4.20    4.30
  12 -11 -12   36.80    7.20
 -12 -11  12   36.50    5.80
 -11 -11  12    2.50    2.90
  11 -11 -12   -1.30    3.30
 -10 -11  12   -1.50    2.70
  10 -11 -12    9.90    3.60
   9 -11 -12   26.20    5.70
  -9 -11  12   27.00    4.80
   9 -11 -12   29.50    6.00
   8 -11 -12  111.19   10.50
  -8 -11  12  107.69    7.60
   8 -11 -12   89.79    9.60
   7 -11 -12    2.20    3.10
  -7 -11  12    1.20    2.40
   7 -11 -12    6.40    3.90
  -6 -11  12    4.30    2.50
   6 -11 -12    0.40    3.20
   6 -11 -12    1.40    3.10
   6  11 -12    1.10    1.90
  -6  11  12    2.80    2.20
   5 -11 -12    9.30    3.60
  -5 -11  12   10.90    2.90
   5 -11 -12    7.80    3.90
  -5  11  12    5.30    2.30
   5  11 -12    4.80    2.30
   4 -11 -12   81.29    7.90
  -4 -11  12   77.49    5.80
   4 -11 -12   77.69    8.60
  -4  11  12   74.69    5.60
   4  11 -12   86.39    5.70
   3 -11 -12    9.20    4.00
   3 -11 -12    9.20    3.40
   3  11 -12    5.80    2.60
  -3  11  12    7.90    2.70
   2 -11 -12   27.10    5.40
   2 -11 -12   29.70    4.80
  -2  11  12   20.10    3.80
   2  11 -12   19.20    3.70
   1 -11 -12   88.49    6.80
   1 -11 -12   96.39    9.40
  -1  11  12   74.69    6.90
   1  11 -12   92.59    6.40
   0 -11 -12   84.69    9.10
   0 -11 -12   84.99    6.40
   0  11 -12   96.29    6.90
   0  11  12   99.79    7.10
  -1 -11 -12    9.80    4.00
  -1  11 -12   15.20    3.60
   1  11  12   10.20    3.50
  -2 -11 -12   28.80    5.90
   2  11  12   23.50    4.40
  -2  11 -12   19.00    4.00
  -3 -11 -12    0.80    3.50
  -3  11 -12    2.80    2.80
   3  11  12    4.20    3.00
  -4 -11 -12  153.58   10.80
  -4  11 -12  141.29    9.00
   4  11  12  122.59    8.90
  -5 -11 -12   35.90    6.50
  -5  11 -12   38.40    5.70
   5  11  12   31.50    5.60
  -6 -11 -12    7.10    4.30
  -6  11 -12   21.50    4.80
   6  11  12   11.00    4.00
  -7 -11 -12    9.70    4.60
   7  11  12    4.80    3.60
  -7  11 -12    1.20    3.20
   8  11  12    3.70    3.70
  -8  11 -12    8.30    3.90
  11 -12 -12    5.20    4.10
 -11 -12  12    4.30    3.30
  10 -12 -12    2.70    3.70
 -10 -12  12   -1.90    2.30
  10 -12 -12   -4.10    2.70
   9 -12 -12    4.70    3.80
   9 -12 -12    7.50    4.00
  -9 -12  12    4.50    2.80
  -8 -12  12   16.20    3.90
   8 -12 -12   12.10    4.80
   8 -12 -12   20.40    5.30
  -7 -12  12    5.70    2.70
   7 -12 -12    2.40    3.70
   7 -12 -12    8.00    4.00
   6 -12 -12   -2.40    3.00
   6 -12 -12    0.90    2.90
  -6 -12  12    2.20    2.60
   6  12 -12   -3.60    1.70
   5 -12 -12    5.90    3.60
   5 -12 -12    3.10    3.60
   5  12 -12    7.00    2.50
   4 -12 -12   15.70    4.30
   4 -12 -12   14.80    4.90
   4  12 -12   14.20    3.30
   3 -12 -12   44.50    6.10
   3 -12 -12   36.80    6.40
  -3  12  12   33.70    4.60
   3  12 -12   42.30    4.90
   2 -12 -12    5.60    3.90
   2 -12 -12    8.50    3.60
  -2  12  12   12.00    3.20
   2  12 -12    8.00    3.00
   1 -12 -12    4.50    2.90
   1 -12 -12    3.50    3.70
   1  12 -12    4.00    2.60
  -1  12  12    1.30    2.50
   0 -12 -12   63.29    8.20
   0 -12 -12   70.19    6.90
   0  12 -12   63.89    6.40
   0  12  12   58.69    6.50
  -1 -12 -12    4.40    3.80
   1  12  12    6.50    3.40
  -1  12 -12    2.10    2.80
  -2 -12 -12   58.39    7.80
   2  12  12   57.09    6.70
  -2  12 -12   46.90    6.00
  -3 -12 -12   39.80    6.80
   3  12  12   39.30    5.90
  -3  12 -12   24.00    4.60
  -4 -12 -12   -0.70    3.30
   4  12  12    1.40    2.90
  -4  12 -12    0.50    3.00
  -5 -12 -12   28.70    6.20
   5  12  12   21.40    4.80
  -5  12 -12   14.90    4.30
   6  12  12    0.90    3.10
  -6  12 -12    8.70    3.70
   9 -13 -12   35.90    6.90
   8 -13 -12    4.70    4.00
   7 -13 -12    8.20    4.10
   7 -13 -12    1.80    3.90
   6 -13 -12   23.10    5.70
   6 -13 -12   16.40    5.10
   5 -13 -12    0.20    2.90
   5 -13 -12   -4.30    3.00
   5  13 -12   -3.40    1.80
   4 -13 -12   44.40    6.50
   4 -13 -12   48.00    7.40
   4  13 -12   47.30    5.10
   3 -13 -12   26.50    5.90
   3 -13 -12   38.00    5.90
   3  13 -12   31.40    4.50
   2 -13 -12   18.60    5.10
   2 -13 -12   12.90    4.10
   2  13 -12   11.50    3.40
   1 -13 -12    8.80    3.40
   1 -13 -12    4.70    3.90
   1  13 -12    2.30    2.60
   0 -13 -12  107.29   10.70
   0  13 -12   87.89    7.70
   0  13  12  103.29    7.60
  -1 -13 -12    3.90    3.70
   1  13  12   -0.90    2.70
  -1  13 -12   -3.90    2.30
  -2 -13 -12   52.59    7.90
   2  13  12   43.40    5.80
  -2  13 -12   41.90    5.70
  -3  13 -12   -1.30    2.80
   3  13  12    5.00    3.00
   4  13  12    8.30    3.80
  -4  13 -12    6.10    3.60
   4 -14 -12   17.20    5.00
   4  14 -12   13.60    3.40
   3 -14 -12   31.10    5.90
   3  14 -12   34.70    4.90
   2 -14 -12    0.80    2.80
   2  14 -12   -3.00    2.10
   1  14 -12   16.30    4.10
 -19   0  13   28.20    6.00
 -18   0  13    0.00    3.60
 -17   0  13   57.59    7.60
 -16   0  13   -5.00    2.50
 -15   0  13  961.70   32.60
 -14   0  13    9.50    4.00
 -13   0  13  137.49    9.10
 -12   0  13    4.00    3.10
 -11   0  13   94.59    8.30
  10   0 -13    0.10    0.80
 -10   0  13   -3.40    2.30
  -9   0  13   33.00    5.00
   9   0 -13   22.20    2.30
  -8   0  13   -2.00    1.50
   8   0 -13    0.80    1.20
  -7   0  13   43.10    5.20
   7   0 -13   49.70    3.60
  -6   0  13   -1.00    2.00
   6   0 -13   -1.10    1.10
   5   0 -13   -0.50    1.20
   5   0 -13   -0.40    1.50
  -5   0  13   -2.70    1.80
  -5   0  13   -0.70    1.70
   4   0 -13   -0.80    1.50
   4   0 -13    1.60    1.60
  -4   0  13    1.90    2.20
  -4   0  13    5.50    2.30
  -3   0  13  211.18    9.50
   3   0 -13  221.18    9.40
   3   0 -13  211.88    9.10
  -2   0  13    1.30    1.90
   2   0 -13    0.10    1.60
   2   0 -13   -1.60    1.50
   1   0 -13    1.20    1.90
   1   0 -13    2.10    1.70
  -1   0  13   -0.80    1.80
   0   0 -13    1.10    1.90
   0   0  13    3.20    2.20
   0   0 -13    2.30    1.70
  -1   0 -13  183.38    8.40
   1   0  13  172.38    8.90
  -1   0 -13  170.68    9.10
  -1   0 -13  170.28    7.20
  -2   0 -13   -1.60    1.60
  -2   0 -13    1.40    1.70
   2   0  13    1.80    2.20
   3   0  13    3.50    2.30
  -3   0 -13    1.60    2.20
  -3   0 -13    2.60    2.00
  -4   0 -13   -1.50    2.10
   4   0  13   -1.50    1.90
  -4   0 -13   -0.60    1.70
   5   0  13   35.80    5.10
  -5   0 -13   26.80    4.80
  -5   0 -13   33.70    4.50
   6   0  13   -1.20    2.30
  -6   0 -13   -4.60    1.80
  -6   0 -13   -1.00    2.10
   7   0  13   28.30    4.90
  -7   0 -13   33.30    5.60
  -7   0 -13   29.80    4.50
   8   0  13   -2.00    2.20
  -8   0 -13    0.20    2.90
  -8   0 -13   -2.30    1.80
  -9   0 -13   62.49    6.50
  -9   0 -13   68.29    8.00
   9   0  13   62.99    7.20
 -10   0 -13   -2.70    2.40
 -10   0 -13    2.10    3.20
  10   0  13   -1.50    2.60
 -11   0 -13   30.50    6.10
 -11   0 -13   29.40    5.10
  11   0  13   23.70    5.10
 -12   0 -13    4.40    3.90
 -12   0 -13    3.00    3.00
  12   0  13    0.30    3.30
 -13   0 -13    6.10    4.30
  13   0  13    3.80    3.60
 -13   0 -13   -0.20    3.00
 -14   0 -13   -4.90    2.80
  14   0  13   -2.10    3.40
 -14   0 -13   -3.90    3.20
  19  -1 -13   86.59   10.90
 -19  -1  13   88.89    9.70
 -19   1  13  101.19    9.90
  18  -1 -13   21.80    6.00
 -18  -1  13   24.50    5.50
 -18   1  13   32.20    6.00
 -17  -1  13   39.70    6.50
 -17   1  13   34.30    6.10
 -16  -1  13    5.00    3.60
 -16   1  13    6.50    3.60
 -15  -1  13   19.60    4.80
 -15   1  13   21.80    4.90
 -14  -1  13  248.68   12.90
 -14   1  13  253.47   12.90
 -13  -1  13   26.10    4.90
 -13   1  13   30.50    5.30
 -12  -1  13   45.40    5.90
 -12   1  13   54.59    6.30
 -11  -1  13    6.30    3.00
 -11   1  13    1.20    3.00
 -10  -1  13  267.07   12.50
 -10   1  13  270.47   12.40
  -9  -1  13   23.00    4.10
  -9   1  13   19.90    4.30
   9   1 -13   21.30    2.00
  -8  -1  13    2.20    2.60
   8   1 -13    1.40    1.10
  -8   1  13    3.40    2.10
  -7  -1  13  280.17   12.20
  -7   1  13  257.87   11.80
   7   1 -13  270.27    9.60
  -6  -1  13   14.80    3.40
  -6   1  13   16.30    3.50
  -6   1  13   13.70    3.00
   6   1 -13   14.00    2.30
  -5  -1  13    8.50    2.90
   5  -1 -13    6.60    2.40
  -5   1  13    2.40    2.10
   5   1 -13    5.40    1.90
  -5   1  13    5.50    2.60
   5   1 -13    5.80    1.90
   4  -1 -13   40.70    4.40
  -4  -1  13   38.50    4.50
  -4  -1  13   28.90    4.10
  -4   1  13   26.10    4.20
   4   1 -13   38.60    4.00
   4   1 -13   36.70    3.70
  -4   1  13   35.80    4.30
  -3  -1  13    6.20    2.40
  -3  -1  13    5.00    2.50
   3  -1 -13    8.40    2.50
  -3   1  13    6.30    2.50
   3   1 -13    6.80    2.00
   3   1 -13    2.90    1.90
  -2  -1  13  119.09    6.90
   2  -1 -13  114.79    6.70
  -2   1  13  112.39    6.90
   2   1 -13  113.29    6.50
   2   1 -13  118.79    6.10
   1  -1 -13   34.40    4.20
  -1  -1  13   27.00    4.00
   1   1 -13   25.80    3.80
   1   1 -13   23.90    3.20
  -1   1  13   28.50    4.00
   0  -1  13  209.88    9.80
   0  -1 -13  218.38    9.70
   0   1 -13  210.28    9.90
   0   1  13  198.78    9.80
   0   1 -13  215.38    8.90
  -1  -1 -13   52.79    5.20
  -1  -1 -13   36.10    2.40
   1  -1  13   48.70    5.30
  -1   1 -13   41.50    5.00
   1   1  13   35.70    4.70
  -1   1 -13   43.50    4.20
  -2  -1 -13    6.10    2.60
   2  -1  13    2.00    2.20
  -2  -1 -13    2.70    0.70
  -2  -1 -13    7.40    2.70
  -2   1 -13    2.30    2.30
   2   1  13    6.80    2.60
  -2   1 -13    3.90    1.90
  -3  -1 -13   19.70    3.90
   3  -1  13   19.50    3.80
  -3  -1 -13   17.20    3.40
   3   1  13   25.00    4.10
  -3   1 -13   15.80    3.70
  -3   1 -13   20.60    3.10
  -4  -1 -13    2.50    2.60
  -4  -1 -13    5.10    2.30
   4  -1  13   -1.10    2.20
  -4   1 -13   -0.40    2.50
   4   1  13    4.00    2.60
  -4   1 -13    4.00    2.10
  -5  -1 -13    0.60    2.00
  -5  -1 -13    1.50    2.50
   5  -1  13    0.20    2.30
   5   1  13    1.90    2.30
  -5   1 -13    1.50    1.90
  -5   1 -13    2.70    2.80
  -6  -1 -13   34.80    5.60
   6  -1  13   45.90    5.80
  -6  -1 -13   44.60    5.20
  -6   1 -13   40.70    5.80
  -6   1 -13   40.80    4.60
   6   1  13   47.40    5.90
  -7  -1 -13  351.16   14.50
  -7  -1 -13  336.87   15.80
   7  -1  13  347.47   14.90
   7   1  13  346.67   15.20
  -7   1 -13  358.96   16.00
  -7   1 -13  346.67   13.80
   8  -1  13   32.90    5.20
  -8  -1 -13   33.70    5.50
  -8  -1 -13   32.90    5.00
  -8   1 -13   49.80    6.70
  -8   1 -13   43.50    5.10
   8   1  13   33.60    5.70
  -9  -1 -13   11.30    4.20
   9  -1  13   12.90    4.00
  -9  -1 -13   19.10    4.10
  -9   1 -13   14.90    3.70
   9   1  13    9.40    3.70
  -9   1 -13   16.50    4.60
 -10  -1 -13    2.20    2.70
  10  -1  13    3.20    2.90
 -10  -1 -13   -2.70    2.70
  10   1  13   -1.20    2.40
 -10   1 -13   -0.50    2.50
 -10   1 -13   -1.20    2.90
 -11  -1 -13   79.59    9.10
 -11  -1 -13   87.49    8.20
  11  -1  13   91.39    8.70
  11   1  13   93.39    9.10
 -11   1 -13   87.49    9.30
 -11   1 -13   72.79    7.30
 -12  -1 -13    0.30    2.80
 -12  -1 -13   -5.30    2.90
  12  -1  13   -1.90    2.70
  12   1  13    0.90    3.10
 -12   1 -13   -1.70    2.30
 -12   1 -13    2.50    3.80
 -13  -1 -13    4.70    3.90
 -13  -1 -13    7.30    3.80
  13  -1  13    7.40    3.90
 -13   1 -13    8.50    4.30
 -13   1 -13    3.70    3.30
  13   1  13    2.70    3.40
  14  -1  13   -0.70    3.20
 -14  -1 -13   -4.40    3.00
 -14  -1 -13   -1.90    3.60
 -14   1 -13   -4.10    2.50
  14   1  13    2.40    3.90
 -14   1 -13   -0.60    3.40
 -19  -2  13   55.89    7.80
  19  -2 -13   46.60    8.10
 -19   2  13   50.69    7.40
 -18  -2  13   77.79    8.90
  18  -2 -13   67.09    9.30
 -18   2  13   77.79    8.80
  17  -2 -13   58.79    8.60
 -17  -2  13   42.30    6.70
 -17   2  13   62.19    7.60
  16  -2 -13   12.70    4.80
 -16  -2  13   10.50    4.20
 -16   2  13   12.80    4.30
 -15  -2  13    6.60    3.60
  15  -2 -13   16.90    5.00
 -15   2  13   11.90    4.10
 -14  -2  13    3.40    3.10
 -14   2  13    2.70    2.90
 -13  -2  13  254.37   12.90
 -13   2  13  263.97   12.90
 -12  -2  13    0.20    2.50
 -12   2  13   -0.80    1.90
 -11  -2  13  104.49    7.70
 -11   2  13  109.09    7.90
 -10  -2  13   82.49    7.60
 -10   2  13   98.19    6.90
  -9  -2  13   16.60    4.00
  -9   2  13   24.20    4.50
   9   2 -13   19.70    1.70
  -8  -2  13   35.80    5.00
  -8   2  13   33.80    5.00
   8   2 -13   36.50    2.50
  -7  -2  13  141.99    8.20
  -7   2  13  169.68    9.00
   7   2 -13  143.79    6.00
  -6  -2  13   16.30    3.60
   6   2 -13   15.70    2.30
  -6   2  13   23.60    4.20
  -6   2  13   17.00    3.00
  -5  -2  13  175.98    9.10
   5  -2 -13  182.48    9.10
   5   2 -13  171.28    7.60
  -5   2  13  177.78    9.30
  -5   2  13  183.38    8.80
   5   2 -13  185.48    7.70
   4  -2 -13   42.40    5.00
  -4  -2  13   48.00    4.90
  -4  -2  13   47.70    5.30
   4   2 -13   52.39    4.50
   4   2 -13   49.80    3.70
  -4   2  13   49.50    5.00
  -3  -2  13    4.00    2.20
  -3  -2  13    1.60    1.70
   3  -2 -13    1.70    2.00
   3   2 -13    3.20    2.00
  -3   2  13    2.60    2.10
   3   2 -13    2.30    1.50
   2  -2 -13   90.99    6.20
   2  -2 -13   88.59    5.10
  -2  -2  13  106.49    6.30
   2   2 -13   94.39    5.10
   2   2 -13   96.19    6.00
  -2   2  13   86.29    6.10
  -1  -2  13  102.39    6.40
   1  -2 -13   98.19    6.40
   1  -2 -13  100.09    4.90
   1   2 -13  107.19    6.50
  -1   2  13  106.39    6.70
   1   2 -13   97.09    5.20
   0  -2 -13  111.39    6.90
   0  -2 -13  105.09    4.80
   0  -2  13  116.29    6.80
   0   2 -13  110.09    5.60
   0   2  13  119.99    7.20
   0   2 -13  106.69    6.70
   1  -2  13   60.69    5.70
  -1  -2 -13   59.69    5.90
  -1  -2 -13   56.69    2.90
   1   2  13   59.69    6.00
  -1   2 -13   63.09    4.20
  -1   2 -13   65.59    6.20
  -2  -2 -13   32.00    4.40
   2  -2  13   39.70    4.80
  -2   2 -13   29.80    3.40
  -2   2 -13   45.30    5.30
   2   2  13   38.80    5.00
  -3  -2 -13   21.80    3.70
   3  -2  13   22.70    4.00
  -3   2 -13   19.10    3.80
  -3   2 -13   20.20    3.00
   3   2  13   22.10    4.00
  -4  -2 -13   32.10    4.60
   4  -2  13   28.70    4.40
   4   2  13   32.70    4.70
  -4   2 -13   29.30    4.70
  -4   2 -13   35.80    4.00
   5  -2  13   25.10    4.20
  -5  -2 -13   27.70    4.80
  -5  -2 -13   26.10    4.20
  -5   2 -13   20.20    3.20
  -5   2 -13   13.00    3.70
   5   2  13   13.40    3.60
   6  -2  13   76.79    7.00
  -6  -2 -13   78.89    7.20
  -6  -2 -13   81.79    8.00
   6   2  13   70.99    7.20
  -6   2 -13   67.69    7.30
  -6   2 -13   76.19    5.50
  -7  -2 -13    4.40    3.40
  -7  -2 -13    1.30    2.50
   7  -2  13    3.00    2.90
  -7   2 -13    3.60    2.20
  -7   2 -13    2.60    2.90
   7   2  13    5.10    3.30
  -8  -2 -13    9.00    3.10
   8  -2  13    1.90    2.50
  -8  -2 -13    8.20    3.50
  -8   2 -13    3.00    2.10
   8   2  13    2.70    3.00
  -8   2 -13    5.70    3.30
  -9  -2 -13    9.60    4.00
   9  -2  13   -0.30    2.50
  -9  -2 -13   13.70    3.80
  -9   2 -13   12.30    4.20
   9   2  13   10.20    3.80
  -9   2 -13    9.40    2.90
 -10  -2 -13   34.60    5.30
 -10  -2 -13   44.70    6.70
  10  -2  13   37.80    5.70
  10   2  13   24.50    5.30
 -10   2 -13   37.40    6.20
 -10   2 -13   35.30    4.90
  11  -2  13   75.89    8.00
 -11  -2 -13   53.99    7.70
 -11  -2 -13   63.49    7.20
  11   2  13   62.79    7.70
 -11   2 -13   56.49    7.80
 -11   2 -13   53.29    6.10
  12  -2  13   23.80    5.20
 -12  -2 -13   24.60    5.10
 -12  -2 -13   26.90    6.00
 -12   2 -13   27.60    4.80
 -12   2 -13   34.30    6.30
  12   2  13   43.10    6.70
 -13  -2 -13   -0.90    3.30
  13  -2  13   -0.20    3.10
 -13  -2 -13   -1.70    2.90
  13   2  13   -1.70    3.00
 -13   2 -13    0.50    3.60
 -13   2 -13    1.80    2.70
  18  -3 -13   35.80    7.10
 -18  -3  13   53.19    7.60
 -18   3  13   33.80    6.00
 -17  -3  13   13.50    4.60
  17  -3 -13   18.10    5.40
 -17   3  13   14.00    4.60
  16  -3 -13    9.20    4.30
 -16  -3  13   16.70    4.60
 -16   3  13   11.30    4.20
  15  -3 -13    4.00    3.70
 -15  -3  13   10.70    3.80
 -15   3  13    1.90    3.00
 -14  -3  13    3.80    3.20
  14  -3 -13   -5.30    2.10
 -14   3  13   -0.70    2.60
  13  -3 -13    2.50    3.20
 -13  -3  13    2.00    2.90
 -13   3  13   -3.40    2.40
  12  -3 -13   11.00    3.90
 -12  -3  13    6.10    3.20
 -12   3  13   19.70    4.40
 -11  -3  13  124.09    8.40
  11  -3 -13  125.99    9.00
 -11   3  13  146.19    8.90
  10  -3 -13   77.09    7.90
 -10  -3  13   82.39    7.60
 -10   3  13   83.39    7.60
  -9  -3  13   67.79    6.70
   9  -3 -13   59.49    6.80
  -9   3  13   61.79    6.60
  -8  -3  13   98.19    6.90
   8  -3 -13   71.29    7.00
  -8   3  13   65.39    6.80
   8   3 -13   87.29    3.80
   8   3 -13   90.69    5.10
  -7  -3  13  388.16   15.50
   7  -3 -13  414.96   15.90
   7   3 -13  397.46   12.60
  -7   3  13  406.86   16.00
   6  -3 -13  186.38    9.40
  -6  -3  13  193.18    9.70
  -6   3  13  210.18    9.40
  -6   3  13  207.68   10.20
   6   3 -13  181.08    7.40
   5  -3 -13    7.30    2.60
   5  -3 -13    5.50    2.80
  -5  -3  13    5.80    2.60
   5   3 -13    5.00    1.70
   5   3 -13    6.50    1.80
  -5   3  13    5.70    2.40
  -4  -3  13   94.39    6.50
   4  -3 -13   96.99    5.90
   4  -3 -13   95.89    6.80
   4   3 -13   96.29    4.90
  -4   3  13   89.89    6.10
   4   3 -13  102.59    5.60
   3  -3 -13    0.00    1.40
  -3  -3  13    1.50    2.00
  -3  -3  13    0.20    1.70
   3  -3 -13   -2.50    1.90
   3   3 -13    1.60    1.70
   3   3 -13   -1.90    0.90
  -3   3  13    1.90    2.10
   2  -3 -13    8.50    3.00
  -2  -3  13    5.70    2.20
  -2  -3  13    8.80    2.80
   2   3 -13    8.80    1.70
   2   3 -13   11.30    2.70
  -2   3  13    8.40    2.70
  -1  -3  13   42.30    4.50
   1  -3 -13   37.50    4.70
   1  -3 -13   37.10    3.50
   1   3 -13   37.50    3.20
  -1   3  13   28.60    4.20
   1   3 -13   37.40    4.50
   0  -3 -13   26.80    4.20
   0  -3  13   39.70    4.50
   0  -3 -13   33.50    2.60
   0   3 -13   27.60    4.00
   0   3  13   35.10    4.60
   0   3 -13   31.30    3.00
  -1  -3 -13   -0.20    1.90
   1  -3  13    2.00    2.10
  -1  -3 -13    0.10    0.80
   1   3  13   -2.70    1.80
  -1   3 -13    0.10    1.90
  -1   3 -13    2.80    1.40
  -2  -3 -13    1.70    2.30
   2  -3  13    2.90    2.20
   2   3  13    2.80    2.10
  -2   3 -13    4.10    1.60
  -2   3 -13    5.50    2.60
   3  -3  13  120.09    6.20
  -3  -3 -13  120.19    7.70
   3  -3  13  119.69    7.30
   3   3  13  130.09    8.10
  -3   3 -13  129.09    6.00
  -3   3 -13  139.69    8.30
   4  -3  13   97.69    6.60
  -4  -3 -13   89.49    6.80
  -4   3 -13   93.89    5.40
   4   3  13   83.39    7.70
  -4   3 -13   99.09    7.30
  -5  -3 -13    1.40    2.40
   5  -3  13    2.50    2.40
   5   3  13    3.80    2.80
  -5   3 -13    1.40    2.50
  -5   3 -13    3.50    1.90
  -6  -3 -13  122.49    8.30
   6  -3  13  137.39    8.20
  -6   3 -13  128.39    8.80
   6   3  13  137.59    8.80
  -6   3 -13  130.29    6.80
   7  -3  13    0.50    2.20
  -7  -3 -13   -1.20    2.40
  -7  -3 -13    0.10    3.00
   7   3  13    0.20    2.70
  -7   3 -13    3.70    2.00
  -7   3 -13   -0.70    2.60
   8  -3  13   27.40    4.70
  -8  -3 -13   30.90    5.20
  -8  -3 -13   28.10    5.60
   8   3  13   31.80    5.30
  -8   3 -13   43.50    6.30
  -8   3 -13   33.90    4.40
  -9  -3 -13   19.00    5.10
   9  -3  13   22.70    4.50
  -9  -3 -13   14.10    4.00
  -9   3 -13   18.30    3.60
  -9   3 -13   27.80    5.50
   9   3  13   10.00    3.80
 -10  -3 -13    5.90    4.10
  10  -3  13   11.20    3.90
 -10  -3 -13    7.30    3.30
  10   3  13    8.20    3.80
 -10   3 -13   11.10    3.20
 -10   3 -13   11.00    4.30
 -11  -3 -13  179.58   10.80
  11  -3  13  156.78   10.00
 -11  -3 -13  157.48   11.30
  11   3  13  147.39   10.50
 -11   3 -13  160.28    8.90
 -11   3 -13  151.98   10.90
 -12  -3 -13   34.30    6.70
 -12  -3 -13   40.30    6.40
  12  -3  13   41.70    6.10
 -12   3 -13   29.30    6.10
 -12   3 -13   27.50    4.60
  12   3  13   28.40    5.80
 -13  -3 -13   -2.40    2.70
  13  -3  13    1.80    3.30
 -13  -3 -13   -1.20    3.40
 -13   3 -13   -1.00    3.50
  13   3  13    0.80    3.30
 -13   3 -13   -0.10    2.50
 -18  -4  13    1.40    3.60
  18  -4 -13    1.40    4.00
 -18   4  13   -0.90    2.80
 -17  -4  13   19.80    5.00
  17  -4 -13   10.20    4.90
 -17   4  13   14.10    4.40
 -16  -4  13   15.60    4.50
  16  -4 -13   11.60    4.70
 -16   4  13   13.60    4.40
  15  -4 -13    3.10    3.80
 -15  -4  13    6.30    3.50
 -15   4  13   12.40    4.20
 -14  -4  13    0.10    3.00
  14  -4 -13   -2.80    2.60
 -14   4  13    1.30    2.60
 -13  -4  13    1.20    2.90
  13  -4 -13    0.90    2.80
 -13   4  13   -0.30    2.40
 -12  -4  13    0.50    2.70
  12  -4 -13    3.60    2.90
 -12   4  13   -1.90    2.30
 -11  -4  13   33.30    5.20
  11  -4 -13   29.90    5.40
 -11   4  13   36.50    5.40
  10  -4 -13  155.28    9.70
 -10  -4  13  179.48    9.70
 -10   4  13  152.58    9.00
   9  -4 -13  104.39    7.90
  -9  -4  13  112.49    7.30
  -9   4  13  108.59    7.60
   8  -4 -13   27.90    4.60
  -8  -4  13   23.90    4.20
  -8   4  13   23.50    4.30
   8   4 -13   24.60    2.10
  -7  -4  13   60.19    6.30
   7  -4 -13   70.89    6.70
   7   4 -13   79.09    3.90
  -7   4  13   75.29    7.00
   7   4 -13   77.49    4.00
  -6  -4  13    8.90    3.00
   6  -4 -13   13.20    3.10
   6   4 -13   12.50    1.70
  -6   4  13   15.80    3.20
   6   4 -13   13.80    2.20
   6   4 -13   11.30    2.00
  -5  -4  13  430.06   16.20
   5  -4 -13  446.36   17.00
   5  -4 -13  430.46   15.80
   5   4 -13  426.06   14.10
   5   4 -13  417.76   13.40
  -5   4  13  435.96   15.80
   4  -4 -13  332.47   14.00
   4  -4 -13  312.37   12.40
  -4  -4  13  320.17   13.10
   4   4 -13  320.17   10.40
   4   4 -13  333.97   11.80
  -4   4  13  308.57   12.80
  -3  -4  13    3.30    2.20
   3  -4 -13   -0.70    1.50
   3  -4 -13   -2.70    2.10
  -3   4  13   -2.30    1.70
   3   4 -13    0.80    1.00
   3   4 -13    2.30    1.70
   2  -4 -13  188.08   10.00
  -2  -4  13  187.68    8.90
  -2  -4  13  205.98    9.50
   2  -4 -13  198.88    8.30
   2   4 -13  180.88    6.70
   2   4 -13  203.08    8.90
  -2   4  13  205.18    9.70
   1  -4 -13   43.20    5.40
   1  -4 -13   41.90    3.30
  -1  -4  13   44.60    4.70
   1   4 -13   38.90    2.60
   1   4 -13   46.80    4.90
  -1   4  13   38.70    4.90
   0  -4  13    0.40    2.00
   0  -4 -13   -0.90    2.30
   0  -4 -13    0.40    1.10
   0   4  13    4.50    2.50
   0   4 -13    0.90    2.10
   0   4 -13    1.90    1.00
  -1  -4 -13   53.99    2.80
  -1  -4 -13   48.30    5.70
   1  -4  13   50.39    5.10
  -1   4 -13   47.20    5.30
  -1   4 -13   41.60    2.90
   1   4  13   50.29    5.60
  -2  -4 -13  191.18   10.10
   2  -4  13  182.38    9.00
  -2   4 -13  196.48    7.30
  -2   4 -13  192.18    9.80
   2   4  13  195.58   10.10
  -3  -4 -13    2.20    2.60
   3  -4  13    1.80    2.10
  -3   4 -13    1.70    1.30
   3   4  13    4.90    2.50
  -3   4 -13    1.50    2.40
  -4  -4 -13   14.00    3.70
   4  -4  13   12.10    3.10
   4   4  13   17.20    3.90
  -4   4 -13   13.60    3.60
  -4   4 -13   13.20    2.30
  -5  -4 -13   -2.00    2.00
   5  -4  13   -2.10    1.70
  -5   4 -13   -0.10    1.40
   5   4  13    0.20    2.50
  -5   4 -13   -2.10    2.10
   6  -4  13    6.70    3.10
  -6  -4 -13   10.70    3.50
   6   4  13   13.70    3.80
  -6   4 -13    4.70    3.10
  -6   4 -13    8.20    2.10
  -7  -4 -13   26.20    4.90
   7  -4  13   23.90    4.20
  -7   4 -13   27.30    3.50
   7   4  13   21.60    4.50
  -7   4 -13   24.10    4.90
  -8  -4 -13    5.80    3.40
   8  -4  13    2.70    2.60
   8   4  13    6.00    2.90
  -8   4 -13    7.30    2.40
  -8   4 -13    7.30    3.70
  -9  -4 -13    3.50    3.30
  -9  -4 -13   -1.90    2.50
   9  -4  13    4.50    2.90
   9   4  13   -4.40    2.20
  -9   4 -13    1.00    3.30
  -9   4 -13   -2.30    1.60
  10  -4  13    7.00    3.30
 -10  -4 -13    2.60    3.30
 -10  -4 -13    1.00    3.00
 -10   4 -13   -0.30    2.10
 -10   4 -13    4.00    3.70
  10   4  13   -3.40    2.50
  11  -4  13   24.80    4.80
 -11  -4 -13   31.60    5.60
 -11  -4 -13   26.30    6.00
  11   4  13   34.20    5.90
 -11   4 -13   21.00    3.80
 -11   4 -13   23.00    5.50
 -12  -4 -13    3.70    3.60
 -12  -4 -13    1.20    3.60
  12  -4  13    4.30    3.40
 -12   4 -13    4.40    2.40
  12   4  13   -2.00    3.20
 -12   4 -13    0.40    3.60
  13  -4  13   -2.30    3.00
 -13  -4 -13    1.70    3.90
  13   4  13    1.20    3.40
 -13   4 -13    8.90    4.60
  18  -5 -13   11.00    5.40
 -18  -5  13   20.70    5.20
 -18   5  13   20.20    4.90
 -17  -5  13   16.70    5.10
  17  -5 -13   11.70    5.30
 -17   5  13   10.70    4.00
 -16  -5  13  181.78   11.30
  16  -5 -13  152.88   11.90
 -16   5  13  145.09    9.90
  15  -5 -13    8.20    4.10
 -15  -5  13    5.80    3.90
 -15   5  13   11.60    4.20
 -14  -5  13   23.00    5.00
  14  -5 -13   29.10    6.10
 -14   5  13   26.80    5.00
 -13  -5  13   58.99    7.20
  13  -5 -13   75.49    8.60
 -13   5  13   78.29    7.70
  12  -5 -13   30.40    5.80
 -12  -5  13   27.50    5.20
 -12   5  13   31.80    5.20
 -11  -5  13   61.19    6.80
  11  -5 -13   62.09    7.50
 -11   5  13   68.79    7.10
 -10  -5  13   50.69    6.20
  10  -5 -13   53.19    6.90
 -10   5  13   51.59    6.10
   9  -5 -13  106.19    7.90
  -9  -5  13   90.49    7.00
  -9   5  13   91.39    7.00
  -8  -5  13   45.90    5.60
   8  -5 -13   55.89    6.40
   8   5 -13   49.90    2.80
  -7  -5  13  286.57   12.50
   7  -5 -13  252.77   12.30
  -7   5  13  287.97   11.60
   7   5 -13  285.57    9.40
   6  -5 -13  167.58    9.80
  -6  -5  13  179.98    9.30
   6  -5 -13  179.98    9.30
  -6   5  13  171.48    8.60
   6   5 -13  178.28    6.50
   6   5 -13  178.58    7.00
  -5  -5  13   34.00    4.70
   5  -5 -13   27.30    4.70
   5  -5 -13   35.60    4.60
   5   5 -13   30.00    2.10
  -5   5  13   32.00    4.40
  -4  -5  13    2.60    2.20
   4  -5 -13    0.10    2.00
   4  -5 -13   -0.60    2.50
   4   5 -13   -0.20    0.70
   4   5 -13    1.70    1.50
  -4   5  13   -1.40    1.80
   4   5 -13    0.60    0.70
  -3  -5  13   43.20    4.90
   3  -5 -13   48.70    4.80
   3  -5 -13   41.30    5.50
  -3   5  13   45.60    5.20
   3   5 -13   43.50    1.80
   3   5 -13   44.60    1.90
   3   5 -13   39.50    4.10
   2  -5 -13  157.78    9.30
   2  -5 -13  164.68    7.60
  -2  -5  13  168.68    8.40
  -2   5  13  157.98    8.60
   2   5 -13  148.99    7.60
   2   5 -13  163.08    4.80
   1  -5 -13   79.29    7.50
   1  -5 -13   76.79    4.70
  -1  -5  13   75.59    5.50
   1   5 -13   68.99    5.20
   1   5 -13   78.09    2.80
  -1   5  13   67.29    6.40
   0  -5 -13  264.57    9.40
   0  -5  13  252.07   10.70
   0  -5 -13  269.87   12.50
   0   5 -13  256.87   11.20
   0   5  13  262.27   11.90
   0   5 -13  254.37    7.80
   1  -5  13  200.68    9.30
  -1  -5 -13  205.48   10.80
  -1  -5 -13  204.98    7.20
  -1   5 -13  205.78    6.70
  -1   5 -13  196.88    9.80
   1   5  13  215.08   10.50
   2  -5  13   18.90    3.30
  -2  -5 -13   13.40    3.70
   2   5  13    9.60    3.00
  -2   5 -13   17.50    3.70
  -2   5 -13   15.00    1.80
  -3  -5 -13    7.50    3.10
   3  -5  13    7.00    2.60
  -3   5 -13    6.80    2.90
   3   5  13    9.20    3.30
  -3   5 -13    7.50    1.50
  -4  -5 -13   54.29    6.50
   4  -5  13   62.09    5.70
  -4   5 -13   50.89    6.00
  -4   5 -13   53.19    3.50
   4   5  13   58.29    6.50
  -5  -5 -13    6.20    3.20
   5  -5  13    5.90    2.70
  -5   5 -13    0.10    2.40
  -5   5 -13    9.20    1.90
   5   5  13    6.30    3.30
  -6  -5 -13   53.79    6.40
   6  -5  13   50.99    5.50
  -6   5 -13   43.80    3.90
  -6   5 -13   39.60    5.70
   6   5  13   49.40    6.30
   7  -5  13   16.20    3.70
  -7  -5 -13   19.90    4.60
  -7   5 -13   17.80    2.80
   7   5  13   16.60    4.30
  -7   5 -13   18.70    4.50
   8  -5  13    9.20    3.20
  -8  -5 -13    8.70    3.70
  -8   5 -13    7.00    2.20
   8   5  13    3.80    3.30
  -8   5 -13   12.20    4.00
  -9  -5 -13    6.30    3.70
   9  -5  13    6.50    3.00
  -9   5 -13    2.50    3.30
  -9   5 -13    2.40    2.20
   9   5  13   -1.80    2.90
 -10  -5 -13   20.50    5.30
 -10  -5 -13   24.20    5.30
  10  -5  13   20.20    4.30
 -10   5 -13   10.10    4.30
  10   5  13   23.50    5.40
 -11  -5 -13   42.00    7.10
  11  -5  13   40.40    5.70
 -11  -5 -13   47.10    6.80
 -11   5 -13   34.00    6.40
  11   5  13   54.69    7.80
 -12  -5 -13   10.50    4.70
  12  -5  13    9.20    3.50
 -12  -5 -13   14.80    4.80
 -12   5 -13    7.00    4.30
  12   5  13   12.90    4.80
  17  -6 -13   81.99   10.60
 -17  -6  13   94.79    9.60
 -17   6  13   76.99    8.40
 -16  -6  13   -1.40    2.30
  16  -6 -13   13.00    5.20
 -16   6  13    3.40    3.20
  15  -6 -13   13.10    4.90
 -15  -6  13    9.90    4.10
 -15   6  13   25.00    5.10
  14  -6 -13   32.10    6.40
 -14  -6  13   22.00    5.00
 -14   6  13   34.00    5.40
 -13  -6  13  122.69    9.00
  13  -6 -13  131.89   10.30
 -13   6  13  133.19    9.00
 -12  -6  13   14.00    4.10
  12  -6 -13   14.60    4.70
 -12   6  13    5.70    3.20
  11  -6 -13    4.80    3.30
 -11  -6  13   11.40    3.70
 -10  -6  13    2.10    2.60
  10  -6 -13    1.80    2.90
 -10   6  13    5.40    3.00
  -9  -6  13   40.50    5.40
   9  -6 -13   41.20    5.80
  -8  -6  13   21.20    4.10
   8  -6 -13   18.90    4.10
   8   6 -13   15.90    1.90
   7  -6 -13   24.80    4.50
  -7  -6  13   25.30    4.30
   7   6 -13   26.00    2.60
  -7   6  13   21.90    3.60
  -6  -6  13    1.40    2.40
   6  -6 -13   -3.60    2.30
   6  -6 -13   -2.70    1.60
  -6   6  13    2.40    2.00
   6   6 -13    4.00    1.60
  -5  -6  13   25.00    4.20
   5  -6 -13   25.00    4.20
   5  -6 -13   12.00    3.90
  -5   6  13   25.90    3.90
   5   6 -13   21.50    2.80
  -4  -6  13   65.49    6.20
   4  -6 -13   76.39    5.80
   4  -6 -13   68.19    7.30
   4   6 -13   65.39    4.50
  -4   6  13   73.09    6.40
   3  -6 -13   19.00    4.10
   3  -6 -13   17.20    3.20
  -3  -6  13   15.60    3.40
   3   6 -13   15.80    2.70
  -3   6  13   16.40    3.50
  -2  -6  13  573.94   19.60
   2  -6 -13  551.44   18.70
   2  -6 -13  558.74   21.20
  -2   6  13  573.04   20.10
   2   6 -13  585.94   19.10
   1  -6 -13    1.50    2.80
   1  -6 -13    2.90    1.70
  -1   6  13    2.10    2.50
   1   6 -13    5.70    2.20
   0  -6  13    1.10    1.80
   0  -6 -13   -3.10    2.30
   0  -6 -13    0.60    1.20
   0   6  13   -0.80    2.20
   0   6 -13   -3.30    1.70
  -1  -6 -13   42.80    5.80
   1  -6  13   32.60    4.20
  -1  -6 -13   37.40    2.90
   1   6  13   39.60    5.20
  -1   6 -13   32.00    4.50
   2  -6  13   32.60    4.10
  -2  -6 -13   26.50    4.80
   2   6  13   24.20    4.50
  -2   6 -13   31.90    4.60
  -3  -6 -13  119.99    8.50
   3  -6  13  122.39    6.90
   3   6  13  116.99    8.10
  -3   6 -13  119.99    8.00
  -4  -6 -13    3.70    2.90
   4  -6  13   -1.00    1.60
  -4   6 -13   -1.80    2.20
   4   6  13   -0.40    2.30
   5  -6  13   29.00    4.10
  -5  -6 -13   38.30    5.80
  -5   6 -13   31.70    5.00
   5   6  13   38.40    5.50
   6  -6  13  108.29    7.00
  -6  -6 -13  111.59    8.60
  -6   6 -13  131.49    8.80
   6   6  13  112.79    9.60
   7  -6  13   18.90    3.70
  -7  -6 -13   12.30    4.10
  -7   6 -13   20.70    4.60
   7   6  13   22.00    5.00
   8  -6  13    3.90    2.70
  -8  -6 -13   14.60    4.30
  -8   6 -13    7.80    3.80
   8   6  13   10.20    4.00
   9  -6  13   18.50    3.90
  -9  -6 -13    9.40    4.20
   9   6  13   18.50    4.90
  -9   6 -13   14.20    4.50
 -10  -6 -13    4.10    3.60
  10  -6  13    7.10    3.00
 -10   6 -13   -4.90    2.70
  10   6  13    5.10    3.00
  11  -6  13    8.70    3.30
 -11  -6 -13   22.10    5.60
 -11  -6 -13    5.40    3.80
  11   6  13    5.60    4.00
 -11   6 -13    8.00    4.30
 -12  -6 -13   55.69    8.30
 -12   6 -13   63.89    8.20
  12   6  13   44.30    7.30
  16  -7 -13    4.70    4.00
 -16  -7  13   -1.40    3.50
 -16   7  13    3.20    3.70
 -15  -7  13   33.00    5.90
  15  -7 -13   28.30    6.50
 -15   7  13   38.40    5.80
  14  -7 -13    6.90    4.00
 -14  -7  13    6.10    3.70
 -14   7  13    0.50    2.70
  13  -7 -13    1.80    3.40
 -13  -7  13    7.70    3.70
 -13   7  13    5.40    3.10
  12  -7 -13    3.50    3.30
 -12  -7  13    6.00    3.20
 -12   7  13   -2.20    2.50
  11  -7 -13  173.48   11.20
 -11  -7  13  162.98   10.00
  10  -7 -13  280.97   14.30
 -10  -7  13  265.57   12.90
  -9  -7  13    8.50    3.30
   9  -7 -13    8.50    3.60
  -8  -7  13    0.50    2.40
   8  -7 -13    0.90    2.50
   7  -7 -13   -4.10    1.90
  -7  -7  13    0.50    2.30
   7   7 -13   -0.10    1.20
  -7   7  13   -0.10    1.70
  -6  -7  13    1.20    2.50
   6  -7 -13    2.00    2.20
   6  -7 -13    1.10    2.50
  -6   7  13   -1.10    1.70
   6   7 -13   -1.90    1.10
  -5  -7  13    4.40    2.40
   5  -7 -13    4.50    2.40
   5  -7 -13    0.00    2.70
  -5   7  13   -2.10    1.70
   5   7 -13    1.20    1.50
   4  -7 -13   74.79    7.60
  -4  -7  13   77.29    5.80
   4  -7 -13   73.49    5.70
   4   7 -13   75.69    4.90
  -4   7  13   77.69    6.60
   3  -7 -13   18.90    4.10
  -3  -7  13   24.50    3.80
   3  -7 -13   19.80    3.40
  -3   7  13   12.80    3.30
   3   7 -13   22.80    3.20
  -2  -7  13   12.70    3.10
   2  -7 -13   17.20    4.10
   2  -7 -13    9.90    2.70
  -2   7  13   15.30    3.50
   2   7 -13   13.10    2.80
   1  -7 -13    3.30    2.90
  -1  -7  13    0.70    1.70
   1  -7 -13    4.70    1.90
  -1   7  13    2.00    2.30
   1   7 -13    3.50    2.20
   0  -7 -13   38.00    5.60
   0  -7 -13   29.50    3.50
   0   7 -13   28.50    4.20
   0   7  13   29.40    4.60
  -1  -7 -13   23.20    3.00
  -1  -7 -13   31.90    5.30
   1   7  13   22.50    4.30
  -1   7 -13   23.00    4.10
  -2  -7 -13  203.18   11.20
   2  -7  13  182.28    8.60
  -2   7 -13  189.38    9.70
   2   7  13  175.98   10.00
  -3  -7 -13    3.10    3.00
   3  -7  13    0.10    1.90
  -3   7 -13    3.20    2.40
   3   7  13    0.40    2.60
  -4  -7 -13  299.77   14.40
   4  -7  13  283.87   11.60
   4   7  13  286.97   13.60
  -4   7 -13  272.77   12.90
  -5  -7 -13  128.19    9.20
   5  -7  13  103.49    6.60
   5   7  13  113.39    9.70
  -5   7 -13  120.89    8.30
  -6  -7 -13    6.60    3.50
   6  -7  13    1.20    2.00
  -6   7 -13   -0.60    2.50
   6   7  13    2.50    2.50
  -7  -7 -13    3.20    3.30
   7  -7  13    1.10    2.20
  -7   7 -13    2.30    3.00
   7   7  13    1.50    3.00
  -8  -7 -13   -1.10    2.80
   8  -7  13    0.20    2.10
   8   7  13    1.50    3.10
  -8   7 -13    2.80    3.20
   9  -7  13    0.90    2.20
  -9  -7 -13    1.60    3.40
  -9   7 -13   -6.10    2.30
   9   7  13    2.10    3.10
 -10  -7 -13   26.60    5.70
  10   7  13   32.30    6.20
 -10   7 -13   31.00    5.90
 -11   7 -13   -0.20    3.30
  11   7  13   -2.00    3.10
 -16  -8  13   14.70    4.90
  16  -8 -13   21.00    6.10
 -16   8  13   16.60    4.70
  15  -8 -13    8.30    4.80
 -15  -8  13   11.00    4.50
 -15   8  13    6.00    3.40
  14  -8 -13   60.19    8.70
 -14  -8  13   42.60    6.70
  13  -8 -13   33.40    6.60
 -13  -8  13   44.20    6.40
  12  -8 -13    4.80    3.90
 -12  -8  13   10.20    3.80
  11  -8 -13   -2.40    2.90
 -11  -8  13    0.10    2.60
  10  -8 -13   78.39    8.90
 -10  -8  13   81.09    7.80
  -9  -8  13  124.09    8.30
   9  -8 -13  134.49    9.60
   8  -8 -13  135.39    9.50
  -8  -8  13  132.49    8.40
  -7  -8  13   76.69    7.20
   7  -8 -13   87.59    8.60
   7  -8 -13   91.39    8.40
  -7   8  13   95.49    6.00
   7   8 -13   83.39    4.50
   6  -8 -13    1.80    3.10
   6  -8 -13    8.00    3.40
  -6  -8  13    2.70    2.70
   6   8 -13    5.60    1.80
  -6   8  13    7.20    2.60
  -5  -8  13    3.90    2.70
   5  -8 -13    2.10    2.50
   5  -8 -13    4.60    2.60
   5   8 -13    6.90    2.10
  -5   8  13    1.40    2.10
   4  -8 -13   22.60    4.70
   4  -8 -13   27.70    4.60
  -4  -8  13   20.90    3.80
  -4   8  13   23.80    4.00
   4   8 -13   21.30    3.10
   3  -8 -13    3.00    2.90
   3  -8 -13    3.60    2.50
  -3  -8  13    3.00    2.20
  -3   8  13    0.60    2.10
   3   8 -13    1.00    1.70
   2  -8 -13    0.30    1.90
  -2  -8  13    1.80    2.00
   2  -8 -13    1.00    2.70
  -2   8  13    1.20    2.30
   2   8 -13   -0.10    1.80
   1  -8 -13  102.09    6.20
   1  -8 -13  108.19    8.20
  -1  -8  13  100.69    6.30
   1   8 -13   97.29    6.30
  -1   8  13  100.19    7.00
   0  -8 -13    2.10    2.80
   0  -8 -13    1.50    1.60
   0   8  13    1.10    2.50
   0   8 -13    2.80    2.20
  -1  -8 -13   17.80    4.60
  -1   8 -13   21.40    3.90
   1   8  13   23.40    4.30
  -2  -8 -13   34.00    5.80
   2   8  13   23.20    4.40
  -2   8 -13   22.10    4.30
  -3  -8 -13  198.88   11.80
  -3   8 -13  205.28   10.70
   3   8  13  225.08   11.60
  -4  -8 -13   25.20    5.10
   4  -8  13   29.10    3.80
   4   8  13   30.20    5.20
  -4   8 -13   47.60    5.90
   5  -8  13    6.10    2.40
  -5  -8 -13   10.60    3.60
   5   8  13    5.00    3.40
  -5   8 -13   11.90    3.80
  -6  -8 -13    4.20    3.60
   6  -8  13    8.70    2.70
  -6   8 -13    3.50    3.30
   6   8  13    5.90    3.50
  -7  -8 -13    9.60    4.00
   7   8  13   15.10    4.60
  -7   8 -13    6.00    3.30
  -8  -8 -13   29.30    6.00
   8   8  13   17.60    4.90
  -8   8 -13   29.20    5.50
  -9  -8 -13    1.40    3.30
   9   8  13   -3.90    2.50
  -9   8 -13   -1.30    3.00
  10   8  13   22.80    5.50
 -10   8 -13   23.60    5.50
 -15  -9  13    3.60    3.70
  15  -9 -13    2.90    4.40
  14  -9 -13   20.90    6.40
 -14  -9  13   21.20    5.00
  13  -9 -13   -3.40    3.40
 -13  -9  13   -3.20    2.20
  12  -9 -13   15.00    5.10
 -12  -9  13   16.40    4.10
  11  -9 -13   -2.40    2.70
 -11  -9  13   -1.70    2.40
  10  -9 -13    4.80    3.60
 -10  -9  13    6.00    3.30
   9  -9 -13   32.30    5.90
  -9  -9  13   39.70    5.50
   8  -9 -13  209.78   11.80
   8  -9 -13  178.58   11.60
  -8  -9  13  195.68   10.40
   7  -9 -13   33.40    6.00
  -7  -9  13   29.00    4.60
   7  -9 -13   39.50    5.90
  -7   9  13   34.50    4.30
   7   9 -13   39.60    3.90
   6  -9 -13    2.80    3.20
  -6  -9  13    2.80    2.40
   6  -9 -13    1.20    2.70
   6   9 -13    0.00    1.50
  -6   9  13    0.10    2.20
  -5  -9  13   13.60    3.50
   5  -9 -13   19.80    4.80
   5  -9 -13   17.40    4.20
   5   9 -13   14.00    2.60
  -5   9  13   20.40    3.70
   4  -9 -13  169.98   10.70
  -4  -9  13  170.78    8.80
   4  -9 -13  152.38    9.10
   4   9 -13  154.48    7.60
  -4   9  13  163.98    8.70
   3  -9 -13    8.10    2.90
   3  -9 -13   -1.50    2.80
  -3  -9  13    1.60    1.90
   3   9 -13    6.50    2.40
  -3   9  13    1.20    2.40
   2  -9 -13   53.79    5.70
   2  -9 -13   60.89    7.40
  -2  -9  13   62.79    5.70
  -2   9  13   63.19    6.20
   2   9 -13   54.49    5.40
   1  -9 -13   18.90    4.60
   1  -9 -13   18.40    3.50
   1   9 -13   20.80    3.60
  -1   9  13   16.20    3.60
   0  -9 -13    0.30    1.80
   0  -9 -13    2.00    2.90
   0   9 -13    0.40    2.20
   0   9  13    1.80    2.50
  -1  -9 -13   -1.10    2.90
  -1   9 -13    3.10    2.50
   1   9  13    4.10    2.80
  -2  -9 -13   50.29    7.10
  -2   9 -13   54.79    5.90
   2   9  13   64.89    7.00
  -3  -9 -13   25.40    5.40
   3   9  13   27.10    4.90
  -3   9 -13   28.50    4.70
  -4  -9 -13  134.49   10.10
  -4   9 -13  145.19    9.20
   4   9  13  127.49    9.10
  -5  -9 -13   29.00    5.60
   5   9  13   28.60    5.50
  -5   9 -13   32.70    5.30
  -6  -9 -13   43.90    6.90
   6   9  13   48.60    6.70
  -6   9 -13   49.40    6.40
  -7  -9 -13    5.20    3.70
  -7   9 -13    4.10    3.40
   7   9  13    8.70    4.00
  -8  -9 -13    7.40    3.90
  -8   9 -13    8.90    4.00
   8   9  13    8.60    4.10
   9   9  13    0.50    3.40
  -9   9 -13    0.60    3.10
 -13 -10  13    2.20    3.00
  13 -10 -13    1.30    4.10
  12 -10 -13    1.30    3.70
 -12 -10  13    5.50    3.40
 -11 -10  13    9.80    3.70
  11 -10 -13   14.80    5.10
 -10 -10  13   27.60    5.10
  10 -10 -13   27.90    5.90
   9 -10 -13   -1.60    2.80
  -9 -10  13    0.30    2.50
   9 -10 -13    3.60    3.30
   8 -10 -13   17.10    4.50
  -8 -10  13   17.70    3.90
   8 -10 -13   17.90    5.10
   7 -10 -13    4.40    3.30
   7 -10 -13   -4.50    2.40
  -7 -10  13   -0.60    2.20
   6 -10 -13  103.39    9.40
  -6 -10  13   88.19    6.60
   6 -10 -13   93.49    9.30
  -6  10  13   85.19    6.10
   6  10 -13   91.09    5.40
   5 -10 -13    6.70    3.20
  -5 -10  13   11.80    3.30
   5 -10 -13   14.70    4.30
   5  10 -13   14.30    2.80
  -5  10  13   12.80    3.10
  -4 -10  13    1.00    2.20
   4 -10 -13   -2.30    2.40
   4 -10 -13   -0.30    2.80
  -4  10  13    2.40    2.40
   4  10 -13   -1.90    1.80
   3 -10 -13   -0.20    2.00
   3 -10 -13    0.70    3.00
  -3 -10  13    2.60    2.20
   3  10 -13    0.70    1.80
  -3  10  13   -1.20    2.10
  -2 -10  13    3.00    2.20
   2 -10 -13    2.90    3.10
   2 -10 -13    0.20    2.10
  -2  10  13    0.60    2.40
   2  10 -13    0.30    2.10
   1 -10 -13    2.90    2.20
   1 -10 -13   -1.70    2.50
  -1  10  13   -0.50    2.50
   1  10 -13   -1.00    2.00
   0 -10 -13    4.60    3.40
   0  10  13    5.10    3.00
   0  10 -13    6.00    2.60
  -1 -10 -13    8.90    3.80
   1  10  13    4.70    3.10
  -1  10 -13    2.20    2.50
  -2 -10 -13   34.30    6.10
  -2  10 -13   27.10    4.60
   2  10  13   43.90    6.00
  -3 -10 -13   -1.70    2.60
  -3  10 -13   -0.80    2.30
   3  10  13    1.40    2.90
  -4 -10 -13   47.50    7.10
  -4  10 -13   56.19    6.50
   4  10  13   53.09    6.90
  -5 -10 -13    9.70    4.20
  -5  10 -13    8.20    3.50
   5  10  13   10.80    4.20
  -6 -10 -13   23.00    5.60
   6  10  13   18.40    4.70
  -6  10 -13   17.30    4.40
  -7 -10 -13  101.39   10.30
   7  10  13  103.39   10.00
  -7  10 -13   98.99    9.40
  -8  10 -13   28.30    5.30
   8  10  13   17.20    4.90
 -12 -11  13   27.80    5.30
  12 -11 -13   22.80    6.10
 -11 -11  13   19.70    5.00
  11 -11 -13   11.60    4.90
  10 -11 -13    0.60    3.30
  10 -11 -13    3.50    3.80
 -10 -11  13   -2.90    2.50
   9 -11 -13   -1.00    3.40
   9 -11 -13    3.30    3.60
  -9 -11  13    1.70    2.70
   8 -11 -13   46.20    7.00
  -8 -11  13   38.50    5.60
   8 -11 -13   43.10    6.90
  -7 -11  13   95.99    7.30
   7 -11 -13   88.79    9.10
   7 -11 -13  106.69   10.60
   6 -11 -13   28.60    5.90
   6 -11 -13   31.60    5.70
  -6 -11  13   28.10    4.60
  -6  11  13   29.40    4.30
   6  11 -13   30.50    4.10
  -5 -11  13    0.80    2.40
   5 -11 -13    0.10    2.80
   5 -11 -13    0.40    3.20
  -5  11  13   -0.30    2.10
   5  11 -13    1.70    2.10
   4 -11 -13   13.70    4.80
   4 -11 -13   24.00    4.70
  -4 -11  13   17.00    3.90
  -4  11  13   22.40    4.00
   3 -11 -13   17.90    5.10
   3 -11 -13   25.40    4.70
   3  11 -13   28.70    4.20
  -3  11  13   29.40    4.50
   2 -11 -13    2.20    3.50
   2 -11 -13    6.60    3.00
  -2  11  13   11.40    3.40
   2  11 -13    9.40    3.10
   1 -11 -13   -2.40    3.20
   1 -11 -13   -0.30    2.10
   1  11 -13   -1.60    2.20
  -1  11  13   -2.00    2.30
   0 -11 -13   26.50    5.80
   0  11  13   39.70    5.50
   0  11 -13   37.00    5.10
  -1 -11 -13    2.30    3.30
  -1  11 -13    0.00    2.60
   1  11  13    1.40    2.70
  -2 -11 -13    2.20    3.60
  -2  11 -13    9.40    3.30
   2  11  13   10.70    3.90
  -3 -11 -13    0.00    3.40
  -3  11 -13   -2.90    2.30
   3  11  13   -3.60    2.30
  -4 -11 -13    1.90    3.30
   4  11  13    1.50    3.20
  -4  11 -13   -3.50    2.60
  -5 -11 -13   23.20    5.70
  -5  11 -13   23.40    4.80
   5  11  13   13.60    4.40
   6  11  13   42.50    6.70
  -6  11 -13   31.70    5.60
  -7  11 -13   35.10    5.90
   7  11  13   35.70    6.20
 -10 -12  13    5.00    3.20
  10 -12 -13    3.60    4.00
   9 -12 -13   94.89   10.30
  -9 -12  13   84.89    8.20
   8 -12 -13   33.20    6.40
   8 -12 -13   19.00    5.50
  -8 -12  13   21.30    4.40
  -7 -12  13   -1.10    2.10
   7 -12 -13    0.40    3.40
   7 -12 -13    1.80    3.60
   6 -12 -13   51.79    7.50
   6 -12 -13   43.50    6.70
   5 -12 -13   16.40    4.70
   5 -12 -13   16.00    4.90
   5  12 -13   22.30    3.60
   4 -12 -13    0.10    2.70
   4 -12 -13   -5.40    2.60
   4  12 -13    2.00    2.30
   3 -12 -13    5.90    3.90
   3 -12 -13    2.80    3.00
  -3  12  13    1.60    2.30
   3  12 -13    7.30    2.80
   2 -12 -13    6.40    3.20
   2 -12 -13    8.40    4.30
  -2  12  13   10.30    3.30
   2  12 -13    6.20    2.80
   1 -12 -13   59.39    8.10
  -1  12  13   39.60    5.60
   1  12 -13   51.29    5.70
   0 -12 -13  127.49   11.60
   0  12  13  134.89    8.50
   0  12 -13  101.39    7.70
  -1 -12 -13   38.50    6.80
   1  12  13   32.10    5.40
  -1  12 -13   33.90    5.20
  -2 -12 -13  107.99   11.00
   2  12  13  128.09    9.10
  -2  12 -13  136.79    8.70
  -3 -12 -13   94.59   10.30
   3  12  13  100.29    9.30
  -3  12 -13  113.09    8.20
   4  12  13   -2.40    2.70
  -4  12 -13   -1.40    2.80
   5  12  13   45.60    6.80
  -5  12 -13   47.80    6.50
   7 -13 -13   33.70    6.60
   6 -13 -13  221.28   13.20
   5 -13 -13   -1.80    2.90
   4 -13 -13   -1.00    2.80
   4 -13 -13    0.10    4.10
   4  13 -13   -1.10    2.30
   3 -13 -13    9.40    3.90
   3 -13 -13   18.10    6.10
   3  13 -13   13.50    3.50
   2 -13 -13   10.80    4.60
   2 -13 -13    5.20    4.30
   2  13 -13    9.00    3.00
   1  13 -13    6.10    3.30
   0  13 -13   -0.50    2.80
   0  13  13    1.30    3.00
  -1  13 -13   22.50    4.60
   1  13  13   35.20    5.50
  -2  13 -13    0.30    2.70
   2  13  13    1.20    2.80
 -18   0  14   20.20    5.30
 -17   0  14    0.90    2.60
 -16   0  14  116.69   10.50
 -15   0  14    2.90    3.70
 -14   0  14   53.69    7.20
 -13   0  14    6.40    3.50
 -12   0  14  196.88   11.20
 -11   0  14   -6.30    2.20
 -10   0  14  387.66   16.30
  -9   0  14   -1.80    2.40
   9   0 -14    1.00    1.20
  -8   0  14   52.29    6.20
   8   0 -14   42.80    3.70
   7   0 -14    2.00    1.50
  -7   0  14    0.30    1.70
   6   0 -14   13.80    2.60
   6   0 -14    8.40    2.40
  -6   0  14    9.60    2.90
  -5   0  14   -1.60    1.80
   5   0 -14    2.50    1.90
   5   0 -14    0.60    1.40
  -5   0  14   -2.80    1.90
  -4   0  14   15.30    3.70
  -4   0  14   17.40    3.40
   4   0 -14   14.60    2.90
   4   0 -14    9.00    2.50
   3   0 -14    2.10    1.80
  -3   0  14    1.50    2.00
   3   0 -14   -2.30    1.30
  -2   0  14   14.10    3.20
   2   0 -14   18.20    3.00
   2   0 -14    7.50    2.80
  -1   0  14   -0.90    1.90
   1   0 -14   -4.10    1.30
   1   0 -14    1.40    2.00
   0   0 -14    6.70    2.30
   0   0  14    7.20    2.70
   0   0 -14    9.80    2.90
  -1   0 -14    1.90    1.80
  -1   0 -14   -2.00    1.80
   1   0  14    1.90    2.30
   2   0  14   90.09    6.60
  -2   0 -14   79.89    7.40
  -2   0 -14   73.79    5.40
  -3   0 -14    4.80    2.20
   3   0  14    0.90    2.30
  -3   0 -14   -0.20    2.40
  -4   0 -14   92.59    6.40
  -4   0 -14   89.79    8.40
   4   0  14   96.79    7.10
   5   0  14   -2.10    2.30
  -5   0 -14    1.90    2.20
  -5   0 -14    0.00    2.40
   6   0  14  101.29    8.70
  -6   0 -14  126.69    9.00
  -6   0 -14   91.69    6.70
  -7   0 -14    4.30    3.30
   7   0  14   -0.60    2.40
  -7   0 -14   -1.00    2.10
  -8   0 -14  381.66   17.60
  -8   0 -14  392.86   15.80
   8   0  14  384.76   16.70
  -9   0 -14   -0.40    3.00
   9   0  14    2.20    3.10
  -9   0 -14    3.20    3.00
 -10   0 -14   83.19    9.50
 -10   0 -14   71.99    7.40
  10   0  14   75.39    8.40
  11   0  14    4.00    3.50
 -11   0 -14    1.90    3.50
 -11   0 -14   -2.80    2.60
 -12   0 -14    3.00    3.10
  12   0  14   -1.40    3.00
 -12   0 -14   -3.80    3.40
  13   0  14    2.50    3.50
 -13   0 -14   -0.70    3.50
 -13   0 -14    0.60    2.90
  18  -1 -14   37.30    7.50
 -18  -1  14   48.40    7.40
 -18   1  14   53.69    7.60
 -17  -1  14    2.40    2.90
 -17   1  14    5.40    3.90
 -16  -1  14   17.80    4.90
 -16   1  14   16.80    4.30
 -15  -1  14   55.29    7.30
 -15   1  14   51.49    7.00
 -14  -1  14  127.19    9.20
 -14   1  14  106.09    9.60
 -13  -1  14  172.48   10.60
 -13   1  14  161.88   10.50
 -12  -1  14   90.09    8.50
 -12   1  14   99.99    8.90
 -11  -1  14  102.99    7.80
 -11   1  14   90.69    8.60
 -10  -1  14    1.30    2.70
 -10   1  14   -1.70    2.40
  -9  -1  14   -0.70    2.50
   9   1 -14   -1.00    1.00
  -9   1  14   -2.20    2.30
  -8  -1  14   55.79    6.30
   8   1 -14   72.99    4.00
  -8   1  14   65.09    6.90
  -7  -1  14   47.50    5.70
   7   1 -14   35.70    3.40
  -7   1  14   37.00    5.30
   6  -1 -14   -0.40    1.80
  -6  -1  14   -0.70    2.20
   6   1 -14    1.40    1.40
  -6   1  14    2.80    2.20
  -6   1  14   -3.20    1.90
   6   1 -14    0.70    1.60
   5  -1 -14   21.90    3.60
  -5  -1  14   20.50    3.80
  -5  -1  14   17.80    3.40
  -5   1  14   23.70    3.90
   5   1 -14   18.00    2.90
  -5   1  14   21.20    4.20
   5   1 -14   18.30    3.00
  -4  -1  14  120.69    7.20
   4  -1 -14  122.29    7.20
  -4  -1  14  137.69    8.10
   4   1 -14  126.19    6.60
   4   1 -14  129.29    6.80
  -4   1  14  124.59    7.40
  -3  -1  14   27.10    4.00
   3  -1 -14   23.90    3.90
  -3   1  14   26.20    4.10
   3   1 -14   25.70    3.70
   3   1 -14   30.80    3.70
  -2  -1  14  385.46   14.70
   2  -1 -14  402.26   14.70
   2   1 -14  360.16   14.40
   2   1 -14  380.26   13.70
  -2   1  14  407.26   15.20
   1  -1 -14   -3.00    1.70
  -1  -1  14    1.60    2.10
   1   1 -14   -0.40    1.50
   1   1 -14    1.80    2.10
  -1   1  14    0.20    2.00
   0  -1  14   11.40    3.10
   0  -1 -14    9.50    3.00
   0  -1 -14    7.50    2.80
   0   1  14    6.40    2.50
   0   1 -14    9.20    2.90
   0   1 -14   10.10    2.40
  -1  -1 -14  181.18    6.40
   1  -1  14  184.98    9.50
  -1  -1 -14  177.28    9.80
  -1  -1 -14  189.88    9.30
   1   1  14  184.08    9.60
  -1   1 -14  178.78    8.30
  -1   1 -14  205.18   10.10
  -2  -1 -14   32.60    4.90
   2  -1  14   30.50    4.60
  -2  -1 -14   31.60    4.40
  -2   1 -14   33.60    4.00
   2   1  14   30.70    4.70
  -2   1 -14   37.00    5.20
   3  -1  14    3.40    2.50
  -3  -1 -14    2.70    2.30
  -3  -1 -14    1.20    2.60
   3   1  14    5.60    2.80
  -3   1 -14    2.50    1.90
  -3   1 -14    4.70    2.80
   4  -1  14  128.99    8.40
  -4  -1 -14  149.79    8.30
  -4  -1 -14  145.29    9.40
   4   1  14  136.99    8.70
  -4   1 -14  148.99    7.80
  -4   1 -14  141.19    9.10
   5  -1  14    2.70    2.70
  -5  -1 -14    7.90    3.30
  -5  -1 -14    3.40    2.70
   5   1  14    7.20    3.00
  -5   1 -14    5.50    2.40
  -5   1 -14   12.60    3.90
   6  -1  14   11.00    3.50
  -6  -1 -14   14.70    3.70
  -6  -1 -14   10.10    3.80
   6   1  14   10.10    3.70
  -6   1 -14    9.50    3.90
  -6   1 -14   14.70    3.30
  -7  -1 -14   68.89    8.00
  -7  -1 -14   65.99    6.80
   7  -1  14   60.79    7.20
   7   1  14   83.29    8.10
  -7   1 -14   74.59    6.50
  -7   1 -14   70.19    8.00
  -8  -1 -14   13.70    3.80
   8  -1  14   22.40    4.70
  -8  -1 -14   27.80    5.60
  -8   1 -14   14.70    4.30
   8   1  14   28.00    5.10
  -8   1 -14   15.70    3.60
   9  -1  14   16.30    4.10
  -9  -1 -14   21.60    5.30
  -9  -1 -14   18.90    4.10
   9   1  14   22.90    4.90
  -9   1 -14   23.80    4.40
  -9   1 -14   18.70    4.90
 -10  -1 -14   -7.20    2.70
 -10  -1 -14   -0.20    2.60
  10  -1  14   -3.80    2.40
 -10   1 -14   -5.20    2.10
 -10   1 -14   -1.00    3.50
  10   1  14   -3.90    2.60
 -11  -1 -14   70.79    7.60
 -11  -1 -14   72.59    8.80
  11  -1  14   68.99    7.90
  11   1  14   76.39    8.70
 -11   1 -14   64.29    8.40
 -11   1 -14   67.89    7.10
  12  -1  14   26.90    5.60
 -12  -1 -14   36.30    6.90
 -12  -1 -14   20.90    4.80
  12   1  14   23.70    5.40
 -12   1 -14   18.40    5.20
 -12   1 -14   23.20    4.70
 -13  -1 -14   67.19    7.90
  13  -1  14   60.79    8.00
 -13  -1 -14   78.29    9.60
 -13   1 -14   64.69    8.60
  13   1  14   61.79    8.10
 -13   1 -14   77.29    7.90
  18  -2 -14   30.30    6.80
 -18  -2  14   18.00    5.40
 -18   2  14   30.10    5.90
 -17  -2  14   22.90    5.70
  17  -2 -14   24.80    6.00
 -17   2  14   19.70    5.00
 -16  -2  14    4.90    3.80
  16  -2 -14   12.50    4.70
 -16   2  14   13.50    4.50
  15  -2 -14   11.30    4.40
 -15  -2  14   15.00    4.50
 -15   2  14    6.60    3.90
 -14  -2  14    3.20    3.30
 -14   2  14   -2.80    2.80
 -13  -2  14    2.30    3.00
 -13   2  14   -4.30    2.50
 -12  -2  14    1.20    2.80
 -12   2  14    6.70    3.40
 -11  -2  14   56.59    6.70
 -11   2  14   65.29    7.20
 -10  -2  14  361.16   15.30
 -10   2  14  337.67   15.10
  -9  -2  14    6.00    2.80
  -9   2  14    2.20    2.90
  -8  -2  14    7.20    3.10
   8   2 -14    6.20    1.50
  -8   2  14    8.80    3.40
  -7  -2  14   59.49    6.40
  -7   2  14   66.09    6.80
   7   2 -14   63.59    3.90
  -6  -2  14   37.60    5.20
   6  -2 -14   29.90    4.40
  -6   2  14   39.20    4.70
   6   2 -14   38.70    4.00
   6   2 -14   38.10    3.60
  -6   2  14   33.50    4.90
   5  -2 -14   10.30    2.80
  -5  -2  14    8.50    3.00
   5   2 -14   10.40    2.30
   5   2 -14    8.90    2.20
  -5   2  14    9.20    2.80
  -4  -2  14    0.80    2.00
  -4  -2  14    0.90    2.20
   4  -2 -14   -0.50    2.00
  -4   2  14   -3.10    1.70
   4   2 -14   -1.60    1.30
   4   2 -14    2.50    1.60
   3  -2 -14    1.30    1.70
   3  -2 -14    1.30    2.20
  -3  -2  14    0.60    2.20
  -3  -2  14    1.50    2.20
   3   2 -14    1.90    1.50
   3   2 -14    0.90    1.60
  -3   2  14    1.60    2.20
  -2  -2  14   64.69    6.00
   2  -2 -14   60.99    4.20
   2  -2 -14   64.59    6.00
   2   2 -14   72.79    5.40
   2   2 -14   67.99    4.40
  -2   2  14   61.99    6.00
  -1  -2  14    1.50    2.10
   1  -2 -14    4.60    2.40
   1  -2 -14    3.20    1.40
   1   2 -14    2.80    1.70
   1   2 -14    9.60    2.60
  -1   2  14    2.20    2.30
   0  -2 -14   13.50    1.90
   0  -2 -14    6.40    2.60
   0  -2  14   12.50    3.20
   0   2 -14   13.50    2.40
   0   2  14   15.80    3.30
   0   2 -14   14.20    3.30
   1  -2  14  102.39    6.90
  -1  -2 -14  105.99    6.90
  -1  -2 -14  102.79    4.10
  -1   2 -14  105.99    5.70
   1   2  14   95.69    7.00
  -1   2 -14   98.79    7.00
   2  -2  14   83.79    6.20
  -2  -2 -14   82.39    6.20
  -2   2 -14   79.19    5.10
   2   2  14   72.19    7.00
  -2   2 -14   82.59    7.50
  -3  -2 -14   18.30    3.70
   3  -2  14   19.20    3.80
  -3   2 -14    7.70    3.30
  -3   2 -14   15.20    2.80
   4  -2  14  122.89    7.90
  -4  -2 -14  114.29    8.40
  -4  -2 -14  122.69    7.80
  -4   2 -14  119.09    6.60
  -4   2 -14  115.99    8.20
   4   2  14  122.89    8.20
  -5  -2 -14    6.00    2.80
  -5  -2 -14    6.50    3.50
   5  -2  14   -2.90    2.00
  -5   2 -14    5.50    3.00
  -5   2 -14   -0.20    1.60
   5   2  14    0.00    2.70
  -6  -2 -14   36.30    5.80
   6  -2  14   28.00    4.90
  -6  -2 -14   39.40    5.30
   6   2  14   41.10    5.80
  -6   2 -14   34.50    5.80
  -6   2 -14   41.30    4.60
  -7  -2 -14  136.39    8.70
  -7  -2 -14  132.59    9.60
   7  -2  14  130.39    8.50
  -7   2 -14  130.49    7.40
  -7   2 -14  107.79    9.90
   7   2  14  110.39    9.60
  -8  -2 -14   17.40    4.80
  -8  -2 -14   26.00    4.70
   8  -2  14   32.00    5.30
   8   2  14   25.10    5.20
  -8   2 -14   29.30    5.60
  -8   2 -14   33.00    4.40
  -9  -2 -14   27.40    5.70
  -9  -2 -14   22.50    4.60
   9  -2  14   27.10    4.90
   9   2  14   33.00    5.80
  -9   2 -14   32.70    4.60
  -9   2 -14   28.10    5.80
  10  -2  14    3.50    3.50
 -10  -2 -14    1.00    2.70
 -10  -2 -14   -0.20    4.00
 -10   2 -14   -0.10    2.60
 -10   2 -14    5.10    3.80
  10   2  14    3.10    3.50
  11  -2  14   39.90    6.40
 -11  -2 -14   50.39    7.70
 -11  -2 -14   34.30    5.80
 -11   2 -14   40.50    7.00
 -11   2 -14   28.10    4.80
  11   2  14   30.80    5.90
 -12  -2 -14    4.30    3.70
  12  -2  14    9.60    4.40
 -12  -2 -14    6.20    4.10
 -12   2 -14    5.40    3.30
  12   2  14    9.80    4.30
 -12   2 -14    6.40    4.50
  18  -3 -14    4.70    4.30
 -18  -3  14   -3.90    3.40
 -18   3  14    3.90    4.30
  17  -3 -14    6.20    4.10
 -17  -3  14    9.00    4.40
 -17   3  14    5.30    3.70
  16  -3 -14    3.60    3.80
 -16  -3  14    2.00    3.20
 -16   3  14    3.60    3.40
  15  -3 -14   -0.60    3.00
 -15  -3  14   -0.90    2.20
 -15   3  14    1.50    3.40
 -14  -3  14    1.10    3.00
  14  -3 -14   -2.60    3.00
 -14   3  14    1.20    2.90
  13  -3 -14    1.50    3.00
 -13  -3  14    5.50    3.20
 -13   3  14   -6.60    2.20
  12  -3 -14    2.60    3.10
 -12  -3  14    9.00    3.70
 -12   3  14    3.20    3.10
  11  -3 -14   34.80    5.80
 -11  -3  14   44.00    6.00
 -11   3  14   31.50    5.30
  10  -3 -14    2.00    2.80
 -10  -3  14    2.50    2.30
 -10   3  14    4.70    2.60
   9  -3 -14    0.40    2.40
  -9  -3  14    1.80    2.60
  -9   3  14   -0.90    2.50
   8  -3 -14   60.09    6.70
  -8  -3  14   53.19    6.30
  -8   3  14   70.79    7.00
   8   3 -14   55.49    3.20
  -7  -3  14   16.90    3.80
   7  -3 -14   15.80    3.60
  -7   3  14   11.30    3.50
   7   3 -14   15.00    2.10
   6  -3 -14    2.40    2.40
   6  -3 -14   -1.60    1.80
  -6  -3  14   -3.40    2.00
  -6   3  14    2.50    2.20
   6   3 -14    2.00    1.70
   6   3 -14    0.30    1.30
  -5  -3  14  156.48    8.50
   5  -3 -14  145.99    8.60
   5  -3 -14  147.09    7.90
   5   3 -14  136.79    6.70
   5   3 -14  143.89    6.50
  -5   3  14  141.39    7.90
   4  -3 -14    9.10    2.50
  -4  -3  14    2.30    2.50
   4  -3 -14    7.00    3.10
  -4   3  14   11.90    3.20
   4   3 -14    5.60    1.90
   4   3 -14    5.50    2.10
   3  -3 -14  197.88    8.70
  -3  -3  14  195.18    9.40
   3  -3 -14  198.88   10.10
  -3  -3  14  197.98    9.90
   3   3 -14  223.48    9.40
  -3   3  14  202.18    9.90
   3   3 -14  201.18    7.90
   2  -3 -14   89.59    5.00
  -2  -3  14   89.79    6.10
   2  -3 -14   82.69    6.40
   2   3 -14   96.39    6.20
  -2   3  14   83.39    7.20
   2   3 -14   88.19    4.70
   1  -3 -14    8.80    1.90
   1  -3 -14    9.80    3.10
  -1  -3  14    5.70    2.60
  -1   3  14    9.40    2.80
   1   3 -14   12.90    2.20
   1   3 -14    7.70    2.60
   0  -3  14   58.99    5.80
   0  -3 -14   59.59    3.50
   0  -3 -14   54.19    6.00
   0   3  14   59.99    6.30
   0   3 -14   62.09    3.90
   0   3 -14   52.79    5.60
   1  -3  14   15.20    3.50
  -1  -3 -14   21.70    4.00
  -1   3 -14   16.20    2.40
   1   3  14   14.80    3.70
  -1   3 -14   17.60    3.70
  -2  -3 -14    4.10    2.60
   2  -3  14    1.30    2.20
   2   3  14    2.50    2.70
  -2   3 -14    2.40    1.50
  -2   3 -14    2.20    2.60
  -3  -3 -14  194.88   10.50
   3  -3  14  195.48    9.90
  -3   3 -14  186.08   10.40
  -3   3 -14  211.58    8.40
   3   3  14  191.18   10.50
   4  -3  14   51.89    5.70
  -4  -3 -14   47.10    5.80
  -4   3 -14   40.40    5.70
  -4   3 -14   46.80    4.30
   4   3  14   47.50    5.90
   5  -3  14    9.20    3.20
  -5  -3 -14    0.80    2.50
   5   3  14    1.20    2.60
  -5   3 -14   -0.40    2.50
  -5   3 -14    1.00    1.70
   6  -3  14   29.30    4.70
  -6  -3 -14   27.10    4.80
  -6  -3 -14   28.70    5.20
  -6   3 -14   30.50    3.80
   6   3  14   23.90    5.00
  -6   3 -14   22.10    4.90
  -7  -3 -14    7.40    4.00
  -7  -3 -14   11.60    3.80
   7  -3  14    9.80    3.50
  -7   3 -14    6.40    3.50
   7   3  14   15.50    4.30
  -7   3 -14    7.80    2.60
   8  -3  14   54.89    6.30
  -8  -3 -14   35.30    6.40
  -8  -3 -14   53.19    6.40
   8   3  14   41.30    6.20
  -8   3 -14   49.00    6.90
  -8   3 -14   53.89    5.40
   9  -3  14   38.80    5.90
  -9  -3 -14   35.80    6.50
  -9  -3 -14   33.70    5.60
   9   3  14   38.00    6.30
  -9   3 -14   34.60    4.50
  -9   3 -14   25.30    5.80
 -10  -3 -14   -1.40    2.80
 -10  -3 -14    6.50    4.20
  10  -3  14    3.60    3.20
 -10   3 -14    2.80    3.80
  10   3  14   -4.60    3.00
 -10   3 -14   -1.30    2.30
  11  -3  14    0.10    3.00
 -11  -3 -14    5.10    3.40
 -11  -3 -14    7.30    4.50
 -11   3 -14    5.90    2.90
  11   3  14    8.40    3.70
 -11   3 -14    7.80    4.30
  12  -3  14    9.50    3.90
 -12  -3 -14   17.70    5.40
 -12  -3 -14   10.90    4.40
  12   3  14   12.10    4.90
 -12   3 -14    7.60    3.20
 -12   3 -14    3.90    3.90
  17  -4 -14    3.00    4.30
 -17  -4  14   14.20    4.70
 -17   4  14    2.50    3.40
  16  -4 -14   29.10    6.50
 -16  -4  14   22.40    4.90
 -16   4  14   37.00    6.00
  15  -4 -14  144.39   11.00
 -15  -4  14  132.39   10.00
 -15   4  14  138.39    9.70
  14  -4 -14   11.30    4.50
 -14  -4  14    6.90    3.90
 -14   4  14    8.50    3.70
  13  -4 -14   29.40    5.90
 -13  -4  14   30.10    5.70
 -13   4  14   44.70    6.20
 -12  -4  14   41.20    5.80
  12  -4 -14   49.30    6.90
 -12   4  14   39.10    5.90
  11  -4 -14   11.70    3.90
 -11  -4  14   20.50    4.60
 -11   4  14   17.20    4.30
 -10  -4  14    4.30    3.00
  10  -4 -14    2.20    2.80
 -10   4  14    2.70    3.00
   9  -4 -14    1.60    2.60
  -9  -4  14    8.90    3.40
  -9   4  14    4.20    3.00
  -8  -4  14   30.70    4.70
   8  -4 -14   29.40    4.90
   8   4 -14   29.20    2.50
  -8   4  14   33.20    5.20
   7  -4 -14   -0.30    2.10
  -7  -4  14    1.90    2.50
  -7   4  14   -0.10    2.20
   7   4 -14    1.00    1.10
   6  -4 -14   18.00    3.90
  -6  -4  14   17.60    3.70
   6  -4 -14   14.70    3.50
   6   4 -14   15.20    2.30
   6   4 -14   18.60    2.60
  -6   4  14   22.80    3.90
   5  -4 -14   68.99    6.40
   5  -4 -14   80.19    7.60
  -5  -4  14   78.09    7.00
   5   4 -14   70.49    4.60
  -5   4  14   70.69    6.40
   5   4 -14   64.49    3.90
   4  -4 -14  274.27   11.50
  -4  -4  14  281.57   12.40
   4  -4 -14  286.87   13.00
  -4   4  14  292.87   12.30
   4   4 -14  272.97    9.50
   4   4 -14  278.77   10.80
  -3  -4  14  131.99    7.90
   3  -4 -14  124.99    8.30
   3  -4 -14  128.29    6.80
   3   4 -14  143.39    5.60
   3   4 -14  144.69    7.20
  -3   4  14  130.29    7.90
   2  -4 -14   77.69    7.40
  -2  -4  14   73.19    6.30
  -2  -4  14   58.99    6.10
   2  -4 -14   64.39    4.50
   2   4 -14   77.19    3.70
  -2   4  14   62.49    6.30
   2   4 -14   71.09    5.30
   1  -4 -14   21.20    2.80
   1  -4 -14   21.00    4.20
  -1  -4  14   29.40    4.10
   1   4 -14   25.80    3.70
   1   4 -14   23.70    2.40
  -1   4  14   26.50    4.30
   0  -4 -14   44.20    3.10
   0  -4  14   40.80    4.80
   0  -4 -14   40.50    5.50
   0   4  14   48.90    5.80
   0   4 -14   46.60    3.00
   0   4 -14   40.50    5.10
   1  -4  14   57.19    5.70
  -1  -4 -14   44.70    5.70
  -1   4 -14   49.99    5.70
  -1   4 -14   57.79    3.40
   1   4  14   55.99    6.00
   2  -4  14    9.00    3.10
  -2  -4 -14   11.20    3.40
  -2   4 -14    7.30    2.80
   2   4  14    9.50    3.20
  -2   4 -14    7.90    1.80
   3  -4  14   55.99    5.80
  -3  -4 -14   70.99    7.10
  -3   4 -14   58.39    3.90
  -3   4 -14   65.19    6.70
   3   4  14   66.49    7.00
   4  -4  14  232.28   10.90
  -4  -4 -14  211.38   11.40
   4   4  14  232.38   11.60
  -4   4 -14  211.38    8.60
  -4   4 -14  239.48   11.90
  -5  -4 -14   12.30    3.80
   5  -4  14   12.40    3.40
  -5   4 -14   15.10    4.10
  -5   4 -14   15.80    2.70
   5   4  14   12.90    3.80
  -6  -4 -14   25.90    4.80
   6  -4  14   30.70    4.80
  -6   4 -14   24.00    4.90
  -6   4 -14   28.40    3.60
   6   4  14   39.80    5.90
  -7  -4 -14   -2.90    2.30
   7  -4  14   -0.20    2.50
  -7   4 -14   -4.40    2.20
  -7   4 -14   -0.10    1.80
   7   4  14   -1.30    2.70
  -8  -4 -14   -2.40    3.10
   8  -4  14    0.70    2.80
  -8  -4 -14   -4.60    2.30
  -8   4 -14   -2.20    1.50
   8   4  14   -6.40    2.10
  -8   4 -14   -0.50    3.10
  -9  -4 -14  174.98   11.00
   9  -4  14  196.68   10.60
  -9  -4 -14  175.78   12.10
  -9   4 -14  158.58   11.10
  -9   4 -14  181.58    8.90
   9   4  14  194.18   11.70
 -10  -4 -14   -2.00    2.70
  10  -4  14   -1.00    2.80
 -10  -4 -14   -0.10    3.60
 -10   4 -14   -3.20    3.20
  10   4  14   -1.10    3.00
 -11  -4 -14    9.80    4.60
 -11  -4 -14    5.70    3.60
  11  -4  14    2.40    2.90
 -11   4 -14   -1.30    3.60
  11   4  14    0.90    3.30
 -12  -4 -14    8.90    4.10
  12  -4  14    3.90    3.10
 -12  -4 -14    6.30    4.20
 -12   4 -14    1.60    4.00
  12   4  14    5.20    4.00
  17  -5 -14   13.80    5.50
 -17  -5  14   -2.50    3.00
 -17   5  14    0.70    3.10
 -16  -5  14   42.90    7.00
  16  -5 -14   35.60    7.20
 -16   5  14   43.90    6.60
 -15  -5  14   22.70    5.40
  15  -5 -14   23.60    5.80
 -15   5  14   38.00    6.10
  14  -5 -14    3.50    3.40
 -14  -5  14   -3.10    2.80
 -14   5  14   -1.80    2.90
 -13  -5  14    1.00    3.20
  13  -5 -14    2.40    3.50
 -13   5  14   -1.90    2.40
  12  -5 -14    8.40    3.90
 -12  -5  14   15.00    4.40
 -12   5  14   14.80    4.10
 -11  -5  14   27.20    5.10
  11  -5 -14   20.90    5.10
 -11   5  14   18.10    4.30
  10  -5 -14   28.80    5.30
 -10  -5  14   32.80    5.40
 -10   5  14   31.00    5.20
  -9  -5  14   12.10    3.60
   9  -5 -14   11.00    3.90
  -9   5  14   11.50    3.70
   8  -5 -14    0.50    2.50
  -8  -5  14    2.00    2.60
   7  -5 -14   51.69    6.20
  -7  -5  14   53.29    6.10
  -7   5  14   46.90    5.10
   7   5 -14   50.99    3.30
   7   5 -14   47.00    3.30
   6  -5 -14    2.80    2.80
  -6  -5  14    2.30    2.50
   6  -5 -14    5.20    2.80
  -6   5  14    3.60    2.40
   6   5 -14    1.50    1.30
   6   5 -14    2.20    1.10
  -5  -5  14   59.29    6.20
   5  -5 -14   68.79    6.30
   5  -5 -14   74.79    7.30
   5   5 -14   64.39    3.60
  -5   5  14   70.09    6.50
   5   5 -14   65.19    4.40
  -4  -5  14   47.60    5.50
   4  -5 -14   43.20    5.70
   4  -5 -14   48.80    5.10
   4   5 -14   39.50    4.10
  -4   5  14   41.10    5.10
   3  -5 -14   65.89    5.00
   3  -5 -14   59.49    6.60
  -3  -5  14   73.59    6.70
  -3   5  14   70.59    6.50
   3   5 -14   65.39    4.80
   2  -5 -14   77.99    5.10
  -2  -5  14   75.29    6.70
   2  -5 -14   90.19    8.00
  -2   5  14   92.59    6.70
   2   5 -14   80.19    5.50
  -1  -5  14    2.20    2.10
   1  -5 -14    0.70    1.50
   1  -5 -14   -2.80    2.10
   1   5 -14   -0.20    1.90
  -1   5  14   -2.00    2.00
   0  -5 -14   33.80    3.20
   0  -5  14   28.80    4.10
   0  -5 -14   32.60    5.10
   0   5 -14   25.70    4.30
   0   5  14   33.30    5.00
   1  -5  14   20.70    3.60
  -1  -5 -14   12.50    3.70
  -1   5 -14   14.40    3.30
   1   5  14   23.70    4.40
   2  -5  14    0.20    2.10
  -2  -5 -14    7.60    3.20
  -2   5 -14    1.80    2.40
   2   5  14    3.40    2.60
   3  -5  14    3.60    2.60
  -3  -5 -14    1.60    2.60
   3   5  14    3.50    2.90
  -3   5 -14    1.80    2.60
  -4  -5 -14    4.80    3.00
   4  -5  14    1.50    2.30
   4   5  14    2.30    2.70
  -4   5 -14    0.30    2.50
  -5  -5 -14    1.70    2.80
   5  -5  14    1.40    2.30
  -5   5 -14    5.10    3.10
   5   5  14   -0.80    2.60
   6  -5  14  114.29    7.60
  -6  -5 -14   99.49    9.30
   6   5  14  111.49    9.80
  -6   5 -14  109.59    9.60
  -7  -5 -14   12.90    4.20
   7  -5  14    7.60    3.00
   7   5  14    3.30    3.40
  -7   5 -14    3.80    3.30
   8  -5  14   13.70    3.60
  -8  -5 -14    7.00    3.90
   8   5  14   19.70    4.80
  -8   5 -14    8.70    3.90
   9  -5  14   10.50    3.80
  -9  -5 -14   12.40    5.10
  -9  -5 -14    1.20    3.20
   9   5  14    9.10    3.80
  -9   5 -14   11.40    4.40
 -10  -5 -14   23.20    6.10
 -10  -5 -14   18.70    4.80
  10  -5  14   22.80    4.50
  10   5  14   28.90    5.90
 -10   5 -14   19.50    5.30
  11  -5  14    9.70    3.90
 -11  -5 -14   10.30    4.60
 -11  -5 -14   14.50    4.70
  11   5  14    3.90    3.90
 -11   5 -14    6.30    4.30
 -16  -6  14    2.60    3.40
  16  -6 -14   -3.70    3.00
 -16   6  14    2.70    3.60
 -15  -6  14    1.70    3.30
  15  -6 -14    1.60    3.90
 -15   6  14    9.90    4.20
  14  -6 -14    5.60    4.10
 -14  -6  14    8.70    4.10
 -14   6  14    7.00    3.60
  13  -6 -14    4.40    3.70
 -13  -6  14   -0.30    3.00
 -13   6  14    8.40    3.80
 -12  -6  14   19.50    4.80
  12  -6 -14   22.90    5.50
 -12   6  14   13.40    4.00
 -11  -6  14    8.90    3.50
  11  -6 -14   13.10    4.50
 -11   6  14   15.70    4.10
 -10  -6  14    1.10    2.70
  10  -6 -14   -0.70    2.90
   9  -6 -14   52.59    6.90
  -9  -6  14   69.79    7.10
  -8  -6  14   36.40    5.20
   8  -6 -14   37.80    5.60
  -7  -6  14   10.30    3.30
   7  -6 -14    3.80    3.00
   7  -6 -14    6.50    3.30
  -7   6  14   -1.90    1.80
   7   6 -14    3.00    1.40
   6  -6 -14   15.80    4.00
  -6  -6  14   10.60    3.30
   6  -6 -14   11.50    3.40
   6   6 -14    8.70    1.90
  -6   6  14   14.20    3.30
   5  -6 -14   42.90    5.30
  -5  -6  14   56.09    6.20
   5  -6 -14   47.90    6.30
   5   6 -14   50.09    4.30
  -5   6  14   63.79    6.00
   4  -6 -14   -0.20    2.50
  -4  -6  14    3.60    2.40
   4  -6 -14    0.10    1.90
   4   6 -14    1.60    1.70
  -4   6  14   -1.50    2.00
  -3  -6  14   -0.50    2.00
   3  -6 -14   -0.50    1.60
   3  -6 -14   -0.20    2.50
  -3   6  14   -0.80    2.00
   3   6 -14    2.40    1.90
   2  -6 -14   32.80    3.90
   2  -6 -14   28.80    4.90
  -2  -6  14   29.40    4.30
   2   6 -14   30.60    4.10
  -2   6  14   28.60    4.50
   1  -6 -14   62.09    6.90
   1  -6 -14   49.99    4.10
  -1   6  14   55.49    6.20
   1   6 -14   66.89    6.00
   0  -6  14   42.80    4.80
   0  -6 -14   46.70    3.60
   0  -6 -14   50.69    6.40
   0   6 -14   42.60    5.00
   0   6  14   48.30    5.90
   1  -6  14   51.69    5.20
  -1  -6 -14   50.99    6.40
  -1   6 -14   54.89    5.80
   1   6  14   48.70    6.10
  -2  -6 -14   17.80    4.20
   2  -6  14   13.50    3.10
  -2   6 -14   19.10    4.00
   2   6  14   19.80    4.40
   3  -6  14  175.68    8.90
  -3  -6 -14  180.38   10.70
  -3   6 -14  181.58   10.10
   3   6  14  179.18   10.40
   4  -6  14   16.30    3.40
  -4  -6 -14   16.40    4.20
  -4   6 -14   21.00    4.40
   4   6  14   18.20    4.40
  -5  -6 -14    2.20    2.90
   5  -6  14   -0.30    2.20
  -5   6 -14   -0.50    2.40
   5   6  14    1.80    3.10
  -6  -6 -14   13.50    4.20
   6  -6  14   19.40    3.80
  -6   6 -14   14.70    4.30
   6   6  14   14.90    4.40
   7  -6  14    0.00    2.40
  -7  -6 -14   -0.30    2.70
   7   6  14   -2.80    2.60
  -7   6 -14    0.00    3.10
  -8  -6 -14    3.90    3.40
   8  -6  14    1.70    2.60
  -8   6 -14    8.20    3.90
   8   6  14    5.50    3.70
   9  -6  14   -2.70    2.10
  -9  -6 -14    3.20    3.50
   9   6  14    0.00    3.10
  -9   6 -14   -0.40    3.20
  10  -6  14   21.80    4.40
 -10  -6 -14   17.70    4.90
  10   6  14   18.70    5.10
 -10   6 -14   18.10    5.10
 -11  -6 -14    6.90    4.50
  11   6  14   -4.70    2.80
 -11   6 -14   -1.30    3.20
 -16  -7  14    4.10    3.80
  16  -7 -14   -1.30    3.60
 -16   7  14   -5.10    2.60
  15  -7 -14   26.60    6.10
 -15  -7  14   31.80    6.00
 -15   7  14   26.80    5.40
 -14  -7  14   -2.30    2.60
  14  -7 -14    0.90    3.50
 -14   7  14   -0.70    2.60
 -13  -7  14    5.40    3.40
  13  -7 -14    7.40    4.30
 -13   7  14   10.40    3.90
  12  -7 -14   10.10    4.10
 -12  -7  14    5.00    3.30
 -11  -7  14   10.90    4.00
  11  -7 -14   20.40    4.90
  10  -7 -14   51.29    7.10
 -10  -7  14   58.59    6.90
   9  -7 -14   51.99    6.90
  -9  -7  14   63.49    6.90
  -8  -7  14    9.90    3.40
   8  -7 -14   11.70    3.90
   7  -7 -14  116.89    8.10
  -7  -7  14  117.39    7.80
   7  -7 -14  132.29    9.20
   7   7 -14  101.39    5.10
  -7   7  14  107.89    7.00
   6  -7 -14   20.60    4.40
   6  -7 -14   20.60    4.60
  -6  -7  14   17.60    3.80
   6   7 -14   23.80    2.90
  -6   7  14   17.10    3.50
  -5  -7  14   50.39    5.70
   5  -7 -14   60.49    7.10
   5  -7 -14   46.30    5.50
   5   7 -14   53.59    4.00
  -5   7  14   46.90    5.40
   4  -7 -14    2.50    2.30
  -4  -7  14    1.80    2.30
   4  -7 -14    0.00    2.70
  -4   7  14    3.90    2.50
   4   7 -14   -1.30    1.30
   3  -7 -14   11.50    3.00
  -3  -7  14   11.80    3.10
   3  -7 -14   14.70    3.70
  -3   7  14   13.70    3.50
   3   7 -14   10.70    2.70
   2  -7 -14    0.20    1.80
  -2  -7  14    2.20    2.30
   2  -7 -14    1.50    2.70
  -2   7  14   -2.20    2.00
   2   7 -14   -2.40    1.70
   1  -7 -14   29.00    3.60
   1  -7 -14   25.60    4.90
  -1   7  14   33.60    4.80
   1   7 -14   43.30    5.00
   0  -7 -14   43.60    6.00
   0   7  14   53.89    6.10
   0   7 -14   47.00    5.30
  -1  -7 -14   74.69    8.00
   1   7  14   74.19    7.40
  -1   7 -14   73.59    6.90
  -2  -7 -14   20.50    4.80
   2  -7  14   15.20    3.30
  -2   7 -14    9.10    3.20
   2   7  14    7.90    3.50
  -3  -7 -14    7.20    3.70
   3  -7  14   14.50    3.30
  -3   7 -14   13.70    3.60
   3   7  14   11.30    3.90
  -4  -7 -14    0.00    2.90
   4  -7  14    0.70    1.90
   4   7  14   -3.70    2.30
  -4   7 -14    2.90    2.50
   5  -7  14    6.60    2.60
  -5  -7 -14    4.40    3.30
  -5   7 -14   13.50    3.80
   5   7  14    8.30    3.70
   6  -7  14    9.00    3.00
  -6  -7 -14    8.30    3.70
  -6   7 -14   10.00    3.90
   6   7  14   25.80    5.30
  -7  -7 -14   12.40    4.20
   7  -7  14    4.20    2.50
   7   7  14    7.40    3.90
  -7   7 -14   12.70    4.30
   8  -7  14    0.80    2.40
  -8  -7 -14    1.10    3.40
   8   7  14   -3.20    2.80
  -8   7 -14    8.90    3.80
  -9  -7 -14    4.90    3.90
   9   7  14    4.70    3.90
  -9   7 -14   10.20    4.30
 -10   7 -14   24.10    5.90
  10   7  14   24.80    5.90
 -15  -8  14   37.50    6.40
  15  -8 -14   32.30    7.10
  14  -8 -14    6.70    4.50
 -14  -8  14    8.30    4.10
 -13  -8  14    3.10    3.30
  13  -8 -14   -1.40    3.30
 -12  -8  14    3.30    3.20
  12  -8 -14    6.70    4.10
 -11  -8  14    1.50    2.90
  11  -8 -14    2.80    3.80
 -10  -8  14   15.50    3.90
  10  -8 -14    3.60    3.70
   9  -8 -14    3.10    3.10
  -9  -8  14    4.10    2.90
  -8  -8  14   15.90    4.00
   8  -8 -14    9.40    3.70
   8  -8 -14   10.00    3.80
   7  -8 -14   31.50    5.70
   7  -8 -14   36.00    5.80
  -7  -8  14   31.50    5.00
  -7   8  14   31.70    4.50
   6  -8 -14    8.10    3.30
   6  -8 -14   11.40    3.80
  -6  -8  14    8.50    3.10
  -6   8  14   10.70    3.00
   6   8 -14    7.20    2.10
   5  -8 -14  103.69    9.50
  -5  -8  14   90.89    6.80
   5  -8 -14   94.09    7.10
  -5   8  14   88.19    6.60
   5   8 -14   82.79    5.20
   4  -8 -14    1.40    3.00
   4  -8 -14    1.40    2.00
  -4  -8  14    0.70    2.10
  -4   8  14    2.90    2.50
   4   8 -14   -0.20    1.60
   3  -8 -14   13.40    3.40
   3  -8 -14   10.80    3.90
  -3  -8  14   11.60    3.20
  -3   8  14   14.80    3.60
   3   8 -14   13.60    3.00
  -2  -8  14   37.40    4.70
   2  -8 -14   32.00    5.60
   2  -8 -14   31.90    4.20
  -2   8  14   36.30    5.10
   2   8 -14   27.90    3.90
   1  -8 -14   50.09    6.70
   1  -8 -14   35.10    4.20
  -1   8  14   47.90    5.90
   1   8 -14   38.20    4.80
   0  -8 -14    5.00    3.50
   0   8 -14    4.30    2.50
   0   8  14    2.70    2.70
  -1  -8 -14    8.80    3.90
  -1   8 -14    4.40    2.80
   1   8  14   10.10    3.70
  -2  -8 -14   -3.20    2.50
  -2   8 -14    0.90    2.30
   2   8  14   -0.80    2.60
  -3  -8 -14   -0.70    2.90
  -3   8 -14    2.10    2.60
   3   8  14   -2.70    2.40
  -4  -8 -14   13.80    4.50
   4  -8  14   20.40    3.60
   4   8  14   22.30    4.90
  -4   8 -14   16.10    4.10
   5  -8  14    0.50    2.10
  -5  -8 -14   -0.50    2.90
   5   8  14   -4.90    2.50
  -5   8 -14   -3.70    2.20
  -6  -8 -14   54.99    7.40
   6  -8  14   56.79    5.50
  -6   8 -14   60.39    7.30
   6   8  14   46.20    6.90
  -7  -8 -14    6.90    3.80
   7   8  14    1.40    3.60
  -7   8 -14    3.60    3.50
  -8  -8 -14   18.10    5.10
  -8   8 -14   19.50    5.10
   8   8  14   15.50    4.80
   9   8  14   17.10    5.20
  -9   8 -14   13.00    4.70
 -14  -9  14   10.80    4.40
  14  -9 -14   17.10    5.90
  13  -9 -14    6.60    4.40
 -13  -9  14   14.40    4.40
 -12  -9  14   12.00    4.10
  12  -9 -14   12.40    4.70
  11  -9 -14    4.70    3.50
 -11  -9  14    0.40    2.70
  10  -9 -14   18.60    5.20
 -10  -9  14   12.10    3.90
  -9  -9  14   -3.10    2.70
   9  -9 -14    7.90    3.80
   9  -9 -14    3.30    3.20
  -8  -9  14    7.80    3.20
   8  -9 -14   -2.90    2.80
   8  -9 -14    0.00    3.20
   7  -9 -14   21.60    4.90
   7  -9 -14   21.30    5.20
  -7  -9  14    9.40    3.70
  -7   9  14   15.00    3.30
   6  -9 -14   23.10    4.50
  -6  -9  14   18.10    4.00
   6  -9 -14   28.40    5.60
   6   9 -14   23.20    3.10
  -6   9  14   29.70    4.40
   5  -9 -14   44.60    6.70
   5  -9 -14   66.89    7.20
  -5  -9  14   75.29    7.00
   5   9 -14   66.99    4.80
  -5   9  14   74.99    6.70
   4  -9 -14    6.80    3.00
  -4  -9  14    1.90    2.30
   4  -9 -14    4.10    3.40
   4   9 -14    1.60    2.00
  -4   9  14    8.50    3.10
   3  -9 -14    7.00    2.60
   3  -9 -14    7.00    3.70
  -3  -9  14    2.20    2.30
   3   9 -14    3.90    2.20
  -3   9  14   10.80    3.20
   2  -9 -14   81.29    8.70
  -2  -9  14   70.99    6.40
   2  -9 -14   55.29    5.80
  -2   9  14   61.79    6.60
   2   9 -14   83.49    5.80
   1  -9 -14   11.50    4.20
   1  -9 -14   21.50    4.00
  -1   9  14   14.00    4.00
   1   9 -14   14.60    3.30
   0  -9 -14   59.19    7.60
   0   9  14   74.49    7.40
   0   9 -14   55.49    5.80
  -1  -9 -14    3.70    3.40
  -1   9 -14   -2.10    2.20
   1   9  14   -0.60    2.50
  -2  -9 -14   35.80    6.30
   2   9  14   27.80    5.10
  -2   9 -14   38.60    5.30
  -3  -9 -14    1.70    3.30
   3   9  14    0.20    2.70
  -3   9 -14   -3.70    2.50
  -4  -9 -14   38.60    6.50
   4   9  14   42.70    6.30
  -4   9 -14   42.90    5.90
  -5  -9 -14   17.00    4.80
  -5   9 -14   17.10    4.30
   5   9  14    1.00    3.10
  -6  -9 -14   20.80    5.40
  -6   9 -14   14.80    4.20
   6   9  14   17.60    4.80
  -7  -9 -14    1.10    3.30
  -7   9 -14    6.40    3.90
   7   9  14    3.10    3.80
  -8   9 -14   48.80    7.10
   8   9  14   39.30    6.70
 -12 -10  14    3.10    3.40
  12 -10 -14    1.30    3.60
  11 -10 -14    0.40    3.50
 -11 -10  14    4.30    3.20
  10 -10 -14   58.69    8.00
  10 -10 -14   43.20    7.10
 -10 -10  14   66.89    7.50
  -9 -10  14    2.80    3.40
   9 -10 -14    2.70    3.20
   9 -10 -14    5.00    4.00
   8 -10 -14  118.39    9.20
  -8 -10  14  116.09    8.20
   8 -10 -14   96.09   10.20
   7 -10 -14   19.50    4.80
   7 -10 -14   23.40    5.50
  -7 -10  14   16.30    3.90
  -7  10  14   15.60    3.30
   6 -10 -14    0.30    2.70
   6 -10 -14    0.40    3.10
  -6 -10  14    2.30    2.50
  -6  10  14    1.00    2.20
   5 -10 -14  158.68    9.90
   5 -10 -14  188.58   11.80
  -5 -10  14  144.79    8.80
  -5  10  14  175.38    9.20
   5  10 -14  162.68    7.90
  -4 -10  14   32.50    4.60
   4 -10 -14   36.90    5.30
   4 -10 -14   41.10    6.60
   4  10 -14   27.30    3.80
  -4  10  14   40.60    5.20
   3 -10 -14    0.20    2.80
  -3 -10  14    0.60    2.10
   3 -10 -14   -1.10    2.10
   3  10 -14    2.60    2.30
  -3  10  14   -1.10    2.40
   2 -10 -14    5.50    2.50
   2 -10 -14    8.20    3.80
   2  10 -14    5.00    2.40
  -2  10  14    3.20    2.60
   1 -10 -14   -1.80    2.50
  -1  10  14   -0.30    2.30
   1  10 -14    0.70    2.30
   0 -10 -14   42.80    6.60
   0  10  14   63.49    6.90
   0  10 -14   55.19    5.90
  -1 -10 -14   35.60    6.30
  -1  10 -14   35.70    5.10
   1  10  14   42.10    6.20
  -2 -10 -14   18.40    5.10
   2  10  14   13.10    4.00
  -2  10 -14   22.80    4.50
  -3 -10 -14   98.99   10.10
   3  10  14  103.49    9.20
  -3  10 -14   96.59    8.60
  -4 -10 -14   17.30    5.20
  -4  10 -14   13.60    4.00
   4  10  14   17.70    4.60
  -5 -10 -14   30.80    6.00
   5  10  14   33.70    6.00
  -5  10 -14   33.90    5.90
  -6 -10 -14   22.40    6.50
  -6  10 -14   19.00    4.90
   6  10  14   16.30    5.00
   7  10  14   16.70    5.20
  -7  10 -14   19.60    5.00
  11 -11 -14   31.50    6.60
 -11 -11  14   35.60    6.10
 -10 -11  14   25.30    5.00
  10 -11 -14   25.40    5.90
   9 -11 -14    1.30    3.60
   9 -11 -14    1.80    3.80
  -9 -11  14    2.00    2.90
   8 -11 -14    9.10    4.30
   8 -11 -14    6.70    4.10
  -8 -11  14    8.10    3.60
  -7 -11  14   42.60    5.70
   7 -11 -14   48.50    7.10
   7 -11 -14   37.40    6.80
   6 -11 -14   38.70    6.70
  -6 -11  14   26.50    4.80
   6 -11 -14   33.20    5.60
  -6  11  14   27.50    4.20
  -5 -11  14   36.70    5.60
   5 -11 -14   36.30    6.40
   5 -11 -14   42.60    6.20
  -5  11  14   56.09    5.90
   5  11 -14   51.79    4.90
   4 -11 -14    2.40    2.70
   4 -11 -14    5.60    3.50
   4  11 -14    0.20    2.10
  -4  11  14    2.10    2.30
   3 -11 -14    6.30    3.70
   3 -11 -14    5.10    2.90
   3  11 -14    0.30    2.10
  -3  11  14    6.50    3.00
   2 -11 -14    2.90    3.10
   2  11 -14   -3.80    1.90
  -2  11  14   -1.10    2.30
   1 -11 -14    8.60    4.10
  -1  11  14    8.90    3.30
   1  11 -14    7.20    3.00
   0 -11 -14   -2.20    2.90
   0  11 -14    1.30    2.40
   0  11  14    0.80    3.00
  -1 -11 -14    4.70    3.90
   1  11  14    5.90    3.70
  -1  11 -14    0.60    2.90
  -2 -11 -14   18.70    5.50
   2  11  14   25.20    5.10
  -2  11 -14   24.00    4.60
  -3 -11 -14   39.10    6.90
   3  11  14   38.30    6.10
  -3  11 -14   45.70    6.00
  -4 -11 -14    6.40    4.50
  -4  11 -14   -2.40    2.60
   4  11  14   -1.30    2.80
  -5  11 -14   35.80    6.00
   5  11  14   39.50    6.40
   8 -12 -14   83.79    9.50
  -8 -12  14   60.39    7.70
   7 -12 -14   70.49    8.50
   6 -12 -14   17.20    5.40
   6 -12 -14   25.30    5.30
   5 -12 -14   30.50    6.40
   5 -12 -14   26.40    5.10
   4 -12 -14   13.00    4.90
   4 -12 -14   15.50    4.20
   4  12 -14   15.00    3.40
   3 -12 -14    2.90    3.70
   3 -12 -14    7.30    3.40
   3  12 -14    8.60    3.10
  -3  12  14    5.90    3.00
   2 -12 -14   22.00    5.70
  -2  12  14   19.30    4.30
   2  12 -14   16.70    4.00
   1 -12 -14    5.70    4.30
   1  12 -14    6.70    3.20
  -1  12  14    5.10    3.00
   0 -12 -14   12.00    4.80
   0  12  14   14.00    4.10
   0  12 -14   12.30    3.90
   1  12  14   39.00    6.00
  -1  12 -14   41.60    5.70
  -2  12 -14   23.70    4.80
   2  12  14   22.00    5.00
   3  12  14   29.30    5.50
  -3  12 -14   25.90    4.90
 -18   0  15    1.40    3.70
 -17   0  15   12.10    4.60
 -16   0  15   -2.50    3.30
 -15   0  15   14.00    4.80
 -14   0  15    1.30    3.40
 -13   0  15   93.79    9.10
 -12   0  15   -0.30    3.00
 -11   0  15  105.09    9.40
 -10   0  15   -2.20    2.50
  -9   0  15    2.50    3.00
   9   0 -15    6.20    1.80
  -8   0  15    2.10    2.30
   8   0 -15   -1.00    1.30
   7   0 -15   65.89    4.60
  -7   0  15   58.39    6.60
  -6   0  15    2.10    2.70
   6   0 -15   -1.60    1.40
   6   0 -15    1.90    1.80
  -5   0  15  180.38    9.90
   5   0 -15  194.28    8.90
   5   0 -15  191.38    9.20
  -5   0  15  187.78    9.50
   4   0 -15   -2.80    1.40
   4   0 -15    1.10    2.00
  -4   0  15    0.20    2.10
   3   0 -15  104.69    6.80
   3   0 -15  101.99    6.40
  -3   0  15  107.19    7.00
   2   0 -15   -0.80    1.90
  -2   0  15    1.00    2.10
   2   0 -15    1.50    1.70
   1   0 -15   22.70    4.10
  -1   0  15   20.70    4.00
   1   0 -15   19.20    3.40
   0   0 -15    2.80    2.00
   0   0 -15    0.70    2.30
   0   0  15   -1.50    2.10
  -1   0 -15   23.10    4.50
   1   0  15   26.00    4.40
  -1   0 -15   24.90    3.90
   2   0  15   -4.70    1.80
  -2   0 -15    1.00    2.00
  -2   0 -15   -3.70    1.90
   3   0  15   16.90    3.90
  -3   0 -15   16.00    4.10
  -3   0 -15   20.80    3.60
  -4   0 -15   -0.30    2.10
   4   0  15    0.50    2.60
  -4   0 -15    4.00    2.90
  -5   0 -15   -4.20    2.30
   5   0  15   -0.30    2.60
  -5   0 -15    1.30    2.30
  -6   0 -15   -1.10    2.50
  -6   0 -15   -0.80    2.40
   6   0  15   -0.60    2.50
  -7   0 -15   51.19    7.30
   7   0  15   57.89    7.20
  -7   0 -15   58.19    6.20
   8   0  15    5.40    3.50
  -8   0 -15    2.10    2.70
  -8   0 -15   -1.30    3.00
  -9   0 -15  554.54   22.90
   9   0  15  530.15   21.60
  -9   0 -15  528.05   20.30
 -10   0 -15   -1.20    2.30
 -10   0 -15   -2.10    3.40
  10   0  15    2.30    3.30
  11   0  15   16.90    4.70
 -11   0 -15   12.50    5.20
 -11   0 -15   15.30    4.30
  12   0  15    3.10    3.70
 -12   0 -15   -1.90    3.50
 -12   0 -15   -3.40    2.90
  18  -1 -15    4.50    4.30
 -18  -1  15   12.10    5.00
 -18   1  15    1.10    3.80
 -17  -1  15   -2.00    3.50
 -17   1  15   -0.10    3.20
 -16  -1  15    1.30    3.70
 -16   1  15    4.10    4.00
 -15  -1  15   -0.10    3.20
 -15   1  15   -0.30    3.50
 -14  -1  15    9.90    4.10
 -14   1  15   12.80    4.30
 -13  -1  15   23.40    5.30
 -13   1  15   21.30    5.10
 -12  -1  15   40.70    6.20
 -12   1  15   28.10    5.60
 -11  -1  15   66.59    7.50
 -11   1  15   74.29    7.80
 -10  -1  15    9.20    3.20
 -10   1  15   12.80    4.10
  -9  -1  15   -0.40    2.70
   9  -1 -15   -1.70    1.30
  -9   1  15   -1.60    1.80
  -8  -1  15    3.60    2.90
  -8   1  15    3.50    3.00
   8   1 -15    2.20    1.50
  -7  -1  15   24.10    4.60
   7   1 -15   19.20    2.80
  -7   1  15   20.60    4.40
  -6  -1  15   60.49    6.50
   6  -1 -15   63.79    6.10
  -6   1  15   54.59    6.30
  -6   1  15   63.29    6.10
   6   1 -15   49.30    5.00
   6   1 -15   47.40    4.40
  -5  -1  15    3.20    2.60
   5  -1 -15    1.90    2.10
  -5  -1  15    0.50    2.20
   5   1 -15   -0.20    1.60
  -5   1  15   -2.60    1.70
   5   1 -15   -0.20    1.60
  -4  -1  15  103.09    7.40
   4  -1 -15   86.69    6.40
  -4  -1  15  117.59    7.20
  -4   1  15  101.39    7.00
   4   1 -15  103.99    6.10
   4   1 -15  110.49    6.40
  -3  -1  15    1.00    2.10
   3  -1 -15   -0.60    2.00
   3   1 -15    1.90    1.80
  -3   1  15   -0.40    2.00
   3   1 -15    4.60    2.40
  -2  -1  15   34.70    4.70
   2  -1 -15   26.30    4.00
   2  -1 -15   37.00    4.80
   2   1 -15   40.80    4.40
  -2   1  15   47.10    5.50
   2   1 -15   41.40    5.00
   1  -1 -15   70.19    6.70
  -1  -1  15   75.29    6.90
   1  -1 -15   71.69    6.30
   1   1 -15   65.59    6.40
   1   1 -15   68.09    5.00
  -1   1  15   55.19    6.20
   0  -1 -15   70.19    6.90
   0  -1 -15   78.59    4.20
   0  -1 -15   83.69    6.10
   0  -1  15   84.89    7.40
   0   1 -15   81.79    5.40
   0   1 -15   76.29    7.10
   0   1  15   74.19    7.00
  -1  -1 -15  169.58    8.90
   1  -1  15  157.68    9.00
  -1  -1 -15  149.39    9.20
  -1   1 -15  153.38    9.20
   1   1  15  163.18    9.30
  -1   1 -15  157.78    7.90
  -2  -1 -15   26.40    4.70
   2  -1  15   25.30    4.40
  -2  -1 -15   31.70    4.40
  -2   1 -15   32.60    4.00
  -2   1 -15   27.80    4.80
   2   1  15   32.80    5.10
   3  -1  15   68.69    7.00
  -3  -1 -15   54.99    6.70
  -3  -1 -15   60.49    6.10
  -3   1 -15   62.49    6.90
   3   1  15   60.29    6.80
  -3   1 -15   60.59    5.50
  -4  -1 -15    4.70    3.00
   4  -1  15    6.30    3.10
  -4  -1 -15    7.90    2.80
  -4   1 -15    2.00    2.70
  -4   1 -15    5.10    2.20
   4   1  15    5.00    3.10
   5  -1  15  269.37   12.80
  -5  -1 -15  249.68   13.50
  -5  -1 -15  250.07   11.90
  -5   1 -15  265.27   13.50
   5   1  15  264.27   13.00
  -5   1 -15  258.77   11.30
  -6  -1 -15   54.49    7.10
   6  -1  15   50.09    6.40
  -6  -1 -15   49.60    6.00
  -6   1 -15   50.69    5.50
  -6   1 -15   52.39    7.20
   6   1  15   50.99    6.60
   7  -1  15    1.60    2.90
  -7  -1 -15   -3.50    2.90
  -7  -1 -15   -2.40    2.40
  -7   1 -15   -1.40    2.90
   7   1  15    0.60    2.90
  -7   1 -15    1.90    2.40
  -8  -1 -15   16.20    4.80
  -8  -1 -15   10.90    3.60
   8  -1  15   10.30    4.00
  -8   1 -15    9.80    4.20
  -8   1 -15   15.00    3.70
   8   1  15   17.50    4.60
  -9  -1 -15   21.80    5.60
  -9  -1 -15   30.00    5.30
   9  -1  15   40.30    6.10
   9   1  15   19.30    4.90
  -9   1 -15   30.40    4.90
  -9   1 -15   36.50    6.70
 -10  -1 -15  116.59    8.90
  10  -1  15  105.19   10.00
 -10  -1 -15  106.69   10.90
 -10   1 -15  128.29   11.50
  10   1  15  124.89   10.80
 -10   1 -15  117.29    8.40
 -11  -1 -15   46.10    7.70
 -11  -1 -15   34.40    6.00
  11  -1  15   48.10    7.00
 -11   1 -15   41.90    7.20
 -11   1 -15   33.10    5.40
  11   1  15   38.50    6.50
 -12  -1 -15    0.50    4.00
  12  -1  15    5.70    3.80
 -12  -1 -15   -3.80    3.00
 -12   1 -15    3.60    3.20
 -12   1 -15    3.90    4.00
  12   1  15   -5.40    2.80
  17  -2 -15   19.80    6.00
 -17  -2  15   18.00    5.30
 -17   2  15   20.70    5.40
  16  -2 -15    0.30    3.30
 -16  -2  15   -0.20    3.50
 -16   2  15   -0.80    3.30
 -15  -2  15   57.09    7.60
  15  -2 -15   40.40    7.00
 -15   2  15   43.20    6.90
 -14  -2  15   16.40    4.80
  14  -2 -15   10.50    4.40
 -14   2  15    9.70    4.30
 -13  -2  15    2.80    3.00
 -13   2  15    0.40    3.10
 -12  -2  15    3.60    3.40
 -12   2  15    1.20    3.40
 -11  -2  15    4.80    2.90
 -11   2  15   -2.40    2.80
 -10  -2  15   25.50    4.80
 -10   2  15   18.80    4.50
  -9  -2  15    2.40    2.80
  -9   2  15   -3.40    2.40
  -8  -2  15   45.50    5.90
  -8   2  15   40.90    6.00
   8   2 -15   38.10    3.40
  -7  -2  15    0.50    2.60
   7   2 -15    3.00    1.60
   7   2 -15    5.10    2.20
  -7   2  15    3.50    2.40
  -6  -2  15  161.88    9.30
   6  -2 -15  163.28    9.10
   6   2 -15  150.28    7.10
  -6   2  15  143.09    8.80
   6   2 -15  147.39    7.40
  -6   2  15  146.29    8.30
  -5  -2  15  138.59    8.50
   5  -2 -15  121.89    7.70
  -5   2  15  126.29    7.70
   5   2 -15  121.89    6.70
   5   2 -15  129.59    6.70
  -4  -2  15   72.49    6.40
   4  -2 -15   88.19    6.60
  -4  -2  15   73.49    7.10
   4  -2 -15   68.59    5.30
  -4   2  15   83.89    6.30
   4   2 -15   87.59    5.70
   4   2 -15   81.19    5.10
  -3  -2  15   -0.70    2.00
   3  -2 -15    1.70    1.80
   3  -2 -15    4.70    2.70
   3   2 -15    0.40    1.90
  -3   2  15    0.20    1.70
   3   2 -15   -2.30    1.40
   2  -2 -15   23.00    3.90
  -2  -2  15   19.20    3.70
   2  -2 -15   20.00    2.90
   2   2 -15   29.80    4.10
   2   2 -15   23.60    3.10
  -2   2  15   15.70    3.60
   1  -2 -15    1.70    1.40
  -1  -2  15    0.90    2.10
   1  -2 -15   -2.90    1.70
   1   2 -15    3.80    1.90
   1   2 -15    3.90    2.30
  -1   2  15    1.00    2.30
   0  -2 -15  116.59    7.50
   0  -2 -15  110.89    5.00
   0  -2  15  132.79    7.80
   0   2 -15  113.69    6.20
   0   2 -15  121.59    7.70
   0   2  15  110.09    7.70
   1  -2  15    2.80    2.70
  -1  -2 -15   11.70    3.30
   1   2  15    8.30    3.30
  -1   2 -15   11.20    3.30
  -1   2 -15   14.60    2.70
   2  -2  15   14.90    3.70
  -2  -2 -15   15.40    3.70
   2   2  15   14.10    3.80
  -2   2 -15   14.60    2.80
  -2   2 -15   13.50    3.60
   3  -2  15    0.10    2.40
  -3  -2 -15    4.20    3.20
  -3  -2 -15   -1.00    2.20
  -3   2 -15    3.10    2.00
   3   2  15    2.50    2.70
  -3   2 -15    4.20    2.90
  -4  -2 -15    4.40    2.70
  -4  -2 -15    8.80    3.70
   4  -2  15    3.60    2.80
   4   2  15    2.20    3.00
  -4   2 -15    6.30    3.40
  -4   2 -15    6.60    2.40
   5  -2  15   -1.80    2.30
  -5  -2 -15    6.70    3.70
  -5  -2 -15    1.30    2.60
   5   2  15    3.70    3.20
  -5   2 -15    2.40    3.10
  -5   2 -15    1.40    2.00
  -6  -2 -15   12.60    4.50
  -6  -2 -15   15.80    4.00
   6  -2  15   15.50    4.10
   6   2  15   18.10    4.60
  -6   2 -15   14.60    3.20
  -6   2 -15   19.30    4.60
   7  -2  15    2.00    3.20
  -7  -2 -15   -2.90    3.10
  -7  -2 -15    2.70    2.70
  -7   2 -15    4.50    3.50
   7   2  15    2.20    3.20
  -7   2 -15    3.20    2.40
   8  -2  15    5.50    3.10
  -8  -2 -15    2.20    2.70
  -8  -2 -15    0.40    3.70
  -8   2 -15    4.40    3.80
   8   2  15    2.00    3.20
  -8   2 -15    3.40    2.60
   9  -2  15   61.99    7.50
  -9  -2 -15   46.50    7.40
  -9  -2 -15   53.99    6.80
   9   2  15   54.19    7.50
  -9   2 -15   64.99    8.30
  -9   2 -15   57.29    6.10
 -10  -2 -15   13.80    4.30
 -10  -2 -15    7.40    4.40
  10  -2  15    8.70    4.10
 -10   2 -15   16.10    5.20
  10   2  15    3.00    3.60
 -10   2 -15    8.50    3.40
 -11  -2 -15   46.30    7.70
 -11  -2 -15   50.39    7.00
  11  -2  15   62.59    7.80
 -11   2 -15   58.99    8.30
 -11   2 -15   58.89    6.70
  11   2  15   74.59    8.90
 -17  -3  15   34.00    6.50
  17  -3 -15   25.20    6.00
 -17   3  15   41.20    6.80
 -16  -3  15    5.00    3.60
  16  -3 -15    0.80    3.50
 -16   3  15    5.60    3.50
  15  -3 -15   -1.10    3.30
 -15  -3  15   -1.60    2.90
 -15   3  15   -1.30    3.00
  14  -3 -15    6.90    4.00
 -14  -3  15   10.80    4.20
 -14   3  15    8.20    3.80
  13  -3 -15  164.88   11.40
 -13  -3  15  179.58   11.10
 -13   3  15  178.98   10.90
 -12  -3  15   -4.40    2.60
  12  -3 -15    7.20    3.60
 -12   3  15    5.50    3.50
 -11  -3  15    5.00    3.40
  11  -3 -15   -0.60    3.00
 -11   3  15    2.40    3.20
 -10  -3  15   41.40    6.00
  10  -3 -15   41.30    6.10
 -10   3  15   30.00    5.40
   9  -3 -15   12.40    3.70
  -9  -3  15   12.50    3.90
  -9   3  15    9.60    3.70
  -8  -3  15    2.30    2.20
   8  -3 -15    0.80    2.20
   8   3 -15   -2.00    0.90
  -8   3  15   -2.20    2.50
  -7  -3  15   11.60    3.70
   7  -3 -15   10.50    3.40
   7  -3 -15   10.10    3.10
  -7   3  15    6.50    2.90
   7   3 -15   11.80    2.50
   7   3 -15   11.50    2.10
   6  -3 -15  108.29    7.10
  -6  -3  15  102.69    7.50
   6  -3 -15  126.49    8.00
  -6   3  15  104.89    7.00
   6   3 -15  108.09    5.70
   6   3 -15  101.09    5.70
   5  -3 -15   15.40    3.20
   5  -3 -15    4.50    2.90
  -5  -3  15   12.30    3.20
   5   3 -15    8.60    2.20
   5   3 -15    9.30    2.40
  -5   3  15    4.40    2.70
   4  -3 -15   72.29    6.90
  -4  -3  15   74.79    7.00
   4  -3 -15   73.89    5.20
  -4   3  15   63.29    6.30
   4   3 -15   65.19    5.00
   4   3 -15   65.99    4.30
  -3  -3  15   13.00    3.60
   3  -3 -15   11.40    2.60
  -3  -3  15   12.50    3.30
   3  -3 -15   10.70    3.40
  -3   3  15   11.10    3.30
   3   3 -15   15.20    3.10
   3   3 -15   18.10    2.60
  -2  -3  15   10.10    3.10
   2  -3 -15    8.70    2.20
   2  -3 -15    8.40    3.30
   2   3 -15    8.40    2.70
   2   3 -15   11.00    2.20
  -2   3  15    6.20    2.90
   1  -3 -15   33.00    5.00
   1  -3 -15   38.90    3.60
  -1  -3  15   39.60    5.00
   1   3 -15   44.10    5.20
  -1   3  15   38.90    5.20
   1   3 -15   45.60    3.90
   0  -3 -15  198.38   10.40
   0  -3  15  176.88    9.50
   0   3 -15  199.48    7.90
   0   3 -15  190.78   10.10
   0   3  15  188.08   10.20
  -1  -3 -15   10.00    3.20
   1  -3  15    3.20    2.70
  -1   3 -15    8.00    2.10
   1   3  15    4.20    2.80
  -1   3 -15    2.50    2.60
   2  -3  15   -3.70    1.90
  -2  -3 -15   -0.20    2.50
  -2   3 -15    0.20    1.40
  -2   3 -15    5.00    2.80
   2   3  15    0.80    2.70
  -3  -3 -15   42.60    5.60
   3  -3  15   46.30    5.70
  -3   3 -15   48.80    4.30
  -3   3 -15   36.80    5.50
   3   3  15   43.00    5.90
  -4  -3 -15   64.09    6.90
   4  -3  15   80.99    7.20
  -4   3 -15   67.49    7.50
   4   3  15   71.29    7.50
  -4   3 -15   68.19    4.90
   5  -3  15    4.00    2.80
  -5  -3 -15    2.40    3.20
  -5  -3 -15   -0.30    2.50
  -5   3 -15   -0.60    2.80
   5   3  15    6.90    3.30
  -5   3 -15    2.40    1.90
  -6  -3 -15   -2.90    2.80
  -6  -3 -15    1.50    2.60
   6  -3  15    2.50    2.70
  -6   3 -15    2.00    1.90
  -6   3 -15    5.10    3.30
   6   3  15    4.40    3.40
  -7  -3 -15   12.40    3.90
  -7  -3 -15    8.50    4.30
   7  -3  15   10.60    3.60
  -7   3 -15    6.50    2.60
  -7   3 -15   10.80    4.20
   7   3  15    8.10    3.80
  -8  -3 -15    2.20    3.00
   8  -3  15   11.50    4.10
  -8  -3 -15    8.40    4.40
  -8   3 -15    1.30    2.40
   8   3  15    7.10    3.80
  -8   3 -15   10.10    4.30
  -9  -3 -15   -0.80    2.70
   9  -3  15    4.80    3.20
  -9  -3 -15   -0.60    3.90
  -9   3 -15    5.60    4.10
   9   3  15    2.10    3.50
  -9   3 -15    4.70    2.60
 -10  -3 -15   -2.60    2.50
 -10  -3 -15   -3.00    3.20
  10  -3  15   -0.50    2.80
  10   3  15   -0.90    3.50
 -10   3 -15    1.40    3.80
 -11  -3 -15   -1.20    3.30
  11  -3  15    1.70    3.50
 -11  -3 -15    0.40    3.60
 -11   3 -15   -2.50    3.50
  11   3  15    0.40    3.80
 -17  -4  15   11.50    5.10
  17  -4 -15   18.50    5.90
 -17   4  15   21.20    5.30
  16  -4 -15   -3.50    3.60
 -16  -4  15    2.00    3.10
 -16   4  15    2.00    3.30
  15  -4 -15    5.90    4.20
 -15  -4  15    9.50    4.20
 -15   4  15    8.20    3.80
 -14  -4  15   53.59    7.50
  14  -4 -15   51.79    7.80
 -14   4  15   62.99    7.70
 -13  -4  15   11.40    4.20
  13  -4 -15    8.50    4.00
 -13   4  15    9.40    3.80
  12  -4 -15    5.00    3.50
 -12  -4  15    3.90    3.40
 -12   4  15    1.40    2.90
 -11  -4  15   -1.40    2.00
  11  -4 -15   -1.50    2.70
 -11   4  15    7.70    3.50
  10  -4 -15   55.79    7.00
 -10  -4  15   66.79    7.50
 -10   4  15   58.89    7.10
  -9  -4  15   40.30    5.80
   9  -4 -15   46.30    6.20
  -9   4  15   43.80    6.10
   8  -4 -15   18.20    4.00
  -8  -4  15   10.30    3.60
   7  -4 -15   71.69    7.30
  -7  -4  15   74.49    7.30
   7  -4 -15   76.59    7.10
   7   4 -15   82.29    4.70
  -7   4  15   70.29    6.60
   7   4 -15   65.79    4.10
   6  -4 -15   12.70    3.80
   6  -4 -15   14.20    3.60
  -6  -4  15   15.00    3.70
   6   4 -15   15.30    2.40
  -6   4  15   18.70    3.70
   6   4 -15   16.60    2.50
   5  -4 -15    8.00    2.80
  -5  -4  15    3.80    2.90
   5  -4 -15   -0.20    2.70
  -5   4  15   11.80    3.30
   5   4 -15    9.60    1.90
   5   4 -15    9.80    2.40
   4  -4 -15   38.80    4.50
   4  -4 -15   40.40    5.50
  -4  -4  15   42.70    5.50
   4   4 -15   45.70    4.60
  -4   4  15   37.50    5.10
   4   4 -15   39.60    3.00
   3  -4 -15    3.10    3.00
   3  -4 -15    5.70    2.10
  -3  -4  15    1.90    2.50
   3   4 -15    2.60    2.00
   3   4 -15    7.20    1.60
  -3   4  15    5.10    2.80
   2  -4 -15    3.90    2.90
   2  -4 -15    2.90    1.80
  -2  -4  15    5.20    2.60
   2   4 -15    4.30    1.30
  -2   4  15    5.00    2.80
   2   4 -15    6.30    2.60
  -1  -4  15   -1.20    1.90
   1  -4 -15    1.30    2.60
   1  -4 -15    1.40    1.40
   1   4 -15    0.10    1.10
  -1   4  15    0.80    2.30
   1   4 -15   -0.20    1.80
   0  -4  15  121.79    7.60
   0  -4 -15  141.49    9.00
   0   4 -15  143.99    5.80
   0   4  15  124.49    8.00
   0   4 -15  119.09    7.90
  -1  -4 -15   17.00    4.00
   1  -4  15   19.10    3.90
  -1   4 -15   25.40    4.30
  -1   4 -15   14.10    2.10
   1   4  15   16.70    3.70
   2  -4  15   84.89    7.50
  -2  -4 -15   86.39    8.00
  -2   4 -15   83.49    7.60
  -2   4 -15   75.89    4.40
   2   4  15   89.79    8.20
  -3  -4 -15    1.10    2.60
   3  -4  15    2.50    2.50
  -3   4 -15    0.50    1.40
  -3   4 -15    2.30    2.80
   3   4  15   -0.40    2.50
  -4  -4 -15   61.49    7.10
   4  -4  15   59.89    6.30
   4   4  15   49.20    6.50
  -4   4 -15   72.89    5.10
  -4   4 -15   56.39    6.70
   5  -4  15   99.69    7.10
  -5  -4 -15   82.09    8.10
  -5   4 -15   91.49    8.80
   5   4  15   76.99    8.20
  -6  -4 -15   -1.00    2.60
   6  -4  15    1.00    2.70
   6   4  15    4.50    3.50
  -6   4 -15    1.40    3.10
  -7  -4 -15   -5.00    2.00
  -7  -4 -15   -1.60    3.50
   7  -4  15   -0.60    2.70
   7   4  15    1.10    2.90
  -7   4 -15   -0.40    3.00
  -8  -4 -15   44.70    6.60
   8  -4  15   34.20    5.50
  -8  -4 -15   49.80    7.60
  -8   4 -15   57.19    7.60
   8   4  15   41.70    6.60
  -9  -4 -15    3.10    3.50
   9  -4  15    1.20    2.90
  -9  -4 -15    6.50    4.20
  -9   4 -15   -1.70    3.20
   9   4  15    7.80    4.20
  10  -4  15    0.20    2.80
 -10  -4 -15    3.70    4.10
 -10  -4 -15    1.80    3.20
 -10   4 -15    8.40    4.40
  10   4  15    7.10    4.20
  11  -4  15   -2.00    2.90
 -11  -4 -15   -1.10    4.00
 -11  -4 -15   -2.20    2.70
  11   4  15   -1.40    3.30
 -11   4 -15    1.40    4.00
  16  -5 -15    5.10    4.50
 -16  -5  15   -2.20    3.10
 -16   5  15    6.30    3.50
 -15  -5  15   26.90    5.90
  15  -5 -15   20.90    5.70
 -15   5  15   38.30    6.20
 -14  -5  15    6.70    4.10
  14  -5 -15    0.60    3.40
 -14   5  15    5.40    3.60
  13  -5 -15   13.90    4.70
 -13  -5  15   18.30    4.70
 -13   5  15   15.10    4.50
 -12  -5  15   43.60    6.40
  12  -5 -15   21.40    5.20
 -12   5  15   35.90    5.60
  11  -5 -15   -2.50    2.90
 -11  -5  15    2.30    3.10
 -11   5  15   -0.70    2.60
  10  -5 -15   30.60    5.40
 -10  -5  15   33.50    5.40
 -10   5  15   23.10    4.80
  -9  -5  15    0.80    2.60
   9  -5 -15    2.70    2.80
   8  -5 -15   41.80    5.90
  -8  -5  15   42.70    5.90
   7  -5 -15   11.50    3.70
  -7  -5  15    3.10    2.80
   7  -5 -15    8.20    3.00
   7   5 -15    8.30    1.90
  -7   5  15   14.40    3.50
  -6  -5  15   49.40    5.90
   6  -5 -15   66.89    6.60
   6  -5 -15   41.60    5.80
   6   5 -15   54.39    3.90
  -6   5  15   52.09    5.70
  -5  -5  15   14.00    3.60
   5  -5 -15   13.90    3.80
   5  -5 -15   10.30    3.00
  -5   5  15    6.50    2.90
   5   5 -15   10.30    2.30
  -4  -5  15   51.69    6.00
   4  -5 -15   56.79    6.50
   4  -5 -15   51.29    5.30
   4   5 -15   49.00    4.70
  -4   5  15   50.09    5.70
   3  -5 -15  170.18   10.00
   3  -5 -15  168.18    8.20
  -3  -5  15  173.98    9.50
  -3   5  15  171.38    9.40
   3   5 -15  151.28    8.00
   2  -5 -15  224.88   11.70
   2  -5 -15  225.98    9.40
   2   5 -15  223.78   10.30
  -2   5  15  225.38   11.20
  -1  -5  15    0.60    2.10
   1  -5 -15    0.40    1.40
   1  -5 -15    2.10    2.60
   1   5 -15    1.60    2.10
  -1   5  15   -1.30    2.30
   0  -5  15   29.10    4.40
   0  -5 -15   33.10    5.20
   0   5 -15   31.80    4.60
   0   5  15   26.20    4.70
   1  -5  15  146.49    8.20
  -1  -5 -15  143.69    9.30
   1   5  15  144.29    9.10
  -1   5 -15  141.29    8.70
   2  -5  15  176.58    9.10
  -2  -5 -15  169.18   10.30
   2   5  15  170.88   10.10
  -2   5 -15  157.88    9.50
   3  -5  15   38.00    5.10
  -3  -5 -15   38.10    5.80
   3   5  15   32.80    5.50
  -3   5 -15   37.30    5.50
  -4  -5 -15   23.50    4.80
   4  -5  15   21.60    4.00
   4   5  15   20.40    4.90
  -4   5 -15   27.30    5.00
  -5  -5 -15   10.00    4.10
   5  -5  15   24.20    4.30
  -5   5 -15   18.40    4.40
   5   5  15   14.00    4.10
  -6  -5 -15   60.79    7.40
   6  -5  15   45.50    5.60
  -6   5 -15   65.79    7.70
   6   5  15   53.39    7.10
  -7  -5 -15   -1.70    2.70
   7  -5  15   -2.20    2.10
  -7   5 -15   -1.90    2.90
   7   5  15   -0.60    2.80
  -8  -5 -15   17.20    5.00
   8  -5  15   26.50    4.80
  -8   5 -15   24.40    5.70
   8   5  15   29.60    5.90
  -9  -5 -15   -0.60    3.50
  -9  -5 -15    3.10    3.40
   9  -5  15   -2.00    2.80
  -9   5 -15   -2.10    2.90
   9   5  15   -3.40    3.00
 -10  -5 -15   29.00    6.60
 -10  -5 -15   22.80    5.40
  10  -5  15   14.50    4.30
  10   5  15   20.30    5.50
 -10   5 -15   23.30    5.80
  16  -6 -15   32.90    7.30
 -16  -6  15   16.80    5.20
 -16   6  15   32.40    6.00
  15  -6 -15    3.00    3.90
 -15  -6  15    7.30    4.30
 -15   6  15    5.30    3.70
  14  -6 -15    5.00    4.00
 -14  -6  15    2.90    3.70
 -14   6  15    6.80    3.60
  13  -6 -15   18.80    5.20
 -13  -6  15   16.80    4.90
 -13   6  15   19.90    4.80
  12  -6 -15   12.70    4.40
 -12  -6  15   13.20    4.40
 -12   6  15   16.60    4.40
  11  -6 -15    7.50    3.70
 -11  -6  15    0.50    2.90
  10  -6 -15   91.69    9.10
 -10  -6  15  106.59    9.30
   9  -6 -15    0.40    2.60
  -9  -6  15   -0.50    2.60
   8  -6 -15   64.69    7.50
  -8  -6  15   71.09    7.40
   8  -6 -15   72.19    7.60
   7  -6 -15   11.90    4.10
   7  -6 -15   10.70    3.40
  -7  -6  15   17.10    4.10
   7   6 -15   15.70    2.60
  -7   6  15   16.10    3.70
   6  -6 -15   16.30    3.70
  -6  -6  15   25.30    4.70
   6  -6 -15   16.90    4.30
   6   6 -15   15.70    2.50
  -6   6  15   17.90    3.80
   5  -6 -15   31.30    5.30
  -5  -6  15   25.90    4.50
   5  -6 -15   17.00    3.60
  -5   6  15   23.50    4.10
   5   6 -15   24.70    3.20
   4  -6 -15   54.49    5.60
   4  -6 -15   55.49    6.70
  -4  -6  15   64.09    6.80
  -4   6  15   54.79    6.00
   4   6 -15   62.89    4.70
   3  -6 -15   16.10    4.10
  -3  -6  15   14.40    3.40
   3  -6 -15   17.10    3.20
  -3   6  15   12.10    3.30
   3   6 -15    8.70    2.70
   2  -6 -15   46.90    6.20
   2  -6 -15   53.69    4.90
  -2   6  15   47.80    6.00
   2   6 -15   54.19    5.40
   1  -6 -15   73.69    7.70
  -1   6  15   66.99    7.00
   0  -6  15    6.50    2.60
   0  -6 -15    5.00    3.10
   0   6  15    4.60    3.00
   0   6 -15    0.00    2.20
  -1  -6 -15   31.20    5.40
   1  -6  15   27.30    4.10
  -1   6 -15   31.90    4.80
   1   6  15   31.60    5.30
  -2  -6 -15   26.90    5.20
   2  -6  15   34.60    4.60
  -2   6 -15   30.70    5.00
   2   6  15   32.10    5.50
   3  -6  15   35.90    4.80
  -3  -6 -15   30.30    5.50
  -3   6 -15   40.60    5.60
   3   6  15   37.70    5.90
  -4  -6 -15   15.70    4.40
   4  -6  15   19.70    3.80
   4   6  15    6.80    3.60
  -4   6 -15    9.20    3.50
  -5  -6 -15   18.40    4.70
   5  -6  15   23.30    4.20
  -5   6 -15   16.30    4.40
   5   6  15   24.20    5.00
  -6  -6 -15   76.39    8.40
   6  -6  15   84.89    7.40
  -6   6 -15   84.39    8.60
   6   6  15   87.39    9.20
  -7  -6 -15   12.00    4.40
   7  -6  15    4.20    3.10
  -7   6 -15    3.50    3.50
   7   6  15    9.10    4.00
   8  -6  15   40.10    5.60
  -8  -6 -15   40.30    6.60
  -8   6 -15   40.40    6.50
   8   6  15   36.20    6.50
  -9  -6 -15    5.20    3.90
   9  -6  15    7.90    3.40
   9   6  15    1.60    3.80
  -9   6 -15    3.70    3.70
  10  -6  15   18.60    4.20
 -10  -6 -15   20.70    6.00
 -10   6 -15   13.80    5.20
  10   6  15   12.00    5.10
 -15  -7  15   15.00    5.20
  15  -7 -15   13.30    5.00
 -15   7  15   19.90    4.90
 -14  -7  15    8.00    4.10
  14  -7 -15    4.90    4.00
 -14   7  15    5.60    3.50
 -13  -7  15    2.80    3.40
  13  -7 -15    1.60    3.70
  12  -7 -15   25.80    5.80
 -12  -7  15   22.10    5.20
 -11  -7  15    2.30    3.10
  11  -7 -15    4.20    4.00
 -10  -7  15   16.60    4.50
  10  -7 -15   17.30    4.90
  -9  -7  15   30.30    5.20
   9  -7 -15   21.60    5.10
   8  -7 -15   84.99    8.40
  -8  -7  15   89.39    8.30
   8  -7 -15   73.79    8.30
   7  -7 -15   13.80    4.10
   7  -7 -15    8.50    3.80
  -7  -7  15    5.70    3.20
  -7   7  15    5.00    2.70
   6  -7 -15  100.99    7.30
   6  -7 -15   81.19    8.60
  -6  -7  15   92.19    7.10
  -6   7  15   92.49    6.70
   6   7 -15   86.29    5.10
   5  -7 -15  124.09    9.30
   5  -7 -15  141.89    8.40
  -5  -7  15  129.39    8.20
  -5   7  15  121.39    7.80
   5   7 -15  127.99    6.60
  -4  -7  15   42.50    5.40
   4  -7 -15   41.30    6.30
   4  -7 -15   53.39    5.50
   4   7 -15   43.80    4.60
  -4   7  15   43.40    5.50
  -3  -7  15   36.80    5.00
   3  -7 -15   25.20    3.80
   3  -7 -15   20.10    4.70
   3   7 -15   22.80    3.60
  -3   7  15   29.60    4.80
   2  -7 -15   50.69    6.80
   2  -7 -15   62.99    5.00
  -2   7  15   58.09    6.50
   2   7 -15   69.39    6.30
   1  -7 -15   24.50    5.10
  -1   7  15   30.80    5.00
   1   7 -15   24.50    4.10
   0  -7 -15   38.20    6.20
   0   7  15   43.70    5.90
   0   7 -15   28.50    4.40
  -1  -7 -15    1.30    3.10
   1   7  15    2.70    2.90
  -1   7 -15   -3.00    1.90
   2  -7  15  107.79    6.80
  -2  -7 -15  101.99    9.50
  -2   7 -15   90.09    7.90
   2   7  15  107.89    9.30
  -3  -7 -15   24.70    5.40
   3  -7  15   26.60    4.30
  -3   7 -15   26.00    4.70
   3   7  15   30.80    5.50
  -4  -7 -15   10.10    4.20
   4  -7  15   19.30    3.80
   4   7  15   17.80    4.50
  -4   7 -15   18.10    4.30
   5  -7  15    9.90    3.10
  -5  -7 -15    1.70    3.20
   5   7  15    2.80    3.00
  -5   7 -15    4.40    3.30
  -6  -7 -15   -0.50    3.00
   6  -7  15    1.40    2.30
  -6   7 -15    4.00    3.50
   6   7  15    2.00    3.20
  -7  -7 -15    6.50    4.10
   7  -7  15    3.00    2.60
  -7   7 -15    5.60    3.60
   7   7  15    6.40    3.80
   8  -7  15   -2.90    2.00
  -8  -7 -15    0.00    3.40
   8   7  15   -3.30    3.00
  -8   7 -15    2.00    3.50
   9   7  15   -0.90    3.30
  -9   7 -15   -4.00    2.90
 -14  -8  15    2.50    3.50
  14  -8 -15    0.80    4.10
  13  -8 -15   -1.10    3.50
 -13  -8  15    5.40    3.60
 -12  -8  15    6.00    3.70
  12  -8 -15   -0.10    3.40
  11  -8 -15   16.20    5.00
 -11  -8  15   13.40    4.10
 -10  -8  15   -0.80    2.70
  10  -8 -15   -1.00    2.90
   9  -8 -15    0.20    2.90
  -9  -8  15    1.50    2.90
   9  -8 -15   -1.30    3.10
  -8  -8  15   60.99    6.90
   8  -8 -15   47.00    6.90
   8  -8 -15   57.69    7.20
   7  -8 -15   27.60    5.10
   7  -8 -15   25.50    5.50
  -7  -8  15   27.40    4.90
  -7   8  15   32.00    4.70
   6  -8 -15   29.80    5.20
  -6  -8  15   31.40    5.20
   6  -8 -15   27.90    5.50
  -6   8  15   39.00    5.10
   6   8 -15   32.80    3.60
  -5  -8  15   40.60    5.30
   5  -8 -15   36.80    5.20
   5  -8 -15   33.70    5.70
   5   8 -15   36.90    3.90
  -5   8  15   47.00    5.50
  -4  -8  15   86.59    7.60
   4  -8 -15   74.59    7.00
   4  -8 -15   69.89    8.00
  -4   8  15   69.89    6.90
   4   8 -15   71.89    5.30
   3  -8 -15   45.90    5.30
  -3  -8  15   29.20    4.50
   3  -8 -15   38.60    6.00
   3   8 -15   40.70    4.60
  -3   8  15   43.80    5.60
   2  -8 -15   17.90    4.60
   2  -8 -15    9.80    3.00
   2   8 -15   13.20    3.10
  -2   8  15   16.30    4.10
   1  -8 -15   43.80    6.50
  -1   8  15   51.09    6.20
   1   8 -15   44.00    5.10
   0  -8 -15  117.09   10.50
   0   8 -15  138.89    8.40
   0   8  15  132.89    8.90
  -1  -8 -15    7.30    3.80
   1   8  15    6.70    3.50
  -1   8 -15   13.90    3.50
  -2  -8 -15   64.59    7.90
   2   8  15   77.49    7.90
  -2   8 -15   64.79    6.80
  -3  -8 -15    1.50    3.20
   3   8  15   -1.50    2.60
  -3   8 -15   -0.90    2.50
  -4  -8 -15   43.20    6.80
   4  -8  15   44.00    5.00
   4   8  15   45.10    6.70
  -4   8 -15   53.39    6.70
   5  -8  15   58.19    5.70
  -5  -8 -15   44.30    6.90
   5   8  15   54.49    7.50
  -5   8 -15   56.29    7.10
  -6  -8 -15   21.00    5.40
  -6   8 -15   17.60    4.70
   6   8  15   28.70    5.70
  -7  -8 -15   11.30    4.80
   7   8  15   19.50    5.30
  -7   8 -15   24.60    5.40
   8   8  15   57.59    8.10
  -8   8 -15   72.09    8.60
 -13  -9  15   71.69    8.60
  13  -9 -15   70.59    9.50
  12  -9 -15    4.00    3.90
 -12  -9  15    3.60    3.30
  11  -9 -15    6.70    4.40
 -11  -9  15    2.90    3.40
 -10  -9  15   38.80    6.00
  10  -9 -15   35.80    6.40
  10  -9 -15   33.90    6.30
   9  -9 -15   23.00    5.60
  -9  -9  15   26.60    5.10
   9  -9 -15   16.80    4.80
   8  -9 -15   31.30    5.90
   8  -9 -15   35.60    6.00
  -8  -9  15   31.40    5.50
   7  -9 -15   10.90    3.70
   7  -9 -15    0.10    3.20
  -7  -9  15    3.70    2.90
  -7   9  15    5.70    2.70
  -6  -9  15   88.89    7.90
   6  -9 -15   69.19    8.50
   6  -9 -15   89.09    8.40
  -6   9  15   83.69    7.40
   5  -9 -15    7.90    3.80
  -5  -9  15   10.00    3.10
   5  -9 -15    7.10    3.20
  -5   9  15    2.90    2.50
   5   9 -15    5.00    2.30
   4  -9 -15    0.00    3.00
   4  -9 -15    1.30    2.50
  -4  -9  15    1.80    2.60
  -4   9  15   -1.10    2.20
   4   9 -15   -0.80    1.90
  -3  -9  15   30.30    4.60
   3  -9 -15   24.80    5.30
   3  -9 -15   23.60    4.10
  -3   9  15   31.40    4.90
   3   9 -15   26.30    4.00
   2  -9 -15   26.40    5.50
  -2   9  15   21.20    4.40
   2   9 -15   22.90    3.70
   1  -9 -15   17.70    5.00
  -1   9  15   12.00    3.50
   1   9 -15   16.70    3.50
   0  -9 -15   -2.20    2.90
   0   9  15   -0.50    2.70
   0   9 -15    0.40    2.20
  -1  -9 -15    0.50    3.10
  -1   9 -15    3.40    2.70
   1   9  15    2.40    3.00
  -2  -9 -15   49.40    7.50
   2   9  15   57.29    6.90
  -2   9 -15   52.99    6.40
  -3  -9 -15    7.40    3.90
   3   9  15    9.00    3.90
  -3   9 -15    4.90    3.10
  -4  -9 -15    5.70    3.70
  -4   9 -15   10.00    3.70
   4   9  15    6.20    3.90
  -5  -9 -15   12.90    4.90
  -5   9 -15   13.30    4.30
   5   9  15   20.10    5.10
  -6  -9 -15    3.80    4.30
  -6   9 -15    1.60    3.50
   6   9  15    0.50    3.30
  -7   9 -15   -2.10    3.30
   7   9  15    9.30    4.10
  11 -10 -15   37.30    7.10
 -11 -10  15   58.39    7.20
 -10 -10  15   32.20    5.70
  10 -10 -15   29.70    6.00
  10 -10 -15   29.10    6.90
  -9 -10  15   -2.00    2.70
   9 -10 -15    1.40    3.50
   9 -10 -15    4.20    3.80
   8 -10 -15   42.60    7.10
  -8 -10  15   49.40    6.50
   8 -10 -15   58.49    7.90
   7 -10 -15  110.19   10.80
   7 -10 -15  139.19    9.80
  -7 -10  15  114.39    8.50
  -7  10  15  123.29    7.80
  -6 -10  15   18.00    4.10
   6 -10 -15   16.10    5.00
   6 -10 -15   18.30    4.50
  -6  10  15   21.30    4.00
   5 -10 -15   12.20    3.60
  -5 -10  15    8.00    3.10
   5 -10 -15    5.00    3.80
   5  10 -15    7.60    2.50
  -5  10  15   13.90    3.60
   4 -10 -15   33.40    6.40
   4 -10 -15   43.10    5.70
  -4 -10  15   46.20    5.70
   4  10 -15   42.70    4.70
  -4  10  15   48.00    5.90
  -3 -10  15    0.40    3.50
   3 -10 -15   -1.30    2.90
   3 -10 -15    1.70    4.00
  -3  10  15   -0.30    2.40
   3  10 -15    1.60    2.30
   2 -10 -15    0.20    3.00
   2  10 -15    2.30    2.20
  -2  10  15   -1.90    2.20
   1 -10 -15    6.40    3.90
   1  10 -15    8.00    3.00
  -1  10  15    0.20    2.80
   0 -10 -15    5.40    3.80
   0  10 -15    6.00    3.00
   0  10  15   -1.20    3.20
  -1 -10 -15    4.00    3.70
   1  10  15    0.00    3.10
  -1  10 -15    5.50    3.20
  -2 -10 -15    1.10    3.30
  -2  10 -15    2.00    2.70
   2  10  15    4.10    3.20
  -3 -10 -15    2.50    3.60
   3  10  15    0.20    3.20
  -3  10 -15    0.50    2.80
  -4 -10 -15   10.80    5.30
  -4  10 -15   15.20    4.50
   4  10  15    8.70    4.00
   5  10  15   11.70    4.50
  -5  10 -15   14.80    4.30
   9 -11 -15   76.09    9.10
  -9 -11  15   68.09    7.70
  -8 -11  15    0.30    2.50
   8 -11 -15   -0.80    3.20
   7 -11 -15    4.20    3.30
  -7 -11  15    0.90    2.50
   7 -11 -15    3.90    3.80
   6 -11 -15   36.90    6.50
   6 -11 -15   29.30    5.60
  -6 -11  15   31.60    5.80
  -6  11  15   26.60    4.70
   5 -11 -15   11.00    4.50
   5 -11 -15    3.10    3.10
  -5  11  15    5.10    2.90
   4 -11 -15   48.10    6.30
   4 -11 -15   44.50    7.30
  -4  11  15   51.49    6.10
   4  11 -15   57.29    5.50
   3 -11 -15   -1.10    3.10
  -3  11  15    6.60    3.30
   3  11 -15    8.20    3.00
   2 -11 -15   21.50    5.40
   2  11 -15   15.70    3.60
  -2  11  15   19.70    4.50
   1 -11 -15    5.00    3.90
   1  11 -15    4.50    2.80
  -1  11  15    0.70    2.90
   0 -11 -15    6.80    4.10
   0  11  15    2.30    3.10
   0  11 -15    1.50    2.80
  -1 -11 -15   20.70    5.60
  -1  11 -15   30.00    4.90
   1  11  15   33.40    5.60
   2  11  15   -2.60    2.90
  -2  11 -15   -1.50    2.80
  -3  11 -15   83.59    8.30
   3  11  15   62.49    7.70
   6 -12 -15   10.50    4.20
   5 -12 -15   76.99    8.40
  -3  12  15    7.80    3.40
   3  12 -15   14.40    3.50
   2  12 -15    4.50    3.00
  -2  12  15   10.20    3.70
  -1  12  15    1.10    3.10
   0  12 -15   36.80    5.40
   0  12  15   26.90    5.20
 -17   0  16    0.50    3.90
 -16   0  16   25.00    5.90
 -15   0  16   -2.20    3.10
 -14   0  16    7.30    4.10
 -13   0  16    1.80    3.30
 -12   0  16    5.90    3.70
 -11   0  16   -1.10    2.60
 -10   0  16   34.70    5.70
  -9   0  16   -4.00    2.40
  -8   0  16   -1.60    2.40
   8   0 -16    1.40    1.70
   7   0 -16   -1.70    1.60
   7   0 -16    0.80    1.60
  -7   0  16    1.00    2.80
  -6   0  16  222.68   11.50
   6   0 -16  198.98    9.90
   6   0 -16  197.28    9.20
  -5   0  16    3.40    2.60
   5   0 -16   -0.30    1.70
   5   0 -16   -1.40    1.80
   4   0 -16    1.60    1.90
  -4   0  16    2.40    2.50
   4   0 -16    2.00    2.20
   3   0 -16    4.60    2.20
   3   0 -16    0.80    2.20
  -3   0  16    1.10    2.30
   2   0 -16  141.09    7.80
  -2   0  16  142.09    8.50
   2   0 -16  131.39    8.10
   1   0 -16   -0.50    1.70
   1   0 -16    0.00    2.30
  -1   0  16   -0.70    2.10
   0   0 -16   57.39    5.60
   0   0 -16   66.29    7.00
   0   0  16   54.99    6.40
  -1   0 -16   -1.40    1.70
  -1   0 -16   -0.40    2.60
   1   0  16   -1.50    1.70
  -2   0 -16    3.20    2.40
   2   0  16    0.30    2.60
  -2   0 -16    3.50    3.10
  -3   0 -16   -1.10    2.40
   3   0  16    0.50    2.70
  -3   0 -16    2.60    2.30
  -4   0 -16   15.40    4.40
  -4   0 -16   15.90    3.70
   4   0  16   22.40    4.70
  -5   0 -16    3.50    2.70
  -5   0 -16   -0.20    3.00
   5   0  16    0.20    2.90
  -6   0 -16    3.90    3.50
   6   0  16    9.10    3.50
  -6   0 -16    0.90    2.50
   7   0  16   -0.90    2.80
  -7   0 -16    0.60    3.10
  -7   0 -16   -1.70    2.50
  -8   0 -16   32.30    5.10
  -8   0 -16   23.20    5.50
   8   0  16   31.00    6.00
  -9   0 -16   -1.10    3.30
   9   0  16   -1.80    2.90
  -9   0 -16    0.90    2.50
  10   0  16   16.60    5.30
 -10   0 -16   24.40    4.80
 -10   0 -16   11.30    5.30
 -17  -1  16    3.40    4.10
 -17   1  16   -3.50    3.10
 -16  -1  16   17.60    5.20
 -16   1  16   13.10    5.20
 -15  -1  16    6.30    4.20
 -15   1  16    7.30    4.20
 -14  -1  16   11.40    4.50
 -14   1  16   12.00    4.60
 -13  -1  16  109.19   10.10
 -13   1  16  103.49    9.60
 -12  -1  16   21.50    4.90
 -12   1  16   18.50    4.80
 -11  -1  16   -0.30    2.20
 -11   1  16    0.10    3.00
 -10  -1  16   70.39    7.70
 -10   1  16   63.19    7.60
  -9  -1  16    9.50    3.60
   9  -1 -16    3.60    1.70
  -9   1  16   -2.40    2.60
  -8  -1  16  137.39    9.10
   8  -1 -16  130.29    6.70
   8   1 -16  120.09    6.10
  -8   1  16  129.49    8.90
   7  -1 -16    1.40    1.70
  -7  -1  16    8.20    3.40
   7  -1 -16    2.80    2.40
  -7   1  16   -0.70    2.50
   7   1 -16    3.20    2.20
   7   1 -16    0.20    1.50
   6  -1 -16   13.20    3.10
  -6  -1  16    9.90    3.50
   6  -1 -16   12.30    3.20
  -6   1  16    8.90    3.10
   6   1 -16    8.30    2.60
   6   1 -16   12.80    2.70
  -6   1  16   12.00    3.90
   5  -1 -16   23.90    4.00
  -5  -1  16   14.70    3.50
  -5  -1  16   20.20    4.20
   5  -1 -16   14.50    3.20
  -5   1  16   13.50    3.50
   5   1 -16   10.40    2.70
   5   1 -16   16.60    3.10
   4  -1 -16   88.79    6.50
  -4  -1  16   95.19    6.80
   4  -1 -16   95.39    6.80
   4   1 -16   96.09    6.40
  -4   1  16   97.49    6.70
   4   1 -16   90.19    5.90
  -3  -1  16    0.90    2.30
   3  -1 -16    2.20    2.30
   3  -1 -16    1.10    2.30
  -3   1  16    6.20    2.80
   3   1 -16   -1.90    1.40
   3   1 -16   -0.80    1.70
  -2  -1  16   36.40    5.00
   2  -1 -16   32.00    4.70
   2  -1 -16   33.50    4.60
   2   1 -16   39.90    4.40
   2   1 -16   28.40    4.50
  -2   1  16   41.00    5.40
   1  -1 -16   68.89    4.30
  -1  -1  16   62.09    6.60
   1  -1 -16   68.89    6.40
   1  -1 -16   73.79    7.10
   1   1 -16   68.89    5.20
  -1   1  16   74.49    7.10
   1   1 -16   58.29    6.30
   0  -1 -16   16.20    3.80
   0  -1  16   11.60    3.50
   0  -1 -16    8.90    2.90
   0   1  16   14.20    3.70
   0   1 -16   11.70    2.80
   0   1 -16   10.30    3.30
  -1  -1 -16    9.70    2.90
   1  -1  16    0.50    2.40
  -1  -1 -16    3.80    2.70
   1   1  16    4.90    2.70
  -1   1 -16    3.90    2.20
  -1   1 -16    7.50    3.20
  -2  -1 -16    1.60    2.50
  -2  -1 -16   -1.70    2.20
   2  -1  16    2.50    2.90
  -2   1 -16    0.20    1.90
  -2   1 -16   -1.40    2.40
   2   1  16   -3.60    2.20
  -3  -1 -16    1.10    2.70
  -3  -1 -16    5.50    2.60
   3  -1  16    4.60    2.90
  -3   1 -16    6.20    3.30
   3   1  16    2.10    2.90
  -3   1 -16    0.70    2.00
   4  -1  16    0.50    2.90
  -4  -1 -16    3.20    2.40
  -4  -1 -16    0.40    3.00
  -4   1 -16   -1.00    1.90
  -4   1 -16    1.20    2.80
   4   1  16    6.40    3.40
   5  -1  16   45.20    6.40
  -5  -1 -16   46.50    6.80
  -5  -1 -16   45.60    5.70
  -5   1 -16   40.60    5.00
   5   1  16   48.50    6.70
  -5   1 -16   50.59    7.10
  -6  -1 -16   88.29    7.90
  -6  -1 -16   81.19    9.30
   6  -1  16   80.49    8.30
  -6   1 -16   83.99    9.10
  -6   1 -16   85.79    6.60
   6   1  16   99.69    9.20
  -7  -1 -16  124.59   11.40
   7  -1  16  128.89    9.40
  -7  -1 -16  139.49    9.20
  -7   1 -16  137.39    8.40
   7   1  16  136.69    9.80
  -7   1 -16  144.19   10.60
  -8  -1 -16   11.70    3.80
  -8  -1 -16    4.50    3.90
   8  -1  16    5.80    3.80
   8   1  16    6.20    3.90
  -8   1 -16    5.40    3.00
  -8   1 -16    2.40    3.80
   9  -1  16    6.10    4.00
  -9  -1 -16   -2.10    2.50
  -9  -1 -16    2.30    3.80
   9   1  16    1.70    3.40
  -9   1 -16    1.60    2.70
  -9   1 -16    2.10    3.90
 -10  -1 -16    1.70    3.90
 -10  -1 -16    0.90    3.00
  10  -1  16    5.10    3.70
 -10   1 -16    1.60    2.70
 -10   1 -16    2.80    3.60
  10   1  16    4.00    3.70
  17  -2 -16   26.50    6.50
 -17  -2  16   27.20    6.30
 -17   2  16   27.30    6.10
 -16  -2  16   45.70    7.40
  16  -2 -16   37.90    7.20
 -16   2  16   38.60    6.90
 -15  -2  16   16.10    5.20
  15  -2 -16   23.80    5.70
 -15   2  16   20.30    5.30
  14  -2 -16    8.90    4.10
 -14  -2  16   15.50    4.90
 -14   2  16   14.90    4.90
  13  -2 -16    9.40    4.10
 -13  -2  16    4.90    3.60
 -13   2  16   -1.70    3.20
 -12  -2  16    7.90    4.00
 -12   2  16   13.10    4.60
 -11  -2  16   -0.30    3.00
 -11   2  16   -3.50    1.80
 -10  -2  16    0.30    2.80
 -10   2  16   -0.10    2.40
  -9  -2  16   -3.20    2.60
  -9   2  16   -5.80    2.30
  -8  -2  16   -0.50    2.70
  -8   2  16    1.70    2.90
   8   2 -16   -1.70    1.60
   7  -2 -16   78.29    7.30
  -7  -2  16   82.89    8.00
   7   2 -16   73.59    5.30
   7   2 -16   81.99    5.00
  -7   2  16   77.89    8.00
  -6  -2  16   -0.30    2.40
   6  -2 -16    1.30    2.30
   6   2 -16    0.10    1.60
  -6   2  16   -1.10    2.20
   6   2 -16    1.90    1.80
   5  -2 -16    1.10    2.30
   5  -2 -16    1.30    2.10
  -5  -2  16    1.30    2.60
   5   2 -16    3.70    2.00
  -5   2  16    0.80    1.90
   5   2 -16   -2.00    1.60
   4  -2 -16  160.28    8.30
  -4  -2  16  177.98    9.30
  -4  -2  16  173.78    9.90
   4  -2 -16  158.48    9.20
  -4   2  16  188.18    9.80
   4   2 -16  173.28    8.00
   4   2 -16  156.28    8.40
   3  -2 -16    9.60    3.00
   3  -2 -16   10.00    2.60
  -3  -2  16   14.00    3.50
   3   2 -16   12.80    3.10
  -3   2  16    8.20    3.20
   3   2 -16   12.60    2.60
   2  -2 -16  162.98    7.50
   2  -2 -16  173.38    9.30
  -2  -2  16  184.18    9.50
   2   2 -16  153.08    8.70
   2   2 -16  172.78    7.90
  -2   2  16  169.28    9.60
   1  -2 -16   25.80    3.00
  -1  -2  16   27.40    4.50
   1  -2 -16   35.10    4.90
   1   2 -16   24.10    4.50
  -1   2  16   28.60    4.90
   1   2 -16   34.20    3.80
   0  -2 -16   35.00    4.90
   0  -2  16   25.20    4.40
   0   2 -16   35.40    3.90
   0   2 -16   30.40    5.00
   0   2  16   27.60    4.70
  -1  -2 -16   -0.30    2.50
   1  -2  16    2.60    2.60
  -1  -2 -16   -1.40    2.30
   1   2  16    2.70    2.80
  -1   2 -16   -0.10    1.60
  -1   2 -16    0.90    2.50
   2  -2  16   95.99    8.30
  -2  -2 -16   88.29    8.60
  -2  -2 -16   76.89    7.40
  -2   2 -16  104.89    7.90
  -2   2 -16  113.29    6.30
   2   2  16   89.49    8.30
  -3  -2 -16    1.60    2.90
  -3  -2 -16    1.30    2.40
   3  -2  16    0.30    2.50
   3   2  16    4.10    3.20
  -3   2 -16    3.60    2.00
  -3   2 -16    6.70    3.00
  -4  -2 -16   91.99    8.10
  -4  -2 -16  100.39    9.60
   4  -2  16  104.59    7.80
  -4   2 -16   88.69    6.10
  -4   2 -16  104.99    9.50
   4   2  16  108.89    9.50
  -5  -2 -16  158.48    9.50
  -5  -2 -16  141.59   10.40
   5  -2  16  137.79    9.40
  -5   2 -16  143.39    7.90
  -5   2 -16  150.88   10.30
   5   2  16  152.78    9.60
  -6  -2 -16  188.08   11.80
   6  -2  16  166.78   10.40
  -6  -2 -16  142.19    9.50
  -6   2 -16  147.89   10.60
   6   2  16  168.78   10.80
  -6   2 -16  169.98    8.80
  -7  -2 -16   23.50    5.80
   7  -2  16   31.80    5.60
  -7  -2 -16   17.20    4.60
  -7   2 -16   23.50    5.40
  -7   2 -16   34.30    4.70
  -8  -2 -16   -0.10    2.60
  -8  -2 -16    4.90    3.90
   8  -2  16    5.50    3.60
  -8   2 -16    4.50    2.70
  -8   2 -16    2.30    3.80
   8   2  16   -0.10    3.20
  -9  -2 -16   12.00    5.10
  -9  -2 -16    9.70    4.00
   9  -2  16   10.90    4.00
  -9   2 -16   15.50    3.90
   9   2  16   11.60    4.50
  -9   2 -16   13.10    5.10
  10  -2  16  122.79   10.80
 -10  -2 -16  102.99    9.50
 -10  -2 -16   98.99   10.90
  10   2  16  120.99   11.20
 -10   2 -16   93.99   10.40
  16  -3 -16    2.50    3.90
 -16  -3  16    2.60    3.70
 -16   3  16    5.00    4.00
  15  -3 -16   15.40    5.10
 -15  -3  16    9.40    4.30
 -15   3  16    9.70    4.30
  14  -3 -16   -1.90    2.90
 -14  -3  16    2.40    3.50
 -14   3  16    3.20    3.50
 -13  -3  16   12.00    4.50
  13  -3 -16    6.90    3.80
 -13   3  16    9.30    4.20
 -12  -3  16   50.09    7.10
  12  -3 -16   37.80    6.40
 -12   3  16   47.80    7.00
 -11  -3  16    1.90    3.20
  11  -3 -16    4.50    3.40
 -11   3  16    3.30    3.30
 -10  -3  16   -1.10    2.80
  10  -3 -16   -0.20    2.90
 -10   3  16   -1.20    3.00
   9  -3 -16    2.40    2.80
  -9  -3  16    6.50    3.50
  -9   3  16    4.40    2.80
  -8  -3  16   40.90    5.90
   8  -3 -16   41.80    5.70
  -8   3  16   38.10    5.90
   8   3 -16   37.80    4.20
   7  -3 -16   -0.60    2.40
   7  -3 -16    2.70    2.40
  -7  -3  16    6.60    3.30
   7   3 -16    5.30    2.00
   7   3 -16    8.00    2.00
  -6  -3  16   -0.70    2.30
   6  -3 -16   -1.70    2.00
   6  -3 -16   -0.80    1.70
   6   3 -16   -0.80    1.50
   6   3 -16   -1.50    1.40
  -6   3  16    1.00    2.40
  -5  -3  16   50.29    6.20
   5  -3 -16   57.49    5.90
   5  -3 -16   66.19    6.80
   5   3 -16   65.29    4.40
   5   3 -16   56.09    5.10
  -5   3  16   49.90    5.90
   4  -3 -16    9.00    2.70
   4  -3 -16   18.30    4.00
  -4  -3  16   11.20    3.50
   4   3 -16   11.80    2.90
   4   3 -16   12.10    2.40
  -4   3  16   13.70    3.30
   3  -3 -16    5.30    2.80
  -3  -3  16    3.50    2.60
   3  -3 -16    3.50    1.90
   3   3 -16   -0.10    1.80
  -3   3  16    2.40    2.70
   3   3 -16    3.60    1.70
   2  -3 -16   16.00    2.80
  -2  -3  16   21.00    4.00
   2  -3 -16   13.20    3.50
  -2   3  16   19.80    4.20
   2   3 -16   16.70    2.60
   2   3 -16   13.50    3.40
   1  -3 -16  188.88   10.30
  -1  -3  16  179.98    9.70
   1   3 -16  179.98    7.80
   1   3 -16  202.88   10.20
  -1   3  16  183.58   10.30
   0  -3  16   -0.90    2.30
   0  -3 -16    1.00    2.50
   0   3  16    0.80    2.50
   0   3 -16    0.70    1.50
   0   3 -16   -1.30    2.10
  -1  -3 -16   40.40    5.40
   1  -3  16   30.20    4.80
   1   3  16   44.00    5.80
  -1   3 -16   33.70    3.60
  -1   3 -16   30.00    4.80
  -2  -3 -16  142.09    9.00
   2  -3  16  143.69    8.70
  -2   3 -16  126.99    8.80
  -2   3 -16  150.58    7.00
   2   3  16  130.19    9.00
  -3  -3 -16   45.30    5.90
   3  -3  16   42.20    5.80
   3   3  16   53.89    6.80
  -3   3 -16   51.19    6.70
  -3   3 -16   47.80    4.40
  -4  -3 -16   -2.10    2.60
  -4  -3 -16    2.20    2.80
   4  -3  16    3.80    3.00
   4   3  16   -4.30    2.40
  -4   3 -16   -1.30    1.50
  -4   3 -16   -1.60    2.70
  -5  -3 -16    4.40    3.70
   5  -3  16    3.70    2.90
  -5  -3 -16    2.90    3.00
  -5   3 -16    4.60    3.40
  -5   3 -16    7.50    3.40
   5   3  16    2.90    3.20
   6  -3  16    2.70    2.90
  -6  -3 -16    4.80    3.70
  -6  -3 -16    3.90    3.30
  -6   3 -16    5.40    3.80
   6   3  16    3.60    3.10
  -7  -3 -16  189.28   11.20
  -7  -3 -16  191.98   12.50
   7  -3  16  183.08   11.10
   7   3  16  196.08   12.00
  -7   3 -16  189.88   12.10
   8  -3  16   33.30    5.60
  -8  -3 -16   37.40    6.20
  -8  -3 -16   37.80    7.00
  -8   3 -16   30.50    6.30
   8   3  16   32.20    6.00
  -9  -3 -16   -1.40    2.70
   9  -3  16   -1.10    3.30
  -9  -3 -16    1.20    4.00
   9   3  16    1.20    3.20
  -9   3 -16    1.00    3.40
 -10  -3 -16   71.89    8.10
 -10  -3 -16   73.29    9.50
  10  -3  16   79.99    8.50
  10   3  16   67.09    8.60
 -10   3 -16   66.79    9.00
 -16  -4  16    6.50    4.50
  16  -4 -16    6.80    4.60
 -16   4  16   14.40    5.00
 -15  -4  16    0.20    3.80
  15  -4 -16    3.70    3.80
 -15   4  16    2.50    3.40
 -14  -4  16   -3.60    3.10
  14  -4 -16    2.90    3.80
 -14   4  16   -8.10    2.20
 -13  -4  16   31.80    6.00
  13  -4 -16   46.00    7.40
 -13   4  16   34.50    6.20
 -12  -4  16    2.30    3.50
  12  -4 -16    5.00    3.60
 -12   4  16    0.60    3.00
  11  -4 -16   39.00    6.50
 -11  -4  16   36.80    6.20
 -11   4  16   48.10    6.50
  10  -4 -16   10.30    3.80
 -10  -4  16   12.10    4.10
 -10   4  16    6.10    3.60
  -9  -4  16   48.10    6.50
   9  -4 -16   47.10    6.20
   8  -4 -16   43.20    6.00
  -8  -4  16   40.90    5.90
  -7  -4  16   28.80    5.10
   7  -4 -16   18.60    4.10
   7  -4 -16   17.10    3.80
   7   4 -16   22.00    2.70
  -7   4  16   21.00    4.20
   6  -4 -16   27.30    4.50
  -6  -4  16   16.90    4.20
   6  -4 -16   19.10    4.40
   6   4 -16   18.60    3.00
  -6   4  16   21.20    4.10
   5  -4 -16  174.88    9.20
   5  -4 -16  173.68   10.30
  -5  -4  16  182.28   10.20
   5   4 -16  180.68    8.30
  -5   4  16  187.38    9.90
  -4  -4  16   60.09    6.70
   4  -4 -16   60.49    5.70
   4  -4 -16   64.09    6.90
   4   4 -16   60.79    5.50
  -4   4  16   67.29    6.90
   3  -4 -16    1.50    2.60
   3  -4 -16    8.00    2.40
   3   4 -16    3.30    2.30
  -3   4  16    5.80    3.10
  -2  -4  16   45.90    5.40
   2  -4 -16   43.40    5.80
   2  -4 -16   49.90    4.60
   2   4 -16   39.70    5.00
  -2   4  16   44.70    5.80
  -1  -4  16  116.19    7.40
   1  -4 -16   94.49    8.50
   1   4 -16   78.09    7.30
  -1   4  16  108.99    7.80
   0  -4  16  113.59    7.50
   0  -4 -16  123.49    8.50
   0   4  16  116.19    8.30
   0   4 -16  108.29    7.60
   1  -4  16    5.50    2.90
  -1  -4 -16   12.90    3.70
  -1   4 -16    6.10    3.10
   1   4  16   16.10    4.30
   2  -4  16   35.80    5.10
  -2  -4 -16   41.70    5.80
   2   4  16   24.60    5.10
  -2   4 -16   34.20    5.30
  -3  -4 -16    8.10    3.40
   3  -4  16    4.40    3.00
   3   4  16   10.10    3.80
  -3   4 -16    4.20    3.10
   4  -4  16   11.50    3.50
  -4  -4 -16    3.00    2.90
  -4   4 -16   13.10    4.20
   4   4  16    4.90    3.30
   5  -4  16   10.90    3.80
  -5  -4 -16    4.90    3.30
  -5   4 -16    7.00    3.60
   5   4  16   12.70    4.20
  -6  -4 -16   -3.90    3.10
   6  -4  16    0.50    2.80
  -6  -4 -16    4.80    3.50
  -6   4 -16   -1.60    2.80
   6   4  16   -3.20    2.40
  -7  -4 -16   -4.40    3.20
   7  -4  16    4.80    3.40
  -7  -4 -16   -2.50    2.60
  -7   4 -16    1.00    3.30
   7   4  16    2.20    3.30
   8  -4  16   98.09    9.00
  -8  -4 -16  100.89   10.90
  -8  -4 -16  131.19    9.80
   8   4  16  108.49   10.50
  -8   4 -16  114.19   10.80
   9  -4  16   13.30    4.30
  -9  -4 -16    1.70    4.10
  -9  -4 -16   11.50    4.10
  -9   4 -16    5.60    3.90
   9   4  16    2.60    3.80
 -10  -4 -16    2.50    3.50
 -10  -4 -16   -0.40    3.90
  10  -4  16    1.80    3.10
 -10   4 -16    4.20    4.20
  10   4  16    1.20    3.40
  15  -5 -16    3.50    4.10
 -15  -5  16    0.30    3.60
 -15   5  16    1.90    3.30
  14  -5 -16    9.70    4.60
 -14  -5  16    8.80    4.50
 -14   5  16    9.40    4.00
  13  -5 -16   35.60    6.50
 -13  -5  16   32.40    5.60
 -13   5  16   27.90    5.60
  12  -5 -16    1.20    3.30
 -12  -5  16   -3.20    2.80
 -12   5  16    3.10    3.30
 -11  -5  16    5.20    3.40
  11  -5 -16    8.60    3.80
 -11   5  16    3.00    3.10
 -10  -5  16    2.00    2.80
  10  -5 -16   -2.00    2.50
  -9  -5  16   22.90    4.90
   9  -5 -16   21.80    4.90
   8  -5 -16  102.99    9.30
  -8  -5  16  110.69    8.40
   8  -5 -16  128.09    8.90
  -7  -5  16    2.60    2.80
   7  -5 -16    1.20    2.30
   7  -5 -16    4.40    3.40
  -7   5  16    2.40    2.60
  -6  -5  16    4.70    2.90
   6  -5 -16   11.40    3.40
   6  -5 -16   11.60    3.80
   6   5 -16   10.20    2.30
  -6   5  16    8.50    3.20
   5  -5 -16    4.20    2.80
   5  -5 -16    6.00    2.60
  -5  -5  16    1.70    2.60
   5   5 -16   -0.20    1.60
  -5   5  16    5.20    2.90
  -4  -5  16   -2.50    2.40
   4  -5 -16    0.20    2.60
   4  -5 -16    0.50    2.00
  -4   5  16   -3.50    2.00
   4   5 -16    2.90    2.00
  -3  -5  16   12.90    3.60
   3  -5 -16   12.70    3.90
   3  -5 -16   15.80    3.00
   3   5 -16    7.80    2.50
  -3   5  16   18.70    4.10
   2  -5 -16    6.60    3.10
   2  -5 -16    3.40    2.90
  -2   5  16    3.70    2.90
   2   5 -16    4.70    2.50
  -1  -5  16    1.60    2.30
   1  -5 -16   -2.40    2.20
   1   5 -16    2.00    2.20
  -1   5  16    0.60    2.70
   0  -5  16   12.00    3.30
   0  -5 -16    4.40    3.40
   0   5 -16    6.50    3.00
   0   5  16   13.20    3.90
  -1  -5 -16  236.68   12.70
   1  -5  16  222.38   11.10
  -1   5 -16  248.08   12.10
   1   5  16  252.47   12.60
   2  -5  16    0.40    2.30
  -2  -5 -16    2.10    2.90
   2   5  16    1.20    3.00
  -2   5 -16    3.30    2.70
   3  -5  16   96.69    8.30
  -3  -5 -16   95.59    9.20
  -3   5 -16  109.49    8.20
   3   5  16  112.79   10.00
   4  -5  16    7.40    3.10
  -4  -5 -16    1.50    2.90
   4   5  16    3.70    2.80
  -4   5 -16    1.00    2.90
  -5  -5 -16   -4.00    2.80
   5  -5  16   -0.50    2.50
   5   5  16    0.30    3.10
  -5   5 -16    0.70    2.90
  -6  -5 -16   47.70    6.90
   6  -5  16   93.29    8.10
   6   5  16   73.99    8.60
  -6   5 -16   75.89    8.60
   7  -5  16    3.50    2.90
  -7  -5 -16    5.50    3.60
   7   5  16    0.00    3.20
  -7   5 -16    1.40    3.50
  -8  -5 -16    1.50    4.00
   8  -5  16    0.70    2.90
  -8  -5 -16    4.20    3.70
  -8   5 -16   -2.20    3.20
   8   5  16    3.50    3.80
  -9  -5 -16   27.30    6.30
   9  -5  16   43.20    5.90
  -9  -5 -16   43.70    6.70
  -9   5 -16   37.00    6.80
   9   5  16   42.20    7.20
  15  -6 -16   25.10    6.70
 -15  -6  16   35.40    6.70
 -15   6  16   29.30    5.80
  14  -6 -16    1.00    3.50
 -14  -6  16    0.80    3.40
 -14   6  16    1.10    3.00
  13  -6 -16    2.00    3.80
 -13  -6  16   -0.20    3.20
 -13   6  16   -2.60    3.00
  12  -6 -16    0.60    3.40
 -12  -6  16    4.60    3.80
  11  -6 -16    1.70    3.10
 -11  -6  16   -1.60    2.80
 -10  -6  16   26.90    5.30
  10  -6 -16   13.00    4.40
  -9  -6  16    8.10    3.60
   9  -6 -16    6.60    3.70
   9  -6 -16    3.60    3.10
   8  -6 -16    2.90    3.00
  -8  -6  16    1.70    2.90
   8  -6 -16    0.00    2.40
   7  -6 -16   19.00    4.30
   7  -6 -16   33.80    5.80
  -7  -6  16   30.00    5.20
  -7   6  16   22.40    4.40
   6  -6 -16    3.40    2.80
  -6  -6  16   10.90    3.70
   6  -6 -16   -0.60    2.70
  -6   6  16    4.40    2.80
   6   6 -16    6.60    2.10
   5  -6 -16   47.20    6.50
   5  -6 -16   29.80    4.70
  -5  -6  16   41.20    5.70
   5   6 -16   47.40    4.60
  -5   6  16   43.60    5.70
   4  -6 -16   32.40    5.60
  -4  -6  16   30.50    4.90
   4  -6 -16   34.40    4.60
   4   6 -16   37.60    4.40
  -4   6  16   26.50    4.90
   3  -6 -16   63.09    7.30
   3  -6 -16   74.39    5.50
  -3  -6  16   73.69    7.30
   3   6 -16   67.39    5.90
  -3   6  16   65.69    7.00
   2  -6 -16   48.50    6.50
  -2   6  16   51.19    6.30
   2   6 -16   56.39    5.60
   1  -6 -16  157.28   10.30
   1   6 -16  143.29    8.50
  -1   6  16  147.49    9.40
   0  -6 -16   21.90    5.00
   0  -6  16   40.20    5.20
   0   6  16   36.70    5.70
   0   6 -16   31.70    5.00
   1  -6  16    3.60    2.50
  -1  -6 -16    0.80    2.80
   1   6  16   -1.80    2.70
  -1   6 -16    0.30    2.20
  -2  -6 -16   12.30    4.10
   2  -6  16   12.60    3.40
  -2   6 -16    9.80    3.60
   2   6  16   13.90    4.20
  -3  -6 -16    8.80    3.70
   3  -6  16    5.80    3.10
   3   6  16   11.20    4.10
  -3   6 -16   12.30    3.70
  -4  -6 -16   53.09    7.30
   4  -6  16   67.19    6.70
  -4   6 -16   64.89    7.40
   4   6  16   87.39    8.80
  -5  -6 -16   95.29    9.40
   5  -6  16  101.39    7.30
   5   6  16   95.89    9.60
  -5   6 -16   99.29    9.40
  -6  -6 -16    6.90    3.90
   6  -6  16    6.50    3.10
  -6   6 -16    3.00    3.40
   6   6  16   14.20    4.60
   7  -6  16    0.90    2.50
  -7  -6 -16   -2.40    2.70
   7   6  16    0.40    3.30
  -7   6 -16   -2.00    3.10
  -8  -6 -16   69.99    8.70
   8  -6  16   65.49    7.10
   8   6  16   53.89    8.00
  -8   6 -16   69.09    8.60
 -14  -7  16   71.29    8.60
  14  -7 -16   70.19    9.50
  13  -7 -16   -3.90    3.10
 -13  -7  16   -1.50    3.30
  12  -7 -16   -3.20    2.70
 -12  -7  16   -4.10    2.60
  11  -7 -16    3.30    3.40
 -11  -7  16    6.40    3.50
  10  -7 -16    8.00    3.90
 -10  -7  16    8.80    3.80
  -9  -7  16   29.40    5.50
   9  -7 -16   35.40    6.10
   9  -7 -16   28.90    5.60
   8  -7 -16   68.79    7.80
  -8  -7  16   61.39    7.30
   8  -7 -16   73.19    8.40
   7  -7 -16    8.40    3.50
   7  -7 -16    4.50    3.40
  -7  -7  16    3.80    3.00
  -7   7  16    2.90    2.80
  -6  -7  16   12.60    3.70
   6  -7 -16   10.20    3.50
   6  -7 -16    8.70    3.90
  -6   7  16   13.00    3.60
   6   7 -16    6.80    2.80
  -5  -7  16   45.60    6.20
   5  -7 -16   46.00    6.70
   5  -7 -16   42.30    5.40
  -5   7  16   48.60    6.10
   5   7 -16   50.29    4.60
   4  -7 -16    8.80    4.00
  -4  -7  16    4.70    2.80
   4  -7 -16   10.90    3.20
   4   7 -16    8.60    2.60
  -4   7  16    7.00    3.20
   3  -7 -16   -0.50    1.90
  -3  -7  16    2.20    2.60
   3  -7 -16   -2.90    3.00
  -3   7  16    2.10    2.80
   3   7 -16    7.00    2.50
   2  -7 -16   99.99    9.40
   2   7 -16   94.39    6.70
  -2   7  16  100.39    8.70
   1  -7 -16   -3.90    3.00
   1   7 -16   -3.10    1.80
  -1   7  16    0.60    3.10
   0  -7 -16    8.30    4.00
   0   7  16    7.80    3.90
   0   7 -16    8.80    3.00
  -1  -7 -16    4.50    3.30
   1   7  16    4.70    3.30
  -1   7 -16    5.90    3.00
  -2  -7 -16    9.40    4.10
   2  -7  16   19.00    3.80
   2   7  16   16.80    4.70
  -2   7 -16   18.90    4.20
  -3  -7 -16   26.10    5.60
   3  -7  16   38.70    4.90
  -3   7 -16   45.80    6.20
   3   7  16   44.80    6.50
   4  -7  16    0.50    2.50
  -4  -7 -16   -0.10    3.00
  -4   7 -16    3.80    3.10
   4   7  16    0.50    3.20
  -5  -7 -16    9.30    4.20
   5  -7  16    7.50    3.20
  -5   7 -16    9.70    3.80
   5   7  16   11.00    4.40
   6  -7  16    3.60    2.90
  -6  -7 -16    5.10    3.80
  -6   7 -16    4.30    3.60
   6   7  16    7.20    4.00
  -7  -7 -16   11.10    4.50
   7  -7  16    4.00    2.90
  -7   7 -16    3.80    3.70
   7   7  16   12.80    4.80
   8   7  16   -2.50    3.30
  -8   7 -16    1.70    3.40
 -13  -8  16   26.70    5.70
  13  -8 -16   25.40    6.00
  12  -8 -16   14.00    4.80
  11  -8 -16   -1.70    3.50
 -11  -8  16    4.90    3.30
 -10  -8  16  138.49   10.00
  10  -8 -16  156.58   11.10
  10  -8 -16  123.29   11.50
   9  -8 -16    3.90    3.40
  -9  -8  16   14.50    4.40
   9  -8 -16    5.10    3.70
  -8  -8  16   10.40    3.70
   8  -8 -16   25.10    5.60
   8  -8 -16   19.70    4.90
  -7  -8  16  108.49    8.20
   7  -8 -16  105.29   10.30
   7  -8 -16  125.99    9.00
  -7   8  16  108.69    7.60
   6  -8 -16   60.09    6.70
  -6  -8  16   60.19    6.80
   6  -8 -16   54.49    7.50
  -6   8  16   46.30    5.90
  -5  -8  16   58.79    6.60
   5  -8 -16   70.09    8.40
   5  -8 -16   82.89    7.50
   5   8 -16   78.29    5.30
  -5   8  16   68.39    7.10
   4  -8 -16    1.40    2.20
  -4  -8  16   -4.50    2.00
   4  -8 -16    1.30    3.30
  -4   8  16    1.40    2.30
   4   8 -16    0.40    1.80
   3  -8 -16   -1.90    2.80
  -3  -8  16    2.00    2.50
   3   8 -16    4.90    2.30
  -3   8  16   -3.30    2.30
   2  -8 -16   -2.60    2.50
   2   8 -16   -1.60    1.90
  -2   8  16    4.40    3.00
   1  -8 -16   21.20    5.20
   1   8 -16   30.20    4.50
  -1   8  16   34.10    5.60
   0  -8 -16    3.30    3.50
   0   8 -16   -2.30    2.10
   0   8  16   -2.80    2.80
  -1  -8 -16    7.10    3.80
  -1   8 -16    4.60    3.20
   1   8  16    6.90    3.60
  -2  -8 -16    7.00    4.30
  -2   8 -16   14.50    4.00
   2   8  16   15.00    4.50
  -3  -8 -16    5.90    3.80
   3   8  16   16.10    4.70
  -3   8 -16   20.20    4.60
  -4  -8 -16    4.40    3.50
   4  -8  16    4.80    2.80
  -4   8 -16    7.70    3.70
   4   8  16    6.80    3.60
  -5  -8 -16   -2.40    3.40
   5  -8  16   -0.60    2.30
   5   8  16    1.50    3.40
  -5   8 -16   -1.40    2.90
  -6  -8 -16   39.80    7.80
  -6   8 -16   51.69    6.90
   6   8  16   45.60    7.30
   7   8  16    5.40    4.30
  12  -9 -16   55.89    8.60
 -12  -9  16   73.89    8.50
 -11  -9  16   11.60    4.60
  11  -9 -16    8.50    4.30
  10  -9 -16    2.40    3.40
  10  -9 -16    3.90    3.90
 -10  -9  16    4.00    3.10
  -9  -9  16   48.70    7.00
   9  -9 -16   68.49    8.40
   9  -9 -16   48.00    7.50
   8  -9 -16   18.10    5.20
  -8  -9  16   21.20    4.80
   8  -9 -16   13.70    4.40
   7  -9 -16   92.99    9.00
   7  -9 -16   83.19    9.50
  -7  -9  16   83.39    8.10
  -7   9  16  110.49    7.30
  -6  -9  16    2.80    2.70
   6  -9 -16    4.00    2.80
   6  -9 -16   -3.00    3.00
  -6   9  16    2.50    2.50
  -5  -9  16    8.00    3.40
   5  -9 -16   11.20    3.60
   5  -9 -16    5.40    3.80
  -5   9  16   10.30    3.40
   5   9 -16    9.20    3.00
   4  -9 -16   12.10    4.30
   4  -9 -16    7.90    3.60
  -4  -9  16    6.70    3.10
  -4   9  16   10.10    3.50
   4   9 -16    4.60    2.40
   3  -9 -16    6.20    3.80
  -3  -9  16    9.20    3.20
   3   9 -16    6.80    2.80
  -3   9  16    5.80    3.30
   2  -9 -16    5.20    3.80
  -2   9  16   -5.00    2.10
   2   9 -16    0.60    2.30
   1  -9 -16    7.70    4.10
  -1   9  16    4.50    3.30
   1   9 -16    8.90    3.20
   0  -9 -16    5.80    3.80
   0   9 -16   -0.40    2.50
   0   9  16    4.70    3.20
  -1  -9 -16    2.20    3.40
   1   9  16   -1.10    2.80
  -1   9 -16   -0.30    2.80
  -2  -9 -16   24.50    5.80
  -2   9 -16   29.60    4.90
   2   9  16   28.10    5.60
  -3  -9 -16   16.60    5.20
  -3   9 -16   25.30    5.10
   3   9  16   16.20    4.70
  -4  -9 -16   27.10    6.10
  -4   9 -16   19.80    4.90
   4   9  16   30.00    6.00
  -5   9 -16    3.50    3.60
   5   9  16    1.50    3.50
  10 -10 -16   29.10    6.20
 -10 -10  16   22.60    5.30
   9 -10 -16   32.40    6.20
  -9 -10  16   20.40    4.90
   8 -10 -16   16.60    5.30
  -8 -10  16   14.30    4.10
   8 -10 -16   20.20    4.80
  -7 -10  16   19.90    4.60
   7 -10 -16   25.10    5.20
   7 -10 -16   16.90    5.10
  -7  10  16   19.30    4.30
   6 -10 -16   39.30    7.10
   6 -10 -16   56.29    7.00
  -6 -10  16   42.90    5.90
  -6  10  16   32.20    5.10
   5 -10 -16   -4.60    3.00
   5 -10 -16    0.70    2.60
  -5 -10  16    1.20    2.90
  -5  10  16   -4.00    2.40
   4 -10 -16   -3.10    3.20
  -4 -10  16    1.40    4.20
  -4  10  16    1.90    3.10
   4  10 -16    1.30    2.20
   3 -10 -16   -0.50    3.60
  -3  10  16    7.20    3.30
   3  10 -16    8.30    3.00
   2 -10 -16   -6.20    2.60
   2  10 -16    2.30    2.20
  -2  10  16    2.10    3.10
   1 -10 -16    1.70    3.70
   1  10 -16   -1.30    2.30
  -1  10  16    0.90    3.00
   0 -10 -16  130.79   11.90
   0  10  16  135.99    9.60
   0  10 -16  160.38    9.10
  -1 -10 -16   62.89    8.40
   1  10  16   90.19    9.00
  -1  10 -16   75.99    7.60
  -2 -10 -16   33.30    9.90
  -2  10 -16   19.40    4.40
   2  10  16   27.80    5.50
  -3  10 -16    5.70    3.40
   3  10  16    6.50    4.00
  -7 -11  16    2.50    4.80
   7 -11 -16    1.30    3.40
   6 -11 -16    4.30    3.50
  -6  11  16   14.60    4.80
  -5  11  16   13.90    3.90
  -4  11  16   58.49    6.70
  -3  11  16    8.40    3.80
   3  11 -16   10.70    3.10
   2  11 -16   -3.20    2.20
  -2  11  16    0.50    2.90
  -1  11  16   10.60    3.90
   1  11 -16   13.80    3.90
   0  11  16   77.09    8.20
   0  11 -16   86.49    8.00
  -1  11 -16    1.00    2.90
   1  11  16   -2.50    2.80
 -16   0  17   -3.20    2.60
 -15   0  17   12.70    4.30
 -14   0  17   -1.70    3.20
 -13   0  17   63.39    8.10
 -12   0  17    1.30    3.10
 -11   0  17    1.80    3.30
 -10   0  17    1.40    3.10
  -9   0  17   58.59    7.10
   8   0 -17    4.90    2.60
   8   0 -17    0.50    1.50
  -8   0  17   -0.30    2.80
   7   0 -17  131.19    7.90
  -7   0  17  138.79    9.10
   7   0 -17  138.29    7.30
   6   0 -17   -0.90    1.70
   6   0 -17    1.00    2.20
  -6   0  17   -3.90    2.20
  -5   0  17  114.59    7.80
   5   0 -17  126.89    7.60
   5   0 -17  115.49    7.30
   4   0 -17    0.80    2.20
   4   0 -17    1.40    2.50
  -4   0  17    1.70    2.70
   3   0 -17   81.29    7.40
   3   0 -17   76.09    6.80
  -3   0  17   83.89    7.70
   2   0 -17    1.70    2.60
  -2   0  17   -0.20    2.40
   2   0 -17    1.30    2.30
  -1   0  17  193.68   10.40
   1   0 -17  170.78    9.10
   1   0 -17  164.78    9.80
   0   0 -17    1.60    2.20
   0   0  17    3.10    2.90
   0   0 -17    5.70    2.90
  -1   0 -17   90.59    8.60
  -1   0 -17   74.99    6.70
   1   0  17   80.99    7.80
  -2   0 -17   -1.80    2.50
   2   0  17   -0.30    2.20
  -2   0 -17   -2.80    1.90
  -3   0 -17   48.50    5.70
  -3   0 -17   52.89    7.00
   3   0  17   60.59    7.10
  -4   0 -17    1.70    2.90
   4   0  17   -2.40    2.80
  -4   0 -17    0.80    2.50
  -5   0 -17   46.70    5.80
  -5   0 -17   51.49    7.30
   5   0  17   44.60    6.60
   6   0  17    1.80    3.30
  -6   0 -17    1.20    3.40
  -6   0 -17    1.10    2.30
  -7   0 -17  281.87   15.40
  -7   0 -17  289.37   13.40
   7   0  17  267.37   14.40
  -8   0 -17    2.60    3.00
   8   0  17    0.80    3.20
  -8   0 -17    2.40    3.80
   9   0  17    0.30    3.50
  -9   0 -17    0.40    3.10
  -9   0 -17   -0.40    3.50
 -16  -1  17    4.50    4.20
 -16   1  17    5.70    4.10
 -15  -1  17   22.40    5.70
 -15   1  17   28.50    6.10
 -14  -1  17   -4.50    3.10
 -14   1  17    0.30    3.80
 -13  -1  17    8.80    4.30
 -13   1  17    7.40    4.10
 -12  -1  17   91.99    9.40
 -12   1  17   83.69    9.10
 -11  -1  17   22.10    5.30
 -11   1  17   36.60    5.90
 -10  -1  17   38.70    6.20
 -10   1  17   33.80    5.80
  -9  -1  17   42.00    6.10
  -9   1  17   34.70    5.90
  -8  -1  17    1.00    3.00
   8  -1 -17    6.50    3.10
   8  -1 -17   10.50    2.70
  -8   1  17    2.70    3.40
   8   1 -17    5.60    2.50
  -7  -1  17   15.30    3.90
   7  -1 -17    9.00    2.60
   7  -1 -17    3.70    2.70
  -7   1  17    7.00    3.70
   7   1 -17   11.60    2.60
   7   1 -17    8.60    2.70
   6  -1 -17    4.30    2.90
   6  -1 -17    7.40    2.70
  -6  -1  17    9.20    3.70
   6   1 -17    6.30    2.40
  -6   1  17    4.50    3.00
   6   1 -17    6.20    2.40
  -5  -1  17    5.10    2.90
   5  -1 -17   10.00    3.10
   5  -1 -17   10.70    3.30
  -5   1  17    7.70    2.80
   5   1 -17    8.10    2.50
   5   1 -17    7.60    2.70
   4  -1 -17  157.58    8.90
   4  -1 -17  130.69    8.40
  -4  -1  17  146.59    8.90
  -4   1  17  157.88    9.20
   4   1 -17  151.98    8.40
   4   1 -17  139.59    7.70
  -3  -1  17  104.79    7.60
   3  -1 -17  101.19    7.50
   3  -1 -17  105.29    7.20
   3   1 -17   95.99    6.30
  -3   1  17  106.99    7.70
   3   1 -17  109.39    7.40
  -2  -1  17    9.10    3.50
   2  -1 -17   12.20    3.50
   2  -1 -17   13.90    3.30
  -2   1  17    9.70    3.50
   2   1 -17    4.50    2.20
   2   1 -17   12.50    3.40
  -1  -1  17    7.00    3.20
   1  -1 -17    4.20    2.90
   1  -1 -17    3.40    2.70
   1   1 -17    4.60    2.80
   1   1 -17    4.40    2.20
  -1   1  17    9.50    3.50
   0  -1 -17  161.48   10.10
   0  -1  17  152.38    9.30
   0  -1 -17  135.29    8.50
   0   1  17  158.88    9.70
   0   1 -17  149.69    9.40
   0   1 -17  153.98    8.10
   1  -1  17   16.10    4.20
  -1  -1 -17   15.30    3.80
  -1  -1 -17   18.00    4.30
   1   1  17   15.10    4.10
  -1   1 -17    5.70    2.50
  -1   1 -17   13.00    3.90
   2  -1  17    2.10    2.70
  -2  -1 -17   -3.60    2.10
  -2  -1 -17   -2.00    1.90
  -2   1 -17    1.40    2.70
   2   1  17    1.70    2.90
  -2   1 -17    1.10    2.00
   3  -1  17    3.50    3.20
  -3  -1 -17    6.50    3.50
  -3  -1 -17    8.70    3.30
  -3   1 -17    5.70    3.30
  -3   1 -17    7.40    2.60
   3   1  17    8.80    3.70
  -4  -1 -17   19.80    4.10
  -4  -1 -17   11.00    4.10
   4  -1  17   16.10    4.40
   4   1  17    4.00    3.50
  -4   1 -17   19.10    4.80
  -4   1 -17   13.00    3.30
   5  -1  17    4.60    3.50
  -5  -1 -17    2.80    3.80
  -5  -1 -17    0.80    2.50
   5   1  17    0.90    3.30
  -5   1 -17    9.00    3.80
  -5   1 -17    2.10    2.40
  -6  -1 -17    5.50    3.30
  -6  -1 -17    4.80    3.80
   6  -1  17    1.80    3.30
   6   1  17    2.70    3.60
  -6   1 -17    4.60    3.80
  -6   1 -17    6.00    2.80
  -7  -1 -17   -0.40    2.40
   7  -1  17    7.70    3.70
  -7  -1 -17    4.30    4.10
  -7   1 -17    0.80    3.40
  -7   1 -17    3.10    2.80
   7   1  17    3.00    3.70
  -8  -1 -17   93.39   10.30
  -8  -1 -17   79.19    8.00
   8  -1  17   60.19    7.70
   8   1  17   73.89    8.90
  -8   1 -17   73.09    7.30
  -8   1 -17   70.49    9.10
  -9  -1 -17   -1.90    3.30
  -9  -1 -17    2.20    3.20
   9  -1  17    1.20    3.30
  -9   1 -17    0.70    3.90
  -9   1 -17   -0.40    2.70
   9   1  17   -1.70    3.30
  16  -2 -17    3.00    4.30
 -16  -2  17    1.60    3.90
 -16   2  17    1.90    3.90
  15  -2 -17    7.10    4.40
 -15  -2  17    9.60    4.90
 -15   2  17   10.60    4.70
 -14  -2  17   22.60    5.60
  14  -2 -17   17.60    5.30
 -14   2  17   12.50    4.60
  13  -2 -17   23.30    5.80
 -13  -2  17   11.90    4.60
 -13   2  17   21.50    5.20
  12  -2 -17   12.10    4.20
 -12  -2  17    0.80    3.60
 -12   2  17    5.30    3.90
 -11  -2  17   32.70    5.80
 -11   2  17   23.20    5.40
 -10  -2  17   79.29    8.40
 -10   2  17  100.69    9.60
  -9  -2  17    5.30    3.60
  -9   2  17    6.50    3.60
  -8  -2  17    5.90    3.50
   8  -2 -17    4.70    3.10
  -8   2  17    6.40    3.20
   8   2 -17    3.80    2.20
   7  -2 -17   21.20    4.20
   7  -2 -17   14.30    3.70
  -7  -2  17   21.40    4.80
   7   2 -17   19.00    3.00
   7   2 -17   26.70    3.80
   6  -2 -17   -1.00    2.20
   6  -2 -17    4.70    2.70
  -6  -2  17    5.10    2.80
   6   2 -17    6.80    2.30
   6   2 -17    3.40    2.10
  -6   2  17    3.70    2.80
   5  -2 -17   33.70    5.00
   5  -2 -17   37.40    4.80
  -5  -2  17   38.10    5.70
   5   2 -17   43.20    4.50
  -5   2  17   31.40    5.00
   5   2 -17   36.60    4.60
   4  -2 -17    2.90    2.90
   4  -2 -17    9.10    2.80
  -4  -2  17    9.10    3.10
   4   2 -17    2.10    2.10
  -4   2  17    7.60    3.10
   4   2 -17    5.90    2.20
   3  -2 -17   44.10    5.70
   3  -2 -17   45.70    4.70
  -3  -2  17   63.99    6.60
   3   2 -17   58.39    6.00
  -3   2  17   52.99    6.30
   3   2 -17   54.29    4.90
  -2  -2  17  102.09    7.60
   2  -2 -17  119.79    7.90
   2   2 -17  110.69    7.50
   2   2 -17  107.99    6.30
  -2   2  17  120.89    8.20
   1  -2 -17    4.60    2.90
  -1  -2  17    4.80    3.00
   1  -2 -17    1.70    2.60
   1   2 -17    1.60    1.80
   1   2 -17    8.10    3.20
  -1   2  17    3.20    2.90
   0  -2 -17   11.00    3.90
   0  -2 -17    7.90    3.20
   0  -2  17   16.90    4.00
   0   2  17   10.70    3.70
   0   2 -17    9.30    2.60
   0   2 -17   14.50    4.10
   1  -2  17    2.50    2.90
  -1  -2 -17    2.00    3.00
  -1  -2 -17    2.00    2.90
  -1   2 -17    0.30    1.90
  -1   2 -17    2.10    2.80
   1   2  17    1.50    2.80
  -2  -2 -17    8.50    3.30
  -2  -2 -17    3.50    3.20
   2  -2  17    5.40    3.20
  -2   2 -17    2.90    2.00
   2   2  17    3.80    3.20
  -2   2 -17   -0.60    2.70
  -3  -2 -17    6.90    3.70
  -3  -2 -17    1.10    2.70
   3  -2  17    9.60    3.80
  -3   2 -17    6.60    2.40
  -3   2 -17    3.90    3.50
   3   2  17    5.10    3.40
  -4  -2 -17   11.40    4.10
   4  -2  17    6.10    3.50
  -4  -2 -17    8.20    3.70
  -4   2 -17   15.00    4.50
  -4   2 -17    6.30    2.50
   4   2  17    3.80    3.30
  -5  -2 -17   22.30    5.60
   5  -2  17   16.50    4.60
  -5  -2 -17   17.00    4.30
   5   2  17   22.00    5.20
  -5   2 -17   23.50    4.10
  -5   2 -17   22.10    5.30
  -6  -2 -17   76.79    9.10
  -6  -2 -17   88.89    8.50
   6  -2  17   86.99    8.60
   6   2  17   79.29    8.70
  -6   2 -17   95.29    9.80
  -7  -2 -17    4.10    3.00
  -7  -2 -17   -1.20    3.50
   7  -2  17    3.00    3.50
   7   2  17    7.90    4.10
  -7   2 -17    3.20    3.60
  -8  -2 -17    3.60    3.90
   8  -2  17    3.70    3.70
  -8  -2 -17    1.50    3.20
   8   2  17    0.10    3.40
  -8   2 -17   -0.30    3.40
  -9  -2 -17  111.89   10.00
  -9  -2 -17  101.09   10.90
   9  -2  17  109.29   10.30
   9   2  17  131.89   11.80
  -9   2 -17  137.59   12.50
 -15  -3  17    2.10    3.10
  15  -3 -17    5.30    4.00
 -15   3  17   -0.60    3.20
 -14  -3  17   57.99    8.10
  14  -3 -17   51.29    8.00
 -14   3  17   57.49    8.20
 -13  -3  17  106.79   10.60
  13  -3 -17  116.69   11.20
 -13   3  17  105.79   10.40
  12  -3 -17   10.40    4.30
 -12  -3  17   13.60    4.70
 -12   3  17    7.80    4.30
  11  -3 -17   -2.40    2.90
 -11  -3  17    3.20    3.70
 -11   3  17   -2.50    2.90
  10  -3 -17    9.50    4.10
 -10  -3  17   23.00    5.20
 -10   3  17   28.40    5.60
   9  -3 -17   42.40    6.30
  -9  -3  17   40.20    6.30
  -9   3  17   43.80    6.60
   8  -3 -17  138.79    9.20
  -8  -3  17  129.69    9.00
   8  -3 -17  149.29    9.40
   7  -3 -17   -2.70    2.10
   7  -3 -17    0.10    2.10
  -7  -3  17    1.90    3.10
   7   3 -17    1.60    1.80
   6  -3 -17   -3.90    2.10
   6  -3 -17    5.00    2.50
  -6  -3  17    2.50    3.00
   6   3 -17    0.40    1.70
  -6   3  17    0.90    2.60
  -5  -3  17   18.10    4.30
   5  -3 -17   16.50    3.40
   5  -3 -17   15.80    3.90
  -5   3  17   17.10    4.10
   5   3 -17   23.60    3.70
   4  -3 -17  163.88    9.60
   4  -3 -17  135.89    7.70
  -4   3  17  162.48    9.50
   4   3 -17  156.68    8.30
   3  -3 -17   36.50    4.30
   3  -3 -17   26.00    4.70
  -3  -3  17   33.60    4.90
  -3   3  17   43.00    5.80
   3   3 -17   32.30    4.60
  -2  -3  17   14.90    3.80
   2  -3 -17    5.90    3.10
  -2   3  17    7.30    3.30
   2   3 -17   10.00    3.10
  -1  -3  17   14.30    3.90
   1  -3 -17   15.30    3.90
   1   3 -17   15.70    3.60
  -1   3  17   20.30    4.60
   0  -3 -17  214.08   11.40
   0  -3  17  237.18   11.60
   0   3  17  213.58   11.70
   0   3 -17  210.18   11.20
   1  -3  17   44.90    5.90
  -1  -3 -17   46.50    6.10
  -1   3 -17   47.80    6.20
   1   3  17   49.00    6.40
   2  -3  17   -0.60    2.60
  -2  -3 -17    3.50    3.10
   2   3  17    1.20    2.80
  -2   3 -17    1.90    2.90
   3  -3  17   13.70    3.90
  -3  -3 -17    9.30    3.80
  -3  -3 -17   12.50    4.40
   3   3  17   15.00    4.30
  -3   3 -17   19.20    4.70
  -4  -3 -17   10.50    4.50
  -4  -3 -17    7.80    3.40
   4  -3  17    9.40    3.80
  -4   3 -17   14.70    4.60
   4   3  17   10.20    3.90
  -5  -3 -17   50.59    7.50
  -5  -3 -17   36.50    5.80
   5  -3  17   51.79    6.50
  -5   3 -17   50.49    7.00
   5   3  17   49.50    7.00
   6  -3  17   -1.90    2.60
  -6  -3 -17    3.40    3.90
  -6  -3 -17   -2.20    2.80
   6   3  17   -2.90    3.00
  -6   3 -17   -1.60    3.30
   7  -3  17    9.30    4.20
  -7  -3 -17   11.70    4.10
  -7  -3 -17   12.00    4.70
  -7   3 -17   17.30    5.40
   7   3  17   15.60    4.90
  -8  -3 -17   48.50    6.80
  -8  -3 -17   56.79    8.60
   8  -3  17   56.89    7.30
  -8   3 -17   64.69    8.60
   8   3  17   73.89    8.90
   9  -3  17   -1.30    3.10
  -9  -3 -17    0.30    3.80
  -9  -3 -17    3.70    3.80
   9   3  17   -0.10    3.80
  -9   3 -17    0.40    3.90
 -15  -4  17   23.70    5.60
  15  -4 -17   19.50    5.90
 -15   4  17   34.60    6.50
  14  -4 -17    1.70    3.90
 -14  -4  17    3.40    4.00
 -14   4  17    8.50    4.20
  13  -4 -17   41.40    7.10
 -13  -4  17   34.30    6.50
 -13   4  17   37.30    6.60
  12  -4 -17   -0.40    3.20
 -12  -4  17   -0.60    3.30
 -12   4  17    0.50    3.20
  11  -4 -17   29.50    5.70
 -11  -4  17   27.10    5.50
 -11   4  17   23.80    5.00
 -10  -4  17    3.20    3.50
  10  -4 -17   21.20    5.00
 -10   4  17    6.00    3.70
  -9  -4  17    8.80    3.80
   9  -4 -17    5.60    3.20
   9  -4 -17    4.30    3.20
   8  -4 -17    4.60    3.20
   8  -4 -17    4.90    3.00
  -8  -4  17    4.20    3.30
  -7  -4  17  123.69    8.90
   7  -4 -17  130.49    8.50
   7  -4 -17  112.59    9.90
  -7   4  17  130.59    8.40
  -6  -4  17   11.40    3.80
   6  -4 -17   13.60    4.20
   6  -4 -17    9.20    3.20
   6   4 -17   11.20    2.50
  -6   4  17   10.10    3.40
   5  -4 -17   68.29    7.40
   5  -4 -17   53.89    5.90
  -5  -4  17   66.69    7.30
  -5   4  17   70.49    7.20
   5   4 -17   73.09    5.30
   4  -4 -17   22.00    3.70
   4  -4 -17   16.20    4.50
  -4  -4  17   23.40    4.80
   4   4 -17   20.80    3.50
  -4   4  17   15.80    4.00
   3  -4 -17   62.49    7.80
   3  -4 -17   73.19    7.50
   3   4 -17   70.69    6.40
  -3   4  17   64.69    7.10
  -2  -4  17    3.40    2.70
   2  -4 -17    2.00    2.80
  -2   4  17   -2.30    2.30
   2   4 -17    1.10    2.60
  -1  -4  17   14.90    3.70
   1  -4 -17   17.70    4.40
   1   4 -17   22.00    4.10
  -1   4  17   15.60    4.30
   0  -4  17   -0.80    2.30
   0  -4 -17    2.30    3.00
   0   4  17    1.50    3.00
   0   4 -17    3.20    2.60
   1  -4  17    7.60    3.10
  -1  -4 -17    6.50    3.40
  -1   4 -17    1.90    2.80
   1   4  17   10.90    4.00
   2  -4  17   14.20    3.80
  -2  -4 -17    7.60    3.60
   2   4  17    4.40    3.40
  -2   4 -17    7.10    3.40
   3  -4  17   39.20    5.80
  -3  -4 -17   51.29    6.50
   3   4  17   41.70    6.30
  -3   4 -17   46.30    6.40
  -4  -4 -17   38.80    6.30
   4  -4  17   31.70    5.30
   4   4  17   34.60    5.70
  -4   4 -17   42.70    6.50
  -5  -4 -17   24.40    5.70
   5  -4  17   26.80    5.10
  -5  -4 -17   31.00    5.50
  -5   4 -17   32.90    6.00
   5   4  17   26.80    5.50
  -6  -4 -17   24.00    5.90
  -6  -4 -17   25.30    5.40
   6  -4  17   21.50    4.70
  -6   4 -17   34.10    6.20
   6   4  17   27.50    5.80
   7  -4  17   15.70    4.70
  -7  -4 -17   23.20    5.10
  -7  -4 -17   14.60    5.30
   7   4  17   19.90    5.10
  -7   4 -17   24.40    5.80
  -8  -4 -17   -4.00    2.70
   8  -4  17    4.40    3.40
  -8  -4 -17   -2.70    3.40
   8   4  17    1.00    3.70
  -8   4 -17    1.10    3.70
  14  -5 -17   -5.00    3.00
 -14  -5  17    1.70    3.50
 -14   5  17    1.20    3.60
  13  -5 -17   -3.20    3.20
 -13  -5  17    6.90    4.00
 -13   5  17    2.00    3.30
 -12  -5  17   52.49    7.60
  12  -5 -17   49.30    7.50
 -12   5  17   48.40    7.10
  11  -5 -17   -4.10    2.70
 -11  -5  17    7.20    3.90
  10  -5 -17   67.19    8.00
 -10  -5  17   51.39    7.10
  -9  -5  17   -0.20    2.90
   9  -5 -17    1.40    2.80
   9  -5 -17    5.20    3.40
  -8  -5  17   24.90    5.10
   8  -5 -17   24.30    5.00
   8  -5 -17   30.50    5.50
   7  -5 -17   -1.60    2.20
  -7  -5  17    4.30    3.20
   7  -5 -17   -0.90    2.70
  -7   5  17   -0.10    2.50
   6  -5 -17    9.50    3.80
   6  -5 -17   10.40    3.20
  -6  -5  17    5.70    3.10
  -6   5  17    6.60    3.40
   6   5 -17    4.70    2.10
   5  -5 -17   35.50    5.60
   5  -5 -17   26.80    4.30
  -5  -5  17   35.80    5.60
   5   5 -17   31.30    3.90
  -5   5  17   41.50    5.60
  -4  -5  17   19.20    4.30
   4  -5 -17   23.70    5.00
   4  -5 -17   18.90    3.70
   4   5 -17   17.50    3.40
  -4   5  17   16.10    4.10
   3  -5 -17   14.60    4.10
  -3   5  17   20.20    4.50
   3   5 -17   23.80    3.90
   2  -5 -17   69.89    7.70
   2   5 -17   78.29    6.90
  -2   5  17   73.69    7.60
  -1  -5  17    4.10    2.70
   1  -5 -17    0.90    2.90
  -1   5  17    0.70    2.90
   1   5 -17   -0.60    2.30
   0  -5  17   46.90    5.80
   0  -5 -17   40.60    6.00
   0   5  17   46.10    6.30
   0   5 -17   50.29    6.10
  -1  -5 -17    7.40    3.60
   1  -5  17    6.60    3.10
  -1   5 -17    7.60    3.20
   1   5  17    7.50    3.60
   2  -5  17    6.30    3.10
  -2  -5 -17   12.60    4.10
  -2   5 -17    9.00    3.60
   2   5  17    4.30    3.60
  -3  -5 -17   41.60    6.40
   3  -5  17   43.10    5.70
   3   5  17   37.30    6.30
  -3   5 -17   35.90    5.80
  -4  -5 -17   55.79    7.40
   4  -5  17   66.99    7.10
  -4   5 -17   71.09    8.20
   4   5  17   67.29    7.90
  -5  -5 -17   16.80    4.90
   5  -5  17    4.20    3.40
   5   5  17    3.00    3.70
  -5   5 -17   14.20    4.40
  -6  -5 -17   29.80    5.90
   6  -5  17   29.80    5.30
   6   5  17   33.20    6.40
  -6   5 -17   36.90    6.50
  -7  -5 -17    0.80    3.30
  -7  -5 -17   -0.10    3.70
   7  -5  17    0.30    2.90
   7   5  17    0.80    3.80
  -7   5 -17    0.90    4.00
  -8  -5 -17    0.00    3.10
   8  -5  17    8.70    4.00
  -8  -5 -17    0.20    4.00
  -8   5 -17    7.60    4.70
   8   5  17   10.40    4.80
 -14  -6  17    3.90    3.80
  14  -6 -17    2.10    4.10
 -14   6  17    0.00    3.50
 -13  -6  17   28.20    6.20
  13  -6 -17   28.80    6.50
  12  -6 -17   16.40    5.10
 -12  -6  17   20.10    5.20
 -11  -6  17    8.30    4.20
  11  -6 -17   18.30    4.90
  10  -6 -17   45.00    6.90
  10  -6 -17   77.19    8.70
 -10  -6  17   54.29    7.30
   9  -6 -17   55.99    7.40
  -9  -6  17   51.29    7.00
   9  -6 -17   48.50    7.00
  -8  -6  17   18.40    4.50
   8  -6 -17   16.60    4.10
   8  -6 -17   23.40    5.20
   7  -6 -17    0.40    2.80
   7  -6 -17    5.50    3.20
  -7  -6  17    6.20    3.40
  -7   6  17    4.50    3.00
   6  -6 -17   52.69    6.10
  -6  -6  17   36.10    5.70
   6  -6 -17   37.60    6.20
  -6   6  17   31.50    5.00
   5  -6 -17   47.90    5.60
  -5  -6  17   32.80    5.40
   5  -6 -17   48.60    6.90
  -5   6  17   52.69    6.30
   5   6 -17   52.69    4.90
   4  -6 -17  104.19    9.80
   4  -6 -17  113.69    7.20
  -4  -6  17  103.49    9.00
  -4   6  17  100.89    8.80
   4   6 -17  117.79    6.80
   3  -6 -17    4.90    3.50
  -3   6  17    4.10    3.00
   3   6 -17    4.20    2.50
   2  -6 -17   25.90    5.40
   2   6 -17   55.99    5.80
  -2   6  17   52.29    6.60
   1  -6 -17   29.40    5.70
   1   6 -17   30.10    4.80
  -1   6  17   28.70    5.20
   0  -6  17    8.70    3.20
   0  -6 -17    7.20    3.50
   0   6 -17   10.70    3.60
   0   6  17    5.80    3.50
   1  -6  17    0.30    2.90
  -1  -6 -17    3.20    3.30
   1   6  17    1.60    3.10
  -1   6 -17    1.10    2.60
  -2  -6 -17    4.10    3.40
   2  -6  17   -0.90    2.50
   2   6  17    5.00    3.20
  -2   6 -17   -1.70    2.60
   3  -6  17   69.99    7.10
  -3  -6 -17   72.79    8.40
  -3   6 -17   75.79    8.10
   3   6  17   68.69    8.10
  -4  -6 -17   59.19    7.70
   4  -6  17   61.09    6.70
  -4   6 -17   60.49    7.50
   4   6  17   63.29    7.90
  -5  -6 -17   35.70    6.40
   5  -6  17   36.30    5.50
  -5   6 -17   31.90    5.90
   5   6  17   30.90    6.00
   6  -6  17   31.40    5.30
  -6  -6 -17   27.50    5.90
  -6   6 -17   30.50    5.90
   6   6  17   28.10    6.10
   7  -6  17   10.00    3.80
  -7  -6 -17    8.00    4.00
   7   6  17    6.00    3.90
  -7   6 -17   14.40    4.80
  13  -7 -17    4.60    3.90
 -13  -7  17   -5.40    2.90
  12  -7 -17   16.80    5.10
 -12  -7  17    8.10    4.30
 -11  -7  17    3.00    3.50
  11  -7 -17    0.00    4.20
  10  -7 -17    2.60    3.50
 -10  -7  17    7.30    3.90
  10  -7 -17    8.10    4.40
  -9  -7  17   10.60    3.90
   9  -7 -17    2.60    3.30
   9  -7 -17   10.30    4.10
   8  -7 -17  146.39    9.90
  -8  -7  17  138.99    9.60
   8  -7 -17  146.89   10.70
   7  -7 -17   52.89    7.30
  -7  -7  17   44.10    6.20
   7  -7 -17   40.60    6.00
  -7   7  17   42.30    5.80
  -6  -7  17    4.00    2.90
   6  -7 -17    0.80    2.60
   6  -7 -17    4.20    3.40
  -6   7  17    2.20    2.80
  -5  -7  17    1.30    3.00
   5  -7 -17    6.60    3.70
   5  -7 -17    2.20    2.50
   5   7 -17    3.80    2.00
  -5   7  17   -0.90    2.40
   4  -7 -17   11.20    4.10
  -4  -7  17   13.80    3.90
  -4   7  17   12.40    3.90
   4   7 -17   16.40    3.20
   3  -7 -17   11.80    4.30
  -3   7  17    2.60    3.00
   3   7 -17    7.80    2.90
   2  -7 -17    3.80    3.20
  -2   7  17    6.60    3.50
   2   7 -17   -0.10    2.50
   1  -7 -17   10.20    4.10
  -1   7  17   15.00    4.20
   1   7 -17   14.60    3.60
   0  -7 -17  104.59    9.90
   0   7 -17  101.09    8.60
   0   7  17   89.49    8.90
  -1  -7 -17   48.90    7.10
  -1   7 -17   57.59    6.70
   1   7  17   59.19    7.40
  -2  -7 -17    5.90    3.70
   2  -7  17    0.10    2.40
   2   7  17   12.70    4.40
  -2   7 -17    8.50    3.50
   3  -7  17    0.30    2.50
  -3  -7 -17    0.00    3.30
  -3   7 -17    3.00    3.40
   3   7  17   -2.50    2.80
   4  -7  17   83.69    7.70
  -4  -7 -17   81.19    9.10
  -4   7 -17   73.59    8.20
   4   7  17   62.79    8.10
   5  -7  17   -1.60    2.60
  -5  -7 -17    6.50    3.80
  -5   7 -17    1.90    3.30
   5   7  17   -0.60    3.30
   6  -7  17    1.70    3.00
  -6   7 -17    2.20    3.50
   6   7  17    5.60    4.10
  12  -8 -17   48.00    7.90
  11  -8 -17    5.00    4.20
  11  -8 -17    2.70    3.60
 -11  -8  17    0.40    3.20
  10  -8 -17   -1.10    3.10
 -10  -8  17   -0.40    3.10
  10  -8 -17   -5.80    2.50
  -9  -8  17  111.99   10.10
   9  -8 -17  117.59   10.70
   9  -8 -17  113.19   11.10
  -8  -8  17    3.80    3.50
   8  -8 -17    5.00    4.00
   8  -8 -17   -3.10    2.60
  -7  -8  17    3.90    3.00
   7  -8 -17    4.20    3.80
   7  -8 -17    3.40    3.20
  -7   8  17    1.30    2.80
   6  -8 -17   51.49    7.50
  -6  -8  17   58.99    6.90
   6  -8 -17   54.59    6.50
  -6   8  17   64.79    6.90
   5  -8 -17   19.20    6.10
  -5  -8  17   28.00    5.10
   5  -8 -17   25.10    5.80
  -5   8  17   25.50    4.80
  -4  -8  17    2.70    2.80
   4  -8 -17    1.90    3.30
  -4   8  17   -0.30    2.50
   4   8 -17    0.30    2.00
   3  -8 -17   19.90    5.10
   3   8 -17   17.80    3.50
  -3   8  17   17.00    4.30
   2  -8 -17   34.40    6.30
   2   8 -17   27.50    4.40
  -2   8  17   24.60    5.00
   1  -8 -17   35.40    6.60
   1   8 -17   38.50    5.10
  -1   8  17   32.40    5.60
   0  -8 -17    5.20    3.90
   0   8  17    1.40    3.10
   0   8 -17    0.80    2.90
  -1  -8 -17    9.10    4.20
  -1   8 -17    5.30    3.50
   1   8  17    4.50    3.60
  -2  -8 -17   27.20    6.00
   2   8  17   29.60    5.70
  -2   8 -17   31.80    5.50
  -3  -8 -17   25.70    5.80
  -3   8 -17   18.20    4.50
   3   8  17   24.60    5.70
  -4  -8 -17   34.40    6.60
   4  -8  17   40.90    5.20
   4   8  17   31.00    6.10
  -4   8 -17   41.10    6.40
   5   8  17   16.50    5.30
  -5   8 -17    9.30    4.30
 -10  -9  17    8.70    4.20
  10  -9 -17   14.20    4.80
  -9  -9  17   -0.20    3.10
   9  -9 -17    0.60    3.00
   8  -9 -17   14.40    4.40
   8  -9 -17   13.40    5.00
  -8  -9  17   12.20    4.30
   7  -9 -17   -0.60    3.30
  -7  -9  17    4.60    3.00
   7  -9 -17   -3.70    2.50
  -7   9  17    0.40    2.50
  -6  -9  17    3.80    3.00
   6  -9 -17    2.40    2.90
   6  -9 -17    3.20    4.00
  -6   9  17    3.60    3.00
   5  -9 -17    4.30    4.20
  -5  -9  17    6.30    3.30
  -5   9  17   10.60    3.90
  -4  -9  17   64.19    6.90
   4  -9 -17   48.00    7.60
  -4   9  17   61.99    7.10
   4   9 -17   64.19    5.80
   3  -9 -17   20.10    5.50
  -3   9  17   27.60    5.30
   3   9 -17   25.00    4.20
   2  -9 -17    2.70    3.90
   2   9 -17    5.60    3.00
  -2   9  17    7.40    3.70
   1  -9 -17   -3.20    3.40
  -1   9  17   -2.50    2.30
   1   9 -17   -1.60    2.50
   0  -9 -17   11.30    4.80
   0   9 -17   10.80    3.50
   0   9  17   13.10    4.50
  -1  -9 -17    2.10    3.80
   1   9  17    3.30    3.40
  -1   9 -17    8.60    3.50
  -2  -9 -17    5.80    4.50
  -2   9 -17    4.80    3.30
   2   9  17    9.00    4.50
  -3   9 -17   26.90    5.20
   3   9  17   22.80    5.60
   7 -10 -17  101.99    9.80
  -7 -10  17   90.09    8.80
  -7  10  17  100.39    8.50
  -6 -10  17   -0.60    2.90
  -6  10  17   -1.20    2.40
  -5  10  17    8.40    3.50
  -4  10  17    5.90    3.50
  -3  10  17   15.00    4.20
   3  10 -17   14.90    3.80
  -2  10  17   15.40    4.30
   2  10 -17   15.40    3.70
   1  10 -17   28.50    4.80
  -1  10  17   22.10    5.00
   0  10  17    9.50    4.10
   0  10 -17    5.60    3.40
   1  10  17   -0.30    3.10
  -1  10 -17    6.90    3.50
 -15   0  18   -3.00    3.30
 -14   0  18   -6.90    2.90
 -13   0  18    1.70    3.70
 -12   0  18   70.39    8.70
 -11   0  18    1.30    3.40
 -10   0  18   52.29    7.40
   9   0 -18   -1.70    2.30
  -9   0  18   -0.60    3.10
  -8   0  18   99.69    9.60
   8   0 -18  105.19    7.40
   7   0 -18    3.30    2.20
   7   0 -18    0.00    2.10
  -7   0  18    0.00    3.30
   6   0 -18   32.50    4.50
   6   0 -18   22.30    3.80
  -5   0  18   -0.10    2.40
   5   0 -18   -2.20    1.90
   5   0 -18    1.00    2.00
  -4   0  18   27.50    4.90
   4   0 -18   23.80    4.00
   4   0 -18   18.80    3.90
   3   0 -18   -2.90    2.10
  -3   0  18   -0.50    1.90
   3   0 -18    3.80    2.60
  -2   0  18    6.70    3.30
   2   0 -18    9.00    3.40
   2   0 -18    9.50    3.00
   1   0 -18    2.10    2.30
   1   0 -18    5.70    3.10
  -1   0  18    5.40    2.70
   0   0 -18   16.70    4.30
   0   0  18   11.90    3.90
   0   0 -18   21.60    4.00
  -1   0 -18    1.60    2.20
   1   0  18    0.50    2.70
  -1   0 -18   -0.90    2.90
   2   0  18    3.30    3.40
  -2   0 -18   10.20    3.90
  -2   0 -18   10.40    3.00
   3   0  18   -0.80    2.90
  -3   0 -18   -1.40    1.90
  -3   0 -18   -1.70    2.60
  -4   0 -18   26.80    4.60
  -4   0 -18   21.80    5.50
   4   0  18   17.70    4.80
  -5   0 -18    0.60    2.40
   5   0  18   -1.90    2.80
  -5   0 -18   -5.00    2.80
  -6   0 -18   42.70    5.70
  -6   0 -18   29.50    6.20
   6   0  18   46.00    7.10
  -7   0 -18    1.00    3.60
   7   0  18    4.40    3.80
  -7   0 -18   -2.20    2.50
  -8   0 -18  101.99    8.80
  -8   0 -18   86.29   10.40
   8   0  18   77.79    9.10
 -15  -1  18   46.80    7.70
 -15   1  18   58.69    8.30
 -14  -1  18    3.00    3.20
 -14   1  18    1.10    3.20
 -13  -1  18    6.20    4.20
 -13   1  18    0.70    3.50
 -12  -1  18   99.69   10.10
 -12   1  18   97.39   10.10
 -11  -1  18   54.39    7.50
 -11   1  18   56.09    7.70
 -10  -1  18   50.69    7.30
 -10   1  18   48.30    7.20
  -9  -1  18    3.50    3.50
   9  -1 -18   -0.30    2.60
  -9   1  18    3.40    3.30
   9   1 -18    0.20    2.10
   8  -1 -18   16.90    3.90
   8  -1 -18   17.90    3.80
  -8  -1  18   21.60    4.70
  -8   1  18   26.80    5.30
   8   1 -18   27.90    4.30
  -7  -1  18   16.70    4.60
   7  -1 -18   13.90    3.70
   7  -1 -18   22.50    3.80
   7   1 -18   13.60    3.10
   7   1 -18   14.90    3.40
   6  -1 -18    0.80    2.00
   6  -1 -18    4.40    2.50
  -6   1  18    7.30    3.40
   6   1 -18    5.50    2.60
   6   1 -18    5.10    2.50
   5  -1 -18   14.00    3.40
   5  -1 -18   17.10    3.90
  -5   1  18   10.90    3.70
   5   1 -18   11.50    2.90
   5   1 -18    9.90    3.00
  -4  -1  18   11.50    3.30
   4  -1 -18   16.60    3.90
   4  -1 -18    9.50    3.20
   4   1 -18   14.20    3.30
  -4   1  18   16.00    4.00
   4   1 -18   20.90    4.00
  -3  -1  18  248.28   12.10
   3  -1 -18  246.88   12.30
   3  -1 -18  260.77   12.00
   3   1 -18  236.48   10.80
   3   1 -18  254.37   12.10
  -3   1  18  241.18   12.40
   2  -1 -18   20.90    4.50
  -2  -1  18   30.00    5.10
   2  -1 -18   26.90    4.50
   2   1 -18   18.60    4.30
  -2   1  18   18.50    4.40
   2   1 -18   15.70    3.30
   1  -1 -18   24.20    4.30
  -1  -1  18   20.60    4.50
   1  -1 -18   23.30    5.20
  -1   1  18   22.50    4.60
   1   1 -18   30.80    5.20
   1   1 -18   19.80    3.50
   0  -1  18   21.30    4.70
   0  -1 -18   19.10    4.60
   0  -1 -18   19.40    4.20
   0   1  18   28.30    5.20
   0   1 -18   25.90    3.90
   0   1 -18   23.40    5.10
   1  -1  18    4.00    3.40
  -1  -1 -18    4.70    3.40
  -1  -1 -18   10.80    3.50
  -1   1 -18    6.00    2.60
  -1   1 -18    7.60    3.50
   1   1  18    5.00    3.50
   2  -1  18    4.70    3.40
  -2  -1 -18    5.30    3.00
  -2  -1 -18    4.10    3.40
  -2   1 -18    1.10    3.30
   2   1  18    2.50    2.90
  -2   1 -18    5.20    2.60
   3  -1  18   -2.10    2.90
  -3  -1 -18    1.80    3.30
  -3  -1 -18   -1.80    2.20
   3   1  18   -0.30    2.80
  -3   1 -18    2.70    2.20
  -3   1 -18    1.00    3.00
  -4  -1 -18    6.20    3.30
   4  -1  18    3.20    3.50
  -4  -1 -18    5.10    3.80
   4   1  18    4.10    3.40
  -4   1 -18   12.30    3.30
  -4   1 -18    2.50    3.40
  -5  -1 -18  124.49    8.60
  -5  -1 -18  146.49   11.00
   5  -1  18  116.89   10.40
   5   1  18  132.39    9.90
  -5   1 -18  127.89   11.60
  -5   1 -18  123.49    9.20
  -6  -1 -18    9.20    4.80
  -6  -1 -18   12.90    4.00
   6  -1  18   11.20    4.30
   6   1  18   14.30    5.00
  -6   1 -18   19.80    5.40
  -7  -1 -18   19.80    5.60
  -7  -1 -18   20.60    4.70
  -7   1 -18    9.60    4.50
   7   1  18   22.30    5.50
  -8  -1 -18   31.70    6.80
  -8  -1 -18   30.20    5.60
   8  -1  18   27.10    5.90
   8   1  18   37.00    6.60
  -8   1 -18   25.90    6.40
  15  -2 -18   -5.70    3.20
 -15  -2  18   -0.40    3.70
 -15   2  18    2.30    3.80
 -14  -2  18   23.00    6.00
  14  -2 -18   34.70    6.80
 -14   2  18   37.50    6.80
  13  -2 -18    2.80    3.50
 -13  -2  18    8.70    4.50
 -13   2  18    6.80    4.30
 -12  -2  18   82.59    9.30
  12  -2 -18   78.09    9.00
 -12   2  18  103.69   10.30
  11  -2 -18    0.90    3.40
 -11  -2  18    0.60    3.30
 -11   2  18    3.70    3.70
  10  -2 -18    9.80    4.20
 -10  -2  18   11.70    4.40
 -10   2  18   11.60    4.40
  -9  -2  18    2.40    2.90
   9  -2 -18    4.80    3.30
   9  -2 -18    5.50    3.20
  -9   2  18    3.10    2.80
   8  -2 -18   30.60    5.00
   8  -2 -18   29.60    4.20
  -8  -2  18   24.40    5.40
   8  -2 -18   40.10    5.60
   7  -2 -18    4.00    2.40
   7  -2 -18    1.30    2.60
  -7  -2  18    2.60    3.30
   7  -2 -18    3.30    3.00
   6  -2 -18  110.99    7.60
  -6  -2  18  139.89    9.50
   6  -2 -18  123.89    8.30
   6  -2 -18  119.39    7.70
  -6   2  18  103.89    8.00
   6   2 -18  119.09    7.00
   5  -2 -18    2.20    2.20
   5  -2 -18    1.70    2.30
   5  -2 -18   -0.10    2.40
   5   2 -18    0.20    1.90
  -5   2  18    2.60    2.80
   4  -2 -18  176.38    9.90
  -4  -2  18  170.38    9.90
   4  -2 -18  161.08    8.60
   4  -2 -18  169.38    9.90
   4   2 -18  170.48    9.20
  -4   2  18  176.48   10.20
  -3  -2  18   19.70    4.30
   3  -2 -18   29.30    5.10
   3  -2 -18   32.20    5.30
  -3   2  18   30.10    5.20
   3   2 -18   27.40    4.60
   2  -2 -18   77.79    7.70
   2  -2 -18   92.99    8.70
  -2  -2  18   94.59    8.40
   2   2 -18  101.59    7.30
  -2   2  18   92.49    8.70
   1  -2 -18    4.10    2.80
  -1  -2  18    5.20    3.10
   1  -2 -18    1.40    2.80
  -1   2  18    9.70    3.30
   1   2 -18    4.60    3.00
   0  -2  18   43.20    5.90
   0  -2 -18   51.99    6.80
   0  -2 -18   50.39    6.10
   0   2  18   52.79    6.90
   0   2 -18   39.60    5.90
  -1  -2 -18   15.40    3.80
   1  -2  18   11.80    4.10
  -1  -2 -18    6.90    3.70
   1   2  18   11.70    4.10
  -1   2 -18    4.80    3.20
  -2  -2 -18   99.49    9.70
  -2  -2 -18   84.19    8.00
   2  -2  18  104.19    9.30
   2   2  18   96.89    9.20
  -2   2 -18   93.29    9.10
  -3  -2 -18    3.80    3.00
  -3  -2 -18    5.40    3.60
   3  -2  18    3.40    3.40
  -3   2 -18   -1.00    3.20
   3   2  18    2.20    3.30
  -4  -2 -18   22.20    5.50
   4  -2  18   20.70    4.90
  -4  -2 -18   21.80    4.80
   4   2  18   21.30    5.30
  -4   2 -18   10.20    4.40
   5  -2  18   -2.00    2.80
  -5  -2 -18   -1.50    2.80
  -5  -2 -18   -3.70    2.90
   5   2  18   -1.10    3.30
  -5   2 -18    1.50    3.40
  -6  -2 -18    1.50    3.80
   6  -2  18    1.60    3.40
  -6  -2 -18    5.10    3.20
  -6   2 -18    2.90    3.60
   6   2  18    6.70    4.10
   7  -2  18   41.90    6.70
  -7  -2 -18   25.40    5.20
  -7  -2 -18   33.40    6.90
  -7   2 -18   35.90    7.00
   7   2  18   27.30    6.00
  -8  -2 -18   17.60    5.80
  -8   2 -18   10.40    5.00
 -14  -3  18    5.00    4.00
  14  -3 -18   -5.40    2.70
 -14   3  18    2.50    3.70
 -13  -3  18   55.99    8.10
  13  -3 -18   57.99    8.20
 -13   3  18   50.09    7.70
  12  -3 -18   27.00    5.90
 -12  -3  18   11.80    4.80
 -12   3  18   17.20    5.20
  11  -3 -18   79.19    8.90
 -11  -3  18   72.09    8.60
 -11   3  18   75.49    8.80
 -10  -3  18    6.40    3.80
  10  -3 -18    8.10    4.00
  10  -3 -18   12.30    4.00
 -10   3  18    7.70    4.20
   9  -3 -18    2.30    2.80
  -9  -3  18   -0.20    3.10
   9  -3 -18   -1.50    2.50
   8  -3 -18   30.20    5.40
  -8  -3  18   42.10    6.40
   8  -3 -18   26.30    5.10
  -7  -3  18   11.70    4.30
   7  -3 -18   10.90    3.60
   7  -3 -18   11.30    3.50
   6  -3 -18   18.10    4.20
  -6  -3  18   14.00    4.30
   6  -3 -18   18.90    3.90
   6   3 -18   16.30    3.00
  -6   3  18   24.70    4.60
   5  -3 -18    1.90    2.30
   5  -3 -18    0.90    2.90
   5   3 -18    0.80    2.10
  -5   3  18    0.40    2.70
   4  -3 -18   79.49    6.20
   4  -3 -18   88.29    8.20
  -4   3  18   74.79    7.70
   4   3 -18   87.39    6.50
   3  -3 -18   74.09    7.60
  -3  -3  18   69.69    7.20
   3   3 -18   69.39    6.70
  -3   3  18   80.49    7.90
  -2  -3  18   17.80    4.20
   2  -3 -18   19.50    4.50
   2   3 -18   14.80    3.90
  -2   3  18   18.60    4.50
   1  -3 -18    6.60    3.40
  -1  -3  18    9.30    3.50
  -1   3  18    7.50    3.50
   1   3 -18    8.00    3.20
   0  -3 -18    1.90    2.80
   0  -3  18   -0.40    2.80
   0   3  18    1.60    3.00
   0   3 -18    1.60    2.80
  -1  -3 -18    5.20    3.20
   1  -3  18    2.00    3.00
  -1  -3 -18    5.30    3.50
  -1   3 -18   -3.80    2.70
   1   3  18    6.30    3.50
   2  -3  18   11.20    3.80
  -2  -3 -18   16.60    4.20
  -2  -3 -18   13.60    4.60
  -2   3 -18   18.00    4.50
   2   3  18    8.30    3.90
   3  -3  18   20.60    4.80
  -3  -3 -18   12.20    4.00
  -3  -3 -18   21.20    5.50
   3   3  18   17.00    4.60
  -3   3 -18    9.80    4.00
  -4  -3 -18    2.10    3.10
  -4  -3 -18   11.70    4.00
   4  -3  18    5.00    3.40
   4   3  18   14.90    4.50
  -4   3 -18    7.00    4.00
  -5  -3 -18   42.20    6.20
  -5  -3 -18   23.60    5.70
   5  -3  18   27.40    5.40
  -5   3 -18   33.50    6.40
   5   3  18   28.30    6.00
   6  -3  18   14.80    4.40
  -6  -3 -18   13.00    5.40
  -6  -3 -18    8.40    4.20
  -6   3 -18   17.20    5.10
   6   3  18   11.40    4.60
   7  -3  18    0.80    3.50
  -7  -3 -18   -0.40    3.80
  -7  -3 -18    0.00    3.10
  -7   3 -18   -4.10    3.50
   7   3  18   -1.00    3.40
 -14  -4  18    4.10    4.30
  14  -4 -18    7.60    4.20
 -14   4  18    1.20    3.70
 -13  -4  18    2.00    3.70
  13  -4 -18    0.00    3.30
 -13   4  18   -2.30    3.20
 -12  -4  18   -1.60    3.20
  12  -4 -18   11.30    4.50
 -12   4  18   11.60    4.30
 -11  -4  18  167.88   11.30
  11  -4 -18  156.18   10.90
  10  -4 -18    1.70    3.30
 -10  -4  18    4.00    3.60
  10  -4 -18   -0.60    3.10
   9  -4 -18    3.00    3.00
   9  -4 -18    3.40    3.00
  -9  -4  18   -1.30    3.00
   8  -4 -18   23.00    5.00
  -8  -4  18   19.40    4.80
   8  -4 -18   19.20    4.20
   7  -4 -18   -0.30    2.90
  -7  -4  18   -0.90    2.80
   7  -4 -18    3.70    2.80
  -7   4  18   -2.10    2.50
   6  -4 -18   20.80    4.60
   6  -4 -18   25.40    4.50
  -6  -4  18   30.00    5.40
  -6   4  18   32.70    5.20
   5  -4 -18    4.40    3.00
  -5  -4  18   -1.60    2.70
   5  -4 -18   -0.60    2.00
   5   4 -18    2.90    2.10
  -5   4  18    3.20    3.20
   4  -4 -18   19.20    4.40
  -4   4  18   18.00    4.30
   4   4 -18   18.60    3.60
   3  -4 -18  101.29    9.10
   3   4 -18  103.79    7.10
  -3   4  18   88.79    8.40
  -2  -4  18    9.30    3.40
   2  -4 -18    5.40    3.60
  -2   4  18    2.60    3.20
   2   4 -18    7.70    3.10
  -1  -4  18    9.10    3.70
   1  -4 -18   10.40    3.80
  -1   4  18   15.80    4.50
   1   4 -18   13.40    3.60
   0  -4  18   78.89    7.70
   0  -4 -18   96.59    8.80
   0   4 -18   74.49    7.70
   0   4  18   73.99    8.00
   1  -4  18   48.20    6.40
  -1  -4 -18   50.19    6.60
  -1   4 -18   50.29    6.70
   1   4  18   39.60    6.40
   2  -4  18    7.80    3.60
  -2  -4 -18   -0.10    3.10
   2   4  18   -0.40    3.20
  -2   4 -18    4.40    3.30
  -3  -4 -18    0.50    2.70
   3  -4  18    5.60    3.40
   3   4  18    5.80    3.90
  -3   4 -18    3.60    3.20
  -4  -4 -18    3.40    3.90
  -4  -4 -18    4.10    3.40
   4  -4  18    8.80    3.70
   4   4  18   12.30    4.60
  -4   4 -18   12.60    4.60
  -5  -4 -18    1.10    3.70
  -5  -4 -18    1.70    3.20
   5  -4  18   -4.50    2.60
   5   4  18   -1.90    3.10
  -5   4 -18    1.40    3.40
  -6  -4 -18   70.99    8.50
   6  -4  18   81.29    8.40
  -6  -4 -18   80.49    9.90
   6   4  18   78.99    9.10
  -6   4 -18   77.69    9.20
   7  -4  18   19.60    4.90
  -7  -4 -18   16.00    4.90
  -7  -4 -18   22.00    6.20
   7   4  18   13.80    5.00
  -7   4 -18   16.90    5.20
 -13  -5  18   10.40    4.70
  13  -5 -18    8.30    4.10
 -13   5  18    6.00    4.00
  12  -5 -18   52.69    8.10
 -12  -5  18   62.69    8.40
  11  -5 -18   23.80    5.40
 -11  -5  18   22.30    5.40
 -10  -5  18    0.30    3.10
  10  -5 -18    1.00    3.50
  10  -5 -18    2.60    3.60
   9  -5 -18   18.70    5.00
  -9  -5  18   27.30    5.50
   9  -5 -18   17.60    4.70
  -8  -5  18   26.20    5.30
   8  -5 -18   22.10    4.70
   8  -5 -18   15.10    4.40
   7  -5 -18   85.49    8.80
  -7  -5  18   73.29    8.10
   7  -5 -18   77.19    7.60
  -7   5  18   59.69    6.90
   6  -5 -18    7.10    3.10
   6  -5 -18    9.10    3.60
  -6  -5  18    6.80    3.50
  -6   5  18    5.10    3.20
   5  -5 -18   17.90    4.80
   5  -5 -18   18.50    4.30
  -5  -5  18   20.60    4.60
  -5   5  18   12.30    3.90
   5   5 -18   20.70    3.50
   4  -5 -18   64.19    7.50
   4   5 -18   56.89    5.80
  -4   5  18   67.09    7.40
   3  -5 -18   36.50    6.00
   3   5 -18   29.70    4.40
  -3   5  18   37.50    5.80
   2  -5 -18   23.10    5.20
  -2   5  18   31.40    5.60
   2   5 -18   24.40    4.40
  -1  -5  18   16.80    4.10
   1  -5 -18   22.60    5.10
   1   5 -18   14.00    4.00
  -1   5  18   14.40    4.30
   0  -5 -18   30.80    5.60
   0  -5  18   32.30    5.10
   0   5  18   44.70    6.40
   0   5 -18   49.50    6.20
  -1  -5 -18  105.29    9.80
   1  -5  18  118.79    8.30
   1   5  18  122.39   10.50
  -1   5 -18  124.59    8.70
  -2  -5 -18    9.30    3.80
   2  -5  18   13.70    3.90
  -2   5 -18    9.60    4.00
   2   5  18   16.30    4.90
  -3  -5 -18   20.50    5.00
   3  -5  18   28.10    4.90
  -3   5 -18   23.60    5.10
   4  -5  18   10.20    3.80
  -4  -5 -18   10.90    4.00
   4   5  18    8.20    4.30
  -4   5 -18    6.30    3.80
   5  -5  18    0.00    2.70
  -5  -5 -18    3.50    3.50
  -5   5 -18    3.90    3.80
   5   5  18   -0.60    3.40
   6  -5  18    6.00    3.80
  -6  -5 -18    3.80    3.90
  -6  -5 -18    1.20    4.30
   6   5  18   11.40    4.60
  -6   5 -18   11.40    4.60
 -12  -6  18   66.59    8.50
  12  -6 -18   67.29    8.90
  11  -6 -18    1.50    3.50
 -11  -6  18    1.50    3.40
  11  -6 -18   -0.90    3.30
 -10  -6  18    7.50    4.00
  10  -6 -18    2.50    3.80
  10  -6 -18   14.10    4.70
   9  -6 -18    7.50    3.90
  -9  -6  18    5.00    3.60
   9  -6 -18    3.70    3.30
   8  -6 -18   29.90    5.80
  -8  -6  18   26.30    5.30
   8  -6 -18   22.10    4.80
  -7  -6  18   24.20    5.10
   7  -6 -18   10.20    4.40
   7  -6 -18   21.00    4.50
  -7   6  18   15.50    4.10
   6  -6 -18   10.10    3.40
   6  -6 -18    3.60    3.50
  -6  -6  18   10.00    3.80
  -6   6  18   14.20    4.00
   5  -6 -18   -0.90    3.20
  -5  -6  18   11.80    3.70
   5   6 -18   12.30    3.20
  -5   6  18    6.20    3.40
   4  -6 -18   18.00    4.90
  -4   6  18   25.70    5.00
   4   6 -18   16.10    3.40
   3  -6 -18   33.00    5.90
   3   6 -18   44.50    5.20
  -3   6  18   40.30    6.00
   2  -6 -18    4.30    3.80
   2   6 -18    6.90    2.80
  -2   6  18    4.80    3.50
   1  -6 -18    2.20    3.50
  -1   6  18    8.00    3.70
   1   6 -18    1.50    2.60
   0  -6 -18    8.80    4.00
   0   6 -18   14.00    3.90
   0   6  18    9.40    3.90
  -1  -6 -18    0.20    3.00
   1  -6  18   -0.50    2.50
  -1   6 -18   -1.00    2.70
   1   6  18   -1.10    2.90
  -2  -6 -18   24.60    5.60
  -2   6 -18   30.70    5.40
   2   6  18   31.80    6.20
   3  -6  18    9.90    3.70
  -3  -6 -18    5.40    3.80
  -3   6 -18    5.90    3.50
   3   6  18    7.50    4.10
   4  -6  18   -1.10    2.90
  -4  -6 -18   -3.90    2.70
  -4   6 -18    2.30    3.30
   4   6  18    3.00    3.90
   5  -6  18   42.40    6.00
  -5  -6 -18   47.60    7.00
   5   6  18   42.50    7.10
  -5   6 -18   35.80    6.30
 -11  -7  18   21.00    5.40
  11  -7 -18   12.10    4.60
  11  -7 -18   11.40    7.10
  10  -7 -18   10.90    4.20
  10  -7 -18   16.40    5.10
 -10  -7  18   16.00    4.80
   9  -7 -18    8.10    4.20
  -9  -7  18   17.40    4.90
   9  -7 -18   24.20    5.60
   8  -7 -18   15.60    4.50
   8  -7 -18   18.90    5.10
  -8  -7  18   11.70    4.40
   7  -7 -18    8.10    3.50
   7  -7 -18   11.20    4.40
  -7  -7  18    6.30    3.70
  -7   7  18    6.90    3.40
   6  -7 -18    8.30    3.90
   6  -7 -18   -0.60    2.50
  -6  -7  18   -2.00    2.80
  -6   7  18    0.30    2.50
   5  -7 -18   36.90    6.30
  -5  -7  18   32.70    5.70
  -5   7  18   41.90    5.90
   4  -7 -18    3.90    3.20
  -4   7  18    2.50    3.10
   4   7 -18    4.50    2.40
   3  -7 -18   18.30    4.80
  -3   7  18   11.90    4.20
   3   7 -18   12.30    3.20
   2  -7 -18    1.50    3.00
  -2   7  18   -6.30    2.80
   2   7 -18   -1.70    2.20
   1  -7 -18   19.60    5.00
   1   7 -18   20.10    4.20
  -1   7  18   15.20    4.50
   0  -7 -18   13.60    4.60
   0   7  18   18.70    4.90
   0   7 -18    7.40    3.70
  -1  -7 -18   -0.30    3.30
   1   7  18    9.10    4.30
  -1   7 -18    1.90    3.10
   2  -7  18    9.20    3.60
  -2  -7 -18    9.00    4.20
  -2   7 -18   11.80    4.10
   2   7  18    7.70    4.10
  -3  -7 -18    4.60    3.70
   3  -7  18   -2.30    2.80
  -3   7 -18    6.70    3.80
   3   7  18   -2.20    3.20
  -4  -7 -18    6.30    4.40
   4  -7  18    7.30    3.60
  -4   7 -18   10.90    3.90
   4   7  18    3.20    4.10
 -10  -8  18    5.90    3.80
  10  -8 -18    6.80    3.90
  -9  -8  18   28.70    5.70
   9  -8 -18   27.00    5.70
   9  -8 -18   35.10    7.80
   8  -8 -18   15.40    5.10
   8  -8 -18   16.60    4.60
  -8  -8  18   26.50    5.50
   7  -8 -18    2.00    3.10
  -7  -8  18   -3.30    2.40
   7  -8 -18   -0.50    3.30
  -7   8  18   -6.00    2.00
  -6  -8  18    0.10    2.80
   6  -8 -18   -1.30    3.30
  -6   8  18    1.80    3.00
  -5  -8  18   19.30    4.70
   5  -8 -18   15.90    4.90
  -5   8  18   19.50    4.70
   4  -8 -18    5.60    3.80
  -4   8  18    5.20    3.20
   4   8 -18    6.00    3.80
   3  -8 -18    1.90    3.40
  -3   8  18   12.90    4.40
   3   8 -18   10.70    3.10
   2  -8 -18   55.59    7.90
  -2   8  18   65.39    7.90
   2   8 -18   53.49    5.90
   1  -8 -18   -1.50    3.20
  -1   8  18   -2.30    2.70
   1   8 -18    1.40    2.70
   0  -8 -18   -0.40    3.00
   0   8  18    1.80    3.40
   0   8 -18    6.50    3.40
  -1  -8 -18   -1.70    3.40
   1   8  18    6.60    4.10
  -1   8 -18    3.10    3.20
   2   8  18  110.39   10.40
  -2   8 -18  121.59    9.20
  -3   8 -18   87.29    8.90
   3   8  18   76.89    8.90
  -7  -9  18   35.30    5.90
  -7   9  18   34.00    5.50
  -6  -9  18   -1.10    2.90
  -6   9  18    0.00    2.80
  -5  -9  18   21.90    4.90
  -5   9  18   22.60    4.70
  -4   9  18    2.40    3.00
   3   9 -18    8.20    3.20
  -3   9  18    8.70    3.90
  -2   9  18    8.20    3.80
   2   9 -18    7.50    3.00
  -1   9  18   24.90    5.50
   1   9 -18   17.60    4.10
   0   9  18   21.90    5.00
   0   9 -18   12.10    3.90
 -14   0  19    3.80    4.30
 -13   0  19   -2.70    3.50
 -12   0  19   -2.40    3.30
 -11   0  19   12.40    4.70
 -10   0  19   -1.60    2.40
  10   0 -19   -3.00    1.80
   9   0 -19    2.00    2.60
  -9   0  19   -3.10    2.10
   8   0 -19    0.70    2.50
  -8   0  19    1.90    3.40
   7   0 -19    0.80    2.50
   6   0 -19    0.80    2.30
   6   0 -19   -3.50    1.70
   5   0 -19   15.10    3.80
   5   0 -19   22.50    3.90
  -5   0  19   18.40    4.40
  -4   0  19   -4.60    2.40
   4   0 -19    0.40    2.30
   4   0 -19   -1.90    2.10
   3   0 -19   -0.60    2.30
  -3   0  19    0.10    2.80
   3   0 -19   -0.30    2.10
  -2   0  19    6.80    3.40
   2   0 -19    1.90    2.50
   2   0 -19    1.00    2.30
  -1   0  19   -2.50    2.70
   1   0 -19    4.00    3.20
   1   0 -19   -1.10    2.10
   0   0 -19    7.00    3.80
   0   0  19   -0.30    2.70
   0   0 -19    3.40    2.60
  -1   0 -19   -0.40    2.90
  -1   0 -19    1.00    2.30
   1   0  19    7.20    3.80
   2   0  19   -2.00    2.90
  -2   0 -19   -1.30    2.70
  -2   0 -19    3.10    2.70
   3   0  19   87.59    9.10
  -3   0 -19   86.09    7.70
  -3   0 -19   86.59    9.50
   4   0  19    0.10    3.20
  -4   0 -19    2.90    3.90
  -4   0 -19    3.00    2.90
   5   0  19   10.00    4.30
  -5   0 -19    7.80    4.20
   6   0  19   -9.10    2.40
  -6   0 -19    3.10    3.70
 -14  -1  19   60.89    8.50
 -14   1  19  100.29   10.70
 -13  -1  19    5.40    3.70
 -13   1  19    7.70    4.70
 -12  -1  19   20.40    5.70
 -12   1  19   22.20    5.90
 -11  -1  19    6.30    4.30
 -11   1  19   13.50    4.80
 -10  -1  19   26.00    5.80
  10  -1 -19   17.40    4.30
 -10   1  19   20.90    5.10
   9  -1 -19   -1.70    2.20
  -9  -1  19    1.50    3.60
  -9   1  19    2.20    2.90
   8  -1 -19    2.70    2.80
  -8  -1  19   -0.10    3.20
   7  -1 -19   15.40    3.90
   7  -1 -19   24.60    4.10
  -7  -1  19   26.50    5.40
   6  -1 -19   21.90    4.40
   6  -1 -19   11.10    3.30
   6   1 -19   20.40    3.70
   6   1 -19   33.50    6.80
   5  -1 -19   11.80    3.50
   5  -1 -19    9.50    3.30
   5   1 -19   11.20    3.10
  -5   1  19   19.10    4.30
   4  -1 -19   -1.70    2.40
   4  -1 -19   -0.90    2.30
  -4  -1  19    4.40    3.30
   4   1 -19    3.30    2.60
  -4   1  19    1.40    3.00
  -3  -1  19   17.20    4.30
   3  -1 -19   20.60    4.30
   3  -1 -19   30.00    4.70
   3   1 -19   18.80    4.00
  -3   1  19   22.10    4.80
  -2  -1  19   92.39    8.60
   2  -1 -19   73.69    7.20
   2  -1 -19   77.59    7.90
   2   1 -19   87.39    8.10
  -2   1  19   71.09    7.80
   1  -1 -19   26.10    5.30
   1  -1 -19   19.20    4.30
  -1  -1  19   21.80    4.90
   1   1 -19   23.60    4.90
  -1   1  19   19.10    4.70
   0  -1 -19    1.50    3.00
   0  -1  19    2.60    3.00
   0  -1 -19    2.50    2.60
   0   1  19   -0.80    3.20
   0   1 -19    3.80    3.20
  -1  -1 -19    4.00    3.00
  -1  -1 -19    4.80    3.40
   1  -1  19    4.10    3.50
  -1   1 -19    6.00    3.90
   1   1  19    7.00    3.70
  -2  -1 -19    0.20    3.10
  -2  -1 -19    3.50    2.90
   2  -1  19    0.80    3.20
   2   1  19    5.90    3.90
  -2   1 -19   -0.20    3.20
   3  -1  19    7.10    3.90
  -3  -1 -19    2.00    2.90
  -3  -1 -19   -2.80    2.90
  -3   1 -19   -3.30    3.40
   3   1  19    4.50    3.60
  -4  -1 -19    2.60    2.90
  -4  -1 -19    2.30    3.40
   4  -1  19    0.30    3.40
   4   1  19    5.00    3.70
  -4   1 -19    0.40    3.30
   5  -1  19    2.30    3.50
  -5  -1 -19    4.40    3.30
  -5  -1 -19   10.40    4.50
  -5   1 -19    0.90    3.70
   5   1  19   -2.70    3.10
   6  -1  19   92.59    9.70
  -6  -1 -19   80.99    8.30
  -6  -1 -19   68.89    9.40
  -6   1 -19   82.29    9.80
   6   1  19   94.09    9.90
  13  -2 -19   68.79    9.00
 -13  -2  19   71.79    9.30
 -13   2  19   79.09    9.50
 -12  -2  19   10.90    4.40
  12  -2 -19    3.80    3.70
 -12   2  19   11.30    4.80
  11  -2 -19    6.10    3.30
  11  -2 -19    7.10    3.80
 -11  -2  19   14.90    5.10
 -11   2  19   12.50    4.80
 -10  -2  19   27.90    5.90
  10  -2 -19   35.40    6.10
  10  -2 -19   22.80    5.10
 -10   2  19   25.30    5.80
   9  -2 -19   -0.80    2.60
  -9  -2  19    0.40    3.40
   9  -2 -19    0.20    2.60
   8  -2 -19    2.10    2.90
   8  -2 -19    3.50    3.00
  -8  -2  19    1.60    2.60
  -7  -2  19   16.20    4.80
   7  -2 -19   15.70    4.10
   7  -2 -19   13.50    4.00
   7  -2 -19   20.40    3.90
   6  -2 -19    3.40    2.60
   6  -2 -19    2.30    2.70
   6  -2 -19   -2.10    2.40
  -6   2  19    1.50    2.80
   6   2 -19   -0.90    2.00
   5  -2 -19    9.50    3.40
   5  -2 -19   11.90    3.70
   5  -2 -19    6.50    3.10
  -5   2  19    9.10    3.70
   5   2 -19    7.60    2.90
  -4  -2  19   42.50    6.00
   4  -2 -19   34.30    5.20
   4  -2 -19   40.20    5.80
   4   2 -19   46.40    5.50
  -4   2  19   49.80    6.50
   3  -2 -19    1.70    2.60
   3  -2 -19    2.60    2.70
  -3  -2  19    2.10    2.70
   3   2 -19   -1.50    2.40
  -3   2  19    0.80    3.00
   2  -2 -19   26.90    5.50
  -2  -2  19   27.60    5.00
   2  -2 -19   35.10    5.40
  -2   2  19   43.80    6.20
   2   2 -19   36.50    5.40
   1  -2 -19   32.50    5.80
   1  -2 -19   35.70    5.40
  -1  -2  19   42.00    6.10
  -1   2  19   35.90    6.00
   1   2 -19   34.40    5.30
   0  -2 -19   16.20    4.70
   0  -2  19   24.90    5.10
   0  -2 -19   16.50    4.10
   0   2 -19   28.10    5.30
   0   2  19   26.60    5.30
  -1  -2 -19   19.50    4.30
  -1  -2 -19   26.00    5.50
   1  -2  19   37.20    6.00
  -1   2 -19   22.40    5.00
   1   2  19   12.20    4.50
   2  -2  19   69.19    7.70
  -2  -2 -19   47.10    7.20
  -2  -2 -19   55.99    6.70
  -2   2 -19   55.59    7.30
   2   2  19   59.39    7.70
  -3  -2 -19    1.20    3.00
   3  -2  19    4.50    3.60
  -3  -2 -19    6.50    3.90
  -3   2 -19    2.10    3.80
   3   2  19    6.10    3.90
  -4  -2 -19    6.50    4.10
  -4  -2 -19    2.70    2.90
   4  -2  19    5.80    3.90
   4   2  19    5.10    3.70
  -4   2 -19    4.90    3.60
  -5  -2 -19    6.80    3.80
   5  -2  19    6.90    3.70
  -5  -2 -19    4.90    4.20
  -5   2 -19    7.80    4.40
   5   2  19    3.30    3.90
  -6  -2 -19    1.40    2.90
   6  -2  19    4.50    3.60
  -6  -2 -19    3.50    4.20
   6   2  19    9.90    4.60
  -6   2 -19    4.00    4.00
  13  -3 -19    5.30    4.10
 -13  -3  19    0.10    3.90
 -13   3  19   -0.30    3.70
 -12  -3  19   -0.70    3.60
  12  -3 -19    4.30    3.90
 -12   3  19    2.30    3.60
  11  -3 -19    3.30    3.50
  11  -3 -19    0.30    3.30
 -11  -3  19    1.20    3.60
 -11   3  19    7.80    4.20
  10  -3 -19   30.40    5.80
 -10  -3  19   37.70    6.70
  10  -3 -19   37.10    6.00
   9  -3 -19    0.70    2.80
   9  -3 -19   -2.10    2.40
  -9  -3  19    0.20    3.30
   8  -3 -19    4.20    2.90
  -8  -3  19    4.10    3.80
   8  -3 -19    0.60    2.80
   7  -3 -19    2.10    3.00
   7  -3 -19   -0.20    2.40
  -7  -3  19   -1.00    3.10
  -6  -3  19    2.40    3.40
   6  -3 -19    2.80    2.90
   6  -3 -19   -0.50    2.10
  -6   3  19    0.40    2.90
   5  -3 -19   18.30    4.40
   5   3 -19   13.90    3.30
  -5   3  19   13.70    4.20
   4  -3 -19    6.20    3.10
  -4   3  19    6.30    3.60
   4   3 -19    6.20    2.80
  -3  -3  19   23.40    4.70
   3  -3 -19   20.60    4.40
  -3   3  19   22.80    5.00
   3   3 -19   16.30    3.90
  -2  -3  19  143.89    9.50
   2  -3 -19  162.98   10.20
  -2   3  19  157.98   10.20
   2   3 -19  151.88    9.50
   1  -3 -19   38.20    5.80
  -1  -3  19   48.80    6.40
   1  -3 -19   39.50    6.20
  -1   3  19   41.00    6.40
   1   3 -19   40.60    5.90
   0  -3  19   53.89    6.70
   0  -3 -19   39.90    6.60
   0  -3 -19   55.59    6.70
   0   3  19   42.10    6.50
   0   3 -19   51.79    6.80
  -1  -3 -19   81.89    8.20
  -1  -3 -19   64.89    8.30
   1  -3  19   81.19    8.10
  -1   3 -19   71.79    8.20
   1   3  19   83.79    8.80
   2  -3  19   29.70    5.60
  -2  -3 -19   32.50    5.60
  -2  -3 -19   31.30    6.10
   2   3  19   33.90    6.20
  -2   3 -19   32.80    6.00
  -3  -3 -19    1.80    3.40
  -3  -3 -19   -2.80    3.60
   3  -3  19    3.60    3.60
  -3   3 -19    5.10    3.70
   3   3  19    3.20    3.60
  -4  -3 -19   67.79    8.80
   4  -3  19   50.59    7.00
  -4  -3 -19   49.30    6.70
  -4   3 -19   51.39    7.40
   4   3  19   61.09    8.10
   5  -3  19    7.10    4.00
  -5  -3 -19    3.00    4.10
  -5  -3 -19    3.30    3.60
  -5   3 -19    1.70    3.60
   5   3  19    1.70    3.70
 -12  -4  19   21.20    5.70
  12  -4 -19   14.80    4.80
 -11  -4  19    2.70    3.90
  11  -4 -19    4.80    3.90
  11  -4 -19    4.80    3.50
 -10  -4  19    7.90    4.10
  10  -4 -19    2.80    3.20
  10  -4 -19    1.80    3.30
   9  -4 -19   23.90    5.20
  -9  -4  19   27.80    5.70
   9  -4 -19   22.10    5.10
  -8  -4  19   46.00    7.00
   8  -4 -19   41.70    6.20
   8  -4 -19   30.80    5.70
  -7  -4  19   10.10    4.40
   7  -4 -19   15.30    4.40
   7  -4 -19    7.30    3.30
   6  -4 -19   37.60    6.10
  -6  -4  19   44.20    6.50
   6  -4 -19   37.00    5.50
  -6   4  19   56.19    6.80
   5  -4 -19   24.90    5.20
  -5   4  19   23.60    4.80
   5   4 -19   17.70    3.50
   4  -4 -19   10.50    4.00
  -4   4  19   12.20    4.20
   4   4 -19   12.20    3.30
   3  -4 -19   42.60    6.20
   3   4 -19   33.20    4.90
  -3   4  19   41.70    6.20
  -2  -4  19   31.50    5.30
   2  -4 -19   24.70    5.20
  -2   4  19   33.30    5.80
   2   4 -19   27.80    4.90
   1  -4 -19   -1.40    2.50
  -1  -4  19   -1.30    2.60
   1   4 -19    5.60    3.00
  -1   4  19    0.10    3.10
   0  -4 -19   17.90    4.60
   0  -4  19   19.40    4.50
   0   4  19   14.20    4.40
   0   4 -19   17.60    4.50
   1  -4  19   12.00    4.20
  -1  -4 -19    6.90    3.80
  -1   4 -19    9.80    3.90
   1   4  19    6.70    3.90
   2  -4  19    7.30    3.50
  -2  -4 -19    8.80    3.80
  -2  -4 -19    4.30    3.70
   2   4  19    1.80    3.50
  -2   4 -19    9.70    4.00
  -3  -4 -19   45.50    6.80
   3  -4  19   49.00    6.50
  -3  -4 -19   40.70    7.10
   3   4  19   41.80    7.00
  -3   4 -19   41.60    6.60
  -4  -4 -19    9.80    4.10
   4  -4  19   10.40    4.00
  -4  -4 -19    5.60    4.20
   4   4  19    4.10    4.00
  -4   4 -19   11.70    4.30
  -5  -4 -19    5.50    4.00
  -5  -4 -19    4.30    4.60
   5  -4  19    5.20    3.70
   5   4  19   -0.50    3.80
  -5   4 -19   11.50    4.20
  12  -5 -19    0.30    3.70
 -12  -5  19    0.40    3.80
  11  -5 -19   30.60    6.00
  11  -5 -19   34.70    6.40
 -11  -5  19   36.50    6.60
  10  -5 -19   16.20    4.80
 -10  -5  19   14.30    4.70
  10  -5 -19   14.50    4.40
  -9  -5  19   20.00    5.00
   9  -5 -19   11.90    4.40
   9  -5 -19   19.80    4.90
  -8  -5  19    3.40    3.40
   8  -5 -19    0.10    2.60
   8  -5 -19    1.90    3.00
   7  -5 -19   -1.00    2.30
   7  -5 -19   -0.40    3.30
  -7  -5  19    0.80    3.20
  -7   5  19   -2.80    2.70
  -6  -5  19   52.79    7.00
   6  -5 -19   36.00    6.30
  -6   5  19   38.90    5.90
   5  -5 -19   26.30    5.50
  -5   5  19   21.80    4.70
   4  -5 -19    2.30    3.10
   4   5 -19   -2.30    1.80
  -4   5  19   -0.30    2.90
   3  -5 -19   -0.30    3.10
  -3   5  19    1.40    3.10
   3   5 -19   -3.20    1.90
   2  -5 -19   39.50    6.40
  -2   5  19   41.50    6.50
   2   5 -19   35.40    5.20
  -1  -5  19   30.50    5.20
   1  -5 -19   41.00    6.40
  -1   5  19   40.00    6.30
   1   5 -19   46.00    6.00
   0  -5 -19   23.10    5.20
   0  -5  19   24.80    4.90
   0   5 -19   18.50    4.40
   0   5  19   12.10    4.40
   1  -5  19   21.20    4.70
  -1  -5 -19   21.20    5.30
   1   5  19   12.90    4.70
  -1   5 -19   12.00    4.10
   2  -5  19   10.60    4.10
  -2  -5 -19    4.30    3.60
   2   5  19    3.40    4.00
  -2   5 -19   11.40    4.40
   3  -5  19   -5.30    2.80
  -3  -5 -19   -2.70    3.00
   3   5  19    3.70    3.80
  -3   5 -19    1.70    3.10
  -4  -5 -19    9.50    4.60
   4  -5  19    9.60    4.10
  -4  -5 -19    5.40    3.80
   4   5  19   10.30    4.50
  -4   5 -19    7.90    4.30
  11  -6 -19   15.40    5.10
 -11  -6  19   11.70    4.60
  11  -6 -19    8.00    4.80
  10  -6 -19   45.00    7.10
 -10  -6  19   39.10    6.80
  10  -6 -19   47.10    7.10
   9  -6 -19   26.70    5.70
   9  -6 -19   28.00    5.60
  -9  -6  19   29.10    5.80
   8  -6 -19   13.90    4.30
   8  -6 -19    9.40    4.10
  -8  -6  19   13.90    4.50
  -7  -6  19    4.90    3.50
   7  -6 -19    3.90    3.60
  -7   6  19    9.80    4.10
  -6  -6  19   23.00    4.90
   6  -6 -19   22.20    5.40
  -6   6  19   25.70    5.00
   5  -6 -19   23.40    5.40
  -5   6  19   27.20    5.20
   4  -6 -19    2.10    3.20
  -4   6  19    3.30    3.20
   4   6 -19   -1.70    2.10
   3  -6 -19   47.00    7.00
   3   6 -19   49.10    5.80
  -3   6  19   41.90    6.50
   2  -6 -19   34.20    6.20
   2   6 -19   37.70    5.10
  -2   6  19   54.39    7.20
   1  -6 -19   33.70    6.20
  -1   6  19   44.10    6.70
   1   6 -19   24.90    4.70
   0  -6 -19    2.40    3.60
   0   6  19   -2.50    3.10
   0   6 -19    0.10    2.70
   1  -6  19   52.09    6.50
  -1  -6 -19   40.30    6.70
   1   6  19   60.29    7.90
  -1   6 -19   50.89    6.70
  -2  -6 -19    6.40    4.10
   2  -6  19    5.80    3.30
   2   6  19    4.80    4.00
  -2   6 -19    9.40    3.90
   3  -6  19    3.50    3.10
  -3  -6 -19   -2.10    3.30
   3   6  19    7.60    4.20
  -3   6 -19    6.80    4.00
   9  -7 -19    1.00    3.60
   9  -7 -19    1.80    3.50
  -9  -7  19    6.60    4.10
   8  -7 -19    4.70    3.50
   8  -7 -19   10.20    4.60
  -8  -7  19   18.50    4.80
   7  -7 -19   56.39    7.90
  -7  -7  19   73.19    8.40
  -7   7  19   72.49    7.80
  -6  -7  19    0.30    2.90
   6  -7 -19   -4.20    2.60
  -6   7  19    2.60    3.20
   5  -7 -19    1.80    3.70
  -5   7  19    2.70    3.40
   4  -7 -19   11.00    4.70
  -4   7  19   15.60    4.60
   3  -7 -19   35.40    6.30
   3   7 -19   34.40    4.90
  -3   7  19   29.30    5.60
   2  -7 -19    9.30    4.30
   2   7 -19    7.80    3.30
  -2   7  19    3.80    3.80
   1  -7 -19   44.80    7.20
   1   7 -19   39.50    5.70
  -1   7  19   49.40    6.90
   0  -7 -19    6.90    4.10
   0   7 -19   -0.60    2.80
   0   7  19    3.50    3.60
  -1  -7 -19    5.00    3.70
   1   7  19    8.20    4.20
  -1   7 -19    1.90    3.20
  -2   7 -19   34.00    5.60
   2   7  19   47.80    7.30
  -7  -8  19   10.40    4.10
  -7   8  19    2.30    3.30
  -6  -8  19   20.90    4.80
  -6   8  19   17.60    4.60
  -5   8  19    3.60    3.30
   4  -8 -19    2.90    3.70
  -4   8  19   -0.90    2.80
   3  -8 -19    3.40    4.40
  -3   8  19   11.90    4.30
   3   8 -19   11.30    4.20
  -2   8  19   16.10    4.70
   2   8 -19   13.30    3.60
  -1   8  19    2.60    3.40
   1   8 -19    5.00    3.20
 -12   0  20   26.40    6.20
 -11   0  20    0.00    3.70
 -10   0  20   19.90    5.70
  -9   0  20   -1.90    3.50
   6   0 -20    2.20    2.50
   5   0 -20    5.00    2.90
  -5   0  20    2.40    3.10
   4   0 -20  264.27   12.90
  -4   0  20  258.47   13.30
  -3   0  20   -0.50    3.10
   3   0 -20   -3.00    2.50
  -2   0  20   44.40    6.50
   2   0 -20   37.50    5.90
   1   0 -20    2.80    2.90
  -1   0  20   -1.60    2.70
   0   0 -20   40.00    6.40
   0   0  20   36.90    6.20
  -1   0 -20   -4.30    2.80
   1   0  20    3.00    3.40
  -2   0 -20   10.50    4.40
   2   0  20   14.30    4.70
   3   0  20   -0.50    3.20
  -3   0 -20    1.80    3.40
   4   0  20   35.40    6.30
  -4   0 -20   40.70    7.10
  12  -1 -20   -0.30    2.90
 -12  -1  20   -4.70    3.40
 -12   1  20   -4.30    3.40
 -11  -1  20   33.30    6.70
  11  -1 -20   34.70    5.60
 -11   1  20   44.10    7.40
  10  -1 -20   58.89    7.00
 -10  -1  20   79.89    9.40
 -10   1  20   57.39    8.20
   9  -1 -20    1.70    3.00
  -9  -1  20    3.20    4.10
   8  -1 -20    0.50    2.30
  -8  -1  20   -0.50    2.70
   7  -1 -20   -2.30    2.40
   6  -1 -20   10.20    3.50
   6  -1 -20   17.90    3.70
   5  -1 -20   36.70    5.40
   5  -1 -20   49.40    6.10
  -5   1  20   36.70    6.00
   5   1 -20   52.89    6.00
  -4  -1  20    6.20    3.40
   4  -1 -20    9.20    3.30
   4  -1 -20    6.30    3.30
   4   1 -20    0.00    2.50
  -4   1  20    7.20    3.30
   3  -1 -20    3.40    2.80
  -3  -1  20    6.60    3.60
   3  -1 -20    1.70    2.50
  -3   1  20    8.80    3.90
   3   1 -20    0.10    2.80
   2  -1 -20   13.40    3.90
   2  -1 -20   13.90    4.20
  -2  -1  20   19.00    4.70
   2   1 -20    7.80    3.60
  -2   1  20    3.30    3.40
   1  -1 -20   43.00    6.50
   1  -1 -20   29.50    4.90
  -1  -1  20   34.20    5.80
  -1   1  20   33.40    6.00
   1   1 -20   33.00    5.70
   0  -1 -20    0.40    3.40
   0  -1  20    0.80    3.20
   0  -1 -20    1.00    2.70
   0   1 -20   -5.10    2.80
   0   1  20    4.70    3.90
   1  -1  20   -2.80    2.80
  -1  -1 -20   -5.30    3.00
  -1  -1 -20    0.60    2.50
  -1   1 -20    5.10    3.60
   1   1  20   -0.90    3.00
  -2  -1 -20    4.80    3.70
  -2  -1 -20    0.80    2.60
   2  -1  20   -3.80    3.10
  -2   1 -20    3.70    3.70
   2   1  20   -3.40    3.20
  -3  -1 -20   11.20    4.60
   3  -1  20   19.90    5.30
  -3  -1 -20   20.20    4.50
  -3   1 -20    9.00    4.20
   3   1  20   19.20    5.10
  -4  -1 -20    5.30    4.10
   4  -1  20    2.10    3.50
   4   1  20    1.00    3.60
  -4   1 -20   -1.50    3.60
 -12  -2  20    3.00    4.10
  12  -2 -20    2.40    3.80
  12  -2 -20   -0.80    3.10
 -12   2  20    7.40    4.60
  11  -2 -20    2.40    3.30
 -11  -2  20    2.80    4.00
  11  -2 -20    1.80    3.10
 -11   2  20    0.60    3.60
 -10  -2  20   16.00    5.20
  10  -2 -20   22.60    4.80
  10  -2 -20   26.10    5.50
  -9  -2  20    5.00    3.70
   9  -2 -20    1.50    2.50
   9  -2 -20   -1.20    2.80
   8  -2 -20   16.60    4.30
   8  -2 -20   15.40    4.20
  -8  -2  20    7.90    4.40
   7  -2 -20    1.80    3.00
   7  -2 -20    2.30    2.70
   6  -2 -20   65.39    7.10
   6  -2 -20   59.29    6.60
  -6   2  20   58.79    7.30
   5  -2 -20   61.09    6.90
   5  -2 -20   46.50    6.00
  -5   2  20   51.39    6.90
   5   2 -20   55.49    6.00
   4  -2 -20   10.10    3.60
   4  -2 -20    8.60    3.50
   4   2 -20   13.70    3.70
  -4   2  20   15.20    4.60
   3  -2 -20    5.10    3.10
  -3  -2  20   -1.60    2.60
   3  -2 -20    4.50    3.00
  -3   2  20   -2.40    3.00
   3   2 -20   -1.40    2.40
   2  -2 -20   14.50    4.40
  -2  -2  20   18.30    4.60
   2  -2 -20   19.70    4.50
  -2   2  20   16.60    4.70
   2   2 -20   17.30    4.10
   1  -2 -20   13.10    4.40
  -1  -2  20    4.50    3.50
   1  -2 -20   14.80    4.20
  -1   2  20   21.70    5.10
   1   2 -20    7.90    3.70
   0  -2  20    9.80    4.00
   0  -2 -20    8.60    4.00
   0  -2 -20   16.80    4.30
   0   2  20   13.40    4.70
   0   2 -20   13.20    4.20
   1  -2  20    2.80    3.40
  -1  -2 -20    2.00    2.80
  -1  -2 -20    4.80    3.90
  -1   2 -20   -1.10    3.10
   1   2  20   12.80    4.60
  -2  -2 -20   -1.40    2.80
  -2  -2 -20   -4.90    2.40
   2  -2  20   -5.00    2.60
  -2   2 -20    1.90    3.10
   2   2  20    4.90    3.80
  -3  -2 -20   12.00    4.60
   3  -2  20   16.90    4.70
  -3  -2 -20    9.40    3.80
  -3   2 -20    8.00    4.20
   3   2  20   11.00    4.40
   4  -2  20   29.50    6.00
  -4  -2 -20   26.00    5.40
  -4  -2 -20   36.70    7.00
  -4   2 -20   36.90    6.70
   4   2  20   29.90    6.10
  11  -3 -20   15.00    4.90
  11  -3 -20   20.50    5.20
 -11  -3  20   22.70    5.60
  10  -3 -20   11.80    4.20
  10  -3 -20    4.20    3.50
 -10  -3  20    9.70    4.40
  -9  -3  20    1.20    3.50
   9  -3 -20    2.00    3.30
   9  -3 -20    1.00    2.70
   8  -3 -20    2.10    3.00
  -8  -3  20   -1.00    3.10
   8  -3 -20    6.20    3.40
  -7  -3  20    3.70    3.80
   7  -3 -20   -0.10    2.50
   7  -3 -20    5.80    3.50
   6  -3 -20    3.70    2.90
   6  -3 -20    3.50    3.10
  -6   3  20   -1.40    2.80
   5  -3 -20   80.29    8.20
   5  -3 -20   79.19    8.10
  -5   3  20   70.19    7.90
   4  -3 -20    0.20    2.60
   4  -3 -20    1.70    3.00
   4   3 -20    4.70    2.70
  -4   3  20    3.80    3.30
   3  -3 -20    3.60    3.30
   3  -3 -20    2.90    3.10
   3   3 -20    1.30    2.40
  -3   3  20    0.80    3.20
  -2  -3  20   -2.10    2.80
   2  -3 -20    4.20    3.10
   2  -3 -20    4.90    3.30
   2   3 -20   -0.30    2.80
  -2   3  20   -0.60    3.00
   1  -3 -20   39.40    6.70
  -1  -3  20   40.90    6.30
   1  -3 -20   36.50    6.00
   1   3 -20   45.40    6.50
  -1   3  20   43.10    6.70
   0  -3 -20    9.00    3.90
   0  -3 -20   12.70    4.40
   0  -3  20    9.30    3.90
   0   3 -20   19.70    4.90
   0   3  20   11.40    4.40
  -1  -3 -20    3.00    3.00
  -1  -3 -20   -1.70    3.00
   1  -3  20    3.10    3.40
   1   3  20   -4.90    2.70
  -1   3 -20   -0.80    3.40
   2  -3  20    8.60    3.90
  -2  -3 -20    4.60    3.80
  -2  -3 -20    3.50    3.80
  -2   3 -20    8.90    4.50
   2   3  20    6.50    3.90
  -3  -3 -20   20.00    5.70
   3  -3  20   22.10    5.20
  -3  -3 -20   11.20    4.20
  -3   3 -20   15.90    5.00
   3   3  20   19.80    5.40
  10  -4 -20   16.60    4.90
 -10  -4  20   11.60    4.80
  10  -4 -20   13.20    4.90
  -9  -4  20    1.50    3.40
   9  -4 -20    7.00    3.70
   9  -4 -20    5.30    3.60
   8  -4 -20   25.20    5.40
   8  -4 -20   25.80    5.20
  -8  -4  20   34.10    6.30
  -7  -4  20   29.70    5.90
   7  -4 -20   18.60    5.00
   6  -4 -20   49.30    7.10
  -6   4  20   45.80    6.40
   5  -4 -20    8.50    4.10
  -5   4  20    1.60    3.30
   4  -4 -20   35.20    5.90
  -4   4  20   28.50    5.60
   4   4 -20   31.60    4.70
   3   4 -20    1.10    2.50
  -3   4  20   -0.90    3.10
   2  -4 -20  101.39    9.60
   2   4 -20   94.29    8.50
  -2   4  20   93.59    9.60
   1  -4 -20   66.59    8.00
  -1  -4  20   66.29    7.40
   1   4 -20   68.69    7.70
  -1   4  20   61.99    7.90
   0  -4 -20   95.49   10.00
   0  -4 -20  102.59    9.70
   0  -4  20  102.99    9.40
   0   4 -20  117.79    8.80
   0   4  20  101.69   10.10
   1  -4  20   38.70    6.20
  -1  -4 -20   41.00    7.10
  -1  -4 -20   38.30    6.40
  -1   4 -20   52.89    7.00
   1   4  20   47.10    7.20
  -2  -4 -20    2.50    3.60
  -2  -4 -20    0.70    3.00
   2  -4  20   -2.20    2.80
   2   4  20   -2.20    3.30
  -2   4 -20   -0.90    2.90
  -3  -4 -20    3.30    3.80
   3   4  20    6.20    4.30
  -3   4 -20    0.00    3.10
  -9  -5  20    0.20    3.20
   9  -5 -20    0.60    2.70
   9  -5 -20    2.50    3.30
  -8  -5  20   -0.10    3.30
   8  -5 -20    5.60    3.80
  -7  -5  20    2.90    3.40
   7  -5 -20    2.30    3.30
   6  -5 -20    1.10    3.10
  -6   5  20    1.50    3.10
   5  -5 -20   38.00    6.40
  -5   5  20   23.10    5.00
   4  -5 -20    4.60    3.70
  -4   5  20    4.30    3.60
   3  -5 -20    1.30    3.20
  -3   5  20    0.30    3.10
   3   5 -20   -0.40    2.40
   2  -5 -20   -1.80    2.70
  -2   5  20    2.80    3.50
   2   5 -20   12.10    4.00
   1  -5 -20   43.90    6.90
  -1   5  20   42.50    7.00
   1   5 -20   49.80    6.70
   0  -5 -20    8.90    4.20
   0  -5  20    6.70    3.70
   0   5 -20   -0.10    2.90
   0   5  20    2.70    3.60
   1  -5  20    0.00    3.10
  -1  -5 -20    0.60    2.90
  -1   5 -20    4.20    3.50
   1   5  20    3.90    3.90
   8  -6 -20   22.70    5.40
  -8  -6  20   11.80    4.50
  -7  -6  20   68.59    8.20
   7  -6 -20   54.89    7.80
  -7   6  20   69.79    7.60
   6  -6 -20    1.00    3.60
  -6   6  20    4.60    3.60
   5  -6 -20   -3.90    2.90
  -5   6  20    1.20    3.20
   4  -6 -20   -1.30    3.20
  -4   6  20   -4.00    2.70
   3  -6 -20   13.60    4.60
   3   6 -20   10.60    3.50
  -3   6  20    6.80    4.10
   2  -6 -20   -1.80    2.90
   2   6 -20   -2.00    2.40
  -2   6  20   -1.00    2.60
   1  -6 -20   11.80    4.60
   1   6 -20   15.40    4.10
  -1   6  20    8.40    4.30
   0  -6 -20   47.40    7.30
   0   6  20   33.60    6.40
   0   6 -20   45.30    6.50
 -10   0  21    4.30    4.20
   5   0 -21   33.20    5.20
  -4   0  21   -1.90    2.90
   4   0 -21    0.20    2.60
   3   0 -21   12.50    4.10
  -3   0  21   28.00    5.50
  -2   0  21   -1.30    3.10
   2   0 -21    3.20    3.30
   1   0 -21    0.10    3.20
  -1   0  21    3.60    3.50
   0   0 -21   -0.50    2.80
   0   0  21   -2.50    2.90
  -1   0 -21   -0.60    3.10
   1   0  21   -2.70    3.00
 -10  -1  21    2.30    3.80
  10  -1 -21   -1.00    3.10
   9  -1 -21   29.90    5.70
   8  -1 -21   15.50    4.20
   5  -1 -21   39.20    5.70
  -5   1  21   45.70    6.50
   4  -1 -21   46.20    6.30
  -4  -1  21   50.09    7.00
  -4   1  21   46.30    6.80
   4   1 -21   30.90    5.40
   3  -1 -21    4.50    3.10
  -3  -1  21    4.60    3.40
  -3   1  21    0.70    3.30
   3   1 -21    2.80    3.00
   2  -1 -21   -1.20    2.70
  -2  -1  21    8.60    4.10
  -2   1  21    1.50    3.40
   2   1 -21    1.70    2.90
   1  -1 -21   21.70    5.20
  -1  -1  21   19.00    5.00
   1   1 -21   33.50    5.80
  -1   1  21   27.40    5.60
   0  -1 -21   29.80    5.90
   0  -1  21   23.20    5.30
   0   1 -21   25.50    5.50
   0   1  21   26.60    5.60
   1  -1  21    4.80    3.70
  -1  -1 -21   -5.80    3.10
  -1   1 -21    2.80    3.50
   1   1  21    6.70    3.90
   9  -2 -21   -2.90    2.60
   9  -2 -21    0.10    3.00
  -9  -2  21   -2.70    3.00
   8  -2 -21   51.49    6.90
   7  -2 -21    8.20    3.40
   6  -2 -21    5.30    3.30
   6  -2 -21    4.20    3.80
   5  -2 -21    1.00    2.70
   5  -2 -21   -0.60    2.40
  -5   2  21   -1.50    3.00
   4  -2 -21    3.60    3.40
   4  -2 -21    7.40    3.60
   4   2 -21    6.20    3.20
  -4   2  21   10.00    4.20
  -3  -2  21  103.89    9.60
   3  -2 -21  102.79    9.10
  -3   2  21  100.99    9.70
   3   2 -21   97.69    8.80
   2  -2 -21   -1.60    2.70
  -2  -2  21    2.10    3.20
   2  -2 -21   -1.10    2.60
  -2   2  21   -1.40    3.30
   2   2 -21    2.70    3.20
   1  -2 -21   18.90    4.60
  -1  -2  21   13.30    4.50
   1  -2 -21   12.90    4.60
  -1   2  21   11.70    4.60
   1   2 -21   16.30    4.60
   0  -2  21   -2.90    3.00
   0  -2 -21    3.50    3.20
   0  -2 -21    3.60    3.60
   0   2  21    0.40    3.40
   0   2 -21    2.20    3.20
  -1  -2 -21   14.80    4.80
  -1  -2 -21    9.70    3.90
   1  -2  21   14.20    4.70
   1   2  21   10.90    4.50
  -1   2 -21   22.60    5.30
   9  -3 -21   67.29    9.70
   8  -3 -21   83.99    8.70
  -8  -3  21   81.49    9.30
   7  -3 -21   15.40    4.50
   6  -3 -21    5.30    3.60
   6  -3 -21   12.10    3.70
  -6   3  21    6.00    3.80
   5  -3 -21    5.40    3.30
   5  -3 -21   -0.80    2.40
  -5   3  21   -1.20    3.10
   4  -3 -21   65.29    7.70
   4  -3 -21   50.09    7.00
  -4   3  21   74.69    8.40
   4   3 -21   60.69    9.20
   3  -3 -21   37.60    6.10
   3  -3 -21   38.40    6.60
  -3   3  21   39.50    6.50
   3   3 -21   29.10    4.90
  -2  -3  21    2.70    3.50
   2  -3 -21    1.40    3.10
   2  -3 -21   -3.10    2.70
  -2   3  21   -0.40    3.50
   2   3 -21   -1.30    2.70
   1  -3 -21    8.20    4.20
  -1  -3  21   12.10    4.30
   1  -3 -21   12.30    4.10
  -1   3  21    8.60    4.20
   1   3 -21   11.10    4.00
   0  -3  21   30.70    5.90
   0  -3 -21   32.90    6.60
   0  -3 -21   21.30    5.10
   0   3 -21   17.80    5.20
   0   3  21   31.30    6.30
   7  -4 -21    5.40    3.60
   6  -4 -21   17.90    4.90
  -6   4  21   18.40    4.90
   5  -4 -21   47.30    6.70
  -5   4  21   35.60    6.30
   4  -4 -21   38.40    6.50
  -4   4  21   23.70    5.40
   3  -4 -21    6.80    3.70
   3  -4 -21   16.80    4.70
   3   4 -21    3.30    3.00
  -3   4  21   11.00    4.20
   2  -4 -21   95.79    9.80
   2  -4 -21   87.89    9.30
  -2   4  21   79.79    9.00
   2   4 -21   84.59    8.10
   1  -4 -21    6.70    4.20
  -1  -4  21    4.50    3.70
   1  -4 -21    2.40    3.70
  -1   4  21    0.70    3.50
   1   4 -21    4.20    3.30

_computing_structure_solution     'SHELXT 2014/4 (Sheldrick, 2014)'
;
_shelx_hkl_checksum              33249
loop_
_space_group_symop_operation_xyz
'x, y, z'
'-x+1/2, y+1/2, -z+1/2'
'-x, -y, -z'
'x-1/2, -y-1/2, z-1/2'
loop_
_atom_site_label
_atom_site_type_symbol
_atom_site_fract_x
_atom_site_fract_y
_atom_site_fract_z
_atom_site_U_iso_or_equiv
_atom_site_adp_type
_atom_site_occupancy
_atom_site_site_symmetry_order
_atom_site_calc_flag
_atom_site_refinement_flags_posn
_atom_site_refinement_flags_adp
P1 P 0.62129(3) 0.51201(3) 0.35411(3) 0.01295(9) Uani 1 1 d . .
Cl1 Cl 0.36159(4) 0.78896(5) 0.28995(3) 0.03972(14) Uani 1 1 d . .
Cl2 Cl 0.50354(5) 0.92677(5) 0.36654(4) 0.0595(2) Uani 1 1 d . .
F1 F 0.52792(6) 0.57250(7) 0.33733(6) 0.0157(2) Uani 1 1 d . .
F2 F 0.71413(6) 0.45387(8) 0.36754(6) 0.0169(2) Uani 1 1 d . .
F3 F 0.35088(7) 0.23817(9) 0.25504(7) 0.0290(3) Uani 1 1 d . .
F4 F 0.89403(7) 0.70852(9) 0.52140(7) 0.0312(3) Uani 1 1 d . .
F5 F 0.57514(7) 0.79482(9) 0.09596(7) 0.0311(3) Uani 1 1 d . .
F6 F 0.61181(8) 0.14116(9) 0.18131(8) 0.0338(3) Uani 1 1 d . .
F7 F 0.63999(7) 0.88499(10) 0.54643(8) 0.0342(3) Uani 1 1 d . .
F8 F 0.79385(8) 0.53986(10) 0.11404(8) 0.0379(3) Uani 1 1 d . .
N1 N 0.59696(9) 0.46706(11) 0.24617(8) 0.0144(3) Uani 1 1 d . .
N2 N 0.63868(9) 0.54349(11) 0.46320(8) 0.0151(3) Uani 1 1 d . .
N3 N 0.57199(9) 0.39491(11) 0.38575(8) 0.0156(3) Uani 1 1 d . .
N4 N 0.67102(9) 0.63624(11) 0.33395(8) 0.0145(3) Uani 1 1 d . .
C1 C 0.68204(10) 0.67304(13) 0.25703(10) 0.0157(3) Uani 1 1 d . .
C2 C 0.68038(10) 0.62389(13) 0.51247(10) 0.0159(3) Uani 1 1 d . .
C3 C 0.57046(11) 0.38512(13) 0.46866(10) 0.0167(3) Uani 1 1 d . .
C4 C 0.61585(10) 0.52086(13) 0.17837(10) 0.0150(3) Uani 1 1 d . .
C5 C 0.65810(11) 0.61784(13) 0.18328(10) 0.0156(3) Uani 1 1 d . .
C6 C 0.61045(11) 0.47116(13) 0.51392(10) 0.0159(3) Uani 1 1 d . .
C7 C 0.67775(11) 0.59992(14) 0.59596(10) 0.0176(3) Uani 1 1 d . .
H7 H 0.7019 0.6418 0.6431 0.021 Uiso 1 1 calc R U
C8 C 0.53417(11) 0.30581(13) 0.34570(11) 0.0175(3) Uani 1 1 d . .
C9 C 0.63416(11) 0.50560(14) 0.59718(10) 0.0177(3) Uani 1 1 d . .
H9 H 0.6223 0.4705 0.6447 0.021 Uiso 1 1 calc R U
C10 C 0.55410(11) 0.37288(13) 0.21414(10) 0.0160(3) Uani 1 1 d . .
C11 C 0.54578(11) 0.37269(13) 0.12688(10) 0.0181(3) Uani 1 1 d . .
H11 H 0.5185 0.3191 0.0900 0.022 Uiso 1 1 calc R U
C12 C 0.76431(11) 0.79207(14) 0.53226(10) 0.0194(4) Uani 1 1 d . .
C13 C 0.68177(11) 0.66310(13) 0.10744(10) 0.0174(3) Uani 1 1 d . .
C14 C 0.72213(11) 0.77445(14) 0.26692(11) 0.0187(3) Uani 1 1 d . .
H14 H 0.7361 0.8171 0.2240 0.022 Uiso 1 1 calc R U
C15 C 0.71456(11) 0.70937(13) 0.47728(10) 0.0169(3) Uani 1 1 d . .
C16 C 0.70716(11) 0.71428(13) 0.39206(10) 0.0164(3) Uani 1 1 d . .
C17 C 0.73685(11) 0.79921(14) 0.34867(11) 0.0196(4) Uani 1 1 d . .
H17 H 0.7627 0.8628 0.3730 0.024 Uiso 1 1 calc R U
C18 C 0.58346(11) 0.46248(13) 0.10469(10) 0.0175(3) Uani 1 1 d . .
H18 H 0.5873 0.4824 0.0499 0.021 Uiso 1 1 calc R U
C19 C 0.53030(11) 0.28907(14) 0.48186(11) 0.0196(4) Uani 1 1 d . .
H19 H 0.5200 0.2634 0.5332 0.024 Uiso 1 1 calc R U
C20 C 0.48409(12) 0.19534(13) 0.22047(10) 0.0190(4) Uani 1 1 d . .
C21 C 0.52502(11) 0.29419(13) 0.26044(11) 0.0174(3) Uani 1 1 d . .
C22 C 0.50874(12) 0.23936(14) 0.40605(11) 0.0200(4) Uani 1 1 d . .
H22 H 0.4815 0.1721 0.3958 0.024 Uiso 1 1 calc R U
C23 C 0.64081(12) 0.75091(15) 0.06602(11) 0.0212(4) Uani 1 1 d . .
C24 C 0.72695(12) 0.87486(15) 0.56716(11) 0.0235(4) Uani 1 1 d . .
C25 C 0.85406(12) 0.78780(15) 0.55416(11) 0.0229(4) Uani 1 1 d . .
C26 C 0.74991(12) 0.62325(15) 0.07532(12) 0.0236(4) Uani 1 1 d . .
C27 C 0.39902(12) 0.16813(15) 0.22176(11) 0.0220(4) Uani 1 1 d . .
C28 C 0.52849(13) 0.12130(14) 0.18298(12) 0.0235(4) Uani 1 1 d . .
C29 C 0.36009(13) 0.07510(15) 0.18973(11) 0.0263(4) Uani 1 1 d . .
H29 H 0.3023 0.0592 0.1936 0.032 Uiso 1 1 calc R U
C30 C 0.40734(14) 0.00536(15) 0.15178(12) 0.0297(5) Uani 1 1 d . .
H30 H 0.3813 -0.0586 0.1282 0.036 Uiso 1 1 calc R U
C31 C 0.73179(13) 0.75196(17) -0.03178(11) 0.0298(5) Uani 1 1 d . .
H31 H 0.7485 0.7819 -0.0791 0.036 Uiso 1 1 calc R U
C32 C 0.77578(13) 0.66518(16) 0.00679(12) 0.0278(4) Uani 1 1 d . .
H32 H 0.8226 0.6350 -0.0132 0.033 Uiso 1 1 calc R U
C33 C 0.66376(13) 0.79609(16) -0.00272(12) 0.0282(4) Uani 1 1 d . .
H33 H 0.6336 0.8560 -0.0293 0.034 Uiso 1 1 calc R U
C34 C 0.77326(14) 0.94814(16) 0.62147(12) 0.0287(4) Uani 1 1 d . .
H34 H 0.7446 1.0032 0.6446 0.034 Uiso 1 1 calc R U
C35 C 0.49230(14) 0.02775(14) 0.14775(12) 0.0284(4) Uani 1 1 d . .
H35 H 0.5248 -0.0199 0.1215 0.034 Uiso 1 1 calc R U
C36 C 0.90360(13) 0.85878(16) 0.60750(12) 0.0291(4) Uani 1 1 d . .
H36 H 0.9648 0.8526 0.6208 0.035 Uiso 1 1 calc R U
C37 C 0.86238(14) 0.93888(17) 0.64107(12) 0.0312(5) Uani 1 1 d . .
H37 H 0.8955 0.9883 0.6781 0.037 Uiso 1 1 calc R U
C38 C 0.47231(15) 0.81900(18) 0.29959(15) 0.0388(5) Uani 1 1 d . .
H38A H 0.5073 0.7561 0.3212 0.047 Uiso 1 1 calc R U
H38B H 0.4838 0.8359 0.2441 0.047 Uiso 1 1 calc R U
loop_
_atom_site_aniso_label
_atom_site_aniso_U_11
_atom_site_aniso_U_22
_atom_site_aniso_U_33
_atom_site_aniso_U_23
_atom_site_aniso_U_13
_atom_site_aniso_U_12
P1 0.0136(2) 0.01027(19) 0.01494(19) 0.00061(15) 0.00285(15) -0.00015(16)
Cl1 0.0465(3) 0.0377(3) 0.0339(3) 0.0019(2) 0.0059(2) -0.0060(3)
Cl2 0.0699(5) 0.0390(3) 0.0554(4) 0.0145(3) -0.0198(3) -0.0165(3)
F1 0.0136(5) 0.0133(5) 0.0202(5) 0.0008(4) 0.0033(4) 0.0006(4)
F2 0.0151(5) 0.0155(5) 0.0198(5) 0.0007(4) 0.0028(4) 0.0030(4)
F3 0.0227(6) 0.0334(6) 0.0318(6) -0.0085(5) 0.0076(5) -0.0037(5)
F4 0.0204(6) 0.0310(6) 0.0410(7) -0.0033(5) 0.0035(5) -0.0005(5)
F5 0.0279(6) 0.0299(6) 0.0366(6) 0.0110(5) 0.0094(5) 0.0094(5)
F6 0.0310(6) 0.0248(6) 0.0493(7) -0.0065(5) 0.0163(6) 0.0012(5)
F7 0.0252(6) 0.0323(6) 0.0462(7) -0.0151(5) 0.0101(5) -0.0026(5)
F8 0.0381(7) 0.0284(6) 0.0545(8) 0.0127(6) 0.0264(6) 0.0132(5)
N1 0.0166(7) 0.0103(6) 0.0162(6) 0.0003(5) 0.0032(5) -0.0010(5)
N2 0.0161(7) 0.0135(7) 0.0154(6) 0.0005(5) 0.0026(5) -0.0013(5)
N3 0.0178(7) 0.0115(7) 0.0172(7) 0.0015(5) 0.0030(5) -0.0006(5)
N4 0.0155(7) 0.0121(7) 0.0159(6) -0.0007(5) 0.0033(5) -0.0021(5)
C1 0.0141(8) 0.0147(8) 0.0190(8) 0.0016(6) 0.0050(6) -0.0009(6)
C2 0.0131(8) 0.0157(8) 0.0183(8) -0.0016(6) 0.0021(6) 0.0010(6)
C3 0.0163(8) 0.0155(8) 0.0183(8) 0.0024(6) 0.0038(6) 0.0016(6)
C4 0.0144(8) 0.0138(8) 0.0168(8) 0.0016(6) 0.0033(6) 0.0030(6)
C5 0.0159(8) 0.0131(8) 0.0182(8) 0.0021(6) 0.0042(6) 0.0016(6)
C6 0.0155(8) 0.0142(8) 0.0188(8) 0.0033(6) 0.0051(6) 0.0014(6)
C7 0.0157(8) 0.0193(8) 0.0171(8) -0.0019(6) 0.0017(6) 0.0006(7)
C8 0.0169(8) 0.0119(8) 0.0229(8) 0.0000(6) 0.0026(6) 0.0005(6)
C9 0.0173(8) 0.0194(8) 0.0163(8) 0.0026(6) 0.0033(6) 0.0014(7)
C10 0.0164(8) 0.0111(8) 0.0196(8) -0.0017(6) 0.0020(6) 0.0003(6)
C11 0.0205(8) 0.0139(8) 0.0193(8) -0.0024(6) 0.0025(7) 0.0011(7)
C12 0.0222(9) 0.0191(9) 0.0161(8) 0.0005(6) 0.0024(7) -0.0074(7)
C13 0.0199(8) 0.0153(8) 0.0169(8) -0.0008(6) 0.0035(6) -0.0042(7)
C14 0.0202(8) 0.0156(8) 0.0212(8) 0.0025(7) 0.0063(7) -0.0052(7)
C15 0.0154(8) 0.0156(8) 0.0194(8) -0.0016(6) 0.0026(6) -0.0013(6)
C16 0.0144(8) 0.0138(8) 0.0205(8) -0.0023(6) 0.0027(6) -0.0026(6)
C17 0.0209(9) 0.0146(8) 0.0238(8) -0.0013(7) 0.0054(7) -0.0059(7)
C18 0.0195(8) 0.0164(8) 0.0164(8) -0.0013(6) 0.0035(6) 0.0031(7)
C19 0.0209(9) 0.0167(8) 0.0211(8) 0.0045(7) 0.0040(7) -0.0012(7)
C20 0.0250(9) 0.0130(8) 0.0185(8) 0.0004(6) 0.0037(7) -0.0027(7)
C21 0.0173(8) 0.0126(8) 0.0221(8) -0.0012(6) 0.0035(6) -0.0006(6)
C22 0.0216(9) 0.0129(8) 0.0250(9) 0.0034(7) 0.0034(7) -0.0028(7)
C23 0.0199(9) 0.0214(9) 0.0216(8) 0.0020(7) 0.0026(7) -0.0015(7)
C24 0.0243(9) 0.0239(9) 0.0225(9) -0.0026(7) 0.0056(7) -0.0060(8)
C25 0.0247(9) 0.0229(9) 0.0206(8) 0.0031(7) 0.0034(7) -0.0050(8)
C26 0.0259(9) 0.0190(9) 0.0277(9) -0.0005(7) 0.0097(8) -0.0021(7)
C27 0.0269(9) 0.0213(9) 0.0173(8) 0.0003(7) 0.0038(7) -0.0032(8)
C28 0.0279(10) 0.0163(9) 0.0267(9) 0.0014(7) 0.0068(8) -0.0005(7)
C29 0.0318(10) 0.0245(10) 0.0207(9) 0.0031(7) 0.0008(8) -0.0123(8)
C30 0.0472(12) 0.0152(9) 0.0229(9) 0.0004(7) -0.0015(8) -0.0098(9)
C31 0.0336(11) 0.0384(12) 0.0177(8) 0.0014(8) 0.0062(8) -0.0150(9)
C32 0.0305(10) 0.0292(10) 0.0278(10) -0.0056(8) 0.0153(8) -0.0084(8)
C33 0.0309(10) 0.0291(10) 0.0225(9) 0.0091(8) 0.0005(8) -0.0049(9)
C34 0.0408(12) 0.0227(10) 0.0233(9) -0.0056(8) 0.0083(8) -0.0084(9)
C35 0.0463(12) 0.0120(8) 0.0270(9) -0.0021(7) 0.0077(9) 0.0010(8)
C36 0.0248(10) 0.0331(11) 0.0266(9) 0.0046(8) -0.0015(8) -0.0119(8)
C37 0.0398(12) 0.0296(11) 0.0211(9) -0.0007(8) -0.0009(8) -0.0187(9)
C38 0.0422(13) 0.0305(11) 0.0464(13) 0.0134(10) 0.0156(10) 0.0076(10)
loop_
_atom_type_symbol
_atom_type_description
_atom_type_scat_dispersion_real
_atom_type_scat_dispersion_imag
_atom_type_scat_source
C C 0.0033 0.0016 'International Tables Vol C Tables 4.2.6.8 and 6.1.1.4'
N N 0.0061 0.0033 'International Tables Vol C Tables 4.2.6.8 and 6.1.1.4'
F F 0.0171 0.0103 'International Tables Vol C Tables 4.2.6.8 and 6.1.1.4'
P P 0.1023 0.0942 'International Tables Vol C Tables 4.2.6.8 and 6.1.1.4'
Cl Cl 0.1484 0.1585 'International Tables Vol C Tables 4.2.6.8 and 6.1.1.4'
H H 0.0000 0.0000 'International Tables Vol C Tables 4.2.6.8 and 6.1.1.4'
loop_
_geom_angle_atom_site_label_1
_geom_angle_atom_site_label_2
_geom_angle_atom_site_label_3
_geom_angle
F2 P1 F1 177.93(6)
F2 P1 N3 91.37(6)
F1 P1 N3 90.09(6)
F2 P1 N2 90.95(6)
F1 P1 N2 90.68(6)
N3 P1 N2 83.00(6)
F2 P1 N4 90.06(6)
F1 P1 N4 88.66(6)
N3 P1 N4 173.42(7)
N2 P1 N4 90.56(6)
F2 P1 N1 89.70(6)
F1 P1 N1 88.81(6)
N3 P1 N1 90.60(6)
N2 P1 N1 173.58(7)
N4 P1 N1 95.83(6)
C4 N1 C10 106.04(13)
C4 N1 P1 126.31(11)
C10 N1 P1 127.65(11)
C6 N2 C2 107.87(14)
C6 N2 P1 117.26(11)
C2 N2 P1 134.73(12)
C8 N3 C3 107.90(14)
C8 N3 P1 134.75(12)
C3 N3 P1 117.33(11)
C1 N4 C16 106.00(13)
C1 N4 P1 126.47(11)
C16 N4 P1 127.52(11)
C5 C1 N4 124.60(15)
C5 C1 C14 126.01(16)
N4 C1 C14 109.39(14)
N2 C2 C15 120.43(15)
N2 C2 C7 107.93(14)
C15 C2 C7 131.63(16)
N3 C3 C6 111.23(15)
N3 C3 C19 109.40(15)
C6 C3 C19 139.35(16)
C5 C4 N1 124.32(15)
C5 C4 C18 126.19(16)
N1 C4 C18 109.47(14)
C1 C5 C4 122.39(16)
C1 C5 C13 118.22(15)
C4 C5 C13 119.35(15)
N2 C6 C3 111.17(14)
N2 C6 C9 109.39(15)
C3 C6 C9 139.39(16)
C9 C7 C2 108.28(15)
C9 C7 H7 125.9
C2 C7 H7 125.9
N3 C8 C21 120.99(15)
N3 C8 C22 107.72(15)
C21 C8 C22 131.28(16)
C7 C9 C6 106.53(15)
C7 C9 H9 126.7
C6 C9 H9 126.7
C21 C10 N1 125.72(15)
C21 C10 C11 125.81(15)
N1 C10 C11 108.47(14)
C18 C11 C10 108.45(15)
C18 C11 H11 125.8
C10 C11 H11 125.8
C24 C12 C25 114.98(16)
C24 C12 C15 124.24(16)
C25 C12 C15 120.74(17)
C23 C13 C26 114.91(16)
C23 C13 C5 123.02(16)
C26 C13 C5 121.99(16)
C17 C14 C1 107.59(15)
C17 C14 H14 126.2
C1 C14 H14 126.2
C16 C15 C2 120.01(15)
C16 C15 C12 120.42(15)
C2 C15 C12 119.45(15)
C15 C16 N4 126.47(15)
C15 C16 C17 125.17(15)
N4 C16 C17 108.35(14)
C14 C17 C16 108.64(15)
C14 C17 H17 125.7
C16 C17 H17 125.7
C11 C18 C4 107.56(15)
C11 C18 H18 126.2
C4 C18 H18 126.2
C22 C19 C3 106.71(15)
C22 C19 H19 126.6
C3 C19 H19 126.6
C28 C20 C27 114.84(16)
C28 C20 C21 123.02(16)
C27 C20 C21 122.07(16)
C10 C21 C8 120.21(15)
C10 C21 C20 121.19(15)
C8 C21 C20 118.59(15)
C19 C22 C8 108.27(15)
C19 C22 H22 125.9
C8 C22 H22 125.9
F5 C23 C33 118.71(17)
F5 C23 C13 117.47(15)
C33 C23 C13 123.82(18)
F7 C24 C12 117.79(16)
F7 C24 C34 118.29(17)
C12 C24 C34 123.92(18)
F4 C25 C36 118.87(17)
F4 C25 C12 117.44(16)
C36 C25 C12 123.69(19)
F8 C26 C32 118.32(17)
F8 C26 C13 117.87(16)
C32 C26 C13 123.80(18)
F3 C27 C29 117.80(17)
F3 C27 C20 118.11(16)
C29 C27 C20 124.08(18)
F6 C28 C35 118.09(17)
F6 C28 C20 118.10(16)
C35 C28 C20 123.81(18)
C27 C29 C30 118.27(19)
C27 C29 H29 120.9
C30 C29 H29 120.9
C29 C30 C35 120.71(17)
C29 C30 H30 119.6
C35 C30 H30 119.6
C32 C31 C33 120.97(18)
C32 C31 H31 119.5
C33 C31 H31 119.5
C31 C32 C26 118.24(19)
C31 C32 H32 120.9
C26 C32 H32 120.9
C23 C33 C31 118.25(18)
C23 C33 H33 120.9
C31 C33 H33 120.9
C37 C34 C24 118.10(19)
C37 C34 H34 121.0
C24 C34 H34 121.0
C28 C35 C30 118.25(19)
C28 C35 H35 120.9
C30 C35 H35 120.9
C37 C36 C25 118.54(19)
C37 C36 H36 120.7
C25 C36 H36 120.7
C36 C37 C34 120.76(18)
C36 C37 H37 119.6
C34 C37 H37 119.6
Cl2 C38 Cl1 111.55(13)
Cl2 C38 H38A 109.3
Cl1 C38 H38A 109.3
Cl2 C38 H38B 109.3
Cl1 C38 H38B 109.3
H38A C38 H38B 108.0
loop_
_geom_bond_atom_site_label_1
_geom_bond_atom_site_label_2
_geom_bond_distance
P1 F2 1.6137(10)
P1 F1 1.6328(10)
P1 N3 1.7955(14)
P1 N2 1.8033(14)
P1 N4 1.8131(14)
P1 N1 1.8282(14)
Cl1 C38 1.765(2)
Cl2 C38 1.754(3)
F3 C27 1.353(2)
F4 C25 1.352(2)
F5 C23 1.355(2)
F6 C28 1.346(2)
F7 C24 1.352(2)
F8 C26 1.345(2)
N1 C4 1.390(2)
N1 C10 1.413(2)
N2 C6 1.371(2)
N2 C2 1.377(2)
N3 C8 1.375(2)
N3 C3 1.375(2)
N4 C1 1.393(2)
N4 C16 1.408(2)
C1 C5 1.382(2)
C1 C14 1.421(2)
C2 C15 1.385(2)
C2 C7 1.416(2)
C3 C6 1.391(2)
C3 C19 1.404(2)
C4 C5 1.387(2)
C4 C18 1.420(2)
C5 C13 1.489(2)
C6 C9 1.412(2)
C7 C9 1.376(2)
C7 H7 0.9500
C8 C21 1.388(2)
C8 C22 1.419(2)
C9 H9 0.9500
C10 C21 1.386(2)
C10 C11 1.415(2)
C11 C18 1.363(2)
C11 H11 0.9500
C12 C24 1.381(3)
C12 C25 1.390(3)
C12 C15 1.493(2)
C13 C23 1.388(2)
C13 C26 1.388(3)
C14 C17 1.354(2)
C14 H14 0.9500
C15 C16 1.384(2)
C16 C17 1.419(2)
C17 H17 0.9500
C18 H18 0.9500
C19 C22 1.375(2)
C19 H19 0.9500
C20 C28 1.387(3)
C20 C27 1.392(3)
C20 C21 1.492(2)
C22 H22 0.9500
C23 C33 1.380(3)
C24 C34 1.384(3)
C25 C36 1.378(3)
C26 C32 1.382(3)
C27 C29 1.377(3)
C28 C35 1.384(3)
C29 C30 1.383(3)
C29 H29 0.9500
C30 C35 1.387(3)
C30 H30 0.9500
C31 C32 1.378(3)
C31 C33 1.381(3)
C31 H31 0.9500
C32 H32 0.9500
C33 H33 0.9500
C34 C37 1.383(3)
C34 H34 0.9500
C35 H35 0.9500
C36 C37 1.377(3)
C36 H36 0.9500
C37 H37 0.9500
C38 H38A 0.9900
C38 H38B 0.9900
