#------------------------------------------------------------------------------
#$Date: 2019-11-23 07:51:59 +0200 (Sat, 23 Nov 2019) $
#$Revision: 232482 $
#$URL: file:///home/coder/svn-repositories/cod/cif/4/34/77/4347743.cif $
#------------------------------------------------------------------------------
#
# This file is available in the Crystallography Open Database (COD),
# http://www.crystallography.net/
#
# All data on this site have been placed in the public domain by the
# contributors.
#
data_4347743
loop_
_publ_author_name
'Vestfrid, Jenya'
'Kothari, Rashmi'
'Kostenko, Arseni'
'Goldberg, Israel'
'Tumanskii, Boris'
'Gross, Zeev'
_publ_section_title
;
 Intriguing Physical and Chemical Properties of Phosphorus Corroles.
;
_journal_issue                   12
_journal_name_full               'Inorganic chemistry'
_journal_page_first              6061
_journal_page_last               6067
_journal_paper_doi               10.1021/acs.inorgchem.6b00544
_journal_volume                  55
_journal_year                    2016
_chemical_formula_moiety         'C37 H19 F6 N4 O2 P, C H2 Cl2'
_chemical_formula_sum            'C38 H21 Cl2 F6 N4 O2 P'
_chemical_formula_weight         781.46
_space_group_crystal_system      monoclinic
_space_group_IT_number           14
_space_group_name_Hall           '-P 2ybc'
_space_group_name_H-M_alt        'P 1 21/c 1'
_atom_sites_solution_hydrogens   mixed
_atom_sites_solution_primary     direct
_atom_sites_solution_secondary   difmap
_audit_creation_method           SHELXL-2014/7
_cell_angle_alpha                90
_cell_angle_beta                 106.074(3)
_cell_angle_gamma                90
_cell_formula_units_Z            4
_cell_length_a                   19.6670(14)
_cell_length_b                   12.4500(10)
_cell_length_c                   13.7064(9)
_cell_measurement_reflns_used    4344
_cell_measurement_temperature    110(2)
_cell_measurement_theta_max      25.08
_cell_measurement_theta_min      2.15
_cell_volume                     3224.9(4)
_computing_cell_refinement       'Saint, Bruker-AXS'
_computing_data_collection       'Apex2, Bruker-AXS'
_computing_data_reduction        'Saint, Bruker-AXS'
_computing_structure_refinement  'SHELXL-2014/7 (Sheldrick, 2015)'
_computing_structure_solution    'SHELXTL-2014, Sheldrick (2015)'
_diffrn_ambient_temperature      110(2)
_diffrn_detector_area_resol_mean 1.75
_diffrn_measured_fraction_theta_full 0.993
_diffrn_measured_fraction_theta_max 0.993
_diffrn_measurement_device_type  'ApedDuo, Bruker-AXS'
_diffrn_measurement_method       '1 deg. \f and \w scans'
_diffrn_radiation_type           MoK\a
_diffrn_radiation_wavelength     0.71073
_diffrn_reflns_av_R_equivalents  0.0333
_diffrn_reflns_av_unetI/netI     0.0446
_diffrn_reflns_Laue_measured_fraction_full 0.993
_diffrn_reflns_Laue_measured_fraction_max 0.993
_diffrn_reflns_limit_h_max       23
_diffrn_reflns_limit_h_min       -23
_diffrn_reflns_limit_k_max       14
_diffrn_reflns_limit_k_min       -12
_diffrn_reflns_limit_l_max       16
_diffrn_reflns_limit_l_min       -16
_diffrn_reflns_number            18263
_diffrn_reflns_point_group_measured_fraction_full 0.993
_diffrn_reflns_point_group_measured_fraction_max 0.993
_diffrn_reflns_theta_full        25.082
_diffrn_reflns_theta_max         25.082
_diffrn_reflns_theta_min         2.155
_diffrn_source                   'ImuS micro-focus'
_exptl_absorpt_coefficient_mu    0.331
_exptl_absorpt_correction_T_max  0.968
_exptl_absorpt_correction_T_min  0.913
_exptl_absorpt_correction_type   multi-scan
_exptl_absorpt_process_details   'Sadabs, Bruker-AXS'
_exptl_crystal_colour            red
_exptl_crystal_density_diffrn    1.610
_exptl_crystal_description       plate
_exptl_crystal_F_000             1584
_exptl_crystal_size_max          0.280
_exptl_crystal_size_mid          0.200
_exptl_crystal_size_min          0.100
_refine_diff_density_max         0.730
_refine_diff_density_min         -0.565
_refine_diff_density_rms         0.072
_refine_ls_extinction_method     none
_refine_ls_goodness_of_fit_ref   1.034
_refine_ls_hydrogen_treatment    constr
_refine_ls_matrix_type           full
_refine_ls_number_parameters     478
_refine_ls_number_reflns         5695
_refine_ls_number_restraints     0
_refine_ls_restrained_S_all      1.034
_refine_ls_R_factor_all          0.0721
_refine_ls_R_factor_gt           0.0510
_refine_ls_shift/su_max          0.000
_refine_ls_shift/su_mean         0.000
_refine_ls_structure_factor_coef Fsqd
_refine_ls_weighting_details
'w=1/[\s^2^(Fo^2^)+(0.0653P)^2^+2.0748P] where P=(Fo^2^+2Fc^2^)/3'
_refine_ls_weighting_scheme      calc
_refine_ls_wR_factor_gt          0.1306
_refine_ls_wR_factor_ref         0.1416
_reflns_Friedel_coverage         0.000
_reflns_number_gt                4344
_reflns_number_total             5695
_reflns_threshold_expression     'I > 2\s(I)'
_cod_data_source_file            ic6b00544_si_002.cif
_cod_data_source_block           tx107
_cod_original_sg_symbol_H-M      'P 21/c'
_cod_database_code               4347743
_shelx_shelxl_version_number     2014/7
_shelx_space_group_comment
;
The symmetry employed for this shelxl refinement is uniquely defined
by the following loop, which should always be used as a source of
symmetry information in preference to the above space-group names.
They are only intended as comments.
;
_shelx_estimated_absorpt_t_min   0.913
_shelx_estimated_absorpt_t_max   0.968
_shelx_res_file
;

    tx107.res created by SHELXL-2014/7


TITL mo_tx107_0ma_a.res in P2(1)/c
REM Old TITL mo_tx107_0ma in P2(1)/c

REM SHELXT solution in P2(1)/c
REM R1 0.144,  Rweak 0.006,  Alpha 0.025,  Orientation as input
REM Formula found by SHELXT:  C38 N12 P3

CELL  0.71073  19.6670  12.4500  13.7064   90.000  106.074   90.000
ZERR    4.000   0.0014   0.0010   0.0009    0.000    0.003    0.000
LATT  1
SYMM -X, 1/2+Y, 1/2-Z
SFAC C H N P Cl F O
UNIT 152 84 16 4 8 24 8
TEMP -163.00
size 0.28 0.20 0.10
L.S. 5
BOND $H
LIST 4
FMAP 2
PLAN -20
omit 1 0 0
acta
htab
WGHT    0.065300    5.074800
FVAR       0.30355
P1    4    0.249479    0.523102    0.649457    11.00000    0.02017    0.01478 =
         0.02050   -0.00117    0.00849   -0.00058
CL2   5    0.064138    0.444158    0.211096    11.00000    0.04554    0.04173 =
         0.04220    0.00565    0.01454    0.00586
CL3   5    0.031605    0.440934    0.405682    11.00000    0.05388    0.06145 =
         0.04060    0.01234    0.01591   -0.00485
F1    6    0.452761    0.805282    0.831945    11.00000    0.03045    0.04325 =
         0.02132   -0.00842    0.00752   -0.00047
F2    6    0.066165    0.773328    0.794987    11.00000    0.04062    0.04138 =
         0.01863    0.00656    0.01203    0.01895
F3    6    0.249015    0.432849    0.269587    11.00000    0.04792    0.03652 =
         0.02746    0.00339    0.00341    0.01213
F4    6    0.340847    0.871662    0.488166    11.00000    0.04583    0.02973 =
         0.02458    0.00518    0.00803   -0.00095
F5    6    0.213402    0.533301    1.023187    11.00000    0.04006    0.04645 =
         0.03110    0.01760    0.00954    0.01254
F6    6    0.424892    0.247710    0.511729    11.00000    0.04488    0.04282 =
         0.01990   -0.00373    0.00500    0.01801
O1    7    0.190349    0.577392    0.550780    11.00000    0.02549    0.02070 =
         0.02132   -0.00160    0.00517    0.00178
AFIX   3
H1    2    0.157162    0.620916    0.567060    11.00000   -1.20000
AFIX   0
O2    7    0.312317    0.474605    0.746402    11.00000    0.02767    0.01414 =
         0.03055    0.00308    0.00593    0.00276
AFIX   3
H2    2    0.321344    0.402212    0.740958    11.00000   -1.20000
AFIX   0
N1    3    0.317361    0.556764    0.584444    11.00000    0.02043    0.01411 =
         0.01852   -0.00312    0.00705   -0.00112
N2    3    0.234242    0.393378    0.585362    11.00000    0.02290    0.01946 =
         0.02249   -0.00258    0.01052   -0.00124
N3    3    0.181264    0.474762    0.705257    11.00000    0.02129    0.01764 =
         0.02355   -0.00052    0.00854   -0.00019
N4    3    0.256348    0.649378    0.720403    11.00000    0.01990    0.01647 =
         0.01633    0.00064    0.00642    0.00228
C1    1    0.300334    0.734341    0.715076    11.00000    0.02160    0.01553 =
         0.01478    0.00117    0.00396    0.00158
C2    1    0.220675    0.677793    0.792894    11.00000    0.02140    0.02222 =
         0.01538    0.00122    0.00495    0.00427
C3    1    0.356625    0.650192    0.596863    11.00000    0.02139    0.01283 =
         0.01481    0.00113    0.00521    0.00032
C4    1    0.348349    0.736733    0.657190    11.00000    0.02170    0.01615 =
         0.01518   -0.00069    0.00430    0.00003
C5    1    0.405364    0.643595    0.536884    11.00000    0.02309    0.01533 =
         0.01689    0.00092    0.00695   -0.00216
AFIX  43
H5    2    0.439116    0.696582    0.532354    11.00000   -1.20000
AFIX   0
C6    1    0.336566    0.344025    0.394395    11.00000    0.02863    0.01445 =
         0.01775   -0.00412    0.00813   -0.00468
C7    1    0.339386    0.493036    0.514641    11.00000    0.02210    0.01542 =
         0.01477    0.00038    0.00432    0.00291
C8    1    0.153961    0.512974    0.780869    11.00000    0.01835    0.02463 =
         0.01936    0.00426    0.00493    0.00717
C9    1    0.290340    0.817310    0.781680    11.00000    0.02371    0.01765 =
         0.01689   -0.00452    0.00440    0.00007
AFIX  43
H9    2    0.313062    0.885375    0.790933    11.00000   -1.20000
AFIX   0
C10   1    0.392815    0.834237    0.660558    11.00000    0.02231    0.01641 =
         0.02360   -0.00662    0.01250   -0.00219
C11   1    0.258336    0.345746    0.510380    11.00000    0.02483    0.01670 =
         0.02156   -0.00022    0.00485    0.00025
C12   1    0.153742    0.375143    0.677169    11.00000    0.02096    0.01646 =
         0.02718    0.00061    0.00542   -0.00038
C13   1    0.182862    0.327972    0.604411    11.00000    0.02275    0.01716 =
         0.02800    0.00238    0.00597   -0.00348
C14   1    0.394778    0.548090    0.487583    11.00000    0.02243    0.01873 =
         0.01667   -0.00052    0.00734    0.00231
AFIX  43
H14   2    0.420110    0.522313    0.442549    11.00000   -1.20000
AFIX   0
C15   1    0.310905    0.394936    0.476643    11.00000    0.02339    0.01785 =
         0.01813   -0.00096    0.00490    0.00112
C16   1    0.306161    0.367850    0.292404    11.00000    0.03070    0.02008 =
         0.02480   -0.00143    0.00602   -0.00442
C17   1    0.393443    0.274198    0.413537    11.00000    0.02809    0.02262 =
         0.01846   -0.00503    0.00523   -0.00517
C18   1    0.106646    0.433554    0.797831    11.00000    0.01935    0.02850 =
         0.02590    0.00772    0.00822    0.00308
AFIX  43
H18   2    0.079427    0.438583    0.845110    11.00000   -1.20000
AFIX   0
C19   1    0.242833    0.781981    0.829299    11.00000    0.02558    0.02210 =
         0.01499   -0.00171    0.00763    0.00446
AFIX  43
H19   2    0.227051    0.820548    0.878736    11.00000   -1.20000
AFIX   0
C20   1    0.172906    0.613557    0.823383    11.00000    0.02064    0.02303 =
         0.01663    0.00387    0.00506    0.00667
C21   1    0.141372    0.651219    0.904815    11.00000    0.02227    0.02544 =
         0.01701   -0.00128    0.00709   -0.00163
C22   1    0.443048    0.867831    0.747975    11.00000    0.02703    0.02474 =
         0.02405   -0.00938    0.01342    0.00107
C23   1    0.106872    0.348668    0.734671    11.00000    0.02122    0.02236 =
         0.03147    0.00340    0.00609   -0.00236
AFIX  43
H23   2    0.080443    0.284123    0.730395    11.00000   -1.20000
AFIX   0
C24   1    0.162303    0.608987    1.002947    11.00000    0.02485    0.03251 =
         0.02420    0.00604    0.00800   -0.00098
C25   1    0.088422    0.728190    0.888871    11.00000    0.02796    0.03000 =
         0.01357    0.00092    0.00635   -0.00018
C26   1    0.388256    0.899302    0.576468    11.00000    0.03391    0.01797 =
         0.03237   -0.00365    0.01638    0.00176
C27   1    0.220618    0.247734    0.483467    11.00000    0.03099    0.01997 =
         0.02688   -0.00418    0.00692   -0.00034
AFIX  43
H27   2    0.226345    0.198089    0.433703    11.00000   -1.20000
AFIX   0
C28   1    0.174498    0.237416    0.541965    11.00000    0.02973    0.01931 =
         0.03349   -0.00029    0.01002   -0.00537
AFIX  43
H28   2    0.142778    0.179457    0.540299    11.00000   -1.20000
AFIX   0
C29   1    0.420869    0.232165    0.340192    11.00000    0.03010    0.02963 =
         0.03011   -0.01138    0.01216   -0.00371
AFIX  43
H29   2    0.460239    0.184750    0.357396    11.00000   -1.20000
AFIX   0
C30   1    0.056509    0.761516    0.961536    11.00000    0.02818    0.03339 =
         0.02619   -0.00768    0.01041    0.00123
AFIX  43
H30   2    0.019914    0.813827    0.946396    11.00000   -1.20000
AFIX   0
C31   1    0.484952    0.957950    0.753561    11.00000    0.02878    0.03333 =
         0.04424   -0.02862    0.01685   -0.00896
AFIX  43
H31   2    0.518184    0.977895    0.815511    11.00000   -1.20000
AFIX   0
C32   1    0.332042    0.329605    0.215814    11.00000    0.04554    0.03270 =
         0.01723   -0.00023    0.01029   -0.01264
AFIX  43
H32   2    0.310884    0.349984    0.147322    11.00000   -1.20000
AFIX   0
C33   1    0.389519    0.260820    0.240237    11.00000    0.03950    0.03072 =
         0.02687   -0.01392    0.02130   -0.01609
AFIX  43
H33   2    0.407645    0.232990    0.187938    11.00000   -1.20000
AFIX   0
C34   1    0.079691    0.716009    1.057519    11.00000    0.03868    0.04600 =
         0.01904   -0.00881    0.01627   -0.00740
AFIX  43
H34   2    0.058665    0.737321    1.109072    11.00000   -1.20000
AFIX   0
C35   1    0.428859    0.989637    0.576926    11.00000    0.04553    0.01567 =
         0.04833   -0.00257    0.02833   -0.00209
AFIX  43
H35   2    0.423607    1.030955    0.517021    11.00000   -1.20000
AFIX   0
C36   1    0.133023    0.640042    1.078900    11.00000    0.03922    0.04349 =
         0.01472    0.00347    0.00452   -0.00969
AFIX  43
H36   2    0.149217    0.609747    1.144900    11.00000   -1.20000
AFIX   0
C37   1    0.477165    1.018310    0.666444    11.00000    0.04762    0.01704 =
         0.06960   -0.01507    0.03648   -0.01053
AFIX  43
H37   2    0.505582    1.080426    0.668489    11.00000   -1.20000
AFIX   0
C38   1    0.098395    0.451071    0.343870    11.00000    0.04260    0.05573 =
         0.04451   -0.00220    0.00758   -0.00489
AFIX  23
H38A  2    0.132921    0.392204    0.367167    11.00000   -1.20000
H38B  2    0.123735    0.520038    0.362419    11.00000   -1.20000
AFIX   0
HKLF 4

REM  mo_tx107_0ma_a.res in P2(1)/c
REM R1 =  0.0510 for    4344 Fo > 4sig(Fo)  and  0.0721 for all    5695 data
REM    478 parameters refined using      0 restraints

END

WGHT      0.0651      4.9775

REM Instructions for potential hydrogen bonds
EQIV $1 x, -y+3/2, z+1/2
HTAB C9 F3_$1
EQIV $2 x, -y+1/2, z+1/2
HTAB C23 Cl2_$2
EQIV $3 -x, y+1/2, -z+3/2
HTAB C30 Cl3_$3
EQIV $4 x, y, z+1
HTAB C36 Cl2_$4
HTAB C38 O1

REM Highest difference peak  0.730,  deepest hole -0.565,  1-sigma level  0.072
Q1    1   0.3182  0.4558  0.8313  11.00000  0.05    0.73
Q2    1   0.2113  0.4850  0.6734  11.00000  0.05    0.38
Q3    1   0.2961  0.5391  0.6194  11.00000  0.05    0.36
Q4    1   0.0576  0.1860  0.4640  11.00000  0.05    0.33
Q5    1   0.1523  0.3395  0.3037  11.00000  0.05    0.32
Q6    1   0.3369  0.7231  0.7045  11.00000  0.05    0.32
Q7    1   0.1227  0.4255  0.2266  11.00000  0.05    0.32
Q8    1   0.4179  0.2657  0.3836  11.00000  0.05    0.30
Q9    1   0.3352  0.3745  0.2621  11.00000  0.05    0.29
Q10   1   0.1998  0.5602  0.6074  11.00000  0.05    0.28
Q11   1   0.1617  0.6404  0.8633  11.00000  0.05    0.28
Q12   1   0.2067  0.2075  0.5254  11.00000  0.05    0.28
Q13   1   0.1590  0.6573  1.0400  11.00000  0.05    0.28
Q14   1   0.2396  0.6435  0.7563  11.00000  0.05    0.27
Q15   1   0.2553  0.6013  0.6902  11.00000  0.05    0.27
Q16   1   0.1114  0.4950  0.7749  11.00000  0.05    0.27
Q17   1   0.4096  0.8434  0.6197  11.00000  0.05    0.27
Q18   1   0.3015  0.7797  0.7431  11.00000  0.05    0.26
Q19   1   0.2925  0.4670  0.2514  11.00000  0.05    0.26
Q20   1   0.0834  0.3993  0.7367  11.00000  0.05    0.26
;
_shelx_res_checksum              25745
_shelx_hkl_file
;
   0   0   1   -1.00    0.10
   0   0   1   -0.70    0.40
   0   0  -1   -1.00    0.10
   0   0  -1   -0.70    0.40
   0   0   2  636.54   17.50
   0   0  -2  641.44   17.40
   0   0   2  640.64   17.40
   0   0  -3   -1.40    1.50
   0   0   3    0.30    1.40
   0   0   3    0.70    1.50
   0   0  -3    1.30    1.30
   0   0   4 3167.08   82.99
   0   0  -4 3170.88   83.19
   0   0   4 3119.99   83.19
   0   0  -4 3120.99   82.99
   0   0   5   -0.90    1.90
   0   0  -5   -0.70    1.40
   0   0   5   -0.10    1.40
   0   0  -5   -0.30    1.80
   0   0   6    8.50    2.20
   0   0  -6    2.90    1.80
   0   0  -6   11.90    2.40
   0   0   6    6.20    1.90
   0   0  -7    4.80    2.20
   0   0   7    3.80    2.00
   0   0   7    5.60    2.30
   0   0  -8   12.20    2.70
   0   0   8   11.60    2.80
   0   0  -9   -3.90    2.40
   0   0   9    0.10    2.50
   0   0  10  342.57   12.50
   0   0 -10  348.17   12.40
   0   0 -11    4.70    3.30
   0   0  11   11.70    3.40
   0   0  12  210.88    9.70
   0   0 -12  188.08    9.40
   0   0 -13   15.10    4.40
   0   0  13   19.80    4.20
   0   0  14  111.69    8.30
   0   0 -14   74.19    6.50
   0   0  15    7.60    4.40
   0   0 -15    2.60    4.20
   0   1   0   -0.70    0.30
   0  -1   0   -0.10    0.80
   0   1  -1 1420.76   37.40
   0  -1   1 1435.46   37.40
   0  -1   1 1387.96   37.10
   0  -1   1 1372.26   37.30
   0   1   2   20.90    1.70
   0   1  -2   28.70    1.70
   0   1   2   23.00    1.60
   0   1  -2   23.80    1.60
   0  -1  -2   23.50    1.80
   0  -1   2   24.30    1.90
   0  -1   2   21.30    1.70
   0  -1  -2   22.30    1.90
   0   1  -3  164.88    5.50
   0   1   3  163.88    5.20
   0   1  -3  164.98    5.60
   0   1   3  161.98    5.40
   0  -1  -3  171.58    5.60
   0  -1  -3  163.18    5.50
   0   1   4 1182.58   32.00
   0   1   4 1203.48   32.30
   0   1  -4 1196.68   32.30
   0   1  -4 1210.08   32.40
   0  -1  -4 1188.68   32.40
   0  -1  -4 1193.88   32.20
   0  -1   4 1191.28   32.60
   0   1   5  402.76   12.00
   0   1  -5  376.36   11.80
   0   1   5  388.26   11.50
   0  -1   5  405.96   12.30
   0  -1  -5  403.26   11.90
   0   1   6  331.87   10.70
   0   1  -6  331.87   10.60
   0   1   6  336.37   10.20
   0   1  -6  337.37   10.80
   0  -1  -6  326.47   10.60
   0  -1   6  338.27   11.00
   0  -1   6  337.27   10.60
   0   1   7    1.10    2.00
   0   1   7   -0.20    1.30
   0   1  -7    3.80    2.20
   0   1  -7    4.50    2.00
   0  -1   7    1.30    2.20
   0  -1  -7   -0.70    2.10
   0   1   8    0.70    2.20
   0   1  -8    4.80    2.40
   0   1   8    0.60    1.70
   0  -1   8    3.10    2.40
   0  -1  -8    2.80    2.40
   0   1  -9    0.80    2.50
   0   1   9   -1.10    2.40
   0   1   9   -1.60    1.70
   0  -1  -9   -4.30    2.40
   0  -1   9    3.40    2.70
   0   1  10   65.29    5.10
   0   1 -10   53.29    4.60
   0  -1  10   61.69    5.30
   0  -1 -10   75.99    5.60
   0   1 -11    8.10    3.30
   0   1  11    3.20    3.10
   0  -1  11    2.90    3.10
   0  -1 -11    1.80    3.20
   0   1  12   83.99    6.70
   0   1 -12   96.59    7.10
   0  -1  12   66.79    6.00
   0  -1 -12   85.99    7.20
   0   1 -13   42.30    5.30
   0   1  13   29.00    4.70
   0   1 -13   32.60    4.80
   0  -1 -13   28.20    4.90
   0  -1  13   28.70    5.00
   0   1  14    6.60    3.90
   0   1 -14    7.10    4.40
   0   1 -14    7.40    4.00
   0  -1  14    8.10    4.30
   0  -1 -14    3.90    4.10
   0   1  15   79.49    6.70
   0   1 -15   65.99    6.50
   0  -1  15   93.29    8.00
   0  -1 -15   88.39    7.80
   0   2   0   34.20    3.10
   0  -2   0   38.00    2.90
   0   2   1  271.97    8.50
   0  -2   1  278.97    8.80
   0  -2   2  144.09    4.40
   0  -2   2  153.58    6.20
   0  -2   2  140.59    4.50
   0   2  -3  164.98    5.20
   0   2  -3  157.88    5.20
   0  -2   3  162.38    5.60
   0  -2  -3  163.38    5.20
   0  -2   3  161.78    5.30
   0  -2   3  159.68    6.60
   0  -2   3  161.38    5.30
   0  -2  -3  160.68    5.10
   0   2   4   29.90    2.10
   0   2  -4   27.50    2.30
   0   2   4   30.70    2.30
   0   2  -4   31.70    2.30
   0  -2  -4   33.90    2.40
   0  -2   4   29.50    2.30
   0  -2  -4   35.10    2.40
   0  -2   4   26.50    3.40
   0  -2   4   34.20    2.80
   0   2   5   70.49    3.60
   0   2   5   74.39    3.30
   0   2  -5   70.99    3.90
   0   2  -5   73.39    3.80
   0  -2  -5   72.79    4.10
   0  -2   5   73.29    4.40
   0  -2  -5   68.19    3.80
   0   2   6  149.49    5.40
   0   2   6  153.28    5.80
   0   2  -6  145.19    6.00
   0  -2   6  150.98    5.80
   0  -2  -6  156.18    6.20
   0  -2  -6  162.98    6.20
   0  -2   6  155.18    6.60
   0   2   7   23.40    2.70
   0   2  -7   13.80    2.40
   0   2   7   13.70    1.90
   0   2  -7   14.10    2.40
   0  -2   7   14.80    2.90
   0  -2  -7   19.50    2.90
   0   2   8   44.60    3.60
   0   2  -8   42.40    3.70
   0   2   8   38.70    3.10
   0   2  -8   42.80    3.80
   0  -2   8   30.20    3.60
   0  -2  -8   39.80    3.70
   0   2  -9   16.20    3.10
   0   2  -9   16.20    3.00
   0   2   9   15.80    2.90
   0  -2  -9    9.90    2.90
   0  -2   9   13.50    3.30
   0   2  10   18.40    3.30
   0   2 -10    8.70    3.10
   0   2  10   12.90    2.30
   0  -2  10    8.50    3.40
   0  -2 -10   10.20    3.20
   0   2  11  266.57   10.10
   0   2  11  249.08    9.20
   0   2 -11  261.87   10.50
   0  -2 -11  285.17   11.10
   0  -2  11  266.37   11.30
   0   2 -12   12.30    3.80
   0   2  12   12.60    3.40
   0  -2 -12   11.80    3.90
   0  -2  12   16.80    4.20
   0   2  13   27.40    4.10
   0   2 -13   18.20    4.20
   0  -2  13   13.80    4.40
   0  -2 -13   10.70    4.20
   0   2 -14   38.70    5.10
   0   2  14   42.50    4.70
   0  -2 -14   39.30    5.60
   0  -2  14   38.80    5.70
   0   2  15   31.50    4.40
   0   2 -15   24.60    4.90
   0  -2  15   22.80    5.30
   0  -2 -15   21.50    5.30
   0   3   0    2.80    2.50
   0  -3   0    1.90    2.30
   0   3   1    5.30    2.40
   0   3  -1    4.40    2.60
   0  -3   1    2.90    2.80
   0  -3   3  112.39    4.00
   0  -3   3  117.39    4.30
   0  -3   3  111.29    6.00
   0   3  -4  616.44   16.70
   0   3  -4  619.64   16.70
   0  -3   4  586.64   17.30
   0  -3   4  612.64   19.00
   0  -3  -4  622.44   16.90
   0  -3  -4  608.54   16.80
   0  -3   4  605.34   17.00
   0   3  -5  179.28    6.20
   0   3  -5  183.78    6.10
   0  -3  -5  183.58    6.40
   0  -3   5  177.58    6.40
   0  -3   5  174.78    8.00
   0  -3  -5  186.68    6.40
   0  -3   5  189.78    6.90
   0   3  -6   48.40    3.30
   0   3  -6   55.69    3.50
   0  -3   6   49.00    4.20
   0  -3  -6   52.49    3.80
   0  -3  -6   51.49    3.90
   0   3   7  308.87    9.20
   0   3   7  294.67    9.00
   0   3  -7  325.17   10.00
   0  -3   7  297.27   10.80
   0  -3  -7  325.17   10.40
   0   3   8   -1.40    1.40
   0   3  -8   -0.40    2.00
   0   3  -8   -0.60    1.80
   0   3   8   -0.10    1.70
   0  -3  -8    0.20    2.30
   0  -3   8    0.40    2.40
   0   3   9   61.49    4.00
   0   3   9   60.49    3.60
   0   3  -9   58.19    4.90
   0   3  -9   64.79    4.80
   0  -3  -9   65.09    4.90
   0  -3   9   68.69    5.50
   0   3  10   31.00    2.70
   0   3  10   26.10    2.90
   0   3 -10   27.80    3.60
   0  -3 -10   26.70    3.90
   0  -3  10   24.10    4.10
   0   3 -11   -1.30    2.60
   0   3  11    3.10    2.00
   0   3  11    0.90    2.30
   0  -3  11    0.50    3.40
   0  -3 -11    3.40    3.30
   0   3 -12    8.70    3.40
   0   3  12    4.90    2.50
   0  -3 -12    6.80    3.70
   0  -3  12   11.10    4.20
   0   3 -13   83.29    6.80
   0   3  13   77.69    5.30
   0  -3  13   81.99    7.50
   0  -3 -13   80.69    7.00
   0   3  14   11.30    2.90
   0   3 -14    6.40    3.70
   0  -3  14    4.30    4.40
   0  -3 -14    4.50    4.20
   0   3 -15   39.30    5.30
   0  -3 -15   27.70    5.60
   0  -3  15   36.10    5.90
   0   4   0  875.01   25.40
   0  -4   0  891.21   25.50
   0   4  -1 1145.19   32.20
   0   4   1 1139.99   31.90
   0  -4   1 1136.09   32.30
   0  -4  -1 1121.49   31.70
   0   4   2  152.78    6.60
   0  -4   2  154.88    7.20
   0  -4   3   77.39    3.00
   0  -4   3   76.49    5.60
   0  -4   3   76.79    3.20
   0  -4  -4   24.80    1.80
   0  -4  -4   26.50    1.70
   0  -4   4   28.70    2.40
   0  -4   4   26.60    2.10
   0  -4   5  218.38    7.40
   0  -4  -5  219.98    7.20
   0  -4   5  224.78    7.40
   0  -4   5  219.48    7.80
   0  -4  -5  229.08    7.10
   0   4  -6  320.87    9.50
   0   4  -6  321.27    9.50
   0  -4   6  314.47   10.70
   0  -4  -6  330.77   10.30
   0  -4  -6  316.07   10.00
   0   4  -7   53.99    3.50
   0   4  -7   51.49    3.30
   0  -4   7   53.79    4.40
   0  -4  -7   48.50    4.10
   0   4  -8    8.30    1.90
   0   4  -8    9.80    2.20
   0  -4  -8    8.20    2.50
   0  -4   8    9.20    2.90
   0   4  -9   11.50    2.50
   0  -4  -9   15.20    3.20
   0  -4   9   15.60    3.40
   0   4 -10  158.18    6.90
   0   4 -10  138.39    6.40
   0  -4 -10  156.58    7.80
   0  -4  10  139.29    8.30
   0   4 -11  127.29    6.70
   0  -4 -11  129.69    7.90
   0  -4  11  119.59    8.30
   0   4 -12    5.40    3.00
   0  -4  12    3.90    4.00
   0  -4 -12   10.10    3.80
   0   4 -13   -0.70    3.10
   0  -4  13    4.70    4.30
   0  -4 -13    3.40    3.70
   0   4 -14   34.90    4.60
   0  -4  14   23.60    5.70
   0  -4 -14   30.80    5.50
   0   4 -15    9.10    4.00
   0  -4  15   13.60    5.70
   0  -4 -15   14.00    5.00
   0   5   0   -1.50    2.50
   0  -5   0   -1.20    3.00
   0   5   1    0.70    2.50
   0   5  -1    4.20    3.30
   0  -5   1    7.30    3.20
   0  -5  -1   13.80    2.80
   0   5  -2  425.96   14.60
   0   5   2  420.26   13.90
   0  -5   2  448.96   15.80
   0  -5   4   99.69    4.10
   0  -5   4   94.99    3.90
   0  -5  -5  236.08    7.20
   0  -5   5  226.88    8.00
   0  -5   5  250.57    8.20
   0  -5  -5  234.28    7.20
   0  -5  -6  227.78    7.60
   0  -5  -6  216.48    7.40
   0  -5   6  233.58    8.40
   0  -5   7  198.88    8.20
   0  -5  -7  203.18    7.40
   0   5  -8   31.10    2.60
   0   5  -8   34.20    2.50
   0  -5   8   18.60    3.40
   0  -5  -8   32.00    3.50
   0   5  -9    4.00    1.80
   0   5  -9    1.90    1.90
   0  -5  -9    0.70    2.50
   0  -5   9    5.70    3.10
   0   5 -10   99.89    4.90
   0   5 -10   99.19    5.10
   0  -5  10  101.79    7.50
   0  -5 -10   99.79    6.70
   0   5 -11   32.80    3.50
   0  -5 -11   41.20    4.80
   0  -5  11   28.30    4.90
   0   5 -12   10.40    3.00
   0  -5  12    8.70    4.50
   0  -5 -12   12.60    4.10
   0   5 -13   31.80    4.00
   0  -5  13   34.60    5.80
   0  -5 -13   27.80    5.00
   0   5 -14   79.59    6.10
   0  -5  14   94.69    8.10
   0  -5 -14   85.69    7.20
   0   6   0   20.80    4.10
   0   6  -1   27.90    4.20
   0   6   1   26.40    4.10
   0  -6  -1   27.90    3.70
   0   6  -2  325.67   12.60
   0   6   2  323.07   11.90
   0   6  -3  117.59    7.10
   0   6   3  101.69    6.20
   0   6   4   80.19    5.50
   0  -6   4   79.79    3.60
   0  -6   4   77.09    3.30
   0   6   5   36.20    4.10
   0  -6   5   36.20    2.90
   0  -6   6    5.90    2.30
   0  -6  -6    6.50    1.60
   0  -6  -6    2.50    1.60
   0  -6   7  357.46   12.30
   0  -6  -7  361.06   11.20
   0  -6  -8   52.29    4.10
   0  -6   8   47.00    4.70
   0  -6  -9   57.79    4.60
   0  -6   9   56.29    5.50
   0  -6 -10    5.90    3.20
   0  -6  10   -1.70    3.40
   0   6 -11   90.69    4.10
   0  -6  11   78.89    7.00
   0  -6 -11  104.09    7.10
   0   6 -12    3.00    2.00
   0  -6  12    2.80    4.30
   0  -6 -12    5.40    3.90
   0   6 -13   22.00    2.90
   0  -6 -13   16.80    4.80
   0  -6  13   29.30    5.70
   0  -6 -14    9.50    4.70
   0  -6  14   10.90    5.30
   0   7   0   -4.90    3.20
   0   7  -1   73.19    6.60
   0   7   1   82.69    6.80
   0   7  -2   32.40    4.80
   0   7   2   42.30    5.00
   0   7  -3    4.30    3.40
   0   7   3    1.00    3.20
   0   7   4  222.48    9.60
   0  -7   4  211.28    6.60
   0  -7   4  216.28    6.70
   0   7   5   71.79    6.00
   0  -7   5   69.59    4.00
   0   7   6  235.98   10.00
   0  -7  -6  222.18    7.10
   0  -7   6  225.28    8.30
   0  -7  -6  217.98    7.10
   0  -7  -7   26.90    2.70
   0  -7   7   24.60    3.50
   0  -7  -8  150.28    6.60
   0  -7   8  154.68    7.80
   0  -7  -9   13.50    3.20
   0  -7   9   20.40    4.20
   0  -7 -10   61.79    5.20
   0  -7  10   62.89    6.10
   0  -7  11   85.79    7.40
   0  -7 -11   77.49    6.30
   0  -7  12    0.40    4.20
   0  -7 -12   -0.90    3.60
   0  -7  13   34.30    6.30
   0  -7 -13   33.10    5.30
   0   8   0  285.77   12.40
   0   8   1   99.99    7.30
   0   8  -1   92.89    7.80
   0   8  -2  271.67   12.50
   0   8   2  282.47   12.00
   0   8  -3   75.39    7.40
   0   8   3   75.99    6.70
   0   8   4  139.99    8.20
   0  -8   4  132.99    4.50
   0   8   5  245.58   10.90
   0  -8   5  243.58    8.30
   0   8   6  230.18   10.40
   0  -8   6  226.28    8.40
   0   8   7    9.80    3.80
   0  -8  -7    9.20    2.10
   0  -8   7    8.80    3.00
   0   8   8   87.59    7.20
   0  -8  -8   79.99    5.00
   0  -8   8   80.59    6.20
   0   8   9   99.09    7.50
   0  -8   9  105.89    7.50
   0  -8  -9  113.29    6.30
   0  -8  10   26.20    4.90
   0  -8 -10   32.70    4.20
   0  -8  11    6.70    4.50
   0  -8 -11    9.30    3.70
   0  -8 -12   53.09    5.90
   0  -8  12   56.59    7.00
   0  -8 -13   44.20    6.10
   0  -8  13   64.29    7.50
   0   9   0    3.30    4.20
   0   9  -1  136.99    8.90
   0   9   1  141.19    9.00
   0   9  -2   94.79    8.50
   0   9   2   96.89    7.70
   0   9   3  182.08    9.90
   0   9  -3  181.58   10.40
   0   9   4   68.09    6.60
   0   9   5  279.57   12.20
   0  -9   5  253.27    8.70
   0   9   6   83.99    7.40
   0  -9   6   79.49    5.10
   0   9   7    3.50    3.90
   0  -9  -7    4.70    2.00
   0  -9   7    1.70    2.70
   0   9   8    1.60    3.90
   0  -9   8   13.30    3.60
   0  -9  -8   11.40    2.60
   0   9   9   44.90    5.90
   0  -9  -9   42.50    4.10
   0  -9   9   43.50    5.20
   0   9  10   12.90    4.60
   0  -9  10   13.30    4.60
   0  -9 -10   16.70    3.60
   0  -9 -11    5.20    3.40
   0  -9  11   13.20    4.90
   0  -9  12   28.20    5.80
   0  -9 -12   26.70    4.80
   0  10   0  915.91   30.00
   0  10  -1    9.40    5.00
   0  10   1   12.70    4.60
   0  10  -2   12.50    5.30
   0  10   2    4.10    4.20
   0  10  -3   32.40    6.40
   0  10   3   30.70    5.70
   0  10   4   86.09    7.80
   0  10   5  321.77   13.60
   0 -10   5  289.17    9.70
   0  10   6   83.29    7.60
   0 -10   6   72.79    5.10
   0  10   7   15.30    5.00
   0 -10   7   15.30    3.40
   0  10   8   65.19    7.10
   0 -10   8   64.79    5.70
   0  10   9   44.50    6.00
   0 -10   9   49.30    5.50
   0 -10  10   48.50    6.10
   0 -10  11   -1.80    4.20
   0  11   0   -0.10    4.50
   0  11   1   -0.60    5.00
   0  11  -1    1.70    4.70
   0  11  -2   39.80    7.00
   0  11   2   50.89    7.30
   0  11  -3   82.69    9.30
   0  11   3   76.89    8.10
   0  11   4   16.60    5.50
   0  11   5    2.10    4.60
   0  11   6   -1.30    4.40
   0  11   7   47.00    6.80
   0  11   8   34.40    6.20
   0 -11   8   32.50    4.70
   0  11   9    0.80    4.60
   0 -11   9   -0.10    3.60
   0 -11  10   60.59    6.70
   0  12   0   -3.40    4.80
   0  12   1  123.99   11.00
   0  12  -1  104.39   10.50
   0  12  -2   14.70    6.10
   0  12   2   11.40    5.60
   0  12   3   56.09    7.50
   0  12  -3   42.10    7.70
   0  12   4   -0.60    4.80
   0  12   5  245.98   13.50
   0  12   6    5.80    5.40
   0  12   7  165.58   11.40
   0  12   8    2.30    5.00
   0  13   0    8.50    5.60
   0  13   1   10.80    6.20
   0  13  -1    6.80    6.00
   0  13  -2   13.70    6.30
   0  13   2    5.80    5.80
   0  13   3   24.90    7.10
   0  13   4   35.30    7.10
   0  13   5   16.80    6.30
   0  13   6   28.20    6.80
   0  13   7    1.10    5.30
   0  14   0    7.30    6.00
   0  14  -1    7.30    6.20
   0  14   1    1.80    5.70
   0  14   2    6.20    5.90
   0  14   3    2.50    6.10
   0  14   4    4.10    5.80
   0  14   5   36.30    7.70
   1   0 -15    0.00    4.30
   1   0 -15   -4.80    3.60
  -1   0  15    1.10    4.00
   1   0 -14   55.89    6.10
  -1   0  14   41.00    5.70
   1   0 -13   -3.30    3.40
  -1   0  13   -0.60    3.60
   1   0 -12 1076.39   31.60
  -1   0  12 1067.29   31.80
   1   0 -11    1.00    3.00
  -1   0  11   -1.10    2.90
  -1   0  10  236.78    9.80
   1   0 -10  246.18    9.70
   1   0  -9   -0.40    2.40
  -1   0   9   -5.00    2.20
  -1   0   8  134.39    6.10
   1   0  -8  131.29    6.30
  -1   0   8  126.59    6.40
  -1   0   7   -0.20    1.70
  -1   0   7    1.90    2.10
   1   0  -7   -1.90    2.00
  -1   0   6  176.48    6.90
   1   0  -6  181.68    6.80
   1   0  -6  174.98    6.80
   1   0  -5    2.20    1.30
  -1   0   5   -0.20    1.50
   1   0  -5    2.80    1.90
  -1   0   5    1.90    2.00
   1   0  -4  217.18    7.00
  -1   0   4  221.58    6.80
   1   0  -4  174.98    6.60
  -1   0   4  221.48    7.10
  -1   0   3    0.60    1.30
  -1   0   3   -2.00    1.40
   1   0  -3    0.30    0.50
   1   0  -3    0.10    1.40
  -1   0   2  657.73   17.50
  -1   0   2  637.24   17.60
   1   0  -2  654.43   17.50
   1   0  -1   -0.80    0.60
   1   0  -1   -0.90    0.40
  -1   0   1   -1.00    0.30
   1   0  -1   -0.90    0.40
  -1   0   1   -0.60    0.30
  -1   0   1   -1.00    0.40
   1   0  -1   -0.20    0.40
  -1   0   0   -4.90    0.10
   1   0   0   -5.00    0.10
  -1   0   0   -4.90    0.10
   1   0   0   -4.90    0.10
   1   0   1   -0.50    0.70
   1   0   1   -0.40    0.10
  -1   0  -1   -0.40    0.20
  -1   0  -1   -0.40    0.70
  -1   0  -2 1552.64   43.30
   1   0   2 1690.73   43.30
  -1   0  -2 1659.13   43.90
  -1   0  -3   -1.70    1.60
   1   0   3   -1.50    1.50
   1   0   3   -2.30    1.50
  -1   0  -3   -1.40    1.40
  -1   0  -4 1722.43   46.00
   1   0   4 1733.63   45.90
   1   0   4 1700.83   46.20
   1   0   5   -2.20    1.30
   1   0   5   -0.10    1.80
  -1   0  -5   -0.10    1.50
  -1   0  -5   -1.40    1.90
   1   0   6  785.72   23.00
   1   0   6  794.22   22.60
  -1   0  -6  808.32   22.80
  -1   0  -6  820.62   23.00
  -1   0  -7    2.40    2.20
   1   0   7    0.90    2.10
   1   0   7   -0.70    1.70
  -1   0  -8  676.63   19.80
   1   0   8  646.24   19.90
   1   0   9   -1.00    2.50
  -1   0  -9   -2.70    2.50
  -1   0 -10  228.38    9.70
   1   0  10  238.68    9.90
  -1   0 -11   -1.30    3.10
   1   0  11   -2.00    3.00
   1   0  12   60.59    6.00
  -1   0 -12   54.69    5.70
   1   0  13    1.70    3.80
  -1   0 -13   -3.40    3.70
   1   0  14    6.80    3.90
  -1   0 -14    0.20    4.10
   1   0  15   -1.20    4.10
  -1   0 -15   11.60    4.60
   1   1 -15    1.50    4.10
  -1   1  15    8.40    3.80
  -1  -1  15    9.50    4.60
   1  -1 -15    5.40    4.40
  -1   1  14   -0.90    3.40
   1   1 -14    1.00    3.70
  -1  -1  14    3.80    4.20
   1  -1 -14    3.80    4.00
  -1   1  13    7.50    3.70
   1   1 -13   13.80    4.20
   1   1 -13    9.50    3.80
  -1  -1  13    8.70    3.80
   1  -1 -13    5.20    3.90
  -1   1  12    3.20    3.20
   1   1 -12    1.90    3.00
   1   1 -12    4.50    3.40
   1  -1 -12    0.80    3.30
  -1  -1  12    4.10    3.40
   1   1 -11    8.10    3.10
  -1   1  11    8.10    3.20
  -1  -1  11    6.50    3.40
   1  -1 -11    1.70    3.20
  -1   1  10    0.60    2.50
   1   1 -10   -0.30    2.60
  -1  -1  10    2.80    2.90
   1  -1 -10    3.30    2.80
  -1   1   9   87.39    4.60
  -1   1   9   86.09    5.60
   1   1  -9   83.69    5.50
   1  -1  -9   70.09    5.50
  -1  -1   9   77.99    5.70
  -1   1   8  509.75   15.30
   1   1  -8  490.45   15.20
  -1   1   8  477.35   14.60
  -1  -1   8  487.05   15.60
   1  -1  -8  500.15   15.30
  -1   1   7   24.10    2.80
   1   1  -7   29.60    3.20
   1   1  -7   26.80    3.00
  -1  -1   7   26.10    3.10
  -1  -1   7   27.60    3.30
   1  -1  -7   27.60    3.10
  -1   1   6  125.09    5.40
  -1   1   6  118.29    4.80
   1   1  -6  119.49    5.40
   1   1  -6  119.39    5.40
  -1  -1   6  117.49    5.10
  -1  -1   6  115.29    5.70
   1  -1  -6  129.19    5.50
  -1   1   5 1202.28   32.10
  -1   1   5 1195.28   31.80
   1   1  -5 1182.48   32.10
   1   1  -5 1084.99   32.20
  -1  -1   5 1158.88   32.40
   1  -1  -5 1192.48   32.10
   1  -1  -5 1220.68   32.30
   1   1  -4  286.47    8.80
  -1   1   4  293.37    8.60
  -1   1   4  290.87    8.80
   1   1  -4  281.87    8.90
   1   1  -4  290.37    9.00
   1  -1  -4  286.87    8.90
   1  -1  -4  288.47    8.80
  -1  -1   4  291.17    9.60
  -1  -1   4  298.67    8.70
  -1  -1   4  287.17    9.20
  -1   1   3   21.30    1.60
  -1   1   3   19.50    1.70
   1   1  -3   21.60    2.10
   1   1  -3   18.40    1.80
   1  -1  -3   24.20    1.90
  -1  -1   3   18.60    2.50
  -1  -1   3   19.30    2.10
   1  -1  -3   22.60    1.90
  -1   1   2  369.06   10.00
   1   1  -2  378.56   11.10
   1   1  -2  386.66   10.40
   1   1  -2  381.16   10.50
  -1   1   2  365.26   10.00
   1  -1  -2  373.96   10.20
  -1  -1   2  378.96   10.40
   1  -1  -2  366.06   10.20
  -1  -1   2  371.06   11.00
  -1  -1   2  364.96   10.50
   1   1  -1  657.73   18.40
  -1   1   1  678.33   17.90
   1   1  -1  678.13   17.90
   1   1  -1  670.13   18.30
  -1  -1   1  675.23   18.50
  -1  -1   1  670.23   17.90
   1  -1  -1  669.83   17.90
  -1  -1   1  687.63   18.10
  -1   1  -1  615.14   16.40
  -1   1  -1  626.24   16.40
   1   1   1  617.74   16.50
   1   1   1  632.04   16.50
   1  -1   1  634.74   16.50
   1  -1   1  603.74   16.50
  -1  -1  -1  619.54   16.50
  -1  -1  -1  626.14   16.60
   1   1   2 1347.07   36.20
  -1   1  -2 1351.16   36.20
  -1   1  -2 1375.86   36.30
   1   1   2 1388.16   36.30
  -1  -1  -2 1388.56   36.40
  -1  -1  -2 1372.46   36.30
   1  -1   2 1381.06   36.40
   1  -1   2 1346.77   36.30
  -1   1  -3  204.68    6.60
   1   1   3  206.68    6.60
  -1   1  -3  199.68    6.60
   1   1   3  203.68    6.40
   1  -1   3  207.08    6.80
  -1  -1  -3  198.48    6.60
  -1  -1  -3  210.48    6.70
  -1   1  -4   21.50    2.30
   1   1   4   29.70    2.20
   1   1   4   25.20    2.40
  -1   1  -4   23.50    2.40
  -1  -1  -4   21.30    2.30
   1  -1   4   28.60    2.80
   1   1   5  320.37   10.70
  -1   1  -5  360.76   10.80
   1   1   5  342.47   10.40
  -1  -1  -5  347.27   10.80
   1  -1   5  353.46   11.10
   1  -1   5  359.26   10.70
  -1   1  -6    9.50    2.20
   1   1   6   12.50    2.50
  -1   1  -6   11.30    2.40
   1  -1   6   11.50    2.60
  -1  -1  -6   11.50    2.40
  -1  -1  -6   13.70    2.10
   1  -1   6   11.80    2.20
  -1   1  -7   11.90    2.40
   1   1   7   12.10    2.00
   1   1   7   16.70    2.80
  -1   1  -7   14.70    2.60
  -1  -1  -7   10.30    2.60
   1  -1   7   15.60    2.80
   1   1   8    5.60    2.50
  -1   1  -8    3.60    2.30
   1   1   8    4.20    1.90
   1  -1   8    3.00    2.50
  -1  -1  -8    4.00    2.50
  -1   1  -9   75.89    5.50
   1   1   9   70.29    5.40
  -1  -1  -9   68.09    5.60
   1  -1   9   69.89    5.60
  -1   1 -10   20.70    3.70
   1   1  10   14.20    3.30
  -1  -1 -10   18.90    3.70
   1  -1  10   14.80    3.60
   1   1  11  105.69    6.90
  -1   1 -11  111.29    7.10
   1  -1  11   95.79    7.20
  -1  -1 -11  107.49    7.30
  -1   1 -12    5.60    3.60
   1   1  12    1.70    3.30
  -1  -1 -12    7.00    3.70
   1  -1  12    6.80    3.80
  -1   1 -13   10.40    4.00
   1   1  13    2.70    3.70
   1  -1  13    6.00    3.90
  -1  -1 -13    1.50    4.00
   1   1  14   25.60    4.70
  -1   1 -14   18.20    4.60
  -1   1 -14   30.30    5.20
   1  -1  14   22.90    4.80
  -1  -1 -14   22.10    5.00
   1   1  15   18.10    4.50
  -1   1 -15   17.10    4.70
  -1  -1 -15   18.60    5.00
   1  -1  15   22.50    5.10
   1   2 -15   -0.50    3.80
  -1   2  15   -1.20    3.20
  -1  -2  15    3.70    4.40
   1  -2 -15    6.50    4.40
   1   2 -14   25.70    4.70
  -1   2  14   28.80    4.20
   1  -2 -14   24.40    5.00
  -1  -2  14   31.40    5.50
   1   2 -13   19.20    4.20
  -1   2  13   24.90    3.90
   1  -2 -13   18.30    4.70
  -1  -2  13   15.10    4.30
   1   2 -12   46.10    4.80
  -1   2  12   54.29    4.80
   1  -2 -12   36.90    4.90
  -1  -2  12   47.20    5.50
  -1   2  11   77.39    4.60
   1   2 -11   75.19    6.10
  -1   2  11   73.69    5.50
  -1  -2  11   83.99    6.60
   1  -2 -11   80.89    6.50
  -1   2  10   12.70    2.90
   1   2 -10    8.00    2.90
  -1  -2  10   15.10    3.50
   1  -2 -10   10.90    3.30
  -1   2   9   72.19    3.90
   1   2  -9   75.89    5.20
  -1   2   9   69.19    4.80
  -1  -2   9   69.39    5.60
   1  -2  -9   71.09    5.40
  -1   2   8   69.49    3.80
   1   2  -8   73.39    4.80
  -1   2   8   79.39    4.60
   1  -2  -8   84.49    5.20
  -1  -2   8   76.49    5.50
  -1   2   7    3.30    1.50
  -1   2   7   -0.60    1.80
   1   2  -7    1.40    1.80
   1   2  -7    1.30    1.90
  -1  -2   7   -0.30    2.20
   1  -2  -7    0.50    2.10
   1   2  -6  131.29    5.50
  -1   2   6  139.39    4.80
  -1   2   6  131.59    5.20
  -1  -2   6  132.29    5.30
   1  -2  -6  132.99    5.60
   1  -2  -6  139.29    5.60
  -1  -2   6  131.09    6.80
  -1  -2   6  121.49    6.00
   1   2  -5   33.50    2.70
  -1   2   5   29.00    2.20
   1   2  -5   27.50    2.50
  -1   2   5   29.50    2.00
   1  -2  -5   28.10    2.50
  -1  -2   5   27.00    3.70
   1  -2  -5   29.30    2.50
  -1  -2   5   30.50    3.10
   1   2  -4   37.40    2.80
  -1   2   4   33.80    1.80
  -1   2   4   35.00    2.00
   1   2  -4   41.40    3.00
   1  -2  -4   35.90    2.90
  -1  -2   4   40.80    3.40
  -1  -2   4   42.50    4.00
   1  -2  -4   39.00    2.80
  -1  -2   4   34.80    2.80
   1   2  -3   29.20    2.00
   1   2  -3   26.80    2.20
   1   2  -3   33.50    3.70
  -1  -2   3   26.70    3.50
  -1  -2   3   24.70    2.20
  -1  -2   3   29.10    2.40
   1  -2  -3   25.00    1.90
   1  -2  -3   25.20    2.00
   1   2  -2   23.00    1.50
   1   2  -2   22.60    3.30
   1   2  -2   27.70    1.50
  -1  -2   2   22.30    1.70
  -1  -2   2   23.90    1.80
  -1  -2   2   23.40    3.10
  -1   2   1 2918.51   78.69
   1  -2  -1 2867.71   78.39
  -1  -2   1 2874.31   76.59
  -1   2   0  481.45   13.80
   1   2   0  479.35   14.00
   1  -2   0  473.35   13.70
   1  -2   1  421.56   12.60
   1  -2   2 2503.55   66.59
  -1  -2  -2 2512.35   66.69
  -1  -2  -2 2569.04   66.69
   1  -2   2 2503.25   66.19
   1   2   3  250.97    7.20
  -1   2  -3  258.67    7.60
  -1   2  -3  258.77    7.60
   1   2   3  270.57    7.40
  -1  -2  -3  264.27    7.80
  -1  -2  -3  252.47    7.70
   1  -2   3  251.77    7.80
   1  -2   3  250.07    8.00
   1   2   4   88.49    3.80
  -1   2  -4   95.79    4.00
   1   2   4   91.09    3.60
  -1   2  -4   91.19    3.90
   1  -2   4   86.89    4.00
  -1  -2  -4   88.59    4.10
  -1  -2  -4   86.79    4.20
   1  -2   4   89.49    4.40
  -1   2  -5   74.29    3.90
  -1   2  -5   78.79    3.80
   1   2   5   72.19    3.50
   1   2   5   71.39    3.80
  -1   2  -5   66.89    4.00
  -1  -2  -5   68.09    4.20
  -1  -2  -5   65.99    4.00
   1  -2   5   66.69    4.30
   1   2   6  153.28    5.60
   1   2   6  159.08    6.00
  -1   2  -6  154.58    6.10
   1  -2   6  143.49    6.50
  -1  -2  -6  162.88    6.40
  -1   2  -7  146.79    6.40
  -1   2  -7  153.58    6.30
   1   2   7  149.19    6.20
   1   2   7  150.08    5.70
   1  -2   7  152.28    7.00
  -1  -2  -7  161.68    6.70
  -1   2  -8   70.99    4.90
   1   2   8   68.99    4.70
   1  -2   8   61.59    5.30
  -1  -2  -8   81.39    5.30
   1   2   9  130.49    5.70
  -1   2  -9  142.19    6.80
   1   2   9  140.89    6.50
   1  -2   9  136.19    7.40
  -1  -2  -9  144.49    7.20
   1   2  10   98.89    5.10
   1   2  10  108.69    6.20
  -1   2 -10   90.89    6.10
  -1   2 -10   94.29    6.30
   1  -2  10   95.69    6.80
  -1  -2 -10   93.09    6.70
   1   2  11  389.06   13.20
  -1   2 -11  385.56   13.50
  -1   2 -11  395.16   13.80
   1   2  11  367.56   12.40
   1  -2  11  384.86   14.40
  -1  -2 -11  382.26   13.90
  -1   2 -12    3.30    3.40
   1   2  12    3.10    3.20
  -1  -2 -12    0.70    3.40
   1  -2  12    7.10    4.00
  -1   2 -13   -6.80    3.30
   1   2  13    0.10    3.20
   1  -2  13   -0.30    3.70
  -1  -2 -13   -2.30    3.70
  -1   2 -14    6.90    4.00
   1   2  14    4.40    3.50
  -1  -2 -14    7.80    4.50
   1  -2  14   14.70    4.90
  -1   2 -15   -4.30    3.60
   1   2  15    2.60    3.40
   1  -2  15    5.30    4.70
  -1  -2 -15   -0.20    4.70
   1   3 -15    0.90    3.70
  -1  -3  15    2.90    4.60
   1  -3 -15   -1.40    4.40
  -1   3  14    3.00    2.50
   1   3 -14    2.30    3.70
   1  -3 -14   -1.60    4.10
  -1  -3  14   -3.40    4.00
  -1   3  13   68.29    4.90
   1   3 -13   72.29    6.00
  -1  -3  13   72.79    7.00
   1  -3 -13   51.79    5.70
  -1   3  12   11.80    2.70
   1   3 -12   13.10    3.50
  -1  -3  12   22.90    4.70
   1  -3 -12   21.20    4.30
   1   3 -11    5.60    3.10
  -1   3  11    5.90    2.30
  -1   3  11    9.30    2.10
   1  -3 -11    7.50    3.30
  -1  -3  11   16.10    3.90
  -1   3  10   21.60    2.30
   1   3 -10   20.00    3.30
  -1   3  10   23.20    2.70
  -1  -3  10   18.00    3.80
   1  -3 -10   22.80    3.80
   1   3  -9   39.50    4.90
  -1   3   9   41.00    3.00
  -1   3   9   32.20    2.80
   1   3  -9   31.60    3.40
   1  -3  -9   31.50    3.60
  -1  -3   9   48.60    4.80
  -1   3   8   33.30    2.20
   1   3  -8   28.00    3.00
  -1   3   8   34.20    2.40
   1   3  -8   30.40    3.10
  -1  -3   8   36.60    4.00
   1  -3  -8   29.80    3.30
   1   3  -7    1.30    1.50
   1   3  -7    2.90    1.90
  -1   3   7    1.10    1.10
  -1  -3   7    1.30    2.30
   1  -3  -7   -3.30    1.90
   1   3  -6  277.47    8.70
   1   3  -6  257.87    8.60
  -1  -3   6  275.37    9.50
   1  -3  -6  269.47    8.90
   1  -3  -6  268.07    8.80
   1   3  -5 1277.47   33.90
   1   3  -5 1258.07   34.00
  -1  -3   5 1212.88   34.10
   1  -3  -5 1274.97   33.90
   1  -3  -5 1244.08   34.00
  -1  -3   5 1295.17   36.10
  -1  -3   5 1251.67   34.60
   1   3  -4   11.80    1.50
   1   3  -4    8.80    1.50
   1  -3  -4    8.30    1.50
  -1  -3   4    8.60    2.00
  -1  -3   4    9.50    1.60
  -1  -3   4   13.00    3.40
   1  -3  -4    9.20    1.40
   1   3  -3  284.37   10.60
  -1  -3   3  295.77    8.90
  -1  -3   3  304.67   10.80
  -1  -3   3  311.87    8.70
   1   3  -2 1739.53   47.30
  -1   3   2 1711.83   46.40
  -1  -3   2 1749.43   47.30
  -1  -3   2 1747.73   45.70
  -1  -3   2 1694.63   45.30
  -1   3   1 1496.95   40.70
   1  -3  -1 1501.05   40.70
  -1  -3   1 1517.85   41.30
  -1   3   0    5.90    2.60
   1   3   0    5.60    2.70
  -1  -3   0    5.50    2.50
   1  -3   0    5.50    2.30
  -1   3  -1    3.30    2.50
   1   3   1    1.40    2.30
   1  -3   1   -0.30    2.70
   1  -3   2 6322.87  166.98
   1  -3   3   55.49    2.80
  -1  -3  -3   53.39    2.60
   1  -3   3   54.99    4.60
   1  -3   3   59.69    3.10
  -1  -3  -3   57.99    2.60
  -1   3  -4  141.19    4.50
  -1   3  -4  138.09    4.50
  -1  -3  -4  129.09    4.90
   1  -3   4  126.89    6.60
   1  -3   4  126.29    4.90
   1  -3   4  132.19    5.30
  -1  -3  -4  138.59    5.00
  -1   3  -5  167.88    5.90
  -1   3  -5  177.68    6.00
  -1  -3  -5  175.98    6.40
  -1  -3  -5  186.58    6.40
   1  -3   5  176.08    6.30
   1  -3   5  166.58    6.70
  -1   3  -6    2.30    1.50
  -1   3  -6    2.30    1.70
   1   3   6    1.20    1.10
   1   3   6    1.80    1.40
  -1  -3  -6    2.10    2.10
   1  -3   6    0.00    2.20
   1   3   7   14.10    1.80
   1   3   7   16.00    2.00
  -1   3  -7   12.60    2.30
  -1  -3  -7   15.00    2.70
   1  -3   7   18.40    3.10
  -1   3  -8   46.00    3.60
   1   3   8   42.60    3.10
   1   3   8   47.70    3.60
  -1   3  -8   44.80    3.70
  -1  -3  -8   45.50    4.10
   1  -3   8   43.50    4.30
   1   3   9  139.29    5.60
  -1   3  -9  134.79    6.60
  -1   3  -9  162.08    7.30
   1   3   9  144.99    6.10
  -1  -3  -9  139.99    7.30
   1  -3   9  144.99    7.70
  -1   3 -10   35.60    3.90
   1   3  10   34.00    2.90
   1   3  10   32.40    3.40
   1  -3  10   32.50    4.60
  -1  -3 -10   34.50    4.40
   1   3  11  296.07   10.20
  -1   3 -11  299.27   11.00
  -1  -3 -11  283.07   11.70
   1  -3  11  283.67   12.20
   1   3  12  110.29    5.90
  -1   3 -12  101.99    6.90
   1  -3  12   99.69    8.20
  -1  -3 -12  109.69    7.90
  -1   3 -13   17.50    4.00
   1   3  13   25.30    3.50
   1  -3  13   17.50    4.60
  -1  -3 -13   19.70    4.70
   1   3  14   -2.50    2.60
  -1   3 -14   -2.00    3.40
   1  -3  14   -1.10    4.20
  -1  -3 -14    6.30    4.40
  -1   3 -15   36.60    5.30
   1  -3  15   38.10    6.40
  -1  -3 -15   48.10    6.70
   1   4 -15   -2.10    3.50
   1  -4 -15    2.70    4.60
  -1  -4  15   -2.10    4.70
   1   4 -14   -0.60    3.30
  -1  -4  14   -1.00    4.30
   1  -4 -14   -3.80    3.90
   1   4 -13    1.20    3.10
  -1  -4  13    2.30    4.20
   1  -4 -13   -1.60    3.50
   1   4 -12  224.18    9.30
   1  -4 -12  224.98   10.40
  -1  -4  12  222.28   11.10
   1   4 -11    9.90    3.00
   1  -4 -11    6.50    3.40
  -1  -4  11    6.40    3.70
   1   4 -10  137.99    6.50
   1   4 -10  129.79    6.10
   1  -4 -10  114.59    7.00
  -1  -4  10  129.79    8.00
   1   4  -9    3.90    1.90
   1   4  -9    4.40    2.30
  -1  -4   9    9.10    3.20
   1  -4  -9    4.60    2.80
   1   4  -8   97.59    4.80
   1   4  -8   84.79    4.40
   1  -4  -8   86.69    5.20
  -1  -4   8   92.49    6.10
   1   4  -7  335.17   10.40
   1   4  -7  341.97   10.40
  -1  -4   7  340.67   11.60
   1  -4  -7  326.87   10.70
   1   4  -6   19.30    1.90
   1   4  -6   18.40    2.00
  -1  -4   6   18.40    2.90
   1  -4  -6   21.40    2.30
   1  -4  -6   20.80    2.30
   1   4  -5 2264.27   57.39
   1   4  -5 2169.48   57.39
   1  -4  -5 2256.67   57.89
  -1  -4   5 2118.49   58.19
   1  -4  -5 2179.38   57.69
  -1  -4   5 2100.09   58.49
   1   4  -4   33.30    4.60
  -1  -4   4   37.50    2.70
  -1  -4   4   41.10    5.30
  -1  -4   4   32.00    2.60
   1   4  -3   14.30    3.60
  -1   4   3   12.50    2.60
  -1  -4   3   12.20    1.40
  -1  -4   3   12.40    1.50
  -1  -4   3   13.60    3.40
  -1   4   2   16.70    2.90
  -1  -4   2   26.40    3.80
  -1   4   1  433.56   13.60
   1  -4  -1  422.96   13.40
  -1  -4   1  439.36   14.20
   1   4   0   29.50    3.80
  -1   4   0   18.40    3.00
   1  -4   0   22.30    3.40
  -1  -4   0   22.00    3.50
  -1   4  -1  898.61   25.10
   1   4   1  830.92   24.60
   1  -4   1  841.32   24.90
   1  -4   2    1.10    2.80
   1  -4   3   52.19    4.90
   1  -4   3   58.69    2.70
   1  -4   3   55.89    2.60
   1  -4   4  241.88    7.70
  -1  -4  -4  227.08    7.10
   1  -4   4  236.18    7.50
  -1  -4  -4  245.28    7.20
  -1  -4  -5   72.59    3.80
   1  -4   5   72.09    3.80
   1  -4   5   68.59    4.30
  -1  -4  -5   77.09    3.80
  -1   4  -6   81.19    3.60
  -1   4  -6   77.89    3.50
   1  -4   6   78.89    4.90
  -1  -4  -6   78.29    4.50
  -1   4  -7   43.00    3.30
  -1   4  -7   39.90    3.00
   1  -4   7   54.39    4.60
  -1  -4  -7   45.20    3.60
  -1   4  -8  269.37    8.80
  -1   4  -8  251.17    8.60
  -1  -4  -8  251.77    9.40
  -1   4  -9  109.79    5.50
  -1  -4  -9   98.69    6.40
   1  -4   9  116.79    7.20
  -1   4 -10   43.60    3.90
  -1   4 -10   36.00    3.50
   1  -4  10   47.20    5.20
  -1  -4 -10   40.60    4.50
  -1   4 -11  103.09    6.20
   1  -4  11  104.49    8.00
  -1  -4 -11  105.99    7.50
  -1   4 -12  161.38    7.80
   1  -4  12  152.88    9.60
  -1  -4 -12  157.08    9.20
  -1   4 -13    7.40    3.40
  -1  -4 -13   17.80    4.50
   1  -4  13   11.80    4.70
  -1   4 -14    2.80    3.30
  -1  -4 -14    2.00    4.40
   1  -4  14    9.90    5.00
   1   5 -14   34.00    4.20
  -1  -5  14   37.30    6.40
   1  -5 -14   30.90    5.50
   1   5 -13   18.30    3.50
   1  -5 -13   25.60    4.80
  -1  -5  13   35.60    5.90
   1   5 -12   71.19    5.30
  -1  -5  12   87.29    7.70
   1  -5 -12   73.19    6.40
   1   5 -11    0.00    2.30
  -1  -5  11    3.80    3.80
   1  -5 -11   -1.20    3.10
   1   5 -10   15.60    2.40
   1   5 -10   17.10    2.80
   1  -5 -10   12.20    3.50
  -1  -5  10    9.00    3.70
   1   5  -9  105.19    4.90
   1   5  -9  104.39    4.80
   1  -5  -9  109.19    6.10
  -1  -5   9  104.59    7.00
   1   5  -8   65.19    3.50
   1   5  -8   75.29    3.70
  -1  -5   8   73.59    5.70
   1  -5  -8   64.69    4.70
   1   5  -7  157.08    4.90
   1   5  -7  144.69    4.90
   1  -5  -7  159.18    6.10
  -1  -5   7  152.58    7.00
   1  -5  -6  386.66   11.50
  -1  -5   6  386.16   12.50
   1  -5  -6  393.66   11.40
  -1  -5   5   32.50    2.60
   1  -5  -5   35.90    1.90
  -1  -5   5   38.60    3.10
   1   5  -4 1310.57   38.40
  -1   5   4 1357.06   36.90
  -1  -5   4 1315.67   35.70
  -1  -5   4 1316.67   35.50
  -1   5   3  432.26   13.80
  -1  -5   3  435.66   11.90
  -1   5   2   18.00    3.10
   1   5  -2   14.80    3.30
  -1  -5   2   20.40    4.40
   1   5  -1   -0.20    3.00
  -1   5   1   -2.40    2.20
  -1  -5   1    0.10    2.80
   1  -5  -1    0.60    2.20
  -1   5  -1  272.27   10.30
   1  -5   1  268.97   10.30
  -1   5  -3   57.39    7.10
   1  -5   3   62.99    7.30
   1  -5   4   40.80    3.00
   1  -5   4   42.70    2.80
   1  -5   5  147.29    6.00
  -1  -5  -5  146.49    5.30
  -1  -5  -5  151.48    5.40
   1  -5   6   -1.20    2.00
  -1  -5  -6    0.30    1.80
  -1  -5  -7   51.99    3.80
   1  -5   7   58.39    4.70
  -1   5  -8    5.10    1.60
  -1   5  -8    7.20    1.70
   1  -5   8    1.60    2.80
  -1  -5  -8    5.20    2.60
  -1   5  -9   57.29    3.80
  -1   5  -9   54.69    3.60
   1  -5   9   63.89    5.70
  -1  -5  -9   67.69    5.50
  -1   5 -10   30.50    3.40
  -1   5 -10   35.70    3.30
   1  -5  10   30.60    4.70
  -1  -5 -10   24.20    4.00
  -1   5 -11   15.20    2.90
  -1  -5 -11   17.20    4.20
   1  -5  11   15.80    4.30
  -1   5 -12   14.00    3.10
   1  -5  12   11.60    4.60
  -1  -5 -12   16.30    4.30
  -1   5 -13    0.50    2.90
  -1  -5 -13    6.50    4.30
   1  -5  13    5.70    4.60
  -1   5 -14   52.19    4.80
  -1  -5 -14   70.99    7.30
   1  -5  14   71.69    7.70
   1   6 -14  122.69    8.60
   1  -6 -14  117.09    8.80
  -1  -6  14   94.89    8.60
   1   6 -13    1.50    2.40
  -1  -6  13    5.40    4.70
   1  -6 -13   10.50    4.30
   1   6 -12   63.29    4.20
  -1  -6  12   69.89    7.20
   1  -6 -12   71.19    6.40
   1   6 -11    7.60    2.00
  -1  -6  11   10.20    4.20
   1  -6 -11   12.60    3.60
   1  -6 -10    2.10    2.90
  -1  -6  10    2.00    3.50
  -1  -6   9   31.10    4.40
   1  -6  -9   32.40    3.70
  -1  -6   8  222.38    9.40
   1  -6  -8  219.38    8.10
  -1  -6   7  112.79    6.10
   1  -6  -7  103.89    4.80
  -1   6   6    1.70    2.20
   1  -6  -6   14.60    1.70
   1  -6  -6   13.70    1.70
  -1  -6   6   10.40    2.40
   1   6  -4   35.50    4.40
  -1  -6   4   33.30    2.30
  -1  -6   4   33.60    2.60
  -1   6   2  113.89    6.50
   1   6  -2  126.59    7.30
  -1   6   1  145.19    7.30
   1   6  -1  145.79    7.80
   1  -6  -1  143.09    7.00
   1   6   0  549.85   18.00
  -1   6   0  533.95   17.70
  -1   6  -1 1726.13   48.40
   1   6   1 1700.23   48.20
   1   6   2   21.80    3.90
  -1   6  -2   24.10    4.50
   1   6   3   85.49    6.10
   1   6   4  189.48    8.50
   1  -6   4  181.58    5.90
   1  -6   4  185.28    6.10
  -1  -6  -5  129.69    4.60
  -1  -6  -5  128.59    4.50
   1  -6   5  124.99    5.40
   1  -6   6    6.90    2.30
  -1  -6  -6    5.40    1.90
  -1  -6  -7   48.40    4.10
   1  -6   7   39.50    4.00
   1  -6   8    1.00    2.70
  -1  -6  -8    0.40    2.40
   1  -6   9   10.90    3.70
  -1  -6  -9   15.60    3.40
  -1  -6 -10   64.59    5.30
   1  -6  10   51.39    5.60
  -1  -6 -11   61.89    5.60
   1  -6  11   56.59    6.10
  -1   6 -12   16.60    2.40
   1  -6  12   14.20    4.80
  -1  -6 -12   15.20    4.50
  -1  -6 -13  122.19    9.10
   1  -6  13  135.99   10.30
  -1  -6 -14   11.40    4.90
   1  -6  14   11.20    5.30
   1  -7 -14   -4.70    4.00
   1  -7 -13   63.19    6.60
  -1  -7  13   56.89    7.20
   1  -7 -12   -4.40    3.40
  -1  -7  12    0.60    4.20
   1  -7 -11    4.20    3.40
  -1  -7  11   -2.40    3.60
   1  -7 -10    4.20    2.90
  -1  -7  10    0.70    3.70
  -1  -7   9   27.30    4.40
   1  -7  -9   31.00    3.60
  -1   7   8   25.70    4.10
  -1  -7   8   33.10    4.10
   1  -7  -8   25.80    3.00
  -1   7   7    6.50    3.30
   1  -7  -7    7.70    2.00
  -1  -7   7   10.70    2.90
  -1   7   6   45.80    4.60
  -1  -7   6   39.60    3.60
  -1   7   5  261.57   10.40
  -1  -7   5  261.97    8.70
  -1   7   4    3.70    3.00
  -1  -7   4    5.60    1.40
  -1  -7   4    5.90    1.30
  -1   7   3  299.07   11.60
   1   7  -3  315.27   12.90
   1   7  -2   -2.20    3.30
  -1   7   2    3.10    3.00
  -1   7   1  361.16   13.40
   1   7  -1  354.86   13.70
  -1   7   0   81.79    6.60
   1   7   0   76.29    6.30
  -1   7  -1  493.15   17.20
   1   7   1  488.85   16.90
  -1   7  -2  459.35   16.50
   1   7   2  468.15   16.30
   1   7   3   -0.90    3.20
   1   7   4   42.20    5.10
   1  -7   4   41.60    2.60
   1  -7   4   39.20    2.40
   1   7   5   39.60    4.90
   1  -7   5   36.90    3.00
  -1  -7  -6   64.39    3.70
   1  -7   6   54.59    4.40
   1  -7   7    4.00    2.60
  -1  -7  -7    8.30    2.30
   1  -7   8   33.70    4.20
  -1  -7  -8   33.40    3.60
   1  -7   9   61.89    5.70
  -1  -7  -9   73.39    5.30
   1  -7  10  116.99    8.40
  -1  -7 -10  119.89    7.20
   1  -7  11   10.80    4.40
  -1  -7 -11   14.30    4.00
  -1  -7 -12   -2.70    3.70
   1  -7  12    6.30    4.60
   1  -7  13   10.20    5.20
  -1  -7 -13    6.00    4.60
  -1  -8  13   46.00    7.00
   1  -8 -13   48.50    6.10
   1  -8 -12   18.50    4.30
  -1  -8  12   33.60    5.80
   1  -8 -11   -1.90    3.00
  -1  -8  11   -1.20    3.80
   1  -8 -10   32.60    4.10
  -1  -8  10   46.60    5.70
  -1   8   9   -0.40    3.30
   1  -8  -9    2.70    2.60
  -1  -8   9    7.20    3.50
  -1   8   8    4.60    3.40
   1  -8  -8    3.90    2.30
  -1  -8   8    0.40    2.90
  -1   8   7   17.90    3.90
  -1  -8   7   20.30    3.30
   1  -8  -7   22.20    2.30
  -1   8   6   38.40    4.90
  -1  -8   6   39.20    3.50
  -1   8   5  274.17   11.20
  -1  -8   5  267.97    8.90
  -1   8   4  139.89    7.80
  -1  -8   4  141.49    4.90
  -1  -8   4  147.09    4.80
  -1   8   3   29.30    4.70
   1   8  -3   23.20    5.00
   1   8  -2   17.10    4.70
  -1   8   2   25.40    4.60
  -1   8   1   82.69    7.00
   1   8  -1   67.99    7.00
  -1   8   0  345.07   13.70
   1   8   0  335.47   13.90
  -1   8  -1    7.90    4.40
   1   8   1   13.30    4.30
  -1   8  -2   64.59    6.30
   1   8   2   64.19    6.20
   1   8   3  113.19    7.70
   1   8   4   11.80    4.10
   1  -8   4   10.50    1.40
   1  -8   4   12.80    1.40
   1   8   5    5.00    3.70
   1  -8   5    7.10    2.00
   1   8   6   25.80    4.80
   1  -8   6   33.00    3.40
  -1  -8  -6   35.30    2.60
   1   8   7    9.10    4.10
   1  -8   7    9.70    2.90
  -1  -8  -8   -0.30    2.40
   1  -8   8    5.90    3.10
   1  -8   9    9.10    3.70
  -1  -8  -9    4.90    3.00
  -1  -8 -10   24.40    4.10
   1  -8  10   43.90    5.60
   1  -8  11    8.90    4.50
  -1  -8 -11   11.10    3.90
   1  -8  12   14.60    5.20
  -1  -8 -12   13.80    4.40
   1  -9 -12   -1.10    3.70
  -1  -9  12    5.30    4.70
  -1  -9  11   10.50    4.60
   1  -9 -11    8.50    3.50
  -1   9  10    8.70    3.90
  -1  -9  10   12.50    4.30
   1  -9 -10   12.90    3.40
   1  -9  -9   34.40    3.70
  -1  -9   9   43.80    5.30
  -1   9   8    0.80    3.50
   1  -9  -8    0.00    2.00
  -1  -9   8    2.30    2.90
  -1   9   7   38.80    5.30
  -1  -9   7   36.10    4.00
   1  -9  -7   36.50    3.00
  -1   9   6   32.20    4.90
  -1  -9   6   29.60    3.30
   1   9  -5   14.10    4.50
  -1   9   5   20.20    4.50
  -1  -9   5   19.50    2.50
  -1   9   4  182.68    9.60
   1   9  -4  181.48   11.10
  -1   9   3  122.29    8.10
   1   9  -3  125.49    9.00
  -1   9   2  134.39    8.90
   1   9  -2  142.69    9.80
   1   9  -1   45.70    6.50
  -1   9   1   57.49    7.00
  -1   9   0   15.90    4.60
   1   9   0   18.30    4.60
  -1   9  -1   56.59    6.60
   1   9   1   55.59    6.40
  -1   9  -2   65.29    7.20
   1   9   2   73.29    7.40
   1   9   3   19.60    4.80
   1   9   4   29.80    5.50
   1   9   5  306.77   13.20
   1  -9   5  303.97    9.80
   1   9   6    3.10    4.20
   1  -9   6   -1.20    2.10
  -1  -9  -6    0.70    1.40
   1   9   7   67.69    7.00
   1  -9   7   64.19    5.00
  -1  -9  -7   62.69    4.40
   1   9   8   81.79    7.70
  -1  -9  -8   69.89    5.10
   1  -9   8   82.49    6.40
   1   9   9    3.50    4.40
   1  -9   9   -1.30    3.40
  -1  -9  -9    1.00    2.80
   1   9  10    4.40    4.40
  -1  -9 -10    5.90    3.30
   1  -9  10    7.10    4.30
   1  -9  11    3.50    4.40
  -1  -9 -11    1.90    3.40
   1  -9  12    1.10    4.70
  -1  -9 -12    5.60    4.10
  -1 -10  11    8.70    4.80
  -1 -10  10   64.89    6.70
  -1  10   9   87.79    7.80
  -1 -10   9  103.19    7.80
  -1  10   8   58.79    6.50
  -1 -10   8   59.99    5.50
  -1  10   7  345.47   14.10
  -1 -10   7  334.17   12.20
  -1  10   6   17.10    4.70
  -1 -10   6   14.30    2.90
  -1  10   5   28.10    5.20
  -1 -10   5   31.00    2.90
  -1  10   4  124.89    8.60
   1  10  -4  122.89   10.30
  -1  10   3   97.09    8.50
   1  10  -3   83.59    8.30
  -1  10   2   -5.30    4.00
   1  10  -2   -2.10    4.10
  -1  10   1    5.20    4.60
   1  10  -1    8.70    5.30
   1  10   0   42.40    6.60
  -1  10   0   52.39    7.00
   1  10   1  100.39    8.30
  -1  10  -1  109.49    9.10
  -1  10  -2   35.50    6.40
   1  10   2   33.70    6.00
   1  10   3  220.38   11.80
   1  10   4   10.00    4.70
   1  10   5   31.70    5.80
   1 -10   5   23.20    2.70
   1  10   6  116.99    9.10
   1 -10   6  124.59    6.20
   1  10   7    3.40    4.50
   1 -10   7    5.40    3.00
   1  10   8   40.80    6.50
   1 -10   8   34.80    4.50
   1  10   9    2.00    4.30
   1 -10   9    3.50    3.70
   1  10  10    0.40    4.50
   1 -10  10    0.70    3.90
   1 -10  11   64.79    7.30
  -1 -11  10   -0.30    4.00
  -1 -11   9   -1.50    3.70
  -1  11   8   14.40    4.80
  -1 -11   8    5.90    3.70
  -1  11   7    9.90    4.90
  -1 -11   7   12.20    3.70
  -1  11   6  129.09    9.40
  -1  11   5   -4.80    4.00
  -1  11   4   12.60    5.10
   1  11  -4   19.10    6.50
  -1  11   3    6.40    4.60
   1  11  -3    1.10    5.50
   1  11  -2    5.00    5.50
  -1  11   2    4.90    4.80
   1  11  -1   22.80    6.30
  -1  11   1   21.10    5.70
   1  11   0  129.19   10.60
  -1  11   0  118.79    9.70
   1  11   1   25.50    6.50
  -1  11  -1   24.70    6.20
  -1  11  -2   12.40    5.70
   1  11   2   11.00    5.20
   1  11   3   -6.00    4.40
   1  11   4    8.90    5.20
   1  11   5   63.49    7.80
   1  11   6  119.59   10.00
   1  11   7   62.09    7.50
   1  11   8  104.69    9.40
   1 -11   8   89.99    8.20
   1  11   9   -2.40    4.70
   1 -11   9    4.40    3.90
   1 -11  10   -2.90    4.00
   1  12  -9    8.60    8.20
  -1  12   8   88.19   10.20
  -1  12   7   64.79    7.70
  -1  12   6   -6.80    4.60
  -1  12   5  212.28   12.40
   1  12  -4   16.30    6.80
  -1  12   4   10.60    5.60
  -1  12   3   24.40    6.30
   1  12  -3   19.90    6.80
   1  12  -2   12.00    5.70
  -1  12   2    9.60    5.20
  -1  12   1   62.49    7.90
   1  12  -1   71.09    9.10
  -1  12   0   16.00    6.00
   1  12   0   16.50    6.60
   1  12   1   16.70    6.20
  -1  12  -1   17.00    5.70
   1  12   2   -3.20    5.20
   1  12   3   24.50    6.50
   1  12   4   10.30    5.60
   1  12   5   14.00    6.10
   1  12   6   15.40    6.10
   1  12   7  130.29   10.60
   1  12   8    3.00    5.30
  -1  13   7   12.40    5.60
  -1  13   6   12.00    5.80
  -1  13   5  111.89   10.00
  -1  13   4    0.10    5.30
   1  13  -3   -0.50    5.90
  -1  13   3    7.50    5.80
   1  13  -2   52.09    8.60
  -1  13   2   53.99    7.80
   1  13  -1   -0.60    5.80
  -1  13   1    5.80    5.30
   1  13   0   -1.20    5.40
  -1  13   0   -3.80    5.20
  -1  13  -1    1.50    5.90
   1  13   1   -7.80    5.40
   1  13   2  184.08   13.10
   1  13   3    4.00    5.70
   1  13   4  137.79   11.50
   1  13   5   -3.20    5.50
   1  13   6   75.99    9.10
   1  13   7    3.10    5.70
  -1  14   5   37.00    7.40
  -1  14   4   26.80    7.00
  -1  14   3   77.69    9.20
   1  14  -3   79.69   10.70
   1  14  -2   75.39   10.80
  -1  14   2   70.99    9.20
   1  14  -1   67.29    9.50
  -1  14   1   51.39    8.20
   1  14   0   19.30    6.70
  -1  14   0    8.40    6.20
   1  14   1   29.00    7.60
   1  14   2   -0.90    5.80
   1  14   3    2.40    6.30
   1  14   4   -4.90    5.70
   2   0 -16   42.70   11.50
   2   0 -15    2.10    3.90
   2   0 -15    5.20    4.40
  -2   0  15    5.30    4.10
   2   0 -14  171.78    9.70
   2   0 -14  187.08   10.20
  -2   0  14  185.48    9.90
   2   0 -13   -0.50    3.50
  -2   0  13   -1.70    3.40
  -2   0  12    1.50    3.40
   2   0 -12    2.40    3.30
   2   0 -11    1.80    3.00
  -2   0  11    6.80    3.20
   2   0 -10   10.40    3.10
  -2   0  10    9.00    3.20
  -2   0   9   -3.80    2.40
   2   0  -9    3.00    2.50
   2   0  -8    6.30    2.40
  -2   0   8    4.70    2.00
  -2   0   8    4.10    2.40
   2   0  -7    1.40    2.10
  -2   0   7    1.30    2.20
  -2   0   7    0.60    1.70
  -2   0   6   -0.70    1.30
  -2   0   6    0.60    2.10
   2   0  -6   -0.70    1.70
   2   0  -6    1.80    2.00
  -2   0   5   -0.80    1.90
   2   0  -5   -2.20    1.80
  -2   0   5   -2.30    1.40
   2   0  -5    0.00    1.20
  -2   0   4  383.66   11.20
   2   0  -4  391.66   11.40
  -2   0   4  388.96   11.50
  -2   0   4  388.26   11.60
  -2   0   3   -0.10    1.40
   2   0  -3   -0.10    0.10
  -2   0   3   -1.10    1.50
  -2   0   3   -0.30    1.30
   2   0  -3   -0.70    1.40
  -2   0   2  499.15   13.60
   2   0  -2  498.45   13.60
   2   0  -2  504.15   13.60
  -2   0   2  497.15   13.70
  -2   0   2  484.05   13.60
   2   0  -1   -3.90    0.70
  -2   0   1   -3.80    0.70
  -2   0   1   -4.50    0.70
   2   0  -1   -3.00    0.60
   2   0   0 3212.18   86.59
  -2   0   0 3294.07   86.49
  -2   0   0 3277.17   86.29
  -2   0  -1    0.30    0.90
  -2   0  -1   -0.30    1.00
   2   0   1    0.70    1.00
   2   0   1    0.10    0.30
  -2   0  -2  258.87    7.80
  -2   0  -2  253.97    7.80
   2   0   2  251.57    7.80
   2   0   2  262.67    7.70
  -2   0  -3   -0.10    1.60
   2   0   3   -0.50    1.70
  -2   0  -3    1.10    1.50
   2   0   3   -1.20    1.40
  -2   0  -4 1122.59   31.40
   2   0   4 1169.88   31.20
  -2   0  -4 1147.69   31.30
   2   0   4 1157.68   31.50
   2   0   5   -0.40    1.90
  -2   0  -5    0.60    1.70
   2   0   5    1.60    1.60
  -2   0  -5   -1.70    1.90
   2   0   6  327.07   11.00
  -2   0  -6  333.37   10.90
  -2   0  -6  336.57   10.90
   2   0   6  331.37   10.50
   2   0   7    1.40    2.20
  -2   0  -7   -3.40    2.10
   2   0   8  270.77   10.10
  -2   0  -8  276.27   10.00
  -2   0  -9   -0.70    2.50
   2   0   9   -0.80    2.50
   2   0  10    4.00    3.00
  -2   0 -10    4.60    3.10
  -2   0 -11    0.00    3.20
   2   0  11    0.50    3.00
   2   0  12    7.80    3.80
  -2   0 -12    6.10    3.90
  -2   0 -13    1.80    3.90
   2   0  13   -3.20    3.40
  -2   0 -14   18.40    4.80
   2   0  14   14.50    4.40
   2   0  15    5.80    4.40
  -2   0 -15    4.50    4.50
   2   1 -15   44.30    5.70
  -2   1  15   46.10    5.30
  -2  -1  15   55.69    6.50
   2  -1 -15   42.70    5.90
   2   1 -14    8.30    3.90
  -2   1  14    6.00    3.60
   2  -1 -14    2.20    3.80
  -2  -1  14    3.40    4.20
  -2   1  13  129.49    7.80
   2   1 -13  133.69    8.20
  -2  -1  13  124.69    8.70
   2  -1 -13  127.59    8.30
  -2   1  12   33.10    4.40
   2   1 -12   23.50    4.00
   2  -1 -12   20.70    4.20
  -2  -1  12   18.30    4.00
   2   1 -11  125.99    7.00
  -2   1  11  133.59    7.10
   2   1 -11  116.79    7.10
  -2  -1  11  104.49    7.30
   2  -1 -11  124.59    7.40
   2   1 -10  297.27   10.70
  -2   1  10  283.87   10.60
  -2   1  10  273.57    9.80
   2   1 -10  292.17   10.60
  -2  -1  10  283.27   11.10
   2  -1 -10  282.37   10.80
  -2   1   9   60.89    4.00
   2   1  -9   69.89    4.90
   2   1  -9   73.19    5.10
  -2   1   9   62.19    5.00
   2  -1  -9   69.19    4.90
  -2  -1   9   51.09    4.60
   2   1  -8    7.70    2.40
  -2   1   8    6.10    1.90
  -2   1   8    5.00    2.40
  -2  -1   8    6.00    2.60
   2  -1  -8    7.40    2.50
  -2  -1   8    6.90    2.90
  -2   1   7  251.17    8.00
  -2   1   7  241.78    8.50
   2   1  -7  244.68    8.70
   2   1  -7  234.28    8.50
   2   1  -7  231.88    8.40
  -2  -1   7  245.88    9.20
  -2  -1   7  235.48    8.30
   2  -1  -7  240.88    8.60
  -2  -1   7  240.78    8.90
   2   1  -6   35.00    3.00
   2   1  -6   44.40    3.40
  -2   1   6   35.50    2.90
  -2   1   6   30.60    2.90
   2   1  -6   35.00    3.00
   2  -1  -6   39.60    3.10
   2  -1  -6   41.70    3.20
  -2  -1   6   41.50    3.00
  -2  -1   6   40.90    3.60
  -2  -1   6   34.00    3.60
  -2   1   5  237.18    7.60
  -2   1   5  238.38    7.30
   2   1  -5  184.58    7.50
   2   1  -5  231.58    7.70
  -2  -1   5  229.48    8.00
  -2  -1   5  238.98    8.40
   2  -1  -5  228.38    7.70
   2  -1  -5  235.18    7.60
  -2   1   4   86.69    3.50
   2   1  -4   77.39    3.90
   2   1  -4   76.29    3.80
  -2   1   4   77.39    3.70
  -2  -1   4   74.59    3.50
  -2  -1   4   74.39    4.20
   2  -1  -4   79.49    3.80
   2  -1  -4   76.49    3.80
  -2  -1   4   85.69    4.60
   2   1  -3  569.44   15.70
   2   1  -3  578.74   16.30
   2   1  -3  571.24   15.90
  -2   1   3  568.54   15.30
  -2   1   3  553.64   15.40
  -2  -1   3  547.75   15.90
   2  -1  -3  578.24   15.60
  -2  -1   3  567.64   16.30
   2  -1  -3  558.54   15.50
  -2   1   2  117.49    3.30
   2   1  -2  112.19    4.70
   2   1  -2  118.39    4.00
  -2   1   2  113.29    3.30
   2   1  -2  118.49    3.90
   2  -1  -2  116.49    3.60
  -2  -1   2  103.79    4.60
  -2  -1   2  107.09    3.80
   2  -1  -2  111.59    3.50
  -2  -1   2  112.39    4.10
   2   1  -1    1.00    0.80
   2   1  -1    1.60    1.70
   2   1  -1    0.70    0.90
  -2  -1   1   -1.10    0.90
  -2  -1   1    2.20    0.80
   2   1   0   18.30    1.40
   2   1   0   15.90    1.40
  -2  -1   0   16.80    1.30
  -2  -1   0   17.30    1.40
   2   1   1 1625.34   42.30
   2   1   1 1582.04   42.40
  -2   1  -1 1567.94   42.20
  -2   1  -1 1631.64   42.60
   2  -1   1 1599.94   42.30
   2  -1   1 1626.74   42.30
  -2  -1  -1 1609.74   42.40
  -2  -1  -1 1603.44   42.40
  -2   1  -2  202.58    6.20
   2   1   2  201.48    6.40
   2   1   2  202.58    6.30
  -2   1  -2  201.58    6.30
  -2  -1  -2  209.38    6.40
   2  -1   2  209.78    6.50
   2  -1   2  202.68    6.30
  -2  -1  -2  200.08    6.40
   2   1   3 1725.43   44.00
  -2   1  -3 1642.34   43.80
   2   1   3 1628.84   43.80
  -2   1  -3 1623.84   43.90
  -2  -1  -3 1642.04   43.90
   2  -1   3 1614.74   44.00
  -2  -1  -3 1640.94   44.00
  -2   1  -4  134.39    5.10
   2   1   4  129.09    4.90
  -2   1  -4  128.79    5.20
   2   1   4  129.79    5.30
   2  -1   4  129.49    5.50
  -2  -1  -4  127.89    5.30
   2   1   5   89.39    4.60
  -2   1  -5   84.89    4.50
   2   1   5   85.79    4.00
   2  -1   5   83.79    4.20
  -2  -1  -5   78.39    4.60
   2  -1   5   90.99    4.80
  -2   1  -6  460.45   14.10
   2   1   6  471.55   14.20
  -2   1  -6  474.75   14.20
  -2  -1  -6  463.45   14.20
   2  -1   6  465.85   14.00
   2  -1   6  444.76   14.40
  -2   1  -7   46.10    3.70
   2   1   7   48.30    3.90
   2   1   7   46.00    3.60
  -2  -1  -7   45.70    3.90
   2  -1   7   44.10    4.10
  -2   1  -8   -2.40    2.20
   2   1   8   -0.40    2.20
   2   1   8    0.70    1.80
   2  -1   8   -0.50    2.30
  -2  -1  -8    4.00    2.50
  -2   1  -9   38.50    4.00
   2   1   9   33.80    3.90
   2  -1   9   30.10    3.80
  -2  -1  -9   30.40    4.00
  -2   1 -10   13.40    3.40
   2   1  10    9.20    3.10
  -2  -1 -10    3.80    3.10
   2  -1  10    8.60    3.40
   2   1  11  169.48    8.40
  -2   1 -11  151.98    8.40
   2  -1  11  170.28    8.80
  -2  -1 -11  167.68    8.90
  -2   1 -12   -0.30    3.40
   2   1  12    0.70    3.20
   2  -1  12   -0.70    3.40
  -2  -1 -12   -1.60    3.60
   2   1  13   18.20    4.20
  -2   1 -13   28.40    5.00
  -2  -1 -13   15.90    4.60
   2  -1  13   24.30    4.80
   2   1  14    9.00    4.20
  -2   1 -14    5.20    4.30
  -2  -1 -14    0.10    4.20
   2  -1  14    1.20    4.10
   2   1  15    1.10    3.90
  -2   1 -15    3.80    4.90
  -2   1 -15   -5.00    3.80
  -2  -1 -15   -5.70    4.10
   2  -1  15   -0.80    4.10
  -2   2  15   54.99    5.00
   2   2 -15   32.50    5.00
  -2  -2  15   46.00    6.40
   2  -2 -15   42.90    6.00
  -2   2  14   20.80    3.70
   2   2 -14   13.90    4.10
   2  -2 -14   14.90    4.50
  -2  -2  14    9.70    4.50
  -2   2  13   65.99    5.20
   2   2 -13   61.49    5.70
  -2  -2  13   70.59    6.40
   2  -2 -13   64.09    6.00
  -2   2  12    7.00    2.90
   2   2 -12    3.00    3.10
  -2  -2  12    6.40    3.80
   2  -2 -12    1.00    3.50
  -2   2  11  102.69    5.30
   2   2 -11  133.09    7.10
  -2   2  11  130.29    6.40
   2  -2 -11  130.09    7.50
  -2  -2  11  130.79    7.90
  -2   2  10  939.21   26.80
   2   2 -10  947.01   27.30
   2  -2 -10  958.10   27.60
  -2  -2  10  921.61   28.00
  -2   2   9   57.99    3.50
   2   2  -9   53.29    4.20
  -2   2   9   49.80    4.30
   2  -2  -9   57.49    4.50
  -2  -2   9   56.69    4.90
  -2   2   8   17.00    2.00
   2   2  -8   17.50    2.80
  -2   2   8   19.90    2.60
   2  -2  -8   17.40    2.90
  -2  -2   8   24.70    3.50
   2   2  -7   75.29    4.40
  -2   2   7   73.59    4.00
  -2   2   7   69.89    3.50
   2   2  -7   81.29    4.50
  -2  -2   7   63.19    5.90
   2  -2  -7   72.99    4.60
  -2  -2   7   73.69    5.00
   2   2  -6   15.10    2.30
  -2   2   6   13.90    2.00
  -2   2   6   16.60    1.80
  -2  -2   6   10.80    2.60
  -2  -2   6   17.70    2.20
   2  -2  -6   17.50    2.40
  -2  -2   6   10.00    2.90
   2  -2  -6   15.00    2.30
   2   2  -5  342.17   10.30
  -2   2   5  339.57    9.60
  -2   2   5  334.07    9.50
   2   2  -5  334.57   10.40
  -2  -2   5  332.67   11.60
   2  -2  -5  320.07   10.20
  -2  -2   5  341.97   10.80
   2  -2  -5  348.47   10.20
   2   2  -4  566.54   16.90
   2   2  -4  564.24   15.70
   2   2  -4  584.44   15.60
   2  -2  -4  576.84   15.40
  -2  -2   4  556.84   16.90
  -2  -2   4  559.64   16.00
   2  -2  -4  545.15   15.40
  -2  -2   4  478.65   15.50
   2   2  -3   50.29    2.90
   2   2  -3   53.19    2.80
   2   2  -3   56.89    4.30
  -2  -2   3   51.99    2.90
   2  -2  -3   48.40    2.10
  -2  -2   3   46.40    4.00
  -2  -2   3   49.20    3.20
   2  -2  -3   48.70    2.20
   2   2  -2  447.06   13.50
   2   2  -2  451.05   12.00
   2   2  -2  427.96   12.00
  -2   2   2  428.46   12.10
   2  -2  -2  440.76   12.10
  -2  -2   2  432.06   13.30
  -2  -2   2  454.65   12.10
  -2  -2   2  425.16   12.20
   2   2  -1   38.70    3.30
  -2  -2   1   37.50    3.10
   2  -2  -1   37.10    2.70
  -2  -2   1   40.00    1.80
  -2  -2   1   36.70    2.00
  -2  -2   0  164.98    4.70
  -2  -2   0  165.18    4.70
  -2  -2  -1 2017.70   51.99
  -2  -2  -1 1902.01   51.69
  -2   2  -2    3.50    0.90
   2   2   2    3.40    0.90
   2   2   2    1.10    1.00
  -2   2  -2    3.50    0.90
  -2  -2  -2    2.80    1.30
   2  -2   2    2.80    1.30
  -2  -2  -2    2.00    1.40
   2  -2   2    4.20    1.30
  -2   2  -3 1476.25   38.50
   2   2   3 1428.56   38.40
   2   2   3 1472.25   38.60
  -2   2  -3 1428.56   38.50
   2  -2   3 1406.46   38.70
   2  -2   3 1464.85   38.90
  -2  -2  -3 1497.45   38.90
  -2  -2  -3 1418.26   38.70
   2   2   4  109.79    4.50
  -2   2  -4  105.69    4.50
  -2   2  -4  115.19    4.50
   2   2   4  113.19    4.30
   2  -2   4  112.79    4.60
  -2  -2  -4  117.49    4.90
  -2  -2  -4  111.09    4.70
   2  -2   4  109.09    5.00
  -2   2  -5   14.70    1.90
  -2   2  -5   11.10    2.10
   2   2   5   11.20    2.10
   2   2   5   14.40    1.90
   2  -2   5    9.00    2.20
  -2  -2  -5   10.00    2.30
  -2  -2  -5   13.60    2.20
  -2   2  -6  798.92   22.60
   2   2   6  824.02   22.70
   2   2   6  782.52   22.30
   2  -2   6  798.72   23.20
  -2  -2  -6  805.12   22.90
   2   2   7   16.60    2.60
  -2   2  -7   12.20    2.40
   2   2   7   10.30    1.90
  -2   2  -7    7.70    2.40
  -2  -2  -7   14.30    2.80
   2  -2   7   12.90    2.80
  -2   2  -8   65.09    4.90
   2   2   8   63.69    4.70
   2  -2   8   63.49    5.30
  -2  -2  -8   63.29    5.20
   2   2   9   55.99    4.00
  -2   2  -9   54.59    4.50
   2   2   9   53.79    4.40
  -2  -2  -9   61.29    5.00
   2  -2   9   67.29    5.50
   2   2  10    4.40    2.70
  -2   2 -10    4.10    3.00
   2   2  10    1.40    2.00
   2  -2  10    4.30    3.20
  -2  -2 -10    0.90    3.10
  -2   2 -11    5.30    3.40
   2   2  11    1.40    2.90
  -2  -2 -11    4.50    3.40
   2  -2  11    3.60    3.40
  -2   2 -12   35.50    4.40
   2   2  12   38.30    4.70
  -2   2 -12   37.50    5.00
  -2  -2 -12   37.00    5.20
   2  -2  12   29.90    4.90
   2   2  13   -4.30    3.30
  -2   2 -13    2.90    3.50
   2  -2  13   -4.00    3.70
  -2  -2 -13    0.20    4.00
  -2   2 -14    1.70    3.90
   2   2  14    1.10    3.40
  -2  -2 -14    8.20    4.50
   2  -2  14    3.40    4.20
  -2   2 -15   36.70    5.50
   2   2  15   38.30    4.90
  -2  -2 -15   39.20    6.40
   2  -2  15   47.20    6.70
   2   3 -15   18.50    4.40
  -2  -3  15    6.70    4.70
   2  -3 -15   13.50    4.80
   2   3 -14   32.30    4.80
  -2   3  14   27.00    3.10
   2  -3 -14   28.20    5.30
  -2  -3  14   38.20    5.90
   2   3 -13  119.49    7.50
  -2   3  13  115.59    5.60
  -2  -3  13  129.99    9.00
   2  -3 -13  116.59    8.30
  -2   3  12  188.88    7.10
   2   3 -12  178.58    8.60
   2  -3 -12  174.58    9.20
  -2  -3  12  183.58    9.90
  -2   3  11   48.40    3.50
   2   3 -11   44.90    4.50
  -2   3  11   50.19    3.90
   2  -3 -11   53.99    5.20
  -2  -3  11   46.30    5.40
  -2   3  10   77.49    4.10
  -2   3  10   73.39    3.70
   2   3 -10   78.79    5.40
  -2  -3  10   60.19    5.30
   2  -3 -10   58.99    4.90
  -2   3   9  134.19    4.90
  -2   3   9  144.09    5.20
   2   3  -9  139.19    6.40
   2  -3  -9  127.29    6.70
  -2  -3   9  133.69    7.30
   2   3  -8   37.00    3.30
  -2   3   8   40.70    2.40
  -2   3   8   46.50    2.60
   2   3  -8   48.00    3.90
  -2  -3   8   45.50    4.30
   2  -3  -8   55.09    4.10
   2   3  -7   63.69    4.10
  -2  -3   7   67.99    5.00
   2  -3  -7   66.89    4.30
   2   3  -6  452.65   13.50
   2   3  -6  465.95   13.50
  -2  -3   6  445.26   14.20
   2  -3  -6  461.05   13.40
   2  -3  -6  457.75   13.60
   2   3  -5   31.70    2.50
   2   3  -5   35.20    2.90
  -2  -3   5   40.30    4.50
  -2  -3   5   33.40    3.10
  -2  -3   5   38.20    3.10
   2  -3  -5   37.20    3.00
   2  -3  -5   32.70    2.70
   2   3  -4  138.89    6.90
   2   3  -4  140.29    4.90
   2   3  -4  141.89    4.80
  -2  -3   4  145.09    5.20
  -2  -3   4  149.59    7.20
  -2  -3   4  142.59    5.50
   2  -3  -4  139.89    4.40
   2  -3  -4  135.99    4.40
   2   3  -3 1041.50   29.30
  -2   3   3 1007.30   27.60
   2   3  -3 1005.30   26.90
  -2  -3   3 1020.90   29.20
  -2  -3   3 1033.80   27.40
  -2  -3   3  991.60   27.50
  -2   3   2   47.70    3.30
   2   3  -2   58.99    4.80
   2  -3  -2   52.39    3.40
  -2  -3   2   52.49    4.50
  -2  -3   2   46.80    2.40
  -2  -3   2   50.19    2.30
  -2   3   1 1099.19   30.20
   2  -3  -1 1091.69   30.20
  -2  -3   1 1119.49   30.90
   2   3   0 2509.85   67.79
   2  -3   0 2539.75   67.49
   2  -3   1 1086.09   30.40
  -2  -3  -2   71.49    2.70
   2  -3   2   74.49    2.60
  -2  -3  -2   71.99    2.80
   2  -3   2   75.19    2.60
  -2  -3  -3   49.80    2.90
  -2  -3  -3   53.59    2.90
   2  -3   3   47.50    2.80
   2  -3   3   49.40    3.00
  -2   3  -4   24.80    1.80
  -2   3  -4   25.40    1.80
   2  -3   4   23.00    2.30
  -2  -3  -4   24.60    2.30
   2  -3   4   23.20    2.30
  -2  -3  -4   24.10    2.30
  -2   3  -5  260.67    8.10
   2   3   5  273.77    7.80
   2   3   5  252.37    7.60
  -2   3  -5  272.27    8.20
  -2  -3  -5  261.17    8.70
   2  -3   5  255.87    8.50
   2  -3   5  263.47    9.00
  -2  -3  -5  260.97    8.70
   2   3   6    2.10    1.30
  -2   3  -6    1.60    1.50
  -2   3  -6    0.80    1.70
   2   3   6    3.60    1.60
   2  -3   6    1.80    2.20
  -2  -3  -6   -0.20    2.20
  -2   3  -7  225.38    8.00
   2   3   7  228.28    7.40
   2   3   7  239.98    7.80
   2  -3   7  225.68    9.00
  -2  -3  -7  230.28    8.60
  -2   3  -8   39.60    3.50
  -2   3  -8   38.80    3.30
   2   3   8   40.50    2.90
   2   3   8   39.60    3.30
  -2  -3  -8   37.40    3.90
   2  -3   8   36.10    3.90
   2   3   9  108.09    5.40
  -2   3  -9  109.49    7.50
  -2   3  -9  104.49    5.80
   2   3   9   95.49    4.70
  -2  -3  -9   95.69    6.50
   2  -3   9   87.49    6.60
   2   3  10  309.47   10.50
  -2   3 -10  309.27   11.10
   2   3  10  306.47   10.00
  -2  -3 -10  301.27   11.80
   2  -3  10  305.67   12.30
  -2   3 -11   20.70    3.70
   2   3  11   17.30    3.10
   2  -3  11   24.20    4.40
  -2  -3 -11   18.40    4.20
  -2   3 -12   78.99    6.60
   2   3  12   86.49    5.80
   2  -3  12   80.39    7.10
  -2  -3 -12   87.99    7.10
   2   3  13   14.20    3.30
  -2   3 -13   12.00    3.80
   2  -3  13   22.80    5.20
  -2  -3 -13   10.30    4.50
  -2   3 -14   -1.30    3.60
   2   3  14    5.10    2.80
   2  -3  14    1.30    4.30
  -2  -3 -14    3.90    4.40
   2   4 -15    7.20    3.90
   2  -4 -15    2.20    4.60
  -2  -4  15   12.80    5.30
   2   4 -14   17.10    4.10
   2  -4 -14   20.30    4.80
  -2  -4  14   14.40    5.10
   2   4 -13    2.20    3.20
   2  -4 -13    4.20    3.70
  -2  -4  13    1.80    4.00
   2   4 -12    7.30    3.20
  -2  -4  12    7.60    3.90
   2  -4 -12    8.70    3.50
   2   4 -11  316.47   11.40
  -2  -4  11  325.27   13.10
   2  -4 -11  315.97   12.00
   2   4 -10   25.50    3.40
   2   4 -10   31.80    3.40
  -2  -4  10   28.90    4.40
   2  -4 -10   20.90    3.60
   2   4  -9  260.07    9.10
   2   4  -9  252.47    9.00
   2  -4  -9  264.57    9.70
  -2  -4   9  251.87   10.40
   2   4  -8   40.50    3.20
   2   4  -8   36.10    3.10
   2  -4  -8   41.10    3.70
  -2  -4   8   35.00    3.90
   2   4  -7  356.86   11.00
   2   4  -7  355.36   11.10
   2  -4  -7  372.86   11.30
  -2  -4   7  361.66   12.20
   2   4  -6  255.37    8.10
   2   4  -6  259.37    8.00
  -2  -4   6  256.07    9.10
   2  -4  -6  253.87    8.20
   2  -4  -6  261.07    8.20
   2   4  -5   53.89    5.40
   2   4  -5   58.09    2.70
   2   4  -5   55.09    2.60
  -2  -4   5   54.99    3.40
   2  -4  -5   56.19    2.70
  -2  -4   5   48.00    3.90
   2  -4  -5   53.49    2.70
  -2   4   4   83.39    4.30
   2   4  -4   81.69    6.00
  -2  -4   4   85.09    3.80
  -2  -4   4   85.19    4.10
  -2  -4   4   87.39    5.80
   2   4  -3   83.39    5.90
  -2   4   3   82.79    4.40
  -2  -4   3   75.79    3.50
  -2  -4   3   82.39    5.60
  -2  -4   3   83.39    3.20
   2   4  -2    0.20    0.80
  -2   4   2    3.40    2.30
   2  -4  -2    4.30    2.30
  -2  -4   2    6.30    3.20
  -2   4   1  243.78    8.80
  -2  -4   1  250.47    9.70
   2  -4  -1  244.68    8.60
  -2   4   0  831.72   23.60
   2   4   0  808.42   23.90
   2  -4   0  799.72   23.50
   2   4   1  438.76   14.10
   2  -4   1  431.66   14.00
   2  -4   2  295.97   10.80
   2  -4   3  212.58    6.40
  -2  -4  -3  222.18    6.40
  -2  -4  -3  203.68    6.30
   2  -4   3  213.58    9.70
   2  -4   3  212.08    6.50
  -2  -4  -4    0.90    1.50
   2  -4   4    2.20    1.70
   2  -4   4    0.90    1.40
  -2  -4  -4    0.10    1.50
  -2  -4  -5   46.60    3.40
   2  -4   5   46.40    3.50
  -2  -4  -5   47.00    3.60
  -2   4  -6    7.00    1.50
  -2   4  -6    6.20    1.60
   2  -4   6    8.30    2.50
  -2  -4  -6   10.40    2.40
  -2   4  -7  140.39    5.30
  -2   4  -7  137.59    5.40
  -2  -4  -7  129.69    6.30
   2  -4   7  148.99    6.90
  -2   4  -8   43.70    3.30
  -2   4  -8   44.30    3.70
  -2  -4  -8   40.20    4.00
  -2   4  -9   89.69    5.10
  -2  -4  -9   87.29    6.20
   2  -4   9   85.49    6.60
  -2   4 -10  524.35   16.20
  -2   4 -10  536.55   16.30
  -2  -4 -10  513.75   17.30
   2  -4  10  529.15   18.00
  -2   4 -11    2.00    2.70
  -2  -4 -11   -0.30    3.50
   2  -4  11   -5.00    3.40
  -2   4 -12    2.40    3.00
  -2  -4 -12    2.70    3.90
   2  -4  12    1.00    3.90
  -2   4 -13   -1.80    3.00
  -2  -4 -13    6.50    4.20
   2  -4  13   -5.20    4.00
  -2   4 -14   11.40    3.70
  -2  -4 -14   18.40    5.00
   2  -4  14   26.00    5.90
   2   5 -15   16.70    3.80
  -2  -5  15   25.30    6.10
   2  -5 -15   15.70    5.10
   2   5 -14   33.00    4.30
  -2  -5  14   38.80    6.40
   2  -5 -14   37.20    5.60
   2   5 -13   25.00    3.70
  -2  -5  13   25.70    5.50
   2  -5 -13   25.20    4.70
   2   5 -12   -3.90    2.50
   2  -5 -12    4.00    3.50
  -2  -5  12   -3.10    3.90
   2   5 -11    3.30    2.70
   2  -5 -11    7.40    3.40
  -2  -5  11    6.20    4.00
   2   5 -10    5.80    2.40
   2  -5 -10    4.00    2.90
  -2  -5  10    4.40    3.40
   2   5  -9   12.90    2.10
   2   5  -9   14.30    2.40
  -2  -5   9   13.50    3.50
   2  -5  -9   13.60    3.00
   2   5  -8  471.35   13.30
   2   5  -8  443.76   13.20
  -2  -5   8  462.05   15.20
   2  -5  -8  438.06   13.90
   2   5  -7  723.03   20.10
   2   5  -7  757.82   20.10
   2  -5  -7  732.73   20.70
  -2  -5   7  729.03   21.90
  -2  -5   6  467.05   14.70
   2  -5  -6  476.75   13.60
   2  -5  -6  476.05   13.40
  -2   5   5    0.00    2.00
   2   5  -5    2.30    3.50
  -2  -5   5    4.60    1.70
  -2  -5   5    0.10    1.80
  -2   5   4   42.90    3.60
   2   5  -4   45.20    5.30
  -2  -5   4   40.10    2.70
  -2  -5   4   40.50    3.10
   2   5  -3  120.39    6.70
  -2   5   3  117.39    5.60
  -2  -5   3  103.59    3.90
  -2  -5   3  114.69    3.80
  -2   5   2  546.35   16.70
   2  -5  -2  549.35   16.70
   2   5  -1    2.10    3.30
  -2   5   1    1.00    2.40
   2  -5  -1    1.90    2.10
  -2  -5   1   -0.90    2.80
   2   5   0   37.10    4.50
   2  -5   0   40.70    4.30
   2   5   1    6.10    3.00
   2  -5   1   11.60    3.40
   2   5   2   43.30    4.30
   2  -5   3  134.69    4.20
   2  -5   3  137.49    4.20
   2  -5   4  465.65   13.40
  -2  -5  -4  448.36   13.00
  -2  -5  -4  479.05   13.20
   2  -5   4  466.65   13.30
  -2  -5  -5  123.69    5.00
   2  -5   5  124.69    5.40
  -2  -5  -5  125.59    5.10
   2  -5   6  138.69    6.40
  -2  -5  -6  145.89    6.00
   2  -5   7   18.30    3.10
  -2  -5  -7   16.80    2.90
  -2   5  -8    0.60    1.40
  -2   5  -8   -1.70    1.40
   2  -5   8   -4.30    2.50
  -2  -5  -8    0.00    2.40
  -2   5  -9   35.10    2.70
  -2   5  -9   35.70    2.80
   2  -5   9   30.50    4.30
  -2  -5  -9   30.60    3.90
  -2   5 -10  541.05   16.10
   2  -5  10  568.34   18.90
  -2  -5 -10  532.45   17.80
  -2   5 -11   15.80    3.00
  -2  -5 -11    8.90    4.00
   2  -5  11   14.80    4.40
  -2   5 -12   37.70    3.80
   2  -5  12   33.00    5.40
  -2  -5 -12   34.30    5.30
  -2   5 -13   10.80    3.20
  -2  -5 -13   14.30    4.60
   2  -5  13   12.70    5.00
  -2   5 -14  126.59    6.90
  -2  -5 -14  114.09    9.50
   2  -5  14  121.39   10.30
   2   6 -14   27.70    3.50
  -2  -6  14   32.30    6.30
   2  -6 -14   24.60    4.90
   2   6 -13   88.89    5.30
  -2  -6  13  115.89    9.00
   2  -6 -13   97.49    7.80
   2   6 -12   49.50    4.10
  -2  -6  12   52.19    6.30
   2  -6 -12   58.49    5.70
   2   6 -11   95.29    4.60
  -2  -6  11   93.89    7.40
   2  -6 -11   93.89    6.70
   2   6 -10  115.19    4.50
   2  -6 -10  112.89    6.60
  -2  -6  10  122.79    8.10
   2  -6  -9    7.70    2.60
  -2  -6   9    8.70    3.40
   2  -6  -8  177.38    7.10
  -2  -6   8  189.38    8.40
  -2   6   7   41.20    3.90
   2  -6  -7   38.20    3.20
  -2  -6   7   51.59    4.40
  -2   6   6   41.70    3.80
   2  -6  -6   40.80    2.30
   2  -6  -6   42.40    2.40
  -2  -6   6   40.60    3.50
   2   6  -5   99.29    7.90
  -2   6   5  102.49    5.50
  -2  -6   5  106.39    5.00
  -2   6   4   39.40    3.80
   2   6  -4   40.60    4.90
  -2  -6   4   36.70    2.50
  -2  -6   4   33.60    2.80
  -2   6   3    1.40    2.00
   2   6  -3   -0.30    0.70
   2   6  -2  146.59    8.00
   2  -6  -2  161.08    7.10
  -2   6   1  147.49    7.40
   2   6  -1  160.28    8.50
   2  -6  -1  157.88    7.20
  -2   6   0  461.75   15.60
   2   6   0  464.25   16.10
   2   6   1   42.10    5.00
  -2   6  -1   37.20    4.60
   2   6   2   67.19    5.90
   2   6   3  132.39    7.40
   2  -6   4   30.50    2.50
   2  -6   4   34.60    2.70
  -2  -6  -4   35.10    2.00
  -2  -6  -5   70.39    3.60
  -2  -6  -5   73.09    3.60
   2  -6   5   68.69    4.20
   2  -6   6    9.10    2.50
  -2  -6  -6    8.70    2.20
  -2  -6  -7  205.68    7.90
   2  -6   7  205.88    8.50
  -2  -6  -8    6.10    2.70
   2  -6   8    6.90    3.20
   2  -6   9   41.10    4.90
  -2  -6  -9   42.60    4.60
  -2  -6 -10  102.29    7.00
   2  -6  10  104.39    7.90
  -2  -6 -11  112.29    7.90
   2  -6  11  102.99    8.40
   2  -6  12    7.00    4.60
  -2  -6 -12    4.60    4.20
  -2  -6 -13   -1.50    4.20
   2  -6  13    5.70    4.80
  -2  -7  14    6.00    5.00
   2  -7 -14    8.70    4.50
  -2  -7  13   63.39    7.30
   2  -7 -13   55.49    6.30
   2  -7 -12   66.59    6.20
  -2  -7  12   62.39    7.00
  -2  -7  11   48.20    6.10
   2  -7 -11   51.29    5.10
  -2   7  10  164.58    7.90
   2  -7 -10  158.88    7.60
  -2  -7  10  162.68    9.10
  -2   7   9   94.89    6.20
  -2  -7   9   84.79    6.90
   2  -7  -9   86.09    5.50
  -2   7   8  155.78    7.40
   2  -7  -8  159.68    6.40
  -2  -7   8  159.58    8.00
  -2   7   7   63.09    5.10
  -2  -7   7   77.09    5.40
   2  -7  -7   82.39    3.80
  -2   7   6  186.48    8.00
  -2  -7   6  175.28    7.30
   2   7  -5    2.40    3.60
  -2   7   5   -0.50    2.40
  -2  -7   5    1.50    1.80
  -2   7   4   22.40    3.60
  -2  -7   4   20.90    2.10
  -2  -7   4   19.70    1.90
  -2   7   3   20.60    3.70
   2   7  -3   26.60    4.30
  -2   7   2   76.39    5.90
   2   7  -2   81.59    6.60
   2   7  -1  172.08    9.00
  -2   7   1  164.98    8.40
  -2   7   0  369.56   13.90
   2   7   0  386.36   14.50
  -2   7  -1  720.63   23.60
   2   7   1  762.82   23.90
   2   7   2   43.00    5.40
   2   7   3  244.88   10.80
   2   7   4    8.70    3.90
   2  -7   4   15.40    1.70
   2  -7   4   15.10    1.70
  -2  -7  -5   91.09    3.90
   2  -7   5   91.79    4.70
  -2  -7  -5   91.19    3.90
  -2  -7  -6   19.80    2.60
   2  -7   6   16.10    2.90
  -2  -7  -7   17.40    2.80
   2  -7   7   12.50    2.90
   2  -7   8   82.99    6.30
  -2  -7  -8   90.09    5.70
   2  -7   9   36.80    4.80
  -2  -7  -9   37.30    4.30
  -2  -7 -10   10.30    3.50
   2  -7  10    8.70    4.20
  -2  -7 -11    6.00    3.70
   2  -7  11    4.90    4.30
   2  -7  12   17.10    5.10
  -2  -7 -12   14.80    4.50
   2  -7  13   11.90    5.30
  -2  -7 -13   15.20    5.10
  -2  -8  13    3.10    4.60
   2  -8 -13    3.10    4.00
  -2  -8  12   10.00    4.80
   2  -8 -12    6.00    3.70
  -2  -8  11   61.09    6.50
   2  -8 -11   52.39    5.20
  -2   8  10  166.18    8.10
  -2  -8  10  169.28    9.40
   2  -8 -10  145.99    7.40
  -2   8   9   12.30    3.50
  -2  -8   9   12.00    3.80
   2  -8  -9   12.10    2.80
  -2   8   8   -0.90    2.90
  -2  -8   8   -2.70    2.70
   2  -8  -8    0.00    1.90
  -2   8   7    6.80    3.10
  -2  -8   7    6.90    2.80
   2  -8  -7    9.50    1.70
  -2   8   6  244.88   10.00
   2   8  -6  225.68   12.00
  -2  -8   6  226.48    8.60
  -2   8   5  140.89    7.70
  -2  -8   5  140.99    5.80
  -2   8   4   41.80    4.70
  -2  -8   4   35.40    2.50
  -2   8   3   11.50    3.70
   2   8  -3   18.20    4.70
  -2   8   2    9.90    3.80
   2   8  -2    4.10    4.10
   2   8  -1   56.99    6.40
  -2   8   1   51.29    5.60
   2   8   0  179.28    9.80
  -2   8   0  201.28    9.70
   2   8   1  180.88    9.90
  -2   8  -1  179.78    9.70
   2   8   2    2.10    3.90
   2   8   3   49.90    5.90
   2   8   4    9.40    4.20
   2  -8   4    7.00    1.40
   2  -8   4   10.30    1.50
   2   8   5  154.58    9.20
  -2  -8  -5  142.09    5.00
   2  -8   5  148.39    6.00
  -2  -8  -5  144.39    5.00
   2   8   6   19.30    4.70
   2  -8   6   11.80    2.70
  -2  -8  -7  392.26   12.30
   2  -8   7  371.86   13.00
   2  -8   8   -2.10    2.90
  -2  -8  -8    3.20    2.60
   2  -8   9    3.40    3.50
  -2  -8  -9    4.60    3.00
  -2  -8 -10    5.90    3.40
   2  -8  10   -1.20    3.80
  -2  -8 -11   35.60    4.90
   2  -8  11   25.00    5.20
   2  -8  12   23.20    5.70
  -2  -8 -12   21.70    5.00
  -2  -9  12   -2.00    4.40
  -2  -9  11   29.40    5.50
  -2  -9  10   88.49    7.50
   2  -9  -9   -0.70    2.70
  -2  -9   9    4.00    3.50
  -2   9   8   10.00    3.60
  -2  -9   8   14.60    3.70
   2  -9  -8    7.90    2.50
  -2   9   7   76.99    6.50
  -2  -9   7   77.19    5.70
  -2   9   6   47.50    5.20
  -2  -9   6   42.10    3.80
   2   9  -5  113.59    8.80
  -2   9   5  122.19    7.80
  -2  -9   5  126.59    5.50
  -2   9   4   93.49    7.10
   2   9  -4   69.29    7.50
  -2  -9   4   75.29    3.60
  -2  -9   4   77.69    3.60
   2   9  -3   47.70    6.70
  -2   9   3   52.99    5.80
  -2   9   2   40.80    5.40
   2   9  -2   42.40    6.70
  -2   9   1    6.80    4.20
   2   9  -1    6.00    4.60
  -2   9   0    8.20    4.10
   2   9   0    7.30    4.60
  -2   9  -1   51.99    6.30
   2   9   1   43.70    6.00
   2   9   2  175.78   10.30
   2   9   3    2.60    4.10
   2   9   4    9.90    4.60
   2   9   5   29.20    5.60
   2  -9   5   25.10    2.70
   2   9   6   -2.70    4.00
   2  -9   6   -0.50    2.20
  -2  -9  -6    0.80    1.70
   2   9   7   -3.20    4.30
   2  -9   7    6.80    3.00
  -2  -9  -7    5.60    2.50
   2   9   8    0.70    4.30
  -2  -9  -8   -0.10    2.50
   2  -9   8    3.10    3.10
   2   9   9  186.28   10.90
   2  -9   9  191.98    9.50
  -2  -9  -9  151.18    8.00
  -2  -9 -10    4.40    3.40
   2  -9  10    1.00    4.10
  -2  -9 -11    1.50    3.60
   2  -9  11    4.00    4.50
  -2  -9 -12   17.40    4.70
  -2 -10  11   -1.80    4.10
  -2 -10  10   15.50    4.60
  -2  10   9   82.79    6.90
  -2 -10   9   82.29    6.70
  -2  10   8   12.70    4.20
  -2 -10   8   14.10    3.90
  -2  10   7    4.90    4.00
  -2 -10   7   11.10    3.30
  -2  10   6    9.40    4.20
  -2 -10   6   15.30    3.00
   2  10  -5  108.59    9.70
  -2  10   5  122.39    8.50
  -2 -10   5  112.49    5.40
   2  10  -4    0.80    4.60
  -2  10   4   -1.60    3.80
  -2 -10   4    1.20    1.50
   2  10  -3  115.79   10.10
  -2  10   3  104.19    8.20
  -2  10   2   24.20    5.00
   2  10  -2   22.50    5.60
  -2  10   1    4.60    4.10
   2  10  -1    6.00    5.00
  -2  10   0   20.00    5.30
   2  10   0   19.30    5.80
  -2  10  -1   47.10    6.90
   2  10   1   45.90    6.60
   2  10   2    2.00    4.50
   2  10   3   23.50    5.50
   2  10   4   15.90    5.30
   2  10   5    7.70    4.80
   2 -10   5    3.30    2.10
   2  10   6   35.40    6.60
   2 -10   6   35.30    3.70
   2  10   7    1.40    4.70
   2 -10   7    2.80    2.90
   2  10   8   19.60    5.60
   2 -10   8   16.00    3.80
   2  10   9    5.40    5.10
   2 -10   9   15.70    4.20
   2  10  10    7.90    5.20
   2 -10  10    1.50    4.10
   2 -10  11    3.40    4.60
  -2 -11  10    5.30    4.10
  -2 -11   9   -2.00    3.70
  -2  11   8  141.69    9.20
  -2 -11   8  148.59    8.40
  -2  11   7   26.90    5.30
  -2 -11   7   19.50    3.70
  -2  11   6  127.09    9.10
   2  11  -5   97.69   10.30
  -2  11   5   98.89    8.80
  -2  11   4   -1.60    4.20
   2  11  -4   -5.00    5.20
  -2  11   3   34.60    6.10
   2  11  -3   25.70    6.40
  -2  11   2   -2.30    4.20
   2  11  -2    9.60    5.40
  -2  11   1   21.00    5.60
   2  11  -1   13.30    5.60
  -2  11   0   64.39    7.50
   2  11   0   54.49    7.40
   2  11   1  231.08   12.60
   2  11   2   50.39    7.50
   2  11   3  214.08   12.60
   2  11   4    9.30    5.50
   2  11   5    3.00    5.10
   2  11   6  167.28   11.20
   2  11   7   57.99    7.90
   2  11   8  108.59    9.60
   2  11   9   28.60    6.50
   2 -11   9   37.60    5.30
   2 -11  10    2.70    4.20
   2  12  -9    5.90    8.60
   2  12  -8   16.00    8.90
  -2  12   7   52.59    6.90
  -2  12   6   -1.70    4.60
  -2  12   5  518.65   20.10
   2  12  -5  550.04   23.10
  -2  12   4    5.90    4.90
   2  12  -4   -2.10    5.90
   2  12  -3  120.49   11.30
  -2  12   3  123.39    9.70
   2  12  -2   10.20    5.90
  -2  12   2    5.80    4.70
  -2  12   1    3.20    4.70
   2  12  -1    7.10    5.70
   2  12   0   17.00    6.90
  -2  12   0   21.90    6.00
   2  12   1   31.60    7.00
   2  12   2   49.40    8.00
   2  12   3    2.30    5.50
   2  12   4   69.79    8.80
   2  12   5   -9.80    4.60
   2  12   6  147.79   11.60
   2  12   7    4.50    5.50
   2  12   8    8.40    5.50
   2  13  -7   96.39   13.60
  -2  13   6   50.49    7.30
  -2  13   5    1.00    5.10
   2  13  -4  137.69   12.30
  -2  13   4  142.59   10.50
  -2  13   3   -2.80    4.70
   2  13  -3    1.80    6.20
  -2  13   2    2.40    5.10
   2  13  -2    1.50    6.20
   2  13  -1   21.20    7.40
  -2  13   1   13.30    6.20
   2  13   0   76.89    9.50
   2  13   1    6.60    6.60
   2  13   2   14.70    6.80
   2  13   3   12.30    6.30
   2  13   4   79.59    9.80
   2  13   5   38.40    8.10
   2  13   6  102.49   10.30
   2  13   7   75.89    9.50
  -2  14   5   58.49    8.20
  -2  14   4   14.50    6.00
   2  14  -4   19.20    8.00
   2  14  -3   35.50    8.20
  -2  14   3   62.79    8.20
   2  14  -2   -3.60    6.20
  -2  14   2    2.60    5.30
   2  14  -1   96.39   11.70
   2  14   0   36.00    8.40
   2  14   1   19.60    7.30
   2  14   2    0.60    6.20
   2  14   3    7.70    6.50
   2  14   4    6.30    6.30
   3   0 -16  147.29    9.90
  -3   0  16  153.78    9.40
  -3   0  15    6.80    4.10
   3   0 -15    1.60    4.00
   3   0 -14    5.10    3.80
   3   0 -14    6.90    4.10
  -3   0  14    5.00    3.90
  -3   0  13    0.80    3.40
   3   0 -13    3.60    3.50
   3   0 -13    3.20    3.30
   3   0 -12   21.60    4.00
  -3   0  12   27.30    4.40
  -3   0  11    4.40    3.00
   3   0 -11   -0.50    2.80
   3   0 -10  341.47   11.90
  -3   0  10  325.87   12.00
  -3   0   9   -1.20    2.40
  -3   0   9    0.60    2.50
   3   0  -9    1.60    2.40
  -3   0   8   40.70    3.90
  -3   0   8   37.30    3.30
  -3   0   8   35.10    3.60
   3   0  -8   45.00    3.90
  -3   0   7   -0.20    2.10
  -3   0   7   -2.30    1.60
  -3   0   7    0.00    2.10
   3   0  -7    1.30    2.00
   3   0  -6   55.99    3.80
  -3   0   6   48.20    3.80
  -3   0   6   51.39    4.20
   3   0  -6   48.60    3.90
  -3   0   5    0.50    1.90
   3   0  -5    1.60    1.80
  -3   0   5   -1.10    1.90
  -3   0   5    0.70    1.50
   3   0  -5   -0.60    0.90
   3   0  -4   12.50    2.00
  -3   0   4   11.80    1.80
  -3   0   4   10.70    2.10
  -3   0   4   12.60    2.00
   3   0  -3   -0.10    0.20
   3   0  -3   -0.60    1.50
  -3   0   3   -1.90    1.40
  -3   0   3    0.60    1.30
  -3   0   3   -1.80    1.50
   3   0  -3    0.10    1.40
   3   0  -2  545.55   14.90
  -3   0   2  547.15   14.80
  -3   0   2  536.15   14.90
   3   0  -1   -0.60    0.90
  -3   0   1   -2.10    1.00
  -3   0   1   -1.90    0.90
   3   0  -1   -0.70    0.70
  -3   0   0   47.10    2.50
  -3   0   0   49.00    2.30
   3   0   0   49.90    2.40
   3   0   1   -0.10    1.20
  -3   0  -1    2.10    1.40
  -3   0  -1    0.50    1.20
   3   0   1    1.20    0.90
  -3   0  -2 1189.98   31.60
  -3   0  -2 1182.98   31.60
   3   0   2 1172.68   31.70
   3   0   2 1157.48   31.50
   3   0   3    0.30    1.40
  -3   0  -3   -1.80    1.50
  -3   0  -3   -0.70    1.80
   3   0   3    2.60    1.90
   3   0   5    1.00    2.00
   3   0   5   -1.70    1.60
  -3   0  -5   -2.20    2.00
  -3   0  -5   -3.90    1.60
   3   0   6 1526.45   41.80
  -3   0  -6 1515.45   43.00
  -3   0  -6 1553.74   42.00
   3   0   6 1539.95   42.20
   3   0   7   -0.80    2.20
  -3   0  -7   -1.40    2.30
  -3   0  -8  423.16   13.90
   3   0   8  425.36   14.10
   3   0   9   -3.90    2.50
  -3   0  -9   -2.70    2.60
  -3   0 -10   39.70    4.50
   3   0  10   48.80    4.90
   3   0  11    4.10    3.20
  -3   0 -11    4.60    3.40
   3   0  12   29.90    4.80
  -3   0 -12   26.30    4.60
   3   0  13    2.00    3.90
  -3   0 -13    0.80    4.00
   3   0  14   67.99    6.70
  -3   0 -14   61.89    6.60
   3   1 -16   66.89    6.70
  -3   1  16   63.69    6.00
   3  -1 -16   52.19    6.60
   3  -1 -16   50.99    6.20
  -3  -1  16   64.59    7.00
  -3   1  15  221.18   10.50
   3   1 -15  219.98   11.10
   3  -1 -15  241.68   11.70
  -3  -1  15  222.58   11.50
  -3   1  14  117.79    7.70
   3   1 -14  126.39    8.40
   3  -1 -14  117.69    8.60
  -3  -1  14  133.79    9.00
  -3   1  13   37.20    4.70
   3   1 -13   45.10    5.00
  -3  -1  13   47.00    5.50
   3  -1 -13   45.40    5.20
  -3   1  12   49.60    4.80
   3   1 -12   44.70    4.90
   3  -1 -12   39.80    4.80
  -3  -1  12   39.00    5.20
  -3   1  11  472.15   15.30
   3   1 -11  462.95   15.40
  -3  -1  11  452.95   15.90
   3  -1 -11  456.45   15.50
  -3   1  10   59.89    4.70
  -3   1  10   63.39    5.20
  -3   1  10   61.79    4.30
   3   1 -10   71.19    5.40
   3  -1 -10   63.79    5.00
  -3  -1  10   70.09    5.90
   3   1  -9  378.96   12.50
  -3   1   9  368.16   11.80
  -3   1   9  364.16   12.40
  -3  -1   9  376.76   12.90
   3  -1  -9  386.16   12.60
  -3   1   8    0.50    2.20
  -3   1   8   -1.80    1.30
   3   1  -8   -0.10    2.10
  -3  -1   8    0.30    2.50
  -3  -1   8    1.20    2.40
   3  -1  -8    1.10    2.40
  -3   1   7    0.90    1.60
   3   1  -7   -0.10    1.90
  -3   1   7    0.40    2.00
   3   1  -7   -0.40    2.00
  -3  -1   7    1.50    1.80
  -3  -1   7    3.60    2.30
   3  -1  -7   -1.60    2.00
  -3  -1   7    6.30    2.60
  -3   1   6   93.19    4.20
  -3   1   6   92.49    4.60
   3   1  -6  102.79    4.90
   3   1  -6   93.39    4.80
  -3  -1   6   93.99    4.40
   3  -1  -6   93.99    4.80
  -3  -1   6   93.09    5.20
  -3  -1   6   90.89    5.10
   3  -1  -6   87.69    4.60
  -3   1   5    6.20    1.70
   3   1  -5    8.20    2.00
  -3   1   5    5.90    1.90
  -3   1   5    8.40    1.60
   3  -1  -5    5.10    1.90
  -3  -1   5    6.70    2.40
  -3  -1   5    8.80    2.30
   3  -1  -5    6.60    2.00
  -3  -1   5   -1.00    1.30
  -3   1   4   22.70    2.10
  -3   1   4   21.60    1.60
   3   1  -4   23.40    2.30
  -3   1   4   22.70    1.90
   3   1  -4   21.30    2.80
   3   1  -4   27.90    2.40
   3  -1  -4   22.70    2.20
  -3  -1   4   22.70    2.00
  -3  -1   4   21.70    2.50
   3  -1  -4   20.00    2.10
  -3  -1   4   17.70    2.70
   3   1  -3  235.58    7.90
   3   1  -3  222.38    7.30
  -3   1   3  230.08    6.70
  -3   1   3  222.18    6.70
   3   1  -3  231.78    7.20
   3  -1  -3  221.68    7.00
  -3  -1   3  229.38    7.00
   3  -1  -3  227.98    7.00
  -3  -1   3  222.58    7.50
  -3  -1   3  234.58    7.70
   3   1  -2   16.70    1.80
  -3   1   2   19.30    1.30
   3   1  -2   20.60    2.70
   3   1  -2   19.60    1.70
  -3   1   2   18.10    1.50
  -3  -1   2   18.90    1.90
   3  -1  -2   20.20    1.40
   3  -1  -2   17.50    1.40
   3   1  -1  159.98    4.90
   3   1  -1  156.88    4.80
  -3  -1   1  153.58    5.00
   3  -1  -1  157.78    4.50
   3  -1  -1  151.68    4.40
  -3  -1   1  128.49    4.60
  -3   1   0  121.89    3.60
   3   1   0  122.99    4.00
  -3   1   0  115.09    3.60
   3   1   0  116.89    4.00
   3  -1   0  117.79    3.80
   3  -1   0  115.29    3.70
  -3  -1   0  122.19    4.00
  -3  -1   0  118.09    4.10
  -3   1  -1 6099.89  165.08
   3   1   1 6314.47  165.98
  -3   1  -1 6240.58  165.38
   3   1   1 6294.87  166.18
  -3  -1  -1 6285.87  166.08
   3  -1   1 6360.16  165.58
  -3  -1  -1 6234.18  165.98
   3  -1   1 6319.37  166.38
  -3   1  -2 5832.12  150.98
   3   1   2 5584.34  150.28
  -3   1  -2 5669.43  149.49
   3   1   2 5659.93  151.18
   3  -1   2 5535.85  149.99
   3  -1   2 5737.53  151.28
  -3  -1  -2 5658.13  150.18
  -3   1  -3  750.42   20.50
  -3   1  -3  727.33   20.50
   3   1   3  751.82   20.70
   3   1   3  737.43   20.50
  -3  -1  -3  749.13   20.70
   3  -1   3  739.93   20.70
  -3   1  -4   91.49    4.50
   3   1   4   92.09    4.00
  -3   1  -4   87.39    4.10
   3   1   4   87.09    4.50
   3  -1   4   85.99    4.60
  -3  -1  -4   86.09    4.60
   3   1   5  187.98    7.20
  -3   1  -5  192.98    7.10
  -3  -1  -5  185.48    7.20
  -3  -1  -5  193.38    7.10
   3  -1   5  192.68    7.40
   3  -1   5  200.28    7.00
  -3   1  -6  186.88    7.20
   3   1   6  190.78    7.40
   3   1   6  192.98    6.90
  -3   1  -6  182.78    7.30
   3  -1   6  189.68    7.60
  -3  -1  -6  186.18    7.40
   3   1   7   13.40    2.30
   3   1   7   12.60    2.70
  -3   1  -7   12.20    2.70
  -3  -1  -7   13.10    2.80
   3  -1   7   10.40    2.70
   3   1   8   60.49    4.90
  -3   1  -8   59.79    5.00
  -3  -1  -8   62.59    5.20
   3  -1   8   49.99    4.40
   3   1   9   26.70    3.70
  -3   1  -9   23.50    3.60
   3  -1   9   25.00    4.00
  -3  -1  -9   25.70    3.80
  -3   1 -10  106.49    6.90
   3   1  10  108.99    6.80
   3  -1  10  103.19    7.10
  -3  -1 -10  111.29    7.20
  -3   1 -11    3.20    3.40
   3   1  11    0.50    3.10
   3  -1  11    5.40    3.60
  -3  -1 -11   -1.70    3.40
  -3   1 -12   37.50    5.20
   3   1  12   34.40    4.80
   3  -1  12   28.20    4.70
  -3  -1 -12   33.40    5.00
  -3   1 -13   -3.30    3.80
   3   1  13   -1.00    3.40
   3  -1  13    0.40    3.80
  -3  -1 -13   -2.60    3.80
  -3   1 -14    1.80    4.30
   3   1  14    0.20    3.50
   3  -1  14    8.70    4.30
  -3  -1 -14   -3.40    4.20
   3  -2 -16    1.80    7.80
   3   2 -15   15.40    4.60
  -3   2  15   24.70    3.80
  -3  -2  15   19.60    5.20
   3  -2 -15   13.90    4.60
   3   2 -14  153.58    9.00
  -3   2  14  160.88    7.90
  -3  -2  14  154.28   10.10
   3  -2 -14  178.58    9.80
   3   2 -13  251.97   10.90
  -3   2  13  258.97   10.10
  -3  -2  13  271.27   12.10
   3  -2 -13  256.57   11.40
  -3   2  12  118.29    6.50
   3   2 -12  119.59    7.20
   3  -2 -12  110.29    7.80
  -3  -2  12  111.79    7.90
  -3   2  11   97.59    5.70
   3   2 -11  101.99    6.30
   3  -2 -11   93.99    6.80
  -3  -2  11   87.59    7.00
   3   2 -10    7.60    2.70
  -3   2  10    6.90    2.50
  -3   2  10   13.70    2.10
  -3  -2  10    8.70    3.40
   3  -2 -10    6.30    3.00
  -3   2   9  165.18    6.20
   3   2  -9  181.18    7.40
  -3   2   9  174.38    6.90
  -3  -2   9  182.78    8.20
   3  -2  -9  167.58    7.60
  -3   2   8  271.47    8.80
  -3   2   8  288.47    9.20
   3   2  -8  293.77    9.80
   3  -2  -8  272.27    9.80
  -3  -2   8  285.37   10.40
  -3   2   7   90.89    3.90
   3   2  -7   94.49    4.80
  -3   2   7   87.49    4.30
   3   2  -7   90.49    4.90
  -3  -2   7   99.59    6.10
   3  -2  -7  100.99    5.10
  -3  -2   7   87.49    5.40
  -3   2   6    1.60    1.50
   3   2  -6    1.80    1.80
  -3   2   6    2.80    1.30
   3   2  -6   -1.20    1.50
  -3  -2   6    2.70    1.60
   3  -2  -6    4.20    1.90
   3  -2  -6    3.50    1.90
  -3  -2   6    0.70    2.20
  -3  -2   6    0.00    2.50
  -3   2   5  484.15   13.00
   3   2  -5  460.45   15.00
   3   2  -5  478.65   13.80
  -3   2   5  467.35   12.90
   3   2  -5  470.55   14.00
   3  -2  -5  476.05   13.70
  -3  -2   5  476.75   15.10
  -3  -2   5  468.65   14.30
   3  -2  -5  482.45   13.80
   3   2  -4  333.77   10.00
   3   2  -4  327.27   11.30
   3   2  -4  335.87   10.20
   3  -2  -4  338.17    9.70
  -3  -2   4  334.37   10.40
  -3  -2   4  334.37   11.20
   3  -2  -4  332.97    9.70
   3   2  -3    0.90    2.80
   3   2  -3   -1.00    1.50
   3   2  -3   -1.50    1.30
   3  -2  -3   -0.80    1.00
  -3  -2   3   -1.30    1.70
   3  -2  -3   -0.50    0.90
  -3  -2   3    0.80    2.30
  -3  -2   3   -1.00    1.40
   3   2  -2  492.85   14.90
   3   2  -2  503.55   13.70
   3   2  -2  507.05   13.60
  -3  -2   2  507.45   13.70
   3  -2  -2  497.45   13.60
  -3  -2   2  481.05   13.90
  -3  -2   2  464.85   14.70
   3   2  -1  900.81   23.90
   3   2  -1  902.11   23.90
  -3  -2   1  897.71   24.00
  -3  -2   1  886.71   24.10
   3   2   0  147.09    4.50
   3   2   0  144.29    4.50
  -3  -2   0  144.69    4.80
  -3  -2   0  144.59    4.70
   3   2   1 1241.58   32.80
   3   2   1 1252.17   32.80
  -3  -2  -1 1227.88   33.00
   3  -2   1 1177.98   32.60
  -3  -2  -1 1288.47   33.00
   3  -2   1 1234.78   32.60
   3   2   2 1490.05   39.20
  -3   2  -2 1479.15   38.90
  -3   2  -2 1459.35   38.90
   3   2   2 1470.95   39.10
  -3  -2  -2 1515.25   39.40
   3  -2   2 1449.55   39.20
   3  -2   2 1481.95   39.20
  -3  -2  -2 1441.16   39.30
  -3   2  -3  361.16   10.50
   3   2   3  364.06   10.70
   3   2   3  363.76   10.60
  -3   2  -3  370.16   10.50
  -3  -2  -3  367.86   10.90
   3  -2   3  357.06   10.90
  -3  -2  -3  372.56   11.00
   3  -2   3  369.86   10.80
  -3   2  -4    4.30    1.70
   3   2   4    5.70    1.80
  -3   2  -4    5.70    1.80
   3   2   4    3.60    1.60
  -3  -2  -4    5.40    1.80
   3  -2   4    6.70    1.80
  -3  -2  -4    5.40    2.10
   3  -2   4    2.00    1.90
  -3   2  -5  959.40   26.20
   3   2   5  955.50   26.40
  -3   2  -5  947.41   26.30
   3   2   5  965.70   26.10
   3  -2   5  954.80   26.80
  -3  -2  -5  924.11   26.40
  -3  -2  -5  937.01   26.60
   3   2   6  137.29    5.80
  -3   2  -6  132.69    5.90
   3   2   6  132.39    5.30
  -3  -2  -6  138.99    6.20
   3  -2   6  131.59    6.30
   3   2   7   95.09    5.20
  -3   2  -7  100.29    5.30
  -3   2  -7   99.19    4.90
   3  -2   7   88.39    5.70
  -3  -2  -7   91.89    5.60
  -3   2  -8  725.03   20.90
   3   2   8  694.83   20.40
   3   2   8  714.03   20.90
   3  -2   8  707.33   21.60
  -3  -2  -8  696.53   21.20
  -3   2  -9    3.70    2.90
   3   2   9    1.40    1.90
   3   2   9    3.90    2.60
  -3  -2  -9    4.00    3.00
   3  -2   9    3.00    3.00
   3   2  10   17.90    3.40
  -3   2 -10   15.20    3.60
  -3  -2 -10   12.60    3.70
   3  -2  10   15.00    4.00
  -3   2 -11   73.39    5.90
   3   2  11   63.39    5.20
   3  -2  11   67.29    6.30
  -3  -2 -11   57.19    5.70
  -3   2 -12   45.30    5.00
  -3   2 -12   47.80    5.50
   3   2  12   42.10    4.80
   3  -2  12   36.50    5.30
  -3  -2 -12   32.40    4.90
  -3   2 -13    2.70    3.70
  -3   2 -13   -2.30    4.10
   3   2  13    3.00    3.50
  -3  -2 -13    0.00    4.20
   3  -2  13    4.00    4.00
  -3   2 -14   -1.80    3.80
   3   2  14   10.10    3.90
   3  -2  14    1.40    4.40
  -3  -2 -14    1.60    4.40
   3   3 -15   30.40    4.90
  -3  -3  15   33.30    6.00
   3  -3 -15   32.10    5.30
  -3   3  14   21.40    2.80
   3   3 -14   18.60    4.30
   3  -3 -14   16.70    4.70
  -3  -3  14   27.30    5.40
   3   3 -13   45.70    5.00
  -3   3  13   49.30    3.90
  -3  -3  13   37.20    5.30
   3  -3 -13   41.00    5.40
  -3   3  12   79.89    4.50
   3   3 -12   69.49    5.60
   3  -3 -12   83.89    6.60
  -3  -3  12   86.79    7.20
  -3   3  11   44.30    3.60
   3   3 -11   58.59    4.80
  -3   3  11   46.30    3.30
  -3  -3  11   51.09    5.60
   3  -3 -11   53.29    5.20
  -3   3  10   25.30    2.40
  -3   3  10   23.30    2.10
   3   3 -10   20.50    3.20
   3  -3 -10   20.60    3.40
  -3  -3  10   34.20    4.50
  -3   3   9   65.59    3.10
   3   3  -9   76.59    4.80
  -3   3   9   68.69    3.30
   3  -3  -9   73.59    5.30
  -3  -3   9   67.89    5.70
   3   3  -8  797.12   23.30
   3   3  -8  822.12   23.10
  -3  -3   8  798.52   23.90
   3  -3  -8  805.02   23.20
   3   3  -7  277.87    9.20
  -3  -3   7  280.67   10.10
   3  -3  -7  278.07    9.30
   3   3  -6    9.80    1.90
   3   3  -6   12.10    2.10
   3  -3  -6    9.90    2.00
   3  -3  -6   11.10    2.00
  -3  -3   6   16.70    2.80
  -3  -3   6   17.50    4.10
   3   3  -5  371.66   12.90
   3   3  -5  365.96   10.80
   3   3  -5  368.06   11.00
  -3  -3   5  358.36   11.00
  -3  -3   5  353.46   11.50
   3  -3  -5  368.46   10.60
   3  -3  -5  362.76   10.60
  -3  -3   5  350.46   12.60
   3   3  -4  322.17    9.40
   3   3  -4  316.67   11.50
   3   3  -4  331.67    9.30
  -3   3   4  304.17    9.00
  -3  -3   4  317.57    9.50
  -3  -3   4  298.57    9.80
  -3  -3   4  291.47   11.00
   3  -3  -4  319.87    8.70
   3  -3  -4  317.17    8.70
   3   3  -3    6.90    1.30
   3   3  -3    4.90    1.30
   3   3  -3    5.30    3.10
  -3  -3   3    7.30    3.10
  -3  -3   3    5.80    1.40
  -3  -3   3   10.30    1.80
   3   3  -2   42.80    4.30
  -3  -3   2   39.00    2.70
  -3  -3   2   42.00    4.10
  -3  -3   2   41.40    2.40
   3  -3  -2   42.10    3.20
  -3  -3   1   16.00    1.40
   3  -3  -1   14.60    2.30
  -3  -3   1   12.40    1.40
  -3  -3   0   60.09    2.50
   3  -3   0   60.59    3.80
  -3  -3   0   66.29    2.60
  -3  -3  -1  331.97    9.30
  -3  -3  -1  320.97    9.20
   3  -3   2  204.28    5.90
  -3  -3  -2  201.68    6.30
   3  -3   2  188.38    5.80
  -3  -3  -2  190.68    6.10
  -3  -3  -3  214.88    7.20
   3  -3   3  226.88    7.20
   3  -3   3  221.88    7.00
  -3  -3  -3  226.48    7.20
  -3   3  -4  255.57    7.60
  -3   3  -4  246.18    7.50
   3   3   4  257.37    7.40
   3   3   4  257.27    7.50
   3  -3   4  250.57    8.10
   3  -3   4  246.48    8.40
  -3  -3  -4  255.27    8.30
  -3  -3  -4  253.67    8.30
  -3   3  -5    9.90    1.80
   3   3   5   10.80    1.80
  -3   3  -5   12.30    2.00
   3   3   5   11.80    1.60
   3  -3   5   10.80    2.40
  -3  -3  -5    7.30    2.30
  -3   3  -6  233.68    8.00
  -3   3  -6  239.18    8.20
   3   3   6  260.27    8.10
   3   3   6  238.68    7.70
   3  -3   6  250.57    9.10
  -3  -3  -6  251.37    8.80
  -3   3  -7   58.39    4.20
   3   3   7   66.49    3.60
   3   3   7   67.79    4.10
  -3  -3  -7   59.89    4.90
   3  -3   7   59.79    5.00
   3   3   8    2.70    2.10
   3   3   8    5.70    1.80
  -3   3  -8    1.90    2.30
  -3   3  -8    7.90    2.10
  -3  -3  -8    3.10    2.60
   3  -3   8   11.50    3.20
   3   3   9   24.40    2.60
   3   3   9   28.10    3.30
  -3   3  -9   23.00    3.30
   3  -3   9   30.60    4.40
  -3  -3  -9   21.60    3.90
   3   3  10   44.00    4.00
  -3   3 -10   44.10    4.30
  -3  -3 -10   47.80    5.20
   3  -3  10   33.00    4.60
   3   3  11    1.70    2.70
  -3   3 -11    3.70    3.20
  -3  -3 -11    2.20    3.60
   3  -3  11    0.30    3.60
   3   3  12  323.27   11.60
  -3   3 -12  341.27   12.40
   3  -3  12  330.57   13.80
  -3  -3 -12  298.47   13.20
   3   3  13    9.70    3.20
  -3   3 -13    5.00    3.70
  -3  -3 -13   12.80    4.50
   3  -3  13    7.60    4.60
  -3   3 -14   -2.20    3.60
   3   3  14    3.50    3.10
  -3  -3 -14    8.00    4.80
   3  -3  14    9.40    4.80
   3   4 -15    8.60    4.00
  -3  -4  15   18.50    5.40
   3  -4 -15   10.60    4.80
   3   4 -14    2.70    3.50
  -3  -4  14    2.90    4.60
   3  -4 -14    6.60    4.10
   3   4 -13   -5.20    3.00
   3  -4 -13    0.60    3.60
  -3  -4  13    2.40    4.10
   3   4 -12  161.88    8.10
  -3  -4  12  185.58   10.10
   3  -4 -12  179.58    8.90
   3   4 -11  161.58    7.50
   3  -4 -11  154.98    8.00
  -3  -4  11  150.18    8.90
   3   4 -10   44.40    3.90
   3   4 -10   60.99    4.50
   3  -4 -10   40.60    4.10
  -3  -4  10   53.79    5.20
   3   4  -9  565.44   16.80
   3   4  -9  548.95   16.90
  -3  -4   9  553.94   18.00
   3  -4  -9  563.94   17.20
   3   4  -8   65.29    4.20
  -3  -4   8   71.69    5.40
   3  -4  -8   62.69    4.50
   3   4  -7  212.98    7.20
   3   4  -7  202.38    7.20
   3  -4  -7  206.58    7.40
  -3  -4   7  206.78    8.40
   3   4  -6   94.49    6.90
   3   4  -6   97.79    4.20
   3   4  -6   85.79    4.10
  -3  -4   6   86.59    5.20
   3  -4  -6   99.89    4.10
   3  -4  -6  104.89    4.30
   3   4  -5  134.59    4.70
   3   4  -5  141.39    4.80
  -3   4   5  132.39    5.10
   3   4  -5  141.29    7.80
   3  -4  -5  137.69    4.40
   3  -4  -5  132.99    4.40
  -3  -4   5  134.79    5.30
  -3  -4   5  134.39    5.90
  -3   4   4   20.90    2.30
   3   4  -4   18.00    4.20
  -3  -4   4   21.20    2.10
  -3  -4   4   20.80    2.40
  -3  -4   4   19.00    4.10
  -3   4   3   11.90    2.20
   3   4  -3    7.00    3.30
  -3  -4   3    9.90    1.50
  -3  -4   3   11.80    3.60
  -3   4   2 1149.58   31.20
  -3  -4   2 1127.39   32.60
  -3  -4   2 1134.49   30.10
   3  -4  -2 1145.99   31.30
  -3  -4   2 1103.59   30.20
   3   4  -1   -0.40    0.90
   3  -4  -1    4.60    2.20
   3   4   0    0.90    2.50
   3  -4   0    0.50    2.20
   3  -4   1   11.90    3.10
   3  -4   2   59.29    4.90
  -3  -4  -2   66.69    2.80
  -3  -4  -2   67.39    2.90
  -3  -4  -3    5.40    1.60
  -3  -4  -3    1.90    1.50
   3  -4   3    4.30    1.50
   3  -4   3    7.20    1.40
   3  -4   4  321.67   10.00
   3  -4   4  314.87    9.70
  -3  -4  -4  310.77    9.80
  -3  -4  -4  326.17    9.90
  -3  -4  -5  568.04   16.30
   3  -4   5  544.55   16.50
  -3   4  -6   75.79    3.50
  -3   4  -6   70.39    3.50
   3  -4   6   72.29    5.00
  -3  -4  -6   81.19    4.90
  -3   4  -7  307.07    9.60
  -3   4  -7  299.27    9.50
  -3  -4  -7  308.17   10.60
   3  -4   7  309.17   11.10
  -3   4  -8    0.10    1.90
   3   4   8    1.10    1.30
  -3   4  -8   -0.40    1.50
  -3  -4  -8   -1.90    2.50
   3   4   9   45.10    2.90
  -3   4  -9   45.50    3.80
   3   4   9   44.30    3.10
  -3  -4  -9   37.30    4.40
   3  -4   9   52.19    5.40
   3   4  10   14.50    2.00
  -3   4 -10   14.80    2.80
   3   4  10   14.50    2.20
  -3   4 -10   18.60    3.20
  -3  -4 -10   16.30    3.80
   3  -4  10   17.70    4.30
   3   4  11    4.60    2.10
  -3   4 -11    1.60    2.90
  -3  -4 -11    5.20    3.90
   3  -4  11    2.80    3.70
  -3   4 -12   10.50    3.30
   3   4  12   12.20    2.30
   3  -4  12   16.70    4.90
  -3  -4 -12   18.60    4.70
  -3   4 -13   -4.00    3.00
   3  -4  13    1.30    4.40
  -3  -4 -13    2.60    4.30
  -3   4 -14    0.20    3.30
  -3  -4 -14   -9.50    4.10
   3  -4  14    1.80    4.60
   3   5 -15    4.70    3.60
   3  -5 -15    8.80    4.70
  -3  -5  15    0.10    4.60
   3   5 -14   39.50    4.50
  -3  -5  14   44.70    6.60
   3  -5 -14   37.40    5.60
   3   5 -13   32.40    4.10
   3  -5 -13   42.60    5.30
  -3  -5  13   52.99    6.70
   3   5 -12   18.90    3.40
  -3  -5  12   16.30    4.60
   3  -5 -12   16.00    3.80
   3   5 -11   -0.40    2.50
  -3  -5  11    1.90    3.70
   3  -5 -11   -0.30    2.90
   3   5 -10    7.20    2.00
   3   5 -10   12.70    2.70
  -3  -5  10    8.70    3.60
   3  -5 -10   12.40    3.30
   3   5  -9   12.70    2.10
   3   5  -9   12.30    2.40
   3  -5  -9   13.60    2.80
  -3  -5   9    7.50    3.40
   3   5  -8   24.30    2.40
   3   5  -8   29.00    2.60
   3  -5  -8   35.40    3.20
  -3  -5   8   24.70    3.70
  -3   5   7  168.68    6.60
   3   5  -7  178.38    5.90
   3  -5  -7  187.18    6.50
  -3  -5   7  160.68    7.50
   3   5  -6  103.99    7.60
  -3   5   6  108.59    4.90
   3  -5  -6  103.79    4.10
   3  -5  -6  104.79    4.10
  -3  -5   6  107.49    5.60
   3   5  -5   55.19    5.60
  -3   5   5   60.89    3.80
  -3  -5   5   60.29    4.10
   3   5  -4  100.39    7.00
  -3   5   4  111.99    5.30
  -3  -5   4  117.29    4.40
  -3  -5   4  114.09    4.80
  -3   5   3  324.67   10.70
   3   5  -3  320.47   12.40
  -3  -5   3  324.27    9.40
   3  -5  -3  334.17   10.70
  -3  -5   3  317.97    9.60
  -3   5   2  107.29    5.40
   3  -5  -2  120.99    5.80
   3   5  -1   69.59    5.80
  -3   5   1   62.69    4.50
   3  -5  -1   62.09    4.40
   3   5   0 1502.85   42.50
   3  -5   0 1489.55   41.80
   3   5   1  620.14   19.50
   3  -5   1  607.54   19.20
   3  -5   2  141.99    9.80
  -3  -5  -3    7.20    1.40
   3  -5   3    8.20    1.30
  -3  -5  -3    9.40    1.40
   3  -5   3    7.50    1.30
   3  -5   4  242.98    7.90
  -3  -5  -4  255.77    8.10
   3  -5   4  263.77    8.20
  -3  -5  -4  245.78    8.00
   3  -5   5    1.50    2.00
  -3  -5  -5    3.10    1.90
  -3  -5  -6  205.38    7.70
   3  -5   6  205.58    8.10
  -3  -5  -7   19.60    3.10
   3  -5   7   22.40    3.40
  -3   5  -8    0.20    1.30
  -3   5  -8    1.10    1.40
  -3  -5  -8    2.10    2.80
   3  -5   8    0.80    2.90
  -3   5  -9   20.70    2.30
  -3   5  -9   21.30    2.50
  -3  -5  -9   23.60    3.80
   3  -5   9   25.00    4.20
  -3   5 -10   32.40    3.10
  -3  -5 -10   31.70    4.50
   3  -5  10   24.50    4.50
  -3   5 -11   46.00    3.90
  -3  -5 -11   48.10    5.70
   3  -5  11   58.09    6.40
  -3   5 -12  160.48    7.10
   3  -5  12  148.69   10.20
  -3  -5 -12  154.68    9.70
  -3   5 -13    1.30    3.00
   3  -5  13    1.20    4.60
  -3  -5 -13   -2.70    4.10
  -3   5 -14   -1.40    2.90
   3  -5  14   -1.80    4.70
  -3  -5 -14    2.10    4.40
   3   6 -14   32.90    3.80
   3  -6 -14   31.00    5.30
  -3  -6  14   52.79    7.30
   3   6 -13    3.50    2.50
   3  -6 -13    1.70    3.60
  -3  -6  13    9.00    4.60
   3   6 -12   -1.20    2.20
   3  -6 -12   -1.70    3.40
  -3  -6  12    3.00    4.20
   3   6 -11   -3.20    1.90
   3  -6 -11   -1.10    2.90
  -3  -6  11   -0.50    3.70
   3   6 -10  125.99    5.00
   3   6 -10  135.79    5.20
   3  -6 -10  130.99    7.00
  -3  -6  10  143.59    8.60
  -3   6   9  437.76   13.60
   3  -6  -9  416.46   13.60
  -3  -6   9  422.96   15.00
  -3   6   8   23.30    2.90
  -3  -6   8   25.60    3.90
   3  -6  -8   30.20    3.00
  -3   6   7   21.30    2.80
   3  -6  -7   18.20    2.10
  -3  -6   7   21.10    3.30
  -3   6   6   53.69    4.00
   3   6  -6   50.49    6.00
  -3  -6   6   60.99    4.50
  -3   6   5 1186.18   33.30
   3   6  -5 1181.78   35.90
  -3  -6   5 1202.88   32.90
   3   6  -4  386.56   14.90
  -3   6   4  389.06   12.60
  -3  -6   4  390.16   11.60
  -3  -6   4  383.76   11.30
  -3   6   3   62.49    4.50
  -3  -6   3   60.29    2.80
  -3  -6   3   71.79    3.00
   3  -6  -3   60.59    4.50
   3   6  -2  397.66   14.60
   3  -6  -2  408.26   13.40
  -3   6   1   83.99    5.70
   3   6  -1   84.59    6.40
   3  -6  -1   93.29    5.50
   3   6   0   55.89    5.50
   3   6   1    0.10    3.50
   3   6   2   23.60    4.40
   3  -6   3   15.10    5.50
  -3  -6  -4    0.10    1.40
   3  -6   4    1.40    1.50
   3  -6   4   -0.30    1.40
  -3  -6  -4    0.80    1.30
  -3  -6  -5  359.76   11.20
   3  -6   5  368.16   11.50
  -3  -6  -6   43.70    3.50
   3  -6   6   54.59    4.50
   3  -6   7  160.98    7.50
  -3  -6  -7  158.38    7.00
   3  -6   8  143.59    7.60
  -3  -6  -8  126.59    6.90
   3  -6   9   -0.90    3.20
  -3  -6  -9    4.30    3.10
   3  -6  10    6.90    3.90
  -3  -6 -10    6.30    3.40
   3  -6  11   25.10    5.20
  -3  -6 -11   30.70    5.00
   3  -6  12   20.30    5.20
  -3  -6 -12   23.90    5.00
   3  -6  13    3.60    4.80
  -3  -6 -13   -5.70    4.10
   3  -7 -14   61.59    6.50
  -3  -7  14   43.80    6.70
  -3  -7  13    7.60    4.90
   3  -7 -13    1.70    3.80
   3  -7 -12   23.40    4.20
  -3  -7  12   32.10    5.60
   3  -7 -11   40.90    4.70
  -3  -7  11   43.50    5.60
  -3   7  10   -1.90    1.90
  -3  -7  10   17.20    4.10
   3  -7 -10    4.40    2.90
  -3  -7   9   93.29    7.10
   3  -7  -9   97.69    5.40
   3  -7  -8   92.19    4.80
  -3  -7   8   96.49    6.50
  -3   7   7   -1.60    1.90
   3  -7  -7    2.20    1.50
  -3  -7   7   -2.40    2.40
   3  -7  -7    2.20    1.30
   3   7  -6  115.09    8.80
  -3  -7   6  108.09    5.70
   3   7  -5  173.68    9.70
  -3  -7   5  163.78    6.50
  -3   7   4   -1.00    2.40
   3   7  -4   -2.40    2.30
  -3  -7   4   -1.00    1.50
  -3  -7   4    1.30    1.30
  -3   7   3   53.09    4.70
   3   7  -3   47.10    5.10
  -3  -7   3   52.69    2.40
  -3  -7   3   48.10    2.50
  -3   7   2    3.00    2.80
   3   7  -2    8.10    3.80
   3   7  -1   -2.50    3.30
  -3   7   1    0.80    2.80
   3   7   0  375.26   14.40
   3   7   1   13.40    4.00
   3   7   2   39.70    5.40
   3   7   3   50.29    5.90
   3  -7   4   74.09    3.40
  -3  -7  -4   69.59    3.20
  -3  -7  -4   75.19    3.40
   3  -7   4   75.69    3.60
   3  -7   5   97.69    5.00
  -3  -7  -5  104.39    4.60
  -3  -7  -6   32.20    3.20
   3  -7   6   33.10    3.60
   3  -7   7   30.00    3.80
  -3  -7  -7   24.80    3.20
   3  -7   8   17.50    3.70
  -3  -7  -8   21.50    3.50
   3  -7   9   64.29    5.80
  -3  -7  -9   62.19    5.20
  -3  -7 -10    1.00    3.40
   3  -7  10    6.70    4.10
   3  -7  11  116.59    8.90
  -3  -7 -11  100.99    7.80
   3  -7  12   72.19    7.50
  -3  -7 -12   74.09    7.10
  -3  -7 -13   -2.20    4.40
   3  -7  13    4.50    5.00
   3  -8 -13   48.30    5.90
  -3  -8  13   47.90    7.00
  -3  -8  12   20.40    5.50
   3  -8 -12   17.20    4.10
  -3  -8  11    2.50    4.00
   3  -8 -11    1.30    3.00
  -3   8  10  112.39    6.90
   3  -8 -10  117.29    6.50
  -3  -8  10  127.29    8.50
  -3   8   9   86.89    5.70
   3  -8  -9   92.59    5.40
  -3  -8   9  102.39    7.30
  -3   8   8  164.78    7.60
   3  -8  -8  161.28    6.20
  -3  -8   8  164.48    8.30
  -3   8   7    6.50    2.90
  -3  -8   7    4.80    2.90
  -3   8   6    9.50    3.10
   3   8  -6    6.60    5.00
  -3  -8   6    8.80    2.60
  -3   8   5   63.19    5.50
  -3  -8   5   52.49    4.00
  -3   8   4  458.55   15.50
  -3  -8   4  449.26   13.10
  -3  -8   4  435.16   13.60
  -3   8   2   19.00    4.00
   3   8  -2   16.90    5.00
  -3   8   1   -2.90    3.00
   3   8  -1   -2.20    3.70
   3   8   0   23.60    5.20
   3   8   1   80.09    7.40
   3   8   2   10.30    4.30
   3   8   3  619.04   25.20
   3   8   4   82.49    7.50
   3  -8   4   63.69    3.20
   3  -8   4   57.49    3.00
  -3  -8  -4   66.39    2.90
   3   8   5   81.49    7.30
   3  -8   5   68.79    4.30
  -3  -8  -5   70.09    3.90
   3  -8   6  116.29    6.00
  -3  -8  -6  123.89    5.70
  -3  -8  -7   27.40    3.30
   3  -8   7   27.90    3.80
  -3  -8  -8   12.80    3.20
   3  -8   8   25.50    4.00
   3  -8   9   -2.00    3.30
  -3  -8  -9   -2.20    3.00
  -3  -8 -10   -0.70    3.40
   3  -8  10    3.90    3.90
   3  -8  11   89.29    7.90
  -3  -8 -11   71.59    6.40
  -3  -8 -12  111.39    8.70
   3  -8  12  127.39   10.10
  -3  -9  12    5.70    4.70
  -3  -9  11    0.40    4.30
  -3  -9  10  102.69    8.00
  -3   9   9    3.30    3.10
  -3  -9   9    2.30    3.50
  -3   9   8    8.30    3.50
  -3  -9   8    8.20    3.50
  -3   9   7   41.60    4.80
  -3  -9   7   35.10    4.10
   3   9  -6  184.48   11.20
  -3   9   6  180.68    8.90
  -3  -9   6  158.88    7.30
  -3   9   5   67.49    5.90
   3   9  -5   54.29    6.90
  -3  -9   5   61.99    4.30
  -3   9   4  185.98    9.20
  -3  -9   4  165.88    6.10
  -3   9   3   40.50    5.30
   3   9  -3   54.29    7.20
  -3   9   2   -3.30    3.20
   3   9  -2    0.60    4.50
  -3   9   1   -1.90    3.50
   3   9  -1   -0.40    4.40
   3   9   0   27.40    5.40
   3   9   1   -2.20    3.70
   3   9   2  193.58   11.00
   3   9   3   -6.20    3.70
   3   9   4    4.40    4.50
   3  -9   4   -1.60    1.20
   3  -9   4    2.20    1.30
   3   9   5  569.04   20.40
  -3  -9  -5  529.75   15.60
   3  -9   5  548.95   16.20
   3   9   6   53.69    6.90
  -3  -9  -6   55.39    4.20
   3  -9   6   58.99    4.80
   3   9   7    2.00    4.80
  -3  -9  -7    4.20    2.60
   3  -9   7   -1.80    2.60
  -3  -9  -8   77.99    5.80
   3  -9   8   75.29    6.40
  -3  -9  -9   -1.50    2.90
   3  -9   9    2.10    3.70
   3  -9  10   55.39    6.40
  -3  -9 -10   52.29    5.50
  -3  -9 -11  122.79    8.60
   3  -9  11  141.29    9.80
  -3 -10  11    3.30    4.50
  -3 -10  10   66.29    6.60
  -3 -10   9    2.60    3.70
  -3 -10   8   10.80    3.70
  -3  10   7   67.99    6.40
  -3 -10   7   61.19    5.10
   3  10  -6   -3.40    4.20
  -3  10   6    0.20    3.70
  -3 -10   6   -1.80    2.40
  -3  10   5    2.30    3.80
   3  10  -5    2.10    4.70
  -3 -10   5    3.00    2.20
  -3  10   4  183.28    9.70
   3  10  -4  162.48   11.00
  -3 -10   4  168.58    6.20
   3  10  -3  138.19   10.10
  -3  10   3  117.89    8.20
   3  10  -2   51.29    7.20
  -3  10   2   31.20    5.30
  -3  10   1   16.40    5.00
   3  10  -1   24.10    5.90
   3  10   0  131.69    9.70
   3  10   1    0.40    4.90
   3  10   2    5.70    5.00
   3  10   3   74.79    8.30
   3  10   4   -4.50    4.50
   3  10   5   13.70    5.40
   3 -10   5    9.40    2.40
   3  10   6    6.90    5.30
   3 -10   6    4.40    2.60
   3  10   7   24.30    6.20
   3 -10   7   20.60    3.60
   3  10   8    9.20    5.80
   3 -10   8    9.40    3.60
   3  10   9    6.00    5.50
   3 -10   9    6.20    3.80
   3  10  10   19.20    6.20
   3 -10  10    5.90    4.40
  -3 -11  10  103.99    8.30
  -3 -11   9    7.60    4.20
  -3  11   8  125.99    9.10
  -3 -11   8  114.19    7.80
  -3  11   7    9.40    4.40
  -3 -11   7    9.40    3.30
   3  11  -6  514.85   21.90
  -3  11   6  531.65   18.90
  -3 -11   6  512.85   16.60
  -3  11   5  321.27   14.00
   3  11  -5  355.86   16.90
  -3  11   4  322.57   14.10
   3  11  -4  329.47   16.10
   3  11  -3   24.80    6.50
  -3  11   3   31.20    5.50
  -3  11   2   11.40    4.80
   3  11  -2   -0.70    5.10
   3  11  -1   13.90    5.90
  -3  11   1   12.10    5.10
   3  11   0    5.70    5.70
   3  11   1  144.09   11.30
   3  11   2   35.10    6.70
   3  11   3  136.19   10.90
   3  11   4    1.00    5.30
   3  11   5    8.70    5.90
   3  11   6   17.00    6.10
   3  11   7   95.89    9.80
   3  11   8    4.40    5.40
   3  11   9    0.70    5.20
   3 -11   9    3.70    4.50
   3  12  -9    6.30    9.30
   3  12  -8    9.80    8.80
  -3  12   7  101.19    8.40
  -3  12   6    4.30    4.50
   3  12  -6    3.20    5.80
  -3  12   5   56.79    7.20
   3  12  -5   55.09    8.60
   3  12  -4    5.90    6.20
  -3  12   4   -0.90    4.40
   3  12  -3    5.60    5.70
  -3  12   3    8.20    4.90
   3  12  -2    7.90    5.90
  -3  12   2    4.60    4.80
   3  12  -1   92.69    9.80
   3  12   0   -2.60    5.80
   3  12   1  204.38   13.40
   3  12   2   67.19    9.00
   3  12   3   43.90    7.80
   3  12   4   15.60    6.40
   3  12   5  118.69   11.10
   3  12   6   40.20    7.70
   3  12   7    4.40    6.00
   3  12   8    2.70    5.60
   3  13  -7   17.60    8.90
  -3  13   6   39.90    6.40
  -3  13   5   38.20    6.30
   3  13  -5   49.20    8.70
  -3  13   4    5.70    5.10
   3  13  -4    7.50    7.00
  -3  13   3   11.50    5.20
   3  13  -3   13.50    7.10
   3  13  -2    7.30    6.40
   3  13  -1   95.99   11.00
   3  13   0    0.30    5.80
   3  13   1   -3.30    5.80
   3  13   2    0.70    6.20
   3  13   3   21.00    7.30
   3  13   4   22.20    7.40
   3  13   5   11.70    6.70
   3  13   6   13.40    6.30
   3  14  -5   22.50    8.70
  -3  14   5    6.40    5.20
  -3  14   4   -6.40    4.70
   3  14  -4    0.30    6.30
   3  14  -3   82.19   11.00
   3  14  -2   35.30    8.60
   3  14  -1    3.80    6.60
   3  14   0    2.90    7.00
   3  14   1   63.99   10.00
   3  14   2    5.50    7.10
   3  14   3   42.80    8.80
   3  14   4    2.30    6.40
   4   0 -16   20.90    5.20
  -4   0  16   18.10    4.70
   4   0 -15   -0.30    3.80
  -4   0  15    2.80    3.80
  -4   0  14   37.60    5.10
   4   0 -14   33.10    5.00
   4   0 -13    2.90    3.50
  -4   0  13    6.20    3.70
  -4   0  12  292.27   11.60
   4   0 -12  295.37   11.50
   4   0 -12  280.27   11.60
   4   0 -11    4.90    2.90
  -4   0  11   -1.80    2.90
   4   0 -11   -3.40    2.70
  -4   0  10  332.17   12.10
   4   0 -10  358.26   12.10
  -4   0  10  333.37   12.10
  -4   0   9    0.10    2.30
   4   0  -9    1.10    2.30
  -4   0   9   -2.80    2.50
  -4   0   8   30.90    3.40
  -4   0   8   38.70    3.80
  -4   0   8   36.90    3.30
   4   0  -8   29.90    3.30
  -4   0   7   -0.80    1.70
  -4   0   7    3.10    2.30
  -4   0   7   -2.20    1.90
   4   0  -7    3.70    2.10
  -4   0   6   47.30    4.10
   4   0  -6   45.70    3.60
   4   0  -6   49.70    3.90
  -4   0   6   50.19    3.60
   4   0  -6   57.29    4.00
   4   0  -5   -1.20    0.90
  -4   0   5   -1.50    1.40
  -4   0   5    1.40    1.80
   4   0  -5   -1.00    1.80
  -4   0   5    1.80    1.90
   4   0  -4 1822.12   48.40
  -4   0   4 1837.62   48.30
   4   0  -4 1859.01   48.50
  -4   0   4 1762.52   48.40
  -4   0   4 1792.22   48.50
   4   0  -3    0.00    0.20
   4   0  -3   -0.80    1.70
  -4   0   3    0.70    1.70
  -4   0   3    0.00    1.30
   4   0  -3   -0.70    1.40
  -4   0   3   -0.80    1.30
  -4   0   2 2769.92   72.39
   4   0  -2 2633.44   72.49
  -4   0   2 2758.62   72.29
  -4   0   1    0.60    1.20
   4   0  -1   -0.60    0.40
   4   0  -1    0.10    1.20
  -4   0   1   -3.10    1.30
  -4   0   0  421.56   12.10
  -4   0   0  427.86   12.00
   4   0   0  431.26   12.10
  -4   0  -1   -1.00    1.30
   4   0   1    1.20    1.50
  -4   0  -1    0.00    1.70
   4   0   1   -1.40    1.20
  -4   0  -2   18.10    2.20
   4   0   2   12.90    2.10
  -4   0  -2   15.60    1.80
   4   0   2   18.10    1.90
   4   0   3    0.40    1.40
  -4   0  -3    0.90    1.90
   4   0   3   -0.10    1.80
  -4   0  -3    1.20    1.40
  -4   0  -4 1342.67   36.30
   4   0   4 1362.06   36.50
   4   0   4 1293.67   36.10
  -4   0  -5   -3.90    1.70
   4   0   5    1.50    2.10
  -4   0  -5   -1.30    2.10
   4   0   5    1.00    1.70
   4   0   6  130.09    6.20
  -4   0  -6  124.09    6.10
  -4   0  -7   -0.40    2.30
   4   0   7   -2.00    2.20
  -4   0  -8  109.69    6.40
   4   0   8  111.19    6.40
  -4   0  -9   -0.90    2.80
   4   0   9   -0.30    2.60
   4   0  10    1.50    3.00
  -4   0 -10    2.40    3.20
   4   0  11    0.30    3.20
  -4   0 -11    4.20    3.70
   4   0  12   80.09    6.80
  -4   0 -12   81.69    6.80
   4   0  13   -3.60    3.50
  -4   0 -13    4.80    4.30
   4   0  14   -4.60    3.80
  -4   0 -14   -4.80    4.30
   4   1 -16   -2.10    4.00
  -4   1  16    4.00    3.60
   4  -1 -16   -4.40    4.00
  -4  -1  16   11.60    4.80
  -4   1  15    4.80    3.60
   4   1 -15    6.70    4.00
  -4  -1  15    4.20    4.20
   4  -1 -15    6.60    4.30
   4  -1 -15    1.70    4.00
   4   1 -14   14.70    4.20
  -4   1  14   15.20    4.00
  -4  -1  14   18.80    4.70
   4  -1 -14   17.80    4.50
   4   1 -13  700.63   22.10
  -4   1  13  677.53   21.60
   4  -1 -13  718.33   22.30
  -4  -1  13  678.43   22.40
  -4   1  12   22.20    3.80
   4   1 -12   23.00    4.00
  -4  -1  12   20.80    4.20
   4  -1 -12   22.30    4.20
  -4   1  11  259.87    9.80
  -4   1  11  225.88    9.80
   4   1 -11  236.38    9.80
  -4   1  11  250.87    9.60
   4  -1 -11  247.68   10.00
  -4  -1  11  233.78   10.30
  -4   1  10  153.98    6.90
  -4   1  10  162.88    6.50
   4   1 -10  152.78    7.30
  -4   1  10  143.89    7.10
  -4  -1  10  151.28    7.80
   4  -1 -10  155.18    7.50
  -4   1   9  659.23   19.40
   4   1  -9  675.93   19.80
  -4   1   9  648.84   19.00
  -4   1   9  659.23   19.50
   4  -1  -9  651.23   19.70
  -4  -1   9  638.04   20.40
  -4  -1   9  656.73   20.20
   4   1  -8  105.49    5.50
  -4   1   8  103.09    4.90
  -4   1   8   98.89    5.30
  -4  -1   8  101.79    5.90
  -4  -1   8   99.79    5.80
   4  -1  -8  106.29    5.60
   4   1  -7  416.56   13.20
  -4   1   7  422.66   12.40
   4   1  -7  396.56   12.80
  -4   1   7  418.36   12.70
  -4   1   7  419.76   12.30
   4  -1  -7  400.36   12.80
  -4  -1   7  410.66   13.30
  -4  -1   7  428.46   13.60
   4   1  -6   48.50    3.40
  -4   1   6   38.00    2.70
  -4   1   6   35.00    2.70
   4   1  -6   33.30    3.10
  -4   1   6   43.80    3.20
   4  -1  -6   42.90    3.30
   4  -1  -6   38.60    3.10
  -4  -1   6   37.00    3.50
  -4  -1   6   40.90    3.30
  -4  -1   6   41.30    3.70
   4   1  -5    2.30    1.50
   4   1  -5    2.20    2.30
   4   1  -5    0.00    1.70
  -4   1   5    1.60    1.50
  -4   1   5   -0.80    1.70
  -4   1   5    1.30    1.30
   4  -1  -5    1.70    1.80
   4  -1  -5    2.30    1.70
  -4  -1   5    0.40    2.20
  -4  -1   5    0.00    2.10
  -4  -1   5   -0.30    1.30
  -4   1   4   44.10    2.70
   4   1  -4   37.30    3.10
  -4   1   4   42.90    2.90
   4   1  -4   45.40    3.20
   4   1  -4   44.00    3.50
  -4  -1   4   38.70    3.10
   4  -1  -4   40.60    3.00
   4  -1  -4   41.00    3.10
  -4  -1   4   42.30    2.90
  -4  -1   4   40.20    3.60
  -4   1   3  384.16   11.10
  -4   1   3  390.26   11.00
   4   1  -3  387.96   11.40
   4   1  -3  400.36   11.60
   4   1  -3  410.36   12.20
  -4  -1   3  402.96   11.40
  -4  -1   3  385.66   11.70
   4  -1  -3  405.86   11.30
   4  -1  -3  395.76   11.30
   4   1  -2 2140.79   56.39
   4   1  -2 2081.59   56.49
  -4   1   2 2159.18   55.99
  -4   1   2 2102.39   55.99
   4  -1  -2 2192.68   56.79
   4  -1  -2 2085.59   56.19
  -4  -1   2 2169.98   56.59
   4   1  -1    0.70    1.40
  -4   1   1    3.00    1.00
  -4   1   1    3.30    1.10
   4   1  -1    3.70    1.40
   4  -1  -1    1.50    1.10
  -4  -1   1    3.10    1.50
   4  -1  -1    3.30    1.20
  -4   1   0  211.78    6.10
   4   1   0  205.78    6.60
  -4   1   0  204.08    6.20
   4   1   0  211.78    6.50
  -4  -1   0  211.38    6.70
   4  -1   0  212.98    6.30
   4  -1   0  205.98    6.30
  -4   1  -1 1976.40   51.99
   4   1   1 2025.30   52.29
  -4   1  -1 1936.61   51.99
   4   1   1 1989.70   52.19
   4  -1   1 1996.80   52.19
   4  -1   1 1933.31   52.09
  -4  -1  -1 1932.31   52.29
   4   1   2    5.60    1.80
  -4   1  -2    4.80    1.50
   4   1   2    6.10    1.70
  -4   1  -2    5.10    1.70
   4  -1   2    5.10    1.80
  -4  -1  -2    5.20    1.90
   4  -1   2    5.30    1.70
  -4   1  -3  591.04   16.50
   4   1   3  576.34   16.70
  -4   1  -3  573.34   16.50
   4   1   3  582.04   16.40
   4  -1   3  577.24   16.70
  -4  -1  -3  589.64   16.70
  -4   1  -4    0.90    2.00
   4   1   4   -0.80    1.90
   4   1   4   -0.70    1.40
  -4   1  -4   -1.60    1.40
   4  -1   4    0.20    1.40
  -4  -1  -4    2.50    2.10
   4  -1   4    1.90    2.00
  -4  -1  -4    0.40    1.50
   4   1   5   63.99    3.80
  -4   1  -5   60.79    3.80
  -4   1  -5   66.49    4.50
   4   1   5   67.59    4.40
  -4  -1  -5   70.29    4.20
   4  -1   5   63.39    4.60
   4  -1   5   66.49    4.10
  -4  -1  -5   69.99    4.60
  -4   1  -6   74.99    4.90
  -4   1  -6   75.69    4.40
   4   1   6   71.19    4.20
   4   1   6   73.59    4.80
  -4  -1  -6   71.69    4.90
   4  -1   6   75.29    5.10
  -4   1  -7   18.00    3.00
   4   1   7   16.10    3.30
   4   1   7   22.40    3.30
  -4  -1  -7   20.20    3.20
   4  -1   7   24.10    3.40
  -4   1  -8    3.50    2.70
   4   1   8    6.00    2.70
   4  -1   8    9.00    3.00
  -4  -1  -8    6.30    2.90
  -4   1  -9  112.99    6.90
   4   1   9  121.69    6.90
   4  -1   9  127.19    7.30
  -4  -1  -9  129.59    7.20
  -4   1 -10  322.47   12.30
   4   1  10  324.77   12.20
  -4  -1 -10  337.57   12.60
   4  -1  10  320.87   12.70
  -4   1 -11   84.79    6.40
   4   1  11   77.59    6.20
  -4  -1 -11   71.19    6.30
   4  -1  11   87.69    6.90
  -4   1 -12    6.80    3.90
   4   1  12    1.20    3.50
   4  -1  12    2.60    3.80
  -4  -1 -12    3.10    3.90
  -4   1 -13   -2.50    3.90
   4   1  13   -6.60    3.30
   4  -1  13    0.30    3.80
  -4  -1 -13   -2.90    4.00
  -4   1 -14    3.70    4.60
   4   1  14    8.30    4.00
  -4  -1 -14    9.60    5.10
   4  -1  14    4.10    4.30
  -4   2  16   28.10    3.90
   4   2 -16   21.40    4.70
   4  -2 -16   22.80    5.60
  -4  -2  16   25.80    5.70
   4   2 -15    1.50    3.80
  -4   2  15    5.20    3.20
   4  -2 -15    1.40    4.00
  -4  -2  15    4.10    4.40
   4   2 -14   47.70    5.40
  -4   2  14   38.70    4.30
  -4  -2  14   36.30    5.40
   4  -2 -14   34.50    5.20
   4   2 -13  106.99    7.40
  -4   2  13  110.89    6.50
  -4  -2  13  112.69    8.50
   4  -2 -13  107.59    7.90
   4   2 -12  156.08    8.20
  -4   2  12  163.48    7.40
  -4  -2  12  148.49    8.90
   4  -2 -12  173.78    8.80
  -4   2  11   58.79    4.90
  -4   2  11   46.30    3.50
   4   2 -11   54.89    4.70
  -4   2  11   72.69    4.70
  -4  -2  11   75.69    6.30
   4  -2 -11   63.09    5.20
  -4   2  10   18.00    2.70
  -4   2  10   18.70    2.90
  -4   2  10   15.20    2.20
   4   2 -10   17.90    3.20
   4  -2 -10   16.90    3.40
  -4  -2  10   14.00    3.40
   4   2  -9  135.79    6.50
  -4   2   9  137.99    5.30
  -4   2   9  134.69    5.90
  -4   2   9  144.79    5.80
   4  -2  -9  128.39    6.70
  -4  -2   9  144.69    7.30
  -4   2   8    0.60    1.50
  -4   2   8    1.50    1.80
   4   2  -8    0.30    2.10
  -4   2   8    3.40    1.70
   4  -2  -8    4.00    2.30
  -4  -2   8    1.90    2.50
   4   2  -7  360.86   11.60
   4   2  -7  356.86   11.40
  -4   2   7  364.56   10.50
  -4   2   7  358.26   10.70
  -4   2   7  352.66   10.40
  -4  -2   7  344.97   12.00
   4  -2  -7  364.46   11.40
  -4  -2   7  352.56   12.50
   4   2  -6   18.60    3.30
   4   2  -6   29.60    2.80
  -4   2   6   21.70    1.60
   4   2  -6   20.00    2.60
  -4   2   6   23.40    2.00
  -4   2   6   21.40    1.80
  -4  -2   6   21.40    2.40
  -4  -2   6   27.10    3.60
  -4  -2   6   15.20    2.80
   4  -2  -6   21.00    2.50
   4  -2  -6   21.80    2.50
  -4   2   5  102.79    3.50
  -4   2   5  103.29    3.40
   4   2  -5  105.59    4.60
   4   2  -5  116.19    6.00
   4   2  -5   98.29    4.70
  -4  -2   5  107.89    5.90
   4  -2  -5   98.29    4.40
   4  -2  -5  109.29    4.50
  -4  -2   5   89.19    5.10
   4   2  -4  356.36   10.70
   4   2  -4  362.16   12.00
   4   2  -4  367.76   10.90
   4  -2  -4  359.66   10.40
   4  -2  -4  357.36   10.40
  -4  -2   4  354.86   11.80
  -4  -2   4  353.46   11.10
   4   2  -3  143.29    6.70
   4   2  -3  146.69    5.30
   4   2  -3  151.18    5.20
   4  -2  -3  146.19    4.60
   4  -2  -3  142.49    4.30
  -4  -2   3  143.29    5.70
  -4  -2   3  141.19    6.50
   4  -2  -3  144.09    4.60
  -4  -2   3  155.48    5.20
   4   2  -2  650.63   17.50
   4   2  -2  628.54   17.60
   4   2  -2  640.54   18.90
  -4  -2   2  634.14   17.80
  -4  -2   2  634.04   17.60
   4   2  -1  593.34   16.30
   4   2  -1  587.44   16.20
  -4  -2   1  580.04   16.20
  -4  -2   1  601.04   16.50
   4   2   0 1137.79   30.50
   4   2   0 1155.68   30.50
   4  -2   0 1135.39   30.10
  -4  -2   0 1109.19   30.60
   4  -2   0 1132.69   30.10
  -4  -2   0 1178.38   30.60
   4   2   1   58.39    3.10
   4   2   1   59.09    2.90
  -4  -2  -1   57.79    3.20
  -4  -2  -1   55.69    3.30
   4  -2   1   57.69    2.70
   4  -2   1   54.89    2.80
  -4   2  -2  122.39    4.10
   4   2   2  119.59    4.70
  -4   2  -2  124.59    4.20
   4   2   2  128.29    4.60
  -4  -2  -2  120.49    4.90
   4  -2   2  119.39    4.60
  -4  -2  -2  125.49    5.10
   4  -2   2  122.39    4.60
  -4   2  -3 2076.49   54.79
   4   2   3 2039.80   55.09
   4   2   3 2091.59   54.99
  -4   2  -3 2077.49   54.79
   4  -2   3 2064.19   55.19
  -4  -2  -3 2108.69   55.39
   4  -2   3 2062.19   55.09
  -4  -2  -3 2023.30   55.19
   4   2   4  370.56   11.50
  -4   2  -4  377.66   11.20
   4   2   4  375.26   11.20
  -4   2  -4  362.66   11.20
   4  -2   4  379.26   11.50
   4  -2   4  372.36   11.70
  -4  -2  -4  373.56   11.70
  -4  -2  -4  395.26   11.80
  -4   2  -5   43.90    3.20
   4   2   5   47.10    3.80
  -4   2  -5   42.90    3.30
   4   2   5   45.20    3.30
   4  -2   5   45.30    3.70
  -4  -2  -5   45.30    3.60
  -4   2  -6  343.87   11.10
   4   2   6  348.67   11.20
  -4   2  -6  340.67   10.90
  -4  -2  -6  342.97   11.40
   4  -2   6  345.27   11.60
  -4   2  -7  275.07    9.40
   4   2   7  272.27    9.70
   4   2   7  268.57    9.20
  -4   2  -7  281.67    9.70
   4  -2   7  269.57   10.20
  -4  -2  -7  271.77   10.00
   4   2   8  229.98    8.30
  -4   2  -8  239.48    9.00
   4   2   8  228.68    8.80
  -4  -2  -8  217.98    9.30
   4   2   9   12.00    3.40
  -4   2  -9   10.20    3.10
   4   2   9   13.20    3.10
  -4  -2  -9   15.00    3.60
   4  -2   9   15.80    3.60
  -4   2 -10  484.75   15.70
   4   2  10  483.45   15.60
   4  -2  10  442.16   16.30
  -4  -2 -10  458.75   16.10
  -4   2 -11   10.40    3.80
   4   2  11    5.00    3.30
   4  -2  11    5.00    3.70
  -4  -2 -11   11.20    4.00
  -4   2 -12    8.10    4.10
   4   2  12   12.80    3.70
  -4  -2 -12    1.20    4.00
   4  -2  12    6.50    3.90
  -4   2 -13   13.60    4.20
   4   2  13   10.70    3.80
  -4   2 -13   15.80    4.90
   4  -2  13   15.40    4.80
  -4  -2 -13   13.70    4.90
  -4   2 -14   -6.30    3.60
   4   2  14   -0.90    3.70
  -4  -2 -14    1.00    4.50
   4  -2  14    2.20    4.50
   4   3 -15   -2.10    3.60
  -4  -3  15    1.60    4.70
   4  -3 -15    1.70    4.00
  -4   3  14   58.59    4.20
   4   3 -14   53.89    5.70
   4  -3 -14   59.59    6.30
  -4  -3  14   67.79    7.30
  -4   3  13    2.20    1.90
   4   3 -13    0.70    3.10
   4  -3 -13    4.40    3.80
  -4  -3  13    2.40    4.00
   4   3 -12   86.09    6.30
  -4   3  12   97.19    4.50
   4  -3 -12   81.89    6.30
  -4  -3  12   93.69    7.40
  -4   3  11   12.00    1.90
   4   3 -11    8.70    2.90
  -4   3  11   16.10    2.20
   4  -3 -11   10.00    3.40
  -4  -3  11   18.90    4.20
   4   3 -10   19.70    3.20
  -4   3  10   25.80    2.10
  -4   3  10   26.70    2.00
   4  -3 -10   30.60    3.90
  -4  -3  10   26.40    4.20
   4   3  -9    5.70    2.40
   4  -3  -9    6.50    2.60
  -4  -3   9    3.30    2.80
   4   3  -8   40.80    3.50
   4   3  -8   42.70    3.60
   4  -3  -8   45.50    3.70
  -4  -3   8   32.10    3.80
   4   3  -7   15.00    2.30
   4   3  -7   15.60    2.50
   4  -3  -7   24.50    2.70
  -4  -3   7   17.40    3.00
   4   3  -6    0.20    1.50
   4   3  -6    1.50    1.70
   4   3  -6   -1.10    3.00
  -4  -3   6   -0.60    2.90
  -4  -3   6   -0.10    2.10
   4  -3  -6   -0.60    1.70
   4  -3  -6    1.90    1.50
   4   3  -5   18.80    3.80
   4   3  -5   19.20    2.30
   4   3  -5   25.00    2.40
   4  -3  -5   26.70    2.10
   4  -3  -5   21.80    2.10
  -4  -3   5   21.00    2.40
  -4  -3   5   20.30    3.60
  -4  -3   5   21.50    2.80
   4   3  -4  341.57   12.20
   4   3  -4  361.06   10.50
   4   3  -4  359.86   10.40
  -4  -3   4  337.17   10.90
   4  -3  -4  351.96    9.80
  -4  -3   4  358.46   10.60
  -4  -3   4  344.37   12.20
   4  -3  -4  350.86    9.70
   4   3  -3   31.60    2.50
   4   3  -3   29.70    4.00
   4   3  -3   28.00    2.10
   4  -3  -3   29.20    2.40
  -4  -3   3   31.60    4.10
  -4  -3   3   29.60    2.20
  -4  -3   3   24.00    2.40
   4   3  -2  265.47    7.60
   4   3  -2  265.37    7.60
   4   3  -2  260.37    9.90
  -4  -3   2  259.47    8.20
  -4  -3   2  270.07    8.00
   4  -3  -2  265.67    8.40
  -4  -3   1   69.79    3.10
  -4  -3   1   70.19    3.50
  -4  -3   0 9999.00  262.27
  -4  -3   0 9885.11  262.47
  -4  -3  -1  699.23   19.50
   4  -3   1  700.53   18.80
  -4  -3  -1  732.93   19.60
   4   3   2   29.60    2.00
   4   3   2   30.60    2.10
  -4  -3  -2   29.10    2.40
   4  -3   2   30.90    2.30
   4  -3   2   27.70    2.00
  -4  -3  -2   33.60    2.50
   4   3   3  764.32   20.60
   4   3   3  746.83   20.50
   4  -3   3  771.72   21.10
   4  -3   3  730.63   20.90
  -4  -3  -3  756.72   21.20
  -4  -3  -3  781.32   21.30
  -4   3  -4 1473.55   39.40
   4   3   4 1462.85   39.50
   4   3   4 1494.25   39.60
  -4   3  -4 1476.55   39.40
   4  -3   4 1479.65   40.20
   4  -3   4 1465.45   40.00
  -4  -3  -4 1493.25   40.30
  -4  -3  -4 1486.75   40.10
   4   3   5  606.04   17.20
  -4   3  -5  614.64   17.00
  -4   3  -5  595.44   17.00
   4   3   5  584.54   16.90
  -4  -3  -5  605.84   17.70
   4  -3   5  609.84   17.90
  -4   3  -6    7.40    2.00
   4   3   6    6.70    1.80
  -4   3  -6    4.70    1.70
   4   3   6    6.30    2.10
   4  -3   6    8.30    2.60
  -4  -3  -6   10.50    2.80
   4   3   7   26.20    2.90
   4   3   7   20.20    2.30
  -4   3  -7   21.80    2.90
  -4   3  -7   22.40    2.80
   4  -3   7   23.40    3.50
  -4  -3  -7   22.50    3.40
  -4   3  -8   10.50    2.30
   4   3   8    9.20    2.10
  -4   3  -8    9.70    2.60
  -4   3  -8    8.30    2.80
   4   3   8    9.50    2.60
   4  -3   8    6.10    3.10
  -4  -3  -8    7.10    2.90
   4   3   9   14.30    3.00
  -4   3  -9    9.50    3.00
   4  -3   9   14.00    3.80
  -4  -3  -9   15.60    3.70
   4   3  10    8.00    2.30
  -4   3 -10   11.00    3.30
   4   3  10   13.10    3.00
   4  -3  10   16.80    4.10
  -4  -3 -10   15.30    4.10
  -4   3 -11  112.59    7.20
   4   3  11  117.39    6.70
   4  -3  11  110.49    8.30
  -4  -3 -11  125.39    8.40
  -4   3 -12   24.60    4.20
   4   3  12   26.40    3.90
   4  -3  12   13.00    4.50
  -4  -3 -12   17.90    4.60
   4   3  13    7.00    3.30
  -4   3 -13   12.00    4.00
  -4  -3 -13   10.80    4.50
   4  -3  13    8.60    4.50
   4   3  14   23.60    4.00
  -4   3 -14   12.90    4.30
  -4  -3 -14   23.80    5.60
   4  -3  14   18.10    5.40
   4   4 -15    5.30    3.80
  -4  -4  15   11.60    5.20
   4  -4 -15   14.80    4.80
   4   4 -14   13.20    3.90
   4  -4 -14   13.80    4.60
  -4  -4  14   15.00    5.30
   4   4 -13   35.70    4.60
   4  -4 -13   45.90    5.50
  -4  -4  13   47.70    6.30
   4   4 -12   12.20    3.40
   4  -4 -12   10.90    3.70
  -4  -4  12   18.60    4.40
   4   4 -11    3.40    2.90
  -4  -4  11    1.80    3.40
   4  -4 -11   -2.30    2.80
   4   4 -10   10.00    2.80
   4   4 -10   10.90    3.90
  -4  -4  10   15.40    3.90
   4  -4 -10   14.70    3.20
   4   4  -9    5.90    2.20
   4   4  -9    4.50    2.30
   4  -4  -9    7.60    2.70
  -4  -4   9    7.90    3.10
   4   4  -8    0.10    1.50
   4   4  -8    1.10    2.00
  -4  -4   8    3.10    2.70
   4  -4  -8   -2.20    2.00
   4   4  -7   23.50    2.60
  -4   4   7   22.10    1.90
   4   4  -7   24.00    2.50
  -4  -4   7   25.80    3.40
   4  -4  -7   24.00    2.60
  -4   4   6  159.08    5.10
   4   4  -6  164.08    5.90
   4   4  -6  156.08    8.40
   4   4  -6  166.88    5.90
  -4  -4   6  154.88    6.90
   4  -4  -6  162.48    5.70
   4  -4  -6  162.48    5.70
   4   4  -5  177.18    8.60
   4   4  -5  197.68    6.20
   4   4  -5  179.58    6.10
  -4   4   5  181.58    5.80
  -4  -4   5  182.88    7.20
   4  -4  -5  189.78    5.70
   4  -4  -5  184.48    5.60
  -4  -4   5  187.18    6.80
   4   4  -4  124.89    4.20
   4   4  -4  122.79    7.40
   4   4  -4  130.19    4.20
  -4  -4   4  126.19    5.40
  -4  -4   4  123.09    4.90
   4   4  -3  583.04   18.30
  -4  -4   3  562.04   15.90
  -4  -4   3  555.24   15.70
  -4  -4   3  526.15   17.70
   4  -4  -3  567.74   16.10
   4   4  -2  156.48    8.10
  -4  -4   2  163.48    5.60
  -4  -4   2  163.68    5.30
   4  -4  -2  166.18    6.40
   4  -4  -1  320.97   10.60
  -4  -4   1  316.97    9.30
  -4  -4   1  325.07    9.20
  -4  -4   0  375.76   10.60
  -4  -4   0  368.56   10.60
   4  -4   0  382.16   12.30
  -4  -4  -1  441.16   12.20
  -4  -4  -1  421.26   12.10
  -4  -4  -2    1.10    1.40
  -4  -4  -2    0.80    1.40
   4  -4   2    0.00    0.90
  -4  -4  -3   98.99    4.50
   4  -4   3  100.69    4.20
  -4  -4  -3  100.99    4.40
   4  -4   3  102.79    4.10
   4  -4   4  182.58    6.70
   4  -4   4  179.98    6.40
  -4  -4  -4  188.58    6.70
  -4  -4  -4  180.18    6.80
   4  -4   5   37.70    3.30
  -4  -4  -5   43.00    3.40
  -4   4  -6  126.79    4.70
  -4   4  -6  119.39    4.50
   4  -4   6  120.59    6.20
  -4  -4  -6  135.89    6.30
  -4   4  -7    9.50    1.90
   4   4   7   10.60    1.70
   4   4   7    7.90    1.50
  -4   4  -7    8.20    2.00
   4  -4   7   10.30    3.00
  -4  -4  -7    9.20    2.90
   4   4   8    9.40    1.70
  -4   4  -8    7.50    2.30
   4   4   8   15.80    2.10
  -4   4  -8    8.60    2.00
  -4  -4  -8   10.30    3.20
   4  -4   8   16.90    3.60
   4   4   9    9.70    1.90
  -4   4  -9   14.70    2.80
   4   4   9   17.30    2.40
  -4  -4  -9    9.10    3.40
   4  -4   9    7.50    3.60
  -4   4 -10   28.00    3.60
   4   4  10   32.40    3.00
   4  -4  10   30.40    4.90
  -4  -4 -10   27.40    4.50
  -4   4 -11    4.00    2.90
   4   4  11    4.80    2.30
   4  -4  11    2.90    3.90
  -4  -4 -11   10.80    4.40
  -4   4 -12   45.70    4.70
   4   4  12   48.50    3.60
  -4  -4 -12   51.69    6.30
   4  -4  12   53.49    6.50
  -4   4 -13   21.80    4.00
   4  -4  13   31.50    6.00
  -4  -4 -13   19.10    5.00
  -4   4 -14   25.30    4.30
  -4  -4 -14   24.40    5.40
   4  -4  14   28.70    6.20
   4   5 -15   21.20    4.20
  -4  -5  15   42.20    6.80
   4  -5 -15   39.10    6.00
   4   5 -14   38.90    4.70
   4  -5 -14   55.19    6.20
  -4  -5  14   56.49    7.10
   4   5 -13  120.39    7.00
  -4  -5  13  133.49    9.60
   4  -5 -13  127.09    8.30
   4   5 -12   19.00    3.50
   4  -5 -12   24.20    4.20
  -4  -5  12   20.40    5.00
   4   5 -11  162.78    7.20
  -4  -5  11  156.38    9.40
   4  -5 -11  166.38    8.20
   4   5 -10  104.69    5.60
   4  -5 -10  102.79    6.30
  -4  -5  10  100.99    7.50
   4   5  -9   24.30    2.60
   4   5  -9   37.40    3.30
  -4   5   9   33.70    3.00
   4  -5  -9   34.40    3.60
  -4  -5   9   34.30    4.60
  -4   5   8   13.60    2.00
   4   5  -8   11.20    2.10
   4   5  -8   10.50    2.00
   4  -5  -8    8.70    2.40
  -4  -5   8    7.20    3.00
   4   5  -7  315.97    9.70
   4   5  -7  331.77    9.70
  -4   5   7  326.37    9.70
   4   5  -7  318.67   13.30
   4  -5  -7  316.47    9.90
  -4  -5   7  312.37   11.30
   4   5  -6   66.89    2.90
  -4   5   6   69.69    3.60
   4   5  -6   73.69    6.40
   4  -5  -6   67.49    3.20
   4  -5  -6   74.89    3.10
  -4  -5   6   67.59    4.90
  -4   5   5    0.10    1.70
   4   5  -5    2.30    3.50
  -4  -5   5    2.20    2.00
   4   5  -4  240.38   10.70
  -4   5   4  238.28    8.10
  -4  -5   4  236.88    8.00
  -4  -5   4  231.18    7.60
   4   5  -3   17.80    4.20
   4  -5  -3   22.00    2.80
  -4  -5   3   21.10    1.90
  -4  -5   3   23.20    2.20
  -4  -5   2  125.49    4.60
  -4  -5   2  131.39    4.40
   4  -5  -2  138.49    6.20
   4   5  -1    8.80    3.20
  -4  -5   1   10.70    1.30
   4  -5  -1    8.30    2.50
  -4  -5   1    8.50    1.30
   4   5   0  278.47   11.30
   4  -5   0  296.37   10.60
  -4  -5   0  306.77    8.30
  -4  -5   0  286.67    8.20
  -4  -5  -1  272.37    7.70
  -4  -5  -1  254.07    7.60
  -4  -5  -2  207.88    6.50
  -4  -5  -2  198.28    6.40
   4  -5   3  716.43   19.80
  -4  -5  -3  736.03   20.30
  -4  -5  -3  725.63   20.10
   4  -5   3  728.33   19.90
  -4  -5  -4  222.78    7.70
   4  -5   4  228.98    7.60
  -4  -5  -4  216.48    8.70
   4  -5   4  224.68    7.40
  -4  -5  -5   14.60    2.50
   4  -5   5   12.60    2.50
  -4  -5  -6   43.00    3.70
   4  -5   6   42.30    3.90
  -4  -5  -7   -2.00    2.50
   4  -5   7    0.70    2.70
  -4   5  -8    2.00    1.30
   4  -5   8    0.00    2.90
  -4  -5  -8    4.90    2.90
  -4   5  -9  170.08    6.10
  -4   5  -9  174.28    6.30
  -4  -5  -9  170.88    8.60
   4  -5   9  182.78    9.20
  -4   5 -10   25.90    3.00
   4  -5  10   37.90    5.30
  -4  -5 -10   29.20    4.70
  -4   5 -11   19.00    3.00
   4  -5  11   16.50    4.80
  -4  -5 -11   23.40    4.70
  -4   5 -12    3.40    2.80
   4  -5  12    6.00    4.50
  -4  -5 -12    2.10    4.30
  -4   5 -13   47.30    4.40
   4  -5  13   61.99    7.60
  -4  -5 -13   38.70    6.10
   4   6 -14   33.80    3.90
   4  -6 -14   38.90    5.50
  -4  -6  14   47.20    7.00
   4   6 -13   18.40    3.20
  -4  -6  13   18.20    5.20
   4  -6 -13   22.20    4.50
   4   6 -12    6.20    2.50
   4  -6 -12    3.50    3.50
  -4  -6  12   15.40    4.70
   4   6 -11  101.49    5.00
   4  -6 -11   99.29    6.70
  -4  -6  11   95.79    8.20
  -4   6  10    0.50    1.90
   4   6 -10    0.90    1.70
   4   6 -10    3.10    1.90
  -4  -6  10    0.30    3.50
   4  -6 -10    2.80    2.80
  -4   6   9  193.88    6.90
   4   6  -9  194.08    6.20
  -4  -6   9  188.18    9.20
   4  -6  -9  186.58    7.70
  -4   6   8    9.70    2.10
  -4  -6   8   12.50    3.30
   4  -6  -8   10.50    2.20
   4   6  -7  195.48   10.90
  -4   6   7  210.48    7.40
   4  -6  -7  233.08    7.90
  -4  -6   7  197.48    8.60
   4  -6  -7  207.48    6.90
  -4   6   6  576.34   17.50
   4   6  -6  631.04   21.10
  -4  -6   6  599.44   18.10
  -4   6   5  595.04   17.60
   4   6  -5  575.54   20.30
  -4  -6   5  610.64   17.60
   4   6  -4  104.09    7.90
  -4   6   4  106.59    5.30
  -4  -6   4  113.79    4.40
  -4  -6   4  101.09    4.80
   4   6  -3   87.79    6.30
  -4   6   3   89.39    5.00
  -4  -6   3   82.79    3.50
  -4  -6   3   83.69    3.80
   4  -6  -3   83.79    5.20
   4   6  -2   35.30    4.30
  -4  -6   2   42.30    2.30
   4  -6  -2   40.40    4.00
  -4  -6   2   39.50    2.40
   4   6  -1    1.00    3.30
   4  -6  -1    4.10    2.40
   4   6   0    4.90    4.00
   4   6   1    2.90    3.50
  -4  -6  -2   23.50    1.80
  -4  -6  -2   25.40    2.00
  -4  -6  -3  175.58    5.90
   4  -6   3  174.28    5.40
  -4  -6  -3  169.18    5.80
   4  -6   3  171.58    5.40
   4  -6   4   87.89    4.20
  -4  -6  -4   81.39    4.20
   4  -6   4   91.99    4.10
   4  -6   5  212.28    7.70
  -4  -6  -5  197.68    7.50
   4  -6   6   79.89    5.20
  -4  -6  -6   73.39    5.00
  -4  -6  -7  170.68    7.60
   4  -6   7  174.08    8.00
  -4  -6  -8   11.00    3.40
   4  -6   8    9.00    3.30
   4  -6   9  203.78    9.90
  -4  -6  -9  202.28    9.40
   4  -6  10   93.79    7.40
  -4  -6 -10   93.29    7.20
  -4  -6 -11   17.50    4.50
   4  -6  11   19.30    5.00
   4  -6  12   -7.80    4.00
  -4  -6 -12    4.80    4.40
  -4  -6 -13   16.00    5.30
   4  -6  13   15.00    5.50
   4  -7 -14   35.90    5.30
  -4  -7  14   35.90    6.50
  -4  -7  13   30.10    6.20
   4  -7 -13   31.50    4.80
  -4  -7  12   38.00    5.70
   4  -7 -12   34.20    4.90
  -4  -7  11   12.30    4.50
   4  -7 -11    1.10    3.00
  -4   7  10    3.30    2.00
   4  -7 -10    1.30    2.70
  -4  -7  10   -4.60    3.30
  -4   7   9    2.80    2.00
   4  -7  -9   -1.60    2.10
  -4  -7   9    3.40    3.30
  -4   7   8    5.50    2.20
   4  -7  -8    5.10    2.10
  -4  -7   8    3.10    3.00
  -4   7   7   79.59    4.60
   4   7  -7   89.39    8.40
   4  -7  -7   75.79    3.30
   4  -7  -7   75.29    3.50
  -4  -7   7   78.69    5.70
   4   7  -6   -2.10    4.10
  -4   7   6    1.40    2.10
  -4  -7   6   -2.10    2.20
   4   7  -5  190.28   10.20
  -4  -7   5  171.28    7.00
  -4   7   3   16.50    3.20
   4  -7  -3   12.90    3.10
  -4  -7   3   17.10    1.70
  -4  -7   3   17.30    2.00
   4   7  -2   42.80    5.40
   4   7  -1   18.50    4.50
   4   7   0 1206.08   36.20
   4   7   1   26.90    4.90
   4   7   2  137.69    8.80
  -4  -7  -3   21.20    2.00
  -4  -7  -3   20.40    1.90
  -4  -7  -4   32.30    2.70
   4  -7   4   36.30    2.70
  -4  -7  -5   95.09    4.90
   4  -7   5  101.89    5.10
   4  -7   6   71.59    5.10
  -4  -7  -6   66.69    4.90
  -4  -7  -7   49.10    4.30
   4  -7   7   46.40    4.50
  -4  -7  -8   10.40    3.30
   4  -7   8   15.80    3.80
  -4  -7  -9   14.50    3.70
   4  -7   9   24.50    4.60
  -4  -7 -10    1.30    3.40
   4  -7  10    0.90    3.90
   4  -7  11    3.50    4.40
  -4  -7 -11    3.40    3.80
   4  -7  12   43.40    6.60
  -4  -7 -12   43.80    6.10
   4  -8 -13    1.80    3.70
  -4  -8  13   -1.10    4.60
  -4  -8  12   27.20    5.60
   4  -8 -12   25.20    4.40
   4  -8 -11   31.20    4.20
  -4  -8  11   32.50    5.60
  -4  -8  10   47.60    5.70
   4  -8 -10   57.29    4.70
  -4   8   9    7.00    2.40
   4  -8  -9    6.80    2.50
  -4  -8   9    4.40    3.50
  -4   8   8   -1.20    1.90
  -4  -8   8    2.50    3.20
   4  -8  -8    0.30    1.80
   4   8  -7   31.70    6.50
  -4  -8   7   43.40    4.30
   4   8  -6   25.40    5.70
  -4   8   6   33.10    3.90
  -4  -8   6   27.30    3.50
  -4   8   5  156.28    7.50
  -4  -8   5  151.48    6.50
   4   8  -4    2.50    2.30
  -4   8   4    5.00    3.00
  -4  -8   4    5.80    1.90
   4   8  -3    0.90    2.70
  -4   8   3   -1.50    2.80
  -4  -8   3   -0.90    1.20
  -4  -8   3    0.50    1.40
   4   8  -2   41.70    6.40
   4   8  -1   16.90    4.80
   4   8   0  309.97   13.70
   4   8   1  317.27   13.80
   4   8   2   15.70    5.00
   4   8   3    7.10    4.50
  -4  -8  -3    1.80    1.20
  -4  -8  -3    0.70    1.20
   4   8   4  116.49    8.60
   4  -8   4  101.89    4.40
  -4  -8  -4  103.89    4.50
   4  -8   5  152.98    6.40
  -4  -8  -5  158.68    6.30
   4  -8   6  372.26   12.70
  -4  -8  -6  386.66   12.40
   4  -8   7    3.30    2.80
  -4  -8  -7   -1.40    2.50
   4  -8   8   12.90    3.70
  -4  -8  -8   12.70    3.40
   4  -8   9   -0.60    3.60
  -4  -8  -9    0.40    3.20
  -4  -8 -10   -4.40    3.40
   4  -8  10    2.90    4.10
   4  -8  11  136.99    9.90
  -4  -8 -11  129.09    8.70
   4  -8  12    4.30    4.90
  -4  -8 -12    4.90    4.40
  -4  -9  12   -1.30    4.50
  -4  -9  11   32.20    5.70
  -4  -9  10    7.60    4.10
  -4   9   9   30.20    5.10
  -4  -9   9   31.00    4.70
  -4   9   8   90.59    6.10
  -4  -9   8   87.39    6.80
   4   9  -7   20.30    6.40
  -4   9   7   30.10    4.20
  -4  -9   7   34.10    4.10
  -4   9   6   75.59    6.00
   4   9  -6   72.59    8.20
  -4  -9   6   75.09    5.40
   4   9  -5    7.40    4.30
  -4   9   5    5.20    3.20
  -4  -9   5   10.40    2.50
  -4   9   4   51.69    5.20
  -4  -9   4   45.70    3.50
  -4   9   3   34.40    4.70
   4   9  -3   26.70    5.50
  -4  -9   3   26.10    2.20
  -4  -9   3   30.40    2.50
   4   9  -2    4.40    4.50
   4   9  -1  147.09    9.70
   4   9   0   79.99    8.10
   4   9   1   12.90    5.20
   4   9   2  199.58   10.90
   4   9   3    0.90    4.60
   4   9   4  114.09    9.50
  -4  -9  -4   82.39    4.10
   4  -9   4   81.99    3.90
   4   9   5   25.70    6.00
  -4  -9  -5   23.80    2.80
   4  -9   5   26.10    3.00
   4   9   6  262.57   13.20
   4  -9   6  251.87    9.80
  -4  -9  -6  261.47    9.30
  -4  -9  -7  138.69    7.00
   4  -9   7  139.69    7.60
   4  -9   8    6.40    3.50
  -4  -9  -8    2.70    3.00
   4  -9   9   -2.60    3.40
  -4  -9  -9    2.20    3.30
  -4  -9 -10   41.50    5.20
   4  -9  10   49.90    6.30
   4  -9  11   39.20    6.10
  -4  -9 -11   34.10    5.30
  -4 -10  12   44.00    6.50
  -4 -10  11   48.40    6.70
  -4 -10  10    9.80    4.40
  -4 -10   9   41.90    5.40
  -4  10   8   52.99    5.20
  -4 -10   8   36.50    4.90
   4  10  -7   52.69    8.50
  -4  10   7   61.79    5.60
  -4 -10   7   48.70    4.80
   4  10  -6   -0.40    4.60
  -4  10   6    2.60    3.40
  -4 -10   6    2.30    2.70
   4  10  -5   63.69    7.90
  -4  10   5   78.89    6.60
  -4 -10   5   74.09    4.90
  -4  10   4   38.90    5.40
   4  10  -4   26.00    6.30
  -4 -10   4   32.80    3.00
  -4  10   3    8.20    4.30
   4  10  -3    7.50    5.20
  -4 -10   3    9.70    1.80
   4  10  -2   -2.70    4.70
   4  10  -1    1.10    4.60
   4  10   0   26.20    6.40
   4  10   1    5.40    5.20
   4  10   2    0.90    4.90
   4  10   3    0.00    4.70
   4  10   4  128.29   10.30
  -4 -10  -4  120.29    5.00
   4 -10   4  119.59    6.20
   4  10   5  123.89   10.60
  -4 -10  -5  116.09    5.90
   4 -10   5  105.69    5.50
   4  10   6   39.00    7.10
   4 -10   6   29.90    3.70
  -4 -10  -6   34.80    4.20
   4  10   7    3.60    5.50
   4 -10   7    6.50    3.20
   4  10   8   90.19    9.50
   4 -10   8   82.59    6.90
   4  10   9    6.90    5.70
   4 -10   9    0.70    3.60
   4  10  10    2.90    5.50
   4 -10  10   -3.30    4.10
  -4 -11  10   12.10    4.80
  -4 -11   9   68.79    6.50
  -4 -11   8  324.97   12.90
  -4  11   7   34.90    5.20
   4  11  -7   29.30    7.00
  -4 -11   7   30.40    4.30
   4  11  -6    9.20    5.20
  -4  11   6    0.70    3.70
  -4 -11   6    4.30    2.80
  -4  11   5   44.30    6.00
   4  11  -5   46.90    7.80
  -4 -11   5   44.00    4.00
   4  11  -4    3.20    5.70
  -4  11   4   -0.60    3.90
   4  11  -3   -2.10    5.10
   4  11  -2   99.59    9.90
   4  11  -1    4.70    5.70
   4  11   0   18.30    6.60
   4  11   1   -3.70    5.30
   4  11   2    8.10    5.60
   4  11   3   -5.50    5.30
   4  11   4  163.58   11.90
   4  11   5   20.60    6.70
   4  11   6   37.10    7.40
   4  11   7   14.10    6.10
   4  11   8    2.90    5.90
   4  11   9   -1.50    5.50
   4  12  -9   25.00    9.80
   4  12  -8   -0.60    8.10
  -4  12   7   17.10    5.50
   4  12  -7   21.40    7.10
  -4  12   6   31.10    5.60
   4  12  -6   30.90    7.10
   4  12  -5   22.30    6.70
  -4  12   5   24.40    5.80
   4  12  -4   -1.70    5.80
   4  12  -3   26.80    7.30
   4  12  -2    1.40    5.70
   4  12  -1   10.40    6.40
   4  12   0   17.00    7.10
   4  12   1   44.60    7.90
   4  12   2   40.30    8.30
   4  12   3  178.88   12.90
   4  12   4   88.39   10.10
   4  12   5  103.69   10.80
   4  12   6    0.40    6.00
   4  12   7   27.50    7.30
   4  12   8    3.80    5.70
   4  13  -7    2.20    7.60
   4  13  -6   15.00    7.30
   4  13  -5   41.30    9.00
   4  13  -4    2.90    6.20
   4  13  -3    2.60    6.30
   4  13  -2   55.99    9.80
   4  13  -1   12.50    6.80
   4  13   0   40.50    8.70
   4  13   1   17.80    6.60
   4  13   2   12.40    7.00
   4  13   3    9.00    6.80
   4  13   4   -1.10    6.10
   4  13   5   34.30    8.10
   4  13   6   -5.20    5.90
   4  14  -5   38.50    9.10
   4  14  -4   18.10    8.10
   4  14  -3    4.00    6.50
   4  14  -2   -1.10    7.00
   4  14  -1   -6.50    6.80
   4  14   0   19.80    7.30
   4  14   1    3.30    6.50
   4  14   2    7.20    6.50
   4  14   3    6.50    6.90
  -5   0  16   89.99    7.40
   5   0 -16   76.09    7.40
   5   0 -15    5.00    4.10
  -5   0  15    8.10    4.20
  -5   0  14   70.19    6.10
   5   0 -14   58.79    6.00
  -5   0  13    4.70    3.50
   5   0 -13   -0.10    3.30
  -5   0  12   43.20    4.90
   5   0 -12   43.40    5.00
  -5   0  11   -0.30    2.90
   5   0 -11    1.50    2.80
  -5   0  10  148.89    7.30
   5   0 -10  137.39    7.20
  -5   0  10  141.09    6.90
  -5   0   9   -0.50    2.20
   5   0  -9   -1.90    2.30
  -5   0   9   -0.10    2.50
  -5   0   8    0.50    2.30
  -5   0   8    2.60    2.20
   5   0  -8    1.80    2.30
  -5   0   8    4.90    2.00
  -5   0   7    0.50    1.90
  -5   0   7   -1.90    2.00
   5   0  -7   -2.40    1.90
  -5   0   7   -2.20    1.60
   5   0  -6   80.79    4.50
   5   0  -6   74.69    4.30
  -5   0   6   80.59    4.20
  -5   0   6   77.09    4.60
   5   0  -5    3.00    1.90
   5   0  -5   -0.80    1.80
   5   0  -5   -0.30    1.00
  -5   0   5    0.70    1.50
  -5   0   5   -0.60    1.90
  -5   0   4   75.19    3.60
   5   0  -4   78.29    4.00
  -5   0   4   72.89    4.10
   5   0  -4   75.19    3.90
   5   0  -3   -1.10    1.50
   5   0  -3   -0.20    0.20
  -5   0   3   -2.20    1.60
  -5   0   3   -1.50    1.40
   5   0  -2 2540.55   67.49
  -5   0   2 2508.25   66.59
  -5   0   2 2517.25   66.59
   5   0  -1    0.40    1.50
  -5   0   1    0.20    1.30
  -5   0   1   -2.10    1.50
   5   0  -1    0.10    0.20
  -5   0   0   37.00    2.70
   5   0   0   37.00    2.90
  -5   0   0   42.80    3.20
   5   0   1   -1.70    1.10
   5   0   1   -1.30    1.70
  -5   0  -1    0.60    1.40
  -5   0  -1    0.30    1.80
   5   0   2 6103.29  160.08
  -5   0  -2 5967.40  160.58
  -5   0  -2 6135.99  160.48
   5   0   3   -0.60    1.80
   5   0   3    1.00    1.50
  -5   0  -3    0.40    1.90
  -5   0  -3    0.60    1.40
   5   0   4  103.99    4.90
   5   0   4  105.89    5.40
  -5   0  -4  114.49    5.00
  -5   0  -4  113.79    5.30
  -5   0  -5   -0.90    1.70
   5   0   5    3.80    1.90
  -5   0  -5    0.50    2.20
   5   0   5    0.90    2.20
   5   0   6  156.58    7.10
  -5   0  -6  165.78    7.00
  -5   0  -7    1.90    2.50
   5   0   7   -1.50    2.30
  -5   0  -8   69.59    5.70
   5   0   8   77.69    5.80
   5   0   9   -3.30    2.70
  -5   0  -9   -0.60    2.90
  -5   0 -10  107.59    7.40
   5   0  10  109.19    7.30
  -5   0 -11    0.50    3.50
   5   0  11    2.10    3.40
   5   0  12  106.09    8.10
  -5   0 -12  126.59    8.70
  -5   0 -13    1.10    4.30
   5   0  13   -0.60    3.80
  -5   0 -14   10.50    5.10
   5   0  14   24.60    5.20
   5   1 -16   -2.20    4.00
  -5   1  16    6.50    3.80
  -5  -1  16    6.40    4.50
   5  -1 -16    3.90    4.40
  -5   1  15   12.70    3.80
   5   1 -15   12.20    4.30
   5  -1 -15   11.00    4.40
  -5  -1  15   15.20    4.80
   5   1 -14   94.29    7.60
  -5   1  14   92.79    7.10
   5  -1 -14   76.89    6.70
  -5  -1  14  108.39    8.30
   5  -1 -14   93.49    7.90
   5   1 -13  219.48   10.30
  -5   1  13  228.98   10.00
   5  -1 -13  230.48   10.70
  -5  -1  13  248.68   11.10
   5  -1 -13  243.68   10.70
  -5   1  12  169.68    8.20
   5   1 -12  172.48    8.50
   5  -1 -12  181.38    8.90
  -5  -1  12  169.78    9.00
  -5   1  11   56.79    4.70
  -5   1  11   61.59    4.90
   5   1 -11   64.99    5.30
  -5   1  11   56.59    4.30
   5  -1 -11   67.99    5.50
  -5  -1  11   62.49    5.60
  -5   1  10  125.69    5.70
   5   1 -10  128.39    6.60
  -5   1  10  119.49    5.90
  -5   1  10  123.59    6.40
   5  -1 -10  123.09    6.80
  -5  -1  10  118.09    7.10
   5   1  -9  148.99    6.80
  -5   1   9  140.89    6.10
  -5   1   9  154.68    6.70
  -5   1   9  141.89    5.90
  -5  -1   9  146.39    7.30
   5  -1  -9  147.09    7.00
  -5  -1   9  145.59    7.30
  -5   1   8  216.48    7.50
  -5   1   8  213.48    8.00
   5   1  -8  212.98    8.10
   5  -1  -8  219.68    8.20
  -5  -1   8  206.98    8.50
  -5  -1   8  215.28    8.60
  -5   1   7   17.10    2.10
  -5   1   7   17.00    2.60
   5   1  -7   20.20    2.90
  -5   1   7   16.70    2.10
  -5  -1   7   15.40    2.40
   5  -1  -7   14.60    2.60
  -5  -1   7   18.30    3.00
  -5  -1   7   13.10    2.90
   5   1  -6   -1.60    1.80
   5   1  -6   -3.30    1.70
  -5   1   6   -1.10    1.50
  -5   1   6   -0.10    1.30
   5   1  -6   -0.30    2.20
  -5   1   6   -4.80    1.70
   5  -1  -6    0.50    1.80
  -5  -1   6   -1.60    2.20
   5  -1  -6    0.30    2.00
  -5  -1   6   -0.40    1.70
  -5  -1   6   -0.30    2.20
  -5   1   5 1286.27   35.00
   5   1  -5 1333.37   35.90
  -5   1   5 1344.57   34.90
   5   1  -5 1289.67   35.30
  -5  -1   5 1255.87   35.60
   5  -1  -5 1323.37   35.20
  -5  -1   5 1245.18   35.70
   5  -1  -5 1302.97   35.40
  -5   1   4   -0.30    1.50
  -5   1   4    0.20    1.30
   5   1  -4    0.30    1.70
   5   1  -4    2.10    2.40
   5   1  -4   -0.50    1.50
   5  -1  -4    2.50    1.70
   5  -1  -4    0.70    1.60
   5  -1  -4    0.30    1.60
  -5  -1   4    0.50    1.90
   5  -1  -4    1.10    1.20
  -5  -1   4    1.90    1.40
   5   1  -3  110.49    4.60
  -5   1   3  109.89    4.20
   5   1  -3  115.79    5.50
   5   1  -3  112.49    4.60
  -5   1   3  117.69    4.10
   5  -1  -3  112.49    4.40
   5  -1  -3  110.49    4.30
  -5  -1   3  113.69    4.40
  -5  -1   3  107.29    4.90
   5   1  -2 2482.85   64.39
   5   1  -2 2402.16   64.39
  -5   1   2 2441.06   63.89
  -5   1   2 2409.76   63.89
  -5  -1   2 2429.16   64.29
   5  -1  -2 2484.05   64.19
   5  -1  -2 2376.86   64.09
  -5  -1   2 2418.66   64.49
   5   1  -1 1690.33   43.90
   5   1  -1 1663.63   43.90
  -5   1   1 1626.24   43.40
  -5   1   1 1633.64   43.50
   5  -1  -1 1675.23   43.70
  -5  -1   1 1626.14   43.90
   5  -1  -1 1633.34   43.60
  -5  -1   1 1608.34   43.80
  -5   1   0   44.50    2.50
   5   1   0   41.50    3.00
  -5   1   0   41.50    2.90
   5   1   0   42.60    3.00
  -5  -1   0   39.60    2.40
   5  -1   0   44.20    2.90
   5  -1   0   42.20    2.90
  -5  -1   0   46.10    2.90
  -5   1  -1 1718.83   46.60
  -5   1  -1 1752.72   46.60
   5   1   1 1790.52   46.90
   5   1   1 1780.32   46.90
  -5  -1  -1 1766.42   46.90
   5  -1   1 1765.52   46.80
   5  -1   1 1717.13   46.70
   5   1   2  868.01   23.70
   5   1   2  854.21   23.90
  -5   1  -2  846.32   23.60
  -5   1  -2  844.02   23.50
  -5  -1  -2  870.61   23.80
   5  -1   2  883.51   23.80
   5   1   3  284.57    9.10
  -5   1  -3  273.67    8.90
   5   1   3  249.78    8.60
  -5   1  -3  279.27    8.70
   5  -1   3  282.07    9.10
  -5  -1  -3  282.97    8.90
  -5  -1  -3  285.57    9.20
   5   1   4    6.50    1.80
   5   1   4    9.80    2.30
  -5   1  -4   10.80    2.40
   5  -1   4   13.40    2.40
  -5  -1  -4   11.50    2.50
   5  -1   4   14.50    2.10
  -5  -1  -4   13.00    2.30
   5   1   5  300.67   10.40
  -5   1  -5  322.67   10.20
  -5   1  -5  320.27   10.40
   5   1   5  310.17   10.10
   5  -1   5  307.67   10.60
  -5  -1  -5  310.87   10.50
   5   1   6   27.80    3.30
   5   1   6   28.80    2.90
  -5   1  -6   25.80    2.90
  -5   1  -6   23.80    3.10
  -5  -1  -6   16.80    2.90
   5  -1   6   21.60    3.10
   5   1   7  123.09    6.40
  -5   1  -7  117.59    6.30
  -5  -1  -7  127.19    6.60
   5  -1   7  118.39    6.60
   5   1   8   88.29    5.90
  -5   1  -8   84.29    5.90
  -5  -1  -8   91.79    6.20
   5  -1   8   96.59    6.30
   5   1   9   75.09    5.90
  -5   1  -9   71.49    6.00
  -5  -1  -9   69.29    5.60
   5  -1   9   76.09    5.90
  -5   1 -10   55.59    5.40
   5   1  10   56.49    5.30
   5  -1  10   46.40    5.20
  -5  -1 -10   49.10    5.20
   5   1  11   77.69    6.30
  -5   1 -11   76.79    6.10
  -5  -1 -11   78.19    6.60
   5  -1  11   63.99    6.10
  -5   1 -12  130.79    8.70
   5   1  12  117.29    8.10
  -5  -1 -12  133.39    8.90
   5  -1  12  116.79    8.60
  -5   1 -13    2.30    4.10
   5   1  13    7.30    3.90
   5  -1  13    3.20    4.30
  -5  -1 -13    5.20    4.40
   5   1  14    7.00    4.10
  -5   1 -14    3.70    4.40
  -5  -1 -14    1.50    4.90
   5  -1  14    1.30    4.30
   5   2 -16    6.20    4.30
  -5   2  16    7.80    3.30
   5  -2 -16    1.60    4.40
   5  -2 -16    6.30    4.60
  -5  -2  16    9.40    4.80
  -5   2  15   63.09    5.00
   5   2 -15   57.39    6.10
  -5  -2  15   72.19    7.30
   5  -2 -15   77.69    7.20
  -5   2  14   31.70    3.90
   5   2 -14   29.10    4.80
  -5  -2  14   35.90    5.60
   5  -2 -14   37.90    5.30
  -5   2  13   21.90    3.40
   5   2 -13   15.50    3.70
   5  -2 -13   15.80    4.20
  -5  -2  13   20.50    4.70
   5   2 -12  422.26   14.70
  -5   2  12  416.86   13.60
   5  -2 -12  433.16   15.00
  -5  -2  12  419.66   15.50
  -5   2  11   40.70    3.70
   5   2 -11   35.60    4.10
  -5   2  11   45.90    3.80
  -5   2  11   43.00    3.30
  -5  -2  11   37.50    4.70
   5  -2 -11   45.50    4.80
  -5   2  10   76.69    4.00
   5   2 -10   82.89    5.60
  -5   2  10   74.29    4.30
  -5   2  10   69.79    4.70
   5  -2 -10   74.79    5.90
  -5  -2  10   83.39    6.30
   5   2  -9   11.10    2.70
  -5   2   9   13.40    2.40
  -5   2   9   11.60    2.00
  -5   2   9   12.20    2.00
  -5  -2   9   13.50    3.30
   5  -2  -9   11.90    2.80
  -5   2   8   59.49    3.10
  -5   2   8   66.89    3.40
  -5   2   8   65.39    3.80
   5   2  -8   67.29    4.50
  -5  -2   8   57.69    4.60
  -5  -2   8   66.19    5.80
   5  -2  -8   66.79    4.70
  -5   2   7  112.09    4.40
   5   2  -7  111.39    5.30
  -5   2   7  104.09    4.10
   5   2  -7  109.19    5.40
  -5   2   7  102.59    3.60
   5  -2  -7  100.29    5.20
  -5  -2   7  120.59    6.20
  -5  -2   7  112.19    6.00
   5   2  -6   12.00    2.30
   5   2  -6   10.90    2.30
   5   2  -6   11.50    3.10
  -5   2   6    9.30    1.40
  -5   2   6    9.20    1.60
  -5  -2   6   11.20    2.10
  -5  -2   6   13.80    3.10
   5  -2  -6    9.50    2.20
  -5  -2   6   10.40    2.70
  -5  -2   6   10.70    2.10
   5  -2  -6   11.20    2.20
   5   2  -5  182.78    6.60
  -5   2   5  177.98    5.30
   5   2  -5  173.48    7.70
  -5   2   5  186.08    5.40
  -5  -2   5  191.88    6.50
   5  -2  -5  182.28    6.40
  -5  -2   5  171.88    7.20
   5  -2  -5  183.28    6.40
  -5  -2   5  180.28    7.70
   5   2  -4 1829.02   50.99
   5   2  -4 1830.92   49.99
   5   2  -4 1917.41   49.90
  -5  -2   4 1812.42   50.89
  -5  -2   4 1891.91   50.29
   5  -2  -4 1899.71   49.60
   5  -2  -4 1869.61   49.50
   5   2  -3   54.69    3.40
   5   2  -3   56.79    4.80
   5   2  -3   56.19    3.40
   5  -2  -3   50.29    2.80
   5  -2  -3   55.09    2.70
  -5  -2   3   57.49    3.90
   5   2  -2 3249.87   81.99
   5   2  -2 3247.78   82.69
   5  -2  -2 3068.89   81.39
  -5  -2   2 3134.69   82.09
   5  -2  -2 3207.08   81.69
  -5  -2   2 2718.63   81.79
   5   2  -1  334.67    9.90
   5   2  -1  337.07    9.90
   5  -2  -1  335.27    9.40
  -5  -2   1  344.47   10.20
  -5  -2   1  335.97    9.90
   5  -2  -1  325.47    9.40
   5   2   0  126.89    4.70
   5   2   0  126.19    4.80
   5  -2   0  129.29    4.30
   5  -2   0  117.49    4.30
  -5  -2   0  126.49    4.70
  -5  -2   0  126.09    5.00
   5   2   1  255.97    7.90
  -5   2  -1  246.18    7.10
   5   2   1  264.27    7.90
  -5   2  -1  249.38    7.20
  -5  -2  -1  253.77    8.00
  -5  -2  -1  254.47    8.20
   5  -2   1  253.07    7.70
   5  -2   1  248.38    7.70
  -5   2  -2  405.26   11.50
   5   2   2  403.76   11.90
   5   2   2  414.06   12.10
  -5   2  -2  406.66   11.60
  -5  -2  -2  402.06   12.10
   5  -2   2  413.56   12.00
  -5  -2  -2  411.86   12.20
   5  -2   2  407.96   11.90
   5   2   3  685.53   19.50
   5   2   3  705.43   19.30
  -5   2  -3  707.63   19.10
  -5   2  -3  687.83   19.10
   5  -2   3  693.23   19.50
  -5  -2  -3  630.54   19.50
  -5  -2  -3  682.73   19.50
   5  -2   3  702.23   19.40
  -5   2  -4  875.31   24.00
   5   2   4  893.31   24.10
   5   2   4  868.21   24.40
  -5   2  -4  855.81   24.00
   5  -2   4  867.11   24.30
  -5  -2  -4  864.01   24.50
   5  -2   4  842.72   24.50
   5   2   5  956.30   27.00
  -5   2  -5  964.00   26.70
  -5  -2  -5  947.01   27.00
   5  -2   5  966.10   27.30
  -5   2  -6  156.18    6.70
   5   2   6  155.28    6.30
  -5   2  -6  165.58    6.40
   5   2   6  164.68    6.90
   5  -2   6  175.48    7.40
  -5  -2  -6  164.38    7.20
  -5   2  -7   43.00    3.80
  -5   2  -7   48.40    3.90
   5   2   7   43.70    3.50
   5   2   7   44.00    4.00
  -5  -2  -7   45.50    4.20
   5  -2   7   51.69    4.70
  -5   2  -8  360.36   11.90
   5   2   8  312.17   11.60
   5   2   8  347.67   12.00
  -5  -2  -8  356.96   12.40
   5  -2   8  349.77   12.70
   5   2   9    1.40    2.70
  -5   2  -9    3.50    3.20
   5  -2   9    1.80    3.20
  -5  -2  -9    3.10    3.20
  -5   2 -10   33.30    4.30
   5   2  10   32.10    4.20
   5  -2  10   24.90    4.50
  -5  -2 -10   37.20    4.90
  -5   2 -11   -1.20    3.60
   5   2  11    0.10    3.20
  -5  -2 -11    5.60    3.90
   5  -2  11    4.70    3.80
   5   2  12    6.00    3.50
  -5   2 -12    2.90    3.80
   5  -2  12   -1.00    3.90
  -5  -2 -12   -0.80    4.00
   5   2  13   -2.40    3.20
  -5   2 -13    0.60    4.30
  -5  -2 -13   -2.40    4.20
   5  -2  13    1.20    4.30
  -5   2 -14   -6.00    3.80
   5   2  14    5.80    3.90
   5  -2  14    1.90    4.70
  -5  -2 -14    0.20    4.70
   5   3 -15   15.90    4.30
   5  -3 -15   16.10    4.80
  -5  -3  15   20.30    5.30
   5   3 -14   -1.30    3.40
  -5  -3  14    3.80    4.30
   5  -3 -14    2.80    3.80
   5   3 -13   53.99    5.20
  -5  -3  13   42.30    5.70
   5  -3 -13   62.09    6.00
   5   3 -12   70.99    5.50
   5  -3 -12   66.79    5.60
  -5  -3  12   68.29    6.60
   5   3 -11  257.47   10.10
  -5   3  11  258.17    8.60
  -5   3  11  265.77    8.00
  -5   3  11  242.38    7.80
   5  -3 -11  259.87   10.50
  -5  -3  11  255.77   11.30
   5   3 -10  463.95   14.90
  -5   3  10  432.86   13.30
   5  -3 -10  467.85   15.10
  -5  -3  10  478.05   16.00
   5   3  -9  180.78    7.60
  -5   3   9  186.28    6.00
   5  -3  -9  190.88    7.90
  -5  -3   9  193.58    8.70
   5   3  -8  136.69    6.00
   5   3  -8  128.29    6.00
  -5  -3   8  135.99    7.00
   5  -3  -8  129.79    6.00
   5   3  -7    3.10    2.00
   5   3  -7   -0.20    1.80
   5   3  -7    3.30    3.00
   5  -3  -7    2.30    2.00
  -5  -3   7    3.60    2.50
   5   3  -6   87.89    4.50
   5   3  -6   99.09    6.40
   5  -3  -6   85.39    4.30
   5  -3  -6   81.09    4.10
  -5  -3   6   86.19    5.30
  -5  -3   6   85.49    6.70
   5   3  -5   37.20    4.40
   5   3  -5   41.50    3.30
   5   3  -5   38.50    3.20
  -5  -3   5   47.20    4.70
   5  -3  -5   40.20    3.00
  -5  -3   5   41.70    3.00
   5  -3  -5   39.40    2.70
  -5  -3   5   47.60    3.70
   5   3  -4  280.47    8.80
   5   3  -4  293.07    9.00
   5   3  -4  270.77   10.50
  -5  -3   4  283.87    8.90
   5  -3  -4  283.57    8.20
  -5  -3   4  282.97    9.40
  -5  -3   4  283.67   10.70
   5  -3  -4  284.57    8.20
   5   3  -3  247.88    9.90
   5   3  -3  250.77    7.80
   5   3  -3  253.17    7.70
   5  -3  -3  253.17    7.70
  -5  -3   3  240.58    7.80
  -5  -3   3  246.88    8.30
   5   3  -2   -1.10    1.40
   5   3  -2    0.80    3.30
   5   3  -2   -0.40    1.30
  -5  -3   2    1.50    1.40
  -5  -3   2   -1.30    1.70
   5   3  -1  359.86   10.20
   5   3  -1  364.26   10.20
  -5  -3   1  347.67   10.40
  -5  -3   1  356.46   10.70
   5   3   0 2321.97   60.69
   5   3   0 2340.97   60.59
  -5  -3   0 2279.07   60.99
  -5  -3   0 2260.27   61.09
   5   3   1   14.70    1.70
   5   3   1   16.00    1.60
  -5  -3  -1   17.50    2.00
  -5  -3  -1   11.40    2.00
   5  -3   1   15.60    1.50
   5  -3   1   11.80    1.40
   5   3   2   34.10    2.70
   5   3   2   34.30    2.50
   5  -3   2   34.30    2.70
   5  -3   2   35.20    2.80
  -5  -3  -2   33.70    2.70
  -5  -3  -2   33.30    2.70
   5   3   3  877.31   23.90
   5   3   3  859.21   23.80
  -5   3  -3  883.71   23.20
  -5   3  -3  886.91   23.30
  -5  -3  -3  863.31   24.40
   5  -3   3  885.31   24.20
  -5  -3  -3  884.61   24.50
   5  -3   3  842.32   24.10
   5   3   4  106.99    4.70
  -5   3  -4  106.89    4.10
  -5   3  -4  109.19    4.30
   5   3   4  103.99    4.40
   5  -3   4  110.39    5.30
  -5  -3  -4  111.59    5.40
  -5   3  -5 2386.46   63.49
  -5   3  -5 2448.75   63.49
   5   3   5 2361.26   63.49
   5   3   5 2418.06   63.79
  -5  -3  -5 2378.06   64.19
   5  -3   5 2329.67   64.29
  -5   3  -6  595.74   17.30
   5   3   6  617.84   17.60
  -5   3  -6  611.54   17.40
   5   3   6  574.74   17.20
   5  -3   6  583.24   18.30
  -5  -3  -6  614.94   18.20
   5   3   7  208.28    7.80
  -5   3  -7  205.78    7.80
   5   3   7  197.98    7.20
   5  -3   7  199.88    8.70
  -5  -3  -7  201.98    8.60
  -5   3  -8   97.19    5.10
  -5   3  -8   99.49    5.80
   5   3   8  101.89    5.70
   5  -3   8   94.39    6.70
  -5  -3  -8  110.19    6.70
   5   3   9    3.60    2.10
  -5   3  -9    4.00    3.20
  -5   3  -9    1.50    2.80
   5   3   9    3.30    2.70
   5  -3   9    8.30    3.50
  -5  -3  -9    3.30    3.30
  -5   3 -10   69.39    5.80
  -5   3 -10   70.89    5.50
   5   3  10   64.69    5.00
  -5  -3 -10   57.59    5.90
   5  -3  10   50.39    5.50
   5   3  11   85.59    5.90
  -5   3 -11   68.59    5.50
  -5  -3 -11   57.79    6.00
   5  -3  11   83.49    7.30
   5   3  12    9.60    3.40
  -5   3 -12   13.10    3.80
  -5  -3 -12   14.00    4.80
   5  -3  12   11.20    4.60
  -5   3 -13    1.90    3.80
   5   3  13    5.50    3.30
  -5  -3 -13    3.10    4.40
   5  -3  13    9.60    4.80
  -5   3 -14   -2.00    3.60
   5   3  14    8.10    3.40
   5  -3  14    0.80    4.60
  -5  -3 -14    7.60    5.10
   5   4 -15  352.06   13.80
   5  -4 -15  383.76   15.20
  -5  -4  15  360.36   15.90
   5   4 -14    7.10    3.70
  -5  -4  14    2.40    4.60
   5  -4 -14    5.20    4.20
   5   4 -13    6.70    3.50
   5  -4 -13    8.00    3.90
  -5  -4  13   10.00    4.50
   5   4 -12   75.19    5.70
  -5  -4  12   57.39    6.10
   5  -4 -12   71.99    5.90
   5   4 -11   31.50    3.90
  -5  -4  11   30.30    4.90
   5  -4 -11   25.50    4.10
   5   4 -10    1.70    2.50
   5  -4 -10    5.10    2.90
  -5  -4  10    4.00    3.30
   5   4  -9    0.10    2.10
   5   4  -9    0.30    2.00
   5  -4  -9   -1.40    2.30
  -5  -4   9   -4.00    2.70
   5   4  -8   35.10    3.30
  -5  -4   8   34.20    4.20
   5  -4  -8   35.50    3.30
   5   4  -7  366.76   13.70
   5   4  -7  373.36   11.20
   5   4  -7  338.87   11.10
   5  -4  -7  359.06   11.10
  -5  -4   7  349.17   12.20
   5   4  -6   17.90    2.30
   5   4  -6   19.50    4.40
   5   4  -6   17.00    2.20
   5  -4  -6   17.90    2.00
  -5  -4   6   15.30    3.00
   5  -4  -6   17.80    2.10
   5   4  -5  862.91   26.30
   5   4  -5  870.51   23.60
   5   4  -5  837.12   23.60
   5  -4  -5  859.01   23.10
  -5  -4   5  867.31   24.50
   5  -4  -5  853.91   23.10
   5   4  -4  214.68    9.80
   5   4  -4  209.28    6.70
   5   4  -4  216.38    6.70
  -5  -4   4  224.18    7.30
  -5  -4   4  212.88    7.80
   5  -4  -4  220.28    6.90
   5   4  -3    5.10    1.10
   5   4  -3    3.60    3.50
   5   4  -3    3.90    1.10
   5  -4  -3    6.50    1.90
  -5  -4   3    7.50    2.00
  -5  -4   3    6.80    1.70
   5   4  -2  152.58    7.80
  -5  -4   2  155.88    5.80
  -5  -4   2  155.18    5.40
   5  -4  -2  161.18    6.30
  -5  -4   1  185.38    6.10
  -5  -4   1  186.48    6.40
   5  -4  -1  188.88    7.30
  -5  -4   0   56.39    3.00
  -5  -4   0   54.19    3.30
  -5  -4  -1  228.98    7.50
  -5  -4  -1  240.38    7.60
  -5  -4  -2  248.48    7.90
   5  -4   2  236.28    7.20
  -5  -4  -2  231.78    7.80
   5  -4   2  240.48    7.20
  -5  -4  -3    5.90    1.90
   5  -4   3    4.80    1.70
   5  -4   3    3.10    1.60
   5  -4   4  202.48    7.40
  -5  -4  -4  201.48    7.50
   5   4   5   46.10    2.70
   5   4   5   39.80    2.40
   5  -4   5   50.69    4.00
  -5  -4  -5   46.90    3.90
  -5   4  -6  274.77    8.50
   5   4   6  294.07    8.70
   5   4   6  274.17    8.40
  -5   4  -6  286.37    8.60
   5  -4   6  278.37   10.20
  -5  -4  -6  271.17   10.10
  -5   4  -7    8.30    1.80
  -5   4  -7   10.10    2.10
   5   4   7    9.70    2.10
   5   4   7   10.00    1.80
   5  -4   7   12.00    3.30
  -5  -4  -7   11.00    3.20
  -5   4  -8   25.70    2.90
   5   4   8   28.50    2.50
   5   4   8   28.40    2.80
  -5   4  -8   25.20    2.60
   5  -4   8   29.80    4.20
  -5  -4  -8   28.20    4.00
   5   4   9    0.50    2.10
  -5   4  -9    0.20    2.40
  -5   4  -9   -0.40    1.50
   5   4   9    0.50    1.80
  -5  -4  -9   -0.50    3.10
   5  -4   9    5.20    3.50
  -5   4 -10   76.09    5.50
   5   4  10   79.19    4.90
  -5  -4 -10   83.99    6.80
   5  -4  10   88.59    7.20
  -5   4 -11  116.99    6.70
   5   4  11  120.99    5.90
   5  -4  11  125.39    9.00
  -5  -4 -11  129.09    8.90
   5   4  12  103.89    5.50
  -5   4 -12  106.49    6.80
  -5  -4 -12  105.99    8.90
   5  -4  12  118.09    9.20
  -5   4 -13    5.20    3.50
  -5  -4 -13    8.20    4.80
   5  -4  13   10.20    5.10
   5   5 -15    0.20    3.30
   5  -5 -15    0.40    4.10
  -5  -5  15    2.80    5.10
   5   5 -14   -5.20    3.00
  -5  -5  14   -1.40    4.60
   5  -5 -14    0.00    3.70
   5   5 -13    6.90    3.30
  -5  -5  13   14.80    5.00
   5  -5 -13   13.90    4.00
   5   5 -12    6.80    2.90
   5  -5 -12    6.50    3.40
  -5  -5  12    5.90    4.10
   5   5 -11   17.70    3.20
  -5  -5  11   20.40    4.70
   5  -5 -11   20.00    3.70
   5   5 -10   24.00    3.20
   5  -5 -10   31.90    3.80
  -5  -5  10   29.20    4.50
   5   5  -9   29.30    2.90
   5   5  -9   29.80    3.10
   5  -5  -9   26.90    3.30
  -5  -5   9   27.60    4.30
   5   5  -8   76.19    7.10
   5   5  -8   71.59    4.10
   5   5  -8   76.89    4.20
   5  -5  -8   67.79    4.50
   5   5  -7    5.30    1.70
   5   5  -7    9.40    1.90
   5   5  -7   11.70    4.20
   5  -5  -7    5.80    1.80
  -5  -5   7    1.80    2.50
   5   5  -6  280.57    8.20
   5   5  -6  267.47   11.90
   5   5  -6  255.97    8.10
   5  -5  -6  275.67    8.10
   5  -5  -6  280.67    8.20
  -5  -5   6  265.27    9.80
   5   5  -5  241.18   10.70
  -5  -5   5  238.38    8.70
   5   5  -4  183.38    9.50
   5  -5  -4  175.38    6.50
  -5  -5   4  178.98    6.80
  -5  -5   4  183.68    6.30
   5   5  -3   39.10    5.10
  -5  -5   3   36.70    2.90
   5  -5  -3   38.70    3.40
  -5  -5   3   36.70    2.80
   5   5  -2  393.76   14.30
  -5  -5   2  400.66   11.50
   5  -5  -2  401.96   12.80
  -5  -5   2  396.06   11.70
   5   5  -1   17.50    3.50
  -5  -5   1   24.40    2.10
   5  -5  -1   28.80    3.30
  -5  -5   1   25.20    2.00
  -5  -5   0  124.69    4.50
  -5  -5   0  114.89    4.50
   5  -5   0  118.79    6.10
  -5  -5  -1    0.30    1.40
  -5  -5  -1    0.80    1.40
   5  -5   2  873.91   23.70
  -5  -5  -2  888.61   24.50
  -5  -5  -2  906.31   24.60
  -5  -5  -3    7.20    1.90
   5  -5   3    4.90    1.60
  -5  -5  -3    5.30    1.90
   5  -5   3    5.00    1.50
  -5  -5  -4    3.00    2.00
   5  -5   4    2.80    1.90
  -5  -5  -5   12.30    2.70
   5  -5   5   14.40    2.60
  -5  -5  -6   25.90    3.30
   5  -5   6   26.70    3.40
  -5  -5  -7   27.50    3.80
   5  -5   7   28.90    3.80
   5  -5   8   28.50    4.30
  -5  -5  -8   24.00    3.90
  -5   5  -9   47.20    3.50
   5  -5   9   46.40    5.20
  -5  -5  -9   42.10    4.90
  -5   5 -10   78.39    4.60
  -5  -5 -10   71.19    6.10
   5  -5  10   80.39    7.00
  -5   5 -11   20.40    3.00
   5  -5  11   17.40    4.80
  -5  -5 -11   14.50    4.40
  -5   5 -12   37.80    3.70
  -5  -5 -12   41.10    5.90
   5  -5  12   42.40    6.30
  -5   5 -13   -2.40    2.60
  -5  -5 -13   -9.00    4.40
   5  -5  13   -4.00    4.60
   5   6 -14   49.30    4.50
  -5  -6  14   69.79    8.00
   5  -6 -14   54.29    6.30
   5   6 -13    0.20    2.70
   5  -6 -13    4.60    3.70
  -5  -6  13   -0.20    4.40
   5   6 -12  216.78    8.20
  -5  -6  12  221.28   11.50
   5  -6 -12  204.88    9.70
   5   6 -11   25.50    3.10
  -5  -6  11   37.70    5.50
   5  -6 -11   30.10    4.10
   5   6 -10   47.10    3.80
   5   6 -10   46.80    3.60
  -5  -6  10   55.79    5.90
   5  -6 -10   47.10    4.40
   5   6  -9   17.00    2.20
   5   6  -9   10.20    1.80
   5  -6  -9   13.00    2.80
  -5  -6   9    8.80    3.60
   5   6  -8    4.20    4.20
  -5   6   8    2.80    1.40
  -5  -6   8   -0.60    2.80
   5  -6  -8    3.70    2.10
   5   6  -7  124.39    9.00
  -5   6   7  123.49    4.80
   5  -6  -7  126.09    5.60
  -5  -6   7  136.69    6.90
   5  -6  -7  134.29    5.00
   5   6  -6    4.50    4.30
  -5  -6   6    3.30    2.40
   5   6  -5    8.70    4.30
  -5  -6   5   12.90    2.60
   5   6  -4   45.80    5.80
   5  -6  -4   53.09    4.10
  -5  -6   4   53.09    3.90
   5   6  -3  299.37   12.80
  -5  -6   3  312.27    9.50
  -5  -6   3  321.17    9.90
   5  -6  -3  320.37   10.90
   5  -6  -2   74.29    5.00
  -5  -6   2   64.39    3.50
  -5  -6   2   65.79    3.20
   5   6  -1  182.58    9.00
  -5  -6   1  168.08    5.80
  -5  -6   1  177.18    5.70
   5  -6  -1  171.68    7.60
   5   6   0  121.99    8.00
  -5  -6   0  119.29    4.30
  -5  -6   0  110.19    4.30
  -5  -6  -1   18.40    1.90
  -5  -6  -1   16.00    1.90
  -5  -6  -2  433.16   12.90
  -5  -6  -2  455.15   13.00
  -5  -6  -3  521.85   15.30
   5  -6   3  542.15   14.80
   5  -6   3  523.95   14.80
  -5  -6  -4   84.29    4.60
   5  -6   4   80.59    4.30
  -5  -6  -5  218.58    8.20
   5  -6   5  217.08    8.10
   5  -6   6   48.80    4.30
  -5  -6  -6   58.19    4.90
   5  -6   7   19.50    3.70
  -5  -6  -7   20.40    3.50
  -5  -6  -8   61.69    5.30
   5  -6   8   79.39    6.10
  -5  -6  -9   56.39    5.40
   5  -6   9   50.69    5.70
  -5  -6 -10    5.00    3.80
   5  -6  10   -0.60    3.80
  -5  -6 -11   66.49    6.60
   5  -6  11   71.09    7.30
   5  -6  12    6.20    4.80
  -5  -6 -12    4.90    4.50
  -5  -7  14    3.00    4.70
   5  -7 -14   -3.30    3.50
  -5  -7  13   50.79    6.80
   5  -7 -13   34.60    5.00
  -5  -7  12   92.89    8.10
   5  -7 -12   80.79    6.70
   5  -7 -11    3.40    3.10
  -5  -7  11    6.30    4.00
  -5  -7  10   72.49    6.40
   5  -7 -10   62.09    5.30
  -5   7   9   61.09    3.40
  -5  -7   9   63.59    5.70
   5  -7  -9   62.09    4.70
  -5   7   8   21.70    2.50
   5   7  -8   18.40    5.60
  -5  -7   8   20.30    3.90
   5  -7  -8   21.20    2.60
   5   7  -7   30.00    5.90
  -5   7   7   49.00    3.60
   5  -7  -7   44.90    2.50
  -5  -7   7   49.10    4.50
   5  -7  -7   43.00    2.70
  -5   7   6   40.10    3.40
   5   7  -6   37.70    5.90
  -5  -7   6   40.30    3.90
   5   7  -5    3.40    4.10
  -5  -7   5    2.10    2.20
   5   7  -4    8.60    4.10
  -5  -7   4    6.10    2.10
   5  -7  -4    6.20    2.60
  -5  -7   3    6.00    1.60
   5  -7  -3    5.20    2.70
  -5  -7   3    3.80    1.80
   5   7  -2   11.50    3.50
  -5  -7   2    6.60    1.60
  -5  -7   2   10.10    1.60
   5   7  -1  168.28    9.20
  -5  -7   1  156.38    5.40
  -5  -7   1  165.78    5.30
   5   7   0  312.07   13.60
  -5  -7   0  364.06    9.90
  -5  -7   0  335.47    9.80
   5   7   1  606.04   20.50
  -5  -7  -1  580.44   16.10
  -5  -7  -1  558.04   16.10
   5   7   2   12.70    4.30
  -5  -7  -2   19.20    2.00
  -5  -7  -2   18.70    2.00
  -5  -7  -3    8.60    1.90
   5  -7   3   10.70    1.40
   5  -7   3    8.80    1.30
  -5  -7  -4   41.60    3.20
   5  -7   4   39.80    3.00
  -5  -7  -5   20.40    2.90
   5  -7   5   12.10    2.60
  -5  -7  -6  410.06   13.40
   5  -7   6  413.56   13.70
   5  -7   7    0.30    2.80
  -5  -7  -7    4.60    2.90
   5  -7   8   46.80    5.00
  -5  -7  -8   49.10    4.90
  -5  -7  -9   -0.40    3.40
   5  -7   9   -0.40    3.40
  -5  -7 -10    3.40    3.70
   5  -7  10   -2.40    3.80
  -5  -7 -11    0.60    3.80
   5  -7  11    2.60    4.40
  -5  -7 -12   16.00    5.20
   5  -7  12   21.50    5.80
  -5  -8  13    8.60    5.10
   5  -8 -13    3.00    3.70
  -5  -8  12    1.20    4.50
   5  -8 -12   -3.60    3.10
  -5  -8  11   43.00    6.00
   5  -8 -11   30.80    4.10
  -5  -8  10   10.00    4.30
   5  -8 -10    6.20    2.90
  -5   8   9    6.90    2.10
  -5  -8   9    1.90    3.60
   5  -8  -9    1.20    2.20
  -5   8   8   48.30    3.80
   5   8  -8   48.80    7.50
   5  -8  -8   47.90    3.60
  -5  -8   8   57.79    5.30
  -5   8   7   43.10    3.90
   5   8  -7   46.70    7.00
  -5  -8   7   56.89    4.80
   5   8  -6   11.30    5.00
  -5  -8   6   12.90    3.00
   5   8  -5   63.29    7.70
  -5  -8   5   55.79    4.50
   5   8  -2   54.29    6.30
  -5  -8   2   50.09    3.00
  -5  -8   2   52.29    2.90
   5   8  -1   52.59    6.80
  -5  -8   1   49.00    2.60
   5   8   0   31.00    5.70
  -5  -8   0   35.20    2.20
   5   8   1    3.40    4.20
  -5  -8  -1    1.40    1.20
  -5  -8  -1   -0.40    1.20
   5   8   2  222.08   11.50
  -5  -8  -2  200.48    6.60
  -5  -8  -2  196.58    6.60
   5   8   3  258.57   12.50
  -5  -8  -3  241.18    8.10
   5  -8   4    3.60    1.80
  -5  -8  -4    3.50    2.00
   5  -8   5    1.40    2.30
  -5  -8  -5    7.50    2.50
   5  -8   6   24.70    3.40
  -5  -8  -6   28.00    3.60
   5  -8   7   63.99    5.30
  -5  -8  -7   62.29    5.00
   5  -8   8    5.10    3.50
  -5  -8  -8    5.00    3.20
   5  -8   9   20.70    4.60
  -5  -8  -9   20.90    4.30
   5  -8  10   -2.20    4.00
  -5  -8 -10    0.30    4.00
  -5  -8 -11  124.49    8.80
   5  -8  11  127.59    9.80
  -5  -9  12   55.09    7.10
  -5  -9  11   -7.70    3.80
  -5  -9  10  104.59    8.10
  -5  -9   9   84.89    6.90
  -5   9   8   -1.20    2.00
   5   9  -8   13.30    6.20
  -5  -9   8    5.90    3.40
   5   9  -7   88.79    9.40
  -5   9   7   88.59    5.70
  -5  -9   7   95.59    6.60
  -5   9   6   12.60    3.30
   5   9  -6    3.50    4.90
  -5  -9   6    5.50    2.90
   5   9  -5   13.30    5.00
  -5  -9   5   14.50    2.80
   5   9  -4   16.90    4.70
  -5  -9   4   19.90    2.70
   5   9  -3   20.20    5.30
  -5  -9   3   23.20    2.50
   5   9  -2  102.29    8.70
  -5  -9   2   96.59    4.20
  -5  -9   2   89.99    4.00
   5   9  -1   11.10    5.00
  -5  -9   1   12.00    1.50
   5   9   0   39.70    6.30
   5   9   1   98.49    9.00
   5   9   2  118.69    9.10
  -5  -9  -2  118.59    4.60
  -5  -9  -2  123.99    5.10
   5   9   3   98.79    9.10
  -5  -9  -3   90.29    4.30
   5   9   4   15.20    5.50
   5  -9   4   11.70    2.10
   5   9   5  125.69   10.00
   5  -9   5  113.79    5.70
  -5  -9  -5  100.99    5.60
   5  -9   6   66.59    5.10
  -5  -9  -6   65.69    5.50
   5  -9   7  150.78    8.00
  -5  -9  -7  152.48    7.70
   5  -9   8   39.00    5.00
  -5  -9  -8   56.99    5.10
  -5  -9  -9   -6.60    3.30
   5  -9   9    1.90    3.70
  -5  -9 -10   58.69    6.30
   5  -9  10   73.89    7.10
  -5  -9 -11    4.20    4.30
   5  -9  11   -5.40    4.30
  -5 -10  12    3.00    4.80
  -5 -10  11   39.60    6.20
  -5 -10  10   18.60    5.00
  -5 -10   9   13.90    4.30
   5  10  -8   38.30    7.90
  -5 -10   8   51.39    5.40
   5  10  -7  103.69   10.80
  -5 -10   7   84.49    6.60
   5  10  -6  175.18   12.10
  -5 -10   6  190.58    8.30
   5  10  -5   96.89    9.70
  -5 -10   5   88.59    5.60
   5  10  -4   11.40    5.40
  -5 -10   4   11.50    2.50
   5  10  -3   76.29    8.50
  -5 -10   3   93.39    4.60
   5  10  -2   63.79    8.50
  -5 -10   2   58.19    3.40
   5  10  -1  183.78   11.50
   5  10   0   -6.50    4.80
   5  10   1   58.49    7.90
   5  10   2  233.58   13.10
  -5 -10  -2  216.08    7.10
   5  10   3   52.79    7.90
  -5 -10  -3   53.49    3.60
   5  10   4  116.69   10.50
  -5 -10  -4  117.39    5.50
   5  10   5   94.19    9.60
  -5 -10  -5  102.09    5.60
   5 -10   5   98.69    5.80
   5  10   6   12.90    6.00
  -5 -10  -6   16.40    3.20
   5 -10   6   14.10    3.30
   5  10   7   -8.90    5.10
  -5 -10  -7    0.80    3.10
   5 -10   7    6.50    3.30
   5  10   8   14.40    6.40
   5 -10   8    0.20    3.40
  -5 -10  -8    5.60    3.40
  -5 -10  -9    2.60    3.70
   5 -10   9    3.80    4.00
  -5 -10 -10   41.10    6.10
   5 -10  10   57.09    6.80
  -5 -11  10   12.50    4.80
  -5 -11   9   29.00    5.10
   5  11  -8   14.90    6.80
  -5 -11   8   15.90    4.00
   5  11  -7    3.60    6.30
  -5 -11   7   -1.00    3.10
   5  11  -6   71.49    9.00
  -5 -11   6   72.79    6.00
   5  11  -5   29.20    6.60
  -5 -11   5   28.00    3.50
   5  11  -4   38.80    7.70
  -5 -11   4   26.60    3.40
   5  11  -3   28.90    7.00
   5  11  -2    0.10    5.20
   5  11  -1   16.90    6.30
   5  11   0  318.47   16.10
   5  11   1  135.89   10.90
   5  11   2   30.10    7.00
   5  11   3    4.40    6.00
   5  11   4    3.10    5.70
   5  11   5   -3.90    5.40
   5  11   6    4.20    5.80
   5  11   7    2.40    6.10
   5  11   8    7.90    6.20
   5  11   9    9.30    6.50
   5  12  -9   29.30   10.60
   5  12  -8   14.40    9.00
   5  12  -7  189.78   14.20
   5  12  -6   23.00    7.50
   5  12  -5   24.20    7.40
   5  12  -4    8.40    6.60
   5  12  -3   32.10    8.10
   5  12  -2    8.00    6.60
   5  12  -1   35.00    8.00
   5  12   0   44.10    8.00
   5  12   1   61.39    9.00
   5  12   2   -2.70    5.90
   5  12   3  145.49   12.80
   5  12   4    2.90    6.50
   5  12   5   36.30    8.20
   5  12   6    9.20    6.60
   5  12   7   47.80    8.40
   5  13  -7    0.10    6.00
   5  13  -6    5.60    6.30
   5  13  -5   11.60    6.70
   5  13  -4    8.70    7.40
   5  13  -3   20.20    8.10
   5  13  -2   17.40    6.90
   5  13  -1   -1.10    6.80
   5  13   0  115.39   11.60
   5  13   1   14.90    7.80
   5  13   2   -3.80    6.30
   5  13   3   26.80    7.50
   5  13   4   11.10    7.00
   5  13   5   11.10    7.30
   5  14  -4    1.80    7.30
   5  14  -3    7.80    7.40
   5  14  -2    5.60    7.70
   5  14  -1   17.40    7.60
   5  14   0   23.10    8.20
   5  14   1    2.80    6.90
   5  14   2    7.50    7.70
   6   0 -16    0.70    4.10
  -6   0  16    9.80    4.10
  -6   0  15    1.30    3.80
   6   0 -15   -2.40    3.60
  -6   0  14  206.48   10.20
   6   0 -14  200.58   10.30
  -6   0  13    2.50    3.40
   6   0 -13    1.40    3.40
  -6   0  12    8.10    3.40
   6   0 -12    5.00    3.30
   6   0 -11    0.60    2.80
  -6   0  11   -2.00    2.30
  -6   0  11   -1.60    2.70
   6   0 -10  278.97   10.50
  -6   0  10  271.17   10.10
  -6   0  10  279.57   10.50
   6   0  -9   -2.00    2.40
  -6   0   9   -2.60    2.00
  -6   0   9   -2.90    2.40
  -6   0   8   96.19    5.60
  -6   0   8  105.29    5.10
   6   0  -8  106.99    5.70
  -6   0   8  103.89    5.00
  -6   0   7   -2.70    1.50
   6   0  -7    2.30    2.10
  -6   0   7    1.80    2.30
  -6   0   7    1.00    1.80
  -6   0   6    6.40    2.30
   6   0  -6    6.10    2.00
   6   0  -6    7.40    2.00
   6   0  -6    7.30    2.10
  -6   0   6    1.00    1.40
  -6   0   5    0.10    1.50
  -6   0   5   -4.00    1.80
   6   0  -5   -0.10    1.20
   6   0  -5    0.30    1.80
   6   0  -5    1.70    1.90
  -6   0   4  429.86   12.50
   6   0  -4  435.86   12.90
   6   0  -4  431.86   12.80
  -6   0   4  428.36   12.80
  -6   0   4  432.46   12.50
   6   0  -3   -0.80    1.60
  -6   0   3   -0.60    1.40
  -6   0   3   -1.70    1.70
   6   0  -3   -0.90    0.20
   6   0  -2  896.41   24.50
  -6   0   2  891.31   24.40
  -6   0   2  890.01   24.30
  -6   0   1   -0.20    1.80
   6   0  -1    0.10    0.10
   6   0  -1   -0.50    1.60
  -6   0   1   -0.70    1.40
  -6   0   0  696.33   19.30
  -6   0   0  691.83   19.20
   6   0   0  687.83   19.40
   6   0   1   -2.70    1.70
  -6   0  -1    0.90    1.90
  -6   0  -1   -1.90    1.30
   6   0   1   -0.10    1.00
  -6   0  -2   25.60    2.60
  -6   0  -2   13.30    1.90
  -6   0  -3    1.10    2.10
   6   0   3   -2.20    1.60
  -6   0  -3    1.20    1.60
   6   0   3   -3.20    1.90
  -6   0  -4   79.09    4.80
  -6   0  -4   81.09    4.40
   6   0   4   87.19    4.50
   6   0   4   90.09    5.00
   6   0   5   -0.60    2.20
  -6   0  -5   -1.70    2.20
  -6   0  -6  237.28    8.90
   6   0   6  228.28    9.00
   6   0   7    1.70    2.50
  -6   0  -7    0.40    2.60
   6   0   8   64.29    5.30
  -6   0  -8   51.09    4.70
   6   0   9   -2.40    3.00
  -6   0  -9   -5.00    2.80
   6   0  10   56.29    5.60
  -6   0 -10   49.30    5.20
   6   0  11   -0.90    3.40
  -6   0 -11   -3.60    3.60
   6   0  12   22.30    4.80
  -6   0 -12   21.80    4.90
  -6   0 -13    0.90    4.40
   6   0  13   -2.70    3.80
  -6   0 -14   44.40    6.40
  -6   1  16    3.80    3.60
   6   1 -16   -4.10    3.90
   6  -1 -16    1.30    4.30
  -6  -1  16    5.10    4.60
   6   1 -15   -0.50    3.70
  -6   1  15   12.60    3.80
  -6  -1  15    3.90    4.20
   6  -1 -15    4.80    4.20
   6   1 -14    2.80    3.50
  -6   1  14   -0.10    3.40
   6  -1 -14    1.70    3.70
  -6  -1  14    6.50    4.00
  -6   1  13  263.57   10.70
   6   1 -13  265.27   11.30
  -6  -1  13  282.67   11.80
   6  -1 -13  258.67   11.40
  -6   1  12  252.47   10.10
   6   1 -12  244.58   10.40
   6  -1 -12  261.77   10.80
  -6  -1  12  242.58   10.80
   6  -1 -12  246.58   10.50
  -6   1  11   -0.80    2.10
  -6   1  11    1.90    2.00
  -6   1  11   -3.40    2.50
   6   1 -11    3.90    2.80
  -6  -1  11    0.40    3.00
   6  -1 -11   -0.90    2.80
   6  -1 -11    2.90    2.80
  -6   1  10   53.59    4.00
  -6   1  10   61.39    5.00
   6   1 -10   65.49    5.20
  -6   1  10   54.79    4.00
   6  -1 -10   46.10    4.30
  -6  -1  10   47.10    4.60
   6  -1 -10   53.69    4.40
  -6   1   9   75.69    4.20
  -6   1   9   81.39    4.30
   6   1  -9   82.79    5.30
  -6   1   9   80.29    5.20
   6  -1  -9   92.19    5.50
  -6  -1   9   80.89    5.50
  -6  -1   9   81.79    5.80
   6   1  -8   25.70    3.10
  -6   1   8   27.60    3.00
  -6   1   8   23.90    2.40
  -6  -1   8   23.30    3.40
   6  -1  -8   25.50    3.10
  -6  -1   8   25.70    3.40
  -6   1   7  278.87    9.10
   6   1  -7  273.97    9.40
   6   1  -7  281.67    9.80
  -6   1   7  266.57    8.70
  -6  -1   7  257.27    9.60
   6  -1  -7  290.27    9.50
  -6  -1   7  267.17    9.10
   6  -1  -7  281.07    9.40
  -6  -1   7  260.97    9.70
   6   1  -6  751.12   21.30
  -6   1   6  762.52   20.70
   6   1  -6  759.12   21.60
   6   1  -6  750.02   21.80
  -6   1   6  747.23   20.90
  -6  -1   6  731.33   21.70
  -6  -1   6  736.33   21.10
  -6  -1   6  744.53   21.60
   6  -1  -6  739.13   21.20
   6  -1  -6  735.33   21.60
   6  -1  -6  738.63   21.20
   6   1  -5  555.54   16.00
   6   1  -5  536.75   16.20
  -6   1   5  554.64   15.50
  -6   1   5  544.05   15.60
   6   1  -5  541.05   16.50
   6  -1  -5  542.65   15.20
   6  -1  -5  563.54   15.90
  -6  -1   5  538.15   16.30
   6  -1  -5  545.95   16.00
  -6  -1   5  561.44   15.90
  -6   1   4   88.49    3.90
   6   1  -4   82.69    5.10
  -6   1   4   88.99    3.80
   6   1  -4   82.59    4.30
   6  -1  -4   84.69    4.20
  -6  -1   4   89.29    4.70
   6  -1  -4   87.99    4.10
  -6   1   3   18.20    1.80
   6   1  -3   18.40    2.10
   6   1  -3   20.90    2.30
  -6   1   3   21.40    2.00
  -6  -1   3   27.20    2.30
   6  -1  -3   19.20    2.10
   6  -1  -3   16.90    2.00
  -6  -1   3   18.00    2.40
   6   1  -2   62.99    3.60
  -6   1   2   59.39    2.80
   6   1  -2   51.99    3.30
  -6   1   2   51.89    3.10
  -6  -1   2   49.90    3.60
   6  -1  -2   56.79    3.20
   6  -1  -2   55.59    3.20
  -6  -1   2   53.69    3.00
  -6   1   1   54.09    3.00
   6   1  -1   54.19    3.50
  -6   1   1   48.90    3.10
   6   1  -1   54.49    3.20
  -6  -1   1   51.09    3.70
  -6  -1   1   52.99    3.10
   6  -1  -1   56.99    3.20
   6  -1  -1   55.49    3.20
   6   1   0    5.60    1.90
   6   1   0    6.00    1.60
  -6   1   0    7.10    1.50
  -6   1   0    4.30    1.70
  -6  -1   0    4.80    1.50
   6  -1   0    7.30    1.80
   6  -1   0    4.60    1.60
  -6  -1   0    6.90    2.00
   6   1   1   65.99    3.50
  -6   1  -1   60.19    3.60
   6   1   1   55.29    3.70
  -6   1  -1   60.99    3.20
   6  -1   1   55.29    3.50
   6  -1   1   58.89    3.70
  -6  -1  -1   52.99    4.00
  -6  -1  -2   42.60    3.10
   6   1   3   12.00    2.00
  -6   1  -3   18.50    2.10
  -6   1  -3   22.80    2.60
   6   1   3   24.30    2.80
  -6  -1  -3   26.90    2.70
   6  -1   3   20.00    2.70
  -6  -1  -3   19.80    2.70
  -6   1  -4   17.70    2.30
   6   1   4   22.70    2.90
   6   1   4   24.60    2.60
  -6   1  -4   26.30    2.90
  -6  -1  -4   33.20    3.30
   6  -1   4   33.90    3.30
  -6  -1  -4   28.70    3.20
  -6   1  -5   13.70    2.30
  -6   1  -5   17.00    2.80
   6   1   5   19.80    2.50
   6   1   5   15.90    2.80
  -6  -1  -5   13.90    2.70
   6  -1   5   14.00    2.80
   6   1   6  197.48    8.00
  -6   1  -6  192.88    7.80
  -6  -1  -6  191.88    8.00
   6  -1   6  182.78    8.00
  -6   1  -7  671.13   19.90
   6   1   7  654.53   20.10
  -6  -1  -7  652.33   20.10
   6  -1   7  661.53   20.40
   6   1   8   71.79    5.70
  -6   1  -8   75.49    5.90
  -6  -1  -8   64.69    5.40
   6  -1   8   72.19    6.10
  -6   1  -9    4.70    3.30
   6   1   9    0.30    2.90
   6  -1   9   -5.90    2.90
  -6  -1  -9   -1.50    3.10
  -6   1 -10    1.00    3.50
   6   1  10    9.00    3.40
   6  -1  10    6.20    3.60
  -6  -1 -10    2.80    3.70
   6   1  11  107.69    7.60
  -6   1 -11  103.69    8.00
   6  -1  11  110.09    8.20
  -6  -1 -11  100.69    8.10
   6   1  12    2.90    3.70
  -6   1 -12    0.60    4.10
   6  -1  12   -1.30    3.90
  -6  -1 -12    1.20    4.00
  -6   1 -13   53.69    6.10
   6   1  13   40.70    5.40
  -6  -1 -13   49.30    6.30
   6  -1  13   47.50    6.10
  -6   2  16  247.38   10.40
   6   2 -16  183.38   10.60
  -6  -2  16  217.18   11.80
   6  -2 -16  171.48   11.10
  -6   2  15    4.30    2.90
   6   2 -15   -2.80    3.60
   6  -2 -15    0.20    4.10
  -6  -2  15    4.10    4.40
   6  -2 -15   -0.50    4.00
   6   2 -14  178.88    9.70
  -6   2  14  205.88    8.40
   6  -2 -14  197.88   10.40
  -6  -2  14  208.78   11.00
  -6   2  13  161.08    7.30
   6   2 -13  158.18    8.60
   6  -2 -13  155.98    8.90
  -6  -2  13  161.88    9.60
  -6   2  12   45.80    4.00
   6   2 -12   46.60    4.90
  -6  -2  12   42.50    5.30
   6  -2 -12   49.20    5.10
  -6   2  11   48.70    3.60
  -6   2  11   49.40    3.50
  -6   2  11   48.80    3.80
   6   2 -11   50.09    4.60
   6  -2 -11   48.60    4.80
  -6  -2  11   58.09    5.70
  -6   2  10  568.24   17.30
  -6   2  10  602.74   17.50
  -6   2  10  639.64   17.90
  -6  -2  10  611.84   19.60
   6  -2 -10  624.94   18.90
   6   2  -9   56.29    4.50
  -6   2   9   42.70    2.70
  -6   2   9   49.90    3.80
  -6   2   9   46.80    3.30
  -6  -2   9   49.40    4.90
   6  -2  -9   62.59    4.70
   6   2  -8    1.80    2.10
  -6   2   8    2.10    1.70
  -6   2   8    0.60    1.50
   6  -2  -8    1.40    2.20
  -6  -2   8   -0.80    2.50
  -6  -2   8    0.60    2.50
   6   2  -7   14.20    2.60
   6   2  -7   11.70    3.20
   6   2  -7   11.40    2.40
  -6   2   7   15.20    1.90
  -6   2   7   12.00    1.70
   6  -2  -7   11.40    2.50
  -6  -2   7   10.40    2.80
  -6  -2   7   12.90    3.00
   6   2  -6  958.20   26.30
   6   2  -6  925.61   27.30
  -6   2   6  929.71   25.20
  -6   2   6  951.50   25.20
   6   2  -6  900.61   26.40
  -6  -2   6 1026.10   27.10
  -6  -2   6  908.21   26.70
   6  -2  -6  932.51   26.00
   6  -2  -6  936.11   26.30
  -6  -2   6  899.31   27.20
  -6   2   5    6.70    1.30
   6   2  -5    4.60    2.90
   6   2  -5    0.30    1.50
   6   2  -5    4.80    1.90
  -6   2   5    5.60    1.20
  -6  -2   5    3.90    1.70
   6  -2  -5    5.80    1.90
  -6  -2   5    5.10    2.40
   6  -2  -5    4.60    1.70
   6   2  -4  382.46   13.10
   6   2  -4  408.86   11.90
   6   2  -4  379.46   11.90
   6  -2  -4  398.76   11.50
   6  -2  -4  400.36   11.50
  -6  -2   4  390.66   12.30
   6   2  -3  261.47    9.90
   6   2  -3  276.17    8.60
   6   2  -3  262.47    8.60
  -6  -2   3  278.97    9.00
   6  -2  -3  271.77    8.10
   6  -2  -3  267.77    8.10
   6   2  -2    0.20    1.50
   6   2  -2    0.70    1.60
  -6  -2   2   -0.10    0.20
  -6  -2   2   -1.80    1.90
   6  -2  -2    0.10    1.30
   6  -2  -2    0.20    1.30
   6   2  -1   84.49    4.00
   6   2  -1   80.29    3.90
   6  -2  -1   81.49    3.50
   6  -2  -1   84.19    3.50
  -6  -2   1   79.19    4.20
  -6   2   0  894.71   23.70
   6   2   0  908.61   24.60
   6   2   0  905.81   24.60
   6  -2   0  888.11   24.30
  -6  -2   0  887.81   24.70
   6  -2   0  894.81   24.30
  -6   2  -1   22.70    1.80
   6   2   1   21.20    2.10
   6   2   1   23.00    2.50
  -6   2  -1   22.60    1.70
   6  -2   1   19.80    2.10
   6  -2   1   23.10    2.20
  -6  -2  -1   24.90    2.60
   6   2   2   58.89    3.80
   6   2   2   50.29    3.20
  -6   2  -2   51.39    2.90
  -6   2  -2   50.89    3.20
  -6  -2  -2   44.40    3.40
   6  -2   2   52.59    3.60
   6  -2   2   50.79    3.50
   6   2   3 1253.07   34.00
  -6   2  -3 1297.27   33.70
  -6   2  -3 1267.37   33.70
   6   2   3 1235.58   34.20
   6  -2   3 1219.28   34.10
  -6  -2  -3 1219.68   34.20
   6  -2   3 1237.98   34.20
   6   2   4  485.15   14.70
  -6   2  -4  478.55   14.20
  -6   2  -4  490.75   14.40
  -6  -2  -4  498.65   14.90
   6  -2   4  476.45   14.90
   6   2   5   81.19    4.90
  -6   2  -5   76.59    4.70
   6   2   5   80.59    4.40
  -6  -2  -5   85.09    5.40
   6  -2   5   85.09    5.20
   6   2   6  605.04   18.50
   6   2   6  617.44   18.00
  -6   2  -6  623.14   18.10
  -6   2  -6  623.24   18.20
   6  -2   6  605.64   18.80
  -6  -2  -6  596.44   18.60
  -6   2  -7    9.00    2.80
   6   2   7   12.40    2.60
  -6   2  -7   11.30    2.60
   6   2   7   12.00    2.90
  -6  -2  -7   10.40    3.20
   6  -2   7   11.60    3.10
   6   2   8    2.00    2.70
  -6   2  -8    0.40    2.70
  -6  -2  -8   -1.40    2.90
   6  -2   8    3.30    3.00
  -6   2  -9   18.90    3.90
   6   2   9   17.20    3.50
   6  -2   9   12.10    3.80
  -6  -2  -9   19.50    4.20
   6   2  10    9.20    3.40
  -6   2 -10    6.10    3.60
  -6  -2 -10    8.90    4.00
   6  -2  10    3.10    3.60
   6   2  11    9.90    3.70
  -6   2 -11   16.20    4.30
  -6  -2 -11    5.40    4.10
   6  -2  11   12.60    4.50
   6   2  12    9.40    3.80
  -6   2 -12   10.10    4.40
  -6  -2 -12    3.10    4.30
   6  -2  12   11.60    4.70
   6   2  13   27.40    4.70
  -6   2 -13   33.70    5.40
  -6  -2 -13   24.30    5.40
   6  -2  13   24.30    5.30
   6  -3 -16   -0.60    7.30
   6   3 -15    4.10    3.80
   6  -3 -15    4.40    4.20
  -6  -3  15    1.60    4.60
   6   3 -14    3.90    3.50
  -6  -3  14    1.70    4.30
   6  -3 -14    0.60    3.70
   6   3 -13   20.90    4.20
  -6  -3  13   18.90    4.80
   6  -3 -13   16.90    4.20
   6   3 -12    5.00    3.20
   6  -3 -12    6.40    3.50
  -6  -3  12   11.90    4.20
   6   3 -11    3.20    2.90
  -6   3  11    1.90    1.30
  -6  -3  11    4.70    3.50
   6  -3 -11    1.90    3.10
   6   3 -10   10.10    2.90
   6  -3 -10    8.90    3.10
  -6  -3  10    7.90    3.50
   6   3  -9  259.27    9.50
  -6  -3   9  253.37   10.50
   6  -3  -9  266.67    9.70
   6   3  -8  125.09    7.40
   6   3  -8  127.29    6.00
   6   3  -8  123.79    5.90
  -6  -3   8  113.89    6.70
   6  -3  -8  117.49    5.80
   6   3  -7  249.08    8.90
   6   3  -7  263.97    9.10
   6   3  -7  251.17   10.50
   6  -3  -7  255.17    8.80
  -6  -3   7  266.87    9.80
   6   3  -6  338.47   10.80
   6   3  -6  343.97   12.60
  -6  -3   6  344.57   11.60
   6  -3  -6  338.37   10.50
   6  -3  -6  343.27   10.60
   6   3  -5  113.19    4.90
   6   3  -5  109.69    4.90
   6   3  -5  116.99    6.80
   6  -3  -5  103.99    4.40
   6  -3  -5  103.69    4.30
  -6  -3   5  102.99    6.20
  -6  -3   5  106.29    5.70
   6   3  -4  518.95   14.70
   6   3  -4  502.25   14.80
   6   3  -4  512.05   16.70
   6  -3  -4  515.65   14.20
   6  -3  -4  495.25   14.20
  -6  -3   4  505.25   15.30
  -6  -3   4  514.75   14.80
   6  -3  -4  501.55   14.00
   6   3  -3  688.73   19.10
   6   3  -3  674.63   19.00
   6   3  -3  676.63   21.10
   6  -3  -3  692.03   18.30
   6  -3  -3  670.33   18.30
  -6  -3   3  658.93   19.10
  -6  -3   3  704.03   19.60
   6   3  -2  223.28    7.20
   6   3  -2  232.18    7.30
   6  -3  -2  220.68    6.30
  -6  -3   2  226.08    7.80
   6  -3  -2  219.38    6.40
  -6  -3   2  228.18    7.40
   6   3  -1    9.60    1.80
   6   3  -1   14.20    1.90
   6  -3  -1   13.80    1.20
  -6  -3   1   13.40    2.20
  -6  -3   1   12.20    1.90
   6  -3  -1   12.80    1.20
   6   3   0   84.69    3.70
   6   3   0   81.39    3.70
  -6  -3   0   80.99    3.90
   6  -3   0   76.99    3.20
   6  -3   0   80.49    3.20
  -6  -3   0   82.49    4.20
   6   3   1  689.23   19.00
   6   3   1  690.63   19.10
  -6  -3  -1  675.53   19.40
  -6  -3  -1  690.13   19.40
   6  -3   1  686.63   18.90
   6  -3   1  690.43   18.90
   6   3   2    0.80    1.70
   6   3   2    0.50    1.50
  -6  -3  -2   -0.90    1.90
   6  -3   2    0.40    1.50
  -6  -3  -2    0.40    1.70
   6  -3   2    2.70    1.60
  -6   3  -3  431.86   12.10
   6   3   3  435.56   12.80
   6   3   3  450.85   13.00
   6  -3   3  436.56   13.20
  -6  -3  -3  438.26   13.40
   6  -3   3  428.66   13.00
  -6   3  -4 1707.13   45.90
  -6   3  -4 1725.53   45.90
   6   3   4 1719.23   46.30
   6   3   4 1753.82   46.50
   6  -3   4 1736.93   46.90
  -6  -3  -4 1685.23   46.80
   6   3   5  712.23   20.40
   6   3   5  723.13   20.70
  -6   3  -5  735.33   20.30
  -6   3  -5  699.73   20.10
  -6  -3  -5  729.53   21.20
   6  -3   5  719.03   21.30
  -6   3  -6   68.79    4.60
   6   3   6   72.79    4.70
   6   3   6   64.89    3.80
  -6   3  -6   65.79    3.80
   6  -3   6   74.09    5.50
  -6  -3  -6   66.59    5.50
  -6   3  -7  151.78    6.70
   6   3   7  151.38    6.70
  -6  -3  -7  145.19    7.70
   6  -3   7  161.58    7.80
   6   3   8   25.50    2.90
   6   3   8   24.10    3.30
  -6   3  -8   24.40    2.90
  -6   3  -8   25.10    3.40
   6  -3   8   28.00    4.30
  -6  -3  -8   22.70    4.00
   6   3   9   60.19    4.40
   6   3   9   50.09    4.50
  -6   3  -9   59.69    4.90
  -6  -3  -9   53.29    5.30
   6  -3   9   63.89    5.90
  -6   3 -10  106.99    7.30
  -6   3 -10   96.69    6.50
   6   3  10   99.29    6.50
   6  -3  10  106.69    8.00
  -6  -3 -10  108.29    8.10
   6   3  11   97.69    6.50
  -6   3 -11   96.79    6.90
   6  -3  11  100.59    8.50
  -6  -3 -11   85.29    7.30
   6   3  12    1.70    3.10
  -6   3 -12    1.90    3.50
  -6  -3 -12    1.90    4.40
   6  -3  12    2.10    4.20
  -6   3 -13   -4.30    3.60
   6   3  13   -3.30    3.10
  -6  -3 -13    2.80    4.80
   6  -3  13   -0.10    4.50
   6   4 -15   32.30    4.90
  -6  -4  15   36.40    6.00
   6  -4 -15   44.10    6.00
   6   4 -14    1.10    3.50
  -6  -4  14    5.60    4.60
   6  -4 -14    7.20    4.10
   6   4 -13   21.60    4.00
  -6  -4  13   24.00    5.40
   6  -4 -13   13.90    4.00
   6   4 -12   95.79    6.50
   6  -4 -12  102.79    7.20
  -6  -4  12   84.99    7.10
   6   4 -11  198.58    8.50
  -6  -4  11  201.98   10.20
   6  -4 -11  189.68    8.90
   6   4 -10   30.20    3.80
  -6  -4  10   31.00    4.70
   6  -4 -10   25.80    3.80
   6   4  -9   33.90    3.50
   6   4  -9   28.00    3.30
   6  -4  -9   28.00    3.50
  -6  -4   9   24.80    4.10
   6   4  -8   11.40    2.50
   6   4  -8   13.00    2.40
   6   4  -8   18.60    4.20
   6  -4  -8   12.80    2.60
  -6  -4   8   13.50    3.40
   6   4  -7   59.19    4.10
   6   4  -7   66.49    6.20
  -6  -4   7   62.69    5.00
   6  -4  -7   59.39    3.90
   6   4  -6  718.53   21.00
   6   4  -6  737.63   20.90
   6   4  -6  771.22   23.70
   6  -4  -6  751.92   20.70
   6  -4  -6  751.12   20.60
  -6  -4   6  720.33   21.90
   6   4  -5  240.48    8.10
   6   4  -5  262.87   10.70
   6   4  -5  247.68    8.10
   6  -4  -5  256.57    7.60
  -6  -4   5  250.17    9.10
   6  -4  -5  250.37    7.50
   6   4  -4    6.80    1.70
   6   4  -4    3.70    3.70
   6   4  -4    4.10    1.60
   6  -4  -4    3.90    1.60
  -6  -4   4    4.70    1.60
  -6  -4   4    3.40    2.20
   6   4  -3 1759.42   48.50
   6   4  -3 1686.13   45.60
   6   4  -3 1710.53   45.60
  -6  -4   3 1732.33   46.50
  -6  -4   3 1699.53   46.10
   6  -4  -3 1718.43   46.30
   6   4  -2  914.71   27.70
   6   4  -2  948.01   24.70
   6   4  -2  918.11   24.70
  -6  -4   2  907.51   25.30
  -6  -4   2  919.81   25.60
  -6  -4   1  505.65   14.40
  -6  -4   1  477.05   14.10
  -6  -4   0 1114.79   30.20
  -6  -4   0 1090.29   30.10
   6  -4   1 1173.38   31.30
  -6  -4  -1 1160.78   32.10
   6  -4   1 1186.68   31.30
  -6  -4  -1 1175.48   32.00
  -6  -4  -2   54.09    3.90
  -6  -4  -2   49.60    3.60
   6  -4   2   55.29    3.10
   6  -4   2   52.99    3.10
   6   4   3  234.38    7.10
   6   4   3  245.48    7.20
  -6  -4  -3  242.68    8.40
   6  -4   3  244.08    8.00
   6  -4   3  228.08    8.00
   6   4   4  458.45   13.30
   6   4   4  482.25   13.40
  -6  -4  -4  470.85   14.50
   6  -4   4  481.55   14.40
   6   4   5  471.45   13.60
   6   4   5  463.15   13.40
  -6  -4  -5  449.76   14.60
   6  -4   5  487.95   14.80
   6   4   6  218.48    7.30
  -6   4  -6  202.28    6.70
   6   4   6  207.48    7.00
  -6   4  -6  224.48    6.90
  -6  -4  -6  201.88    8.60
   6  -4   6  198.28    8.50
   6   4   7    1.80    1.70
  -6   4  -7    1.00    1.60
  -6   4  -7   -1.50    1.80
   6   4   7    0.70    2.00
   6  -4   7   -0.60    2.70
  -6  -4  -7    3.60    3.10
   6   4   8   29.40    2.80
  -6   4  -8   26.10    2.70
   6   4   8   31.90    3.10
  -6   4  -8   32.30    3.10
   6  -4   8   29.90    4.40
  -6  -4  -8   28.60    4.30
   6   4   9   82.19    4.90
  -6   4  -9   75.09    5.20
   6  -4   9   84.29    7.10
  -6  -4  -9   74.89    6.20
   6   4  10   32.00    3.50
  -6   4 -10   31.20    3.60
   6  -4  10   29.20    5.20
  -6  -4 -10   26.20    4.70
   6   4  11   14.80    3.10
  -6   4 -11    8.30    3.20
  -6  -4 -11    8.00    4.40
   6  -4  11   11.20    4.50
   6   4  12    2.20    2.60
  -6   4 -12    1.00    3.10
  -6  -4 -12    2.10    4.60
   6  -4  12    3.00    4.50
  -6   4 -13   11.40    3.70
  -6  -4 -13   17.20    5.50
   6  -4  13   13.30    5.30
   6   5 -15    0.40    3.50
   6  -5 -15    7.70    4.40
  -6  -5  15    9.30    5.30
   6   5 -14   12.80    3.80
   6  -5 -14    7.80    4.20
  -6  -5  14   10.80    5.20
   6   5 -13   -0.10    3.00
   6  -5 -13    1.20    3.60
  -6  -5  13    2.00    4.40
   6   5 -12   53.89    4.60
   6  -5 -12   41.40    4.80
  -6  -5  12   57.79    6.60
   6   5 -11   43.40    4.30
   6  -5 -11   40.70    4.50
  -6  -5  11   51.09    5.80
   6   5 -10  151.08    6.80
   6   5 -10  165.18    7.10
  -6  -5  10  164.48    9.00
   6  -5 -10  166.98    7.60
   6   5  -9   -1.30    2.10
   6   5  -9    1.10    1.70
  -6  -5   9   -1.30    3.00
   6  -5  -9   -1.40    2.30
   6   5  -8   58.09    4.00
   6   5  -8   60.59    3.80
   6   5  -8   57.39    6.30
   6  -5  -8   50.69    4.20
   6   5  -7    3.70    3.80
   6   5  -7   13.40    2.10
   6   5  -7    6.20    1.90
   6  -5  -7   11.50    2.10
  -6  -5   7   11.10    3.10
   6   5  -6    1.20    1.60
   6   5  -6    0.60    1.40
   6   5  -6    1.90    3.70
   6  -5  -6    0.40    1.20
  -6  -5   6   -1.10    2.40
   6  -5  -6   -0.70    1.40
   6   5  -5  320.07   13.00
   6   5  -5  318.87    9.00
   6   5  -5  297.27    9.00
  -6  -5   5  315.27   10.70
   6   5  -4   -2.70    3.40
  -6  -5   4    1.20    2.00
   6  -5  -4    3.90    1.90
   6   5  -3  241.98   10.50
   6  -5  -3  247.08    8.50
  -6  -5   3  232.98    8.20
  -6  -5   3  221.98    7.70
   6   5  -2   38.10    5.40
  -6  -5   2   39.40    3.10
  -6  -5   2   32.50    2.70
   6  -5  -2   38.50    3.60
  -6  -5   1   89.39    4.40
  -6  -5   1   90.89    4.00
   6  -5  -1   90.29    5.10
  -6  -5   0  105.19    4.40
  -6  -5   0  100.99    4.60
  -6  -5  -1    2.40    1.70
  -6  -5  -1    1.30    1.70
   6  -5   2  136.79    4.70
   6  -5   2  131.79    4.60
  -6  -5  -2  116.09    7.20
  -6  -5  -2  134.09    5.50
   6  -5   3  269.57    8.60
  -6  -5  -3  263.77    9.00
   6  -5   3  267.47    8.60
   6  -5   4   10.80    2.40
  -6  -5  -4   10.50    2.60
   6  -5   5   61.09    4.70
  -6  -5  -5   67.39    4.90
  -6  -5  -6  274.07   10.20
   6  -5   6  280.17   10.40
   6  -5   7    0.80    2.80
  -6  -5  -7    1.00    3.00
  -6  -5  -8   15.80    3.90
   6  -5   8   15.90    3.80
  -6   5  -9  158.58    5.90
   6  -5   9  152.88    9.00
  -6  -5  -9  169.58    8.90
  -6   5 -10   46.00    3.40
  -6  -5 -10   41.40    5.40
   6  -5  10   47.40    5.90
  -6   5 -11   39.60    3.50
  -6  -5 -11   44.80    5.80
   6  -5  11   43.60    6.10
  -6   5 -12   43.60    3.90
   6  -5  12   51.89    6.80
  -6  -5 -12   54.19    6.80
   6  -5  13    1.30    4.70
  -6  -5 -13   -3.80    4.50
   6   6 -14   12.20    3.30
  -6  -6  14    2.60    5.10
   6  -6 -14   10.10    4.30
   6   6 -13    0.60    2.70
   6  -6 -13    6.20    3.60
  -6  -6  13    4.60    4.60
   6   6 -12   38.00    3.60
  -6  -6  12   34.40    5.50
   6  -6 -12   37.60    4.80
   6   6 -11   38.60    3.60
   6  -6 -11   30.40    4.00
  -6  -6  11   32.70    5.50
   6   6 -10  324.37   10.40
  -6  -6  10  308.87   12.90
   6  -6 -10  321.37   11.40
   6   6  -9   63.79    3.70
   6   6  -9   65.19    4.00
   6  -6  -9   65.19    4.80
  -6  -6   9   64.39    5.70
   6   6  -8   -1.70    4.10
   6   6  -8    4.00    1.60
   6  -6  -8   -2.10    2.00
  -6  -6   8    0.70    2.90
   6   6  -7   66.39    7.10
  -6  -6   7   68.69    5.70
   6  -6  -7   66.99    3.60
   6   6  -6  190.28   10.60
  -6  -6   6  190.28    8.10
   6   6  -5   14.20    4.60
  -6  -6   5   21.00    3.00
   6   6  -4   76.89    7.00
  -6  -6   4   84.89    4.80
   6  -6  -4   85.09    4.80
   6   6  -3   27.90    5.40
   6  -6  -3   29.20    3.50
  -6  -6   3   20.30    2.60
   6   6  -2    1.80    1.50
   6  -6  -2    5.20    2.60
  -6  -6   2    6.40    2.00
  -6  -6   2    7.80    1.70
   6   6  -1    0.00    2.80
  -6  -6   1   -1.00    1.40
  -6  -6   1   -1.40    1.60
   6   6   0  221.58   10.50
  -6  -6   0  225.58    7.60
  -6  -6   0  234.28    7.50
  -6  -6  -1  620.44   17.90
  -6  -6  -1  640.94   17.90
   6  -6   2  153.78    4.90
  -6  -6  -2  164.18    6.10
   6  -6   3  140.19    5.40
  -6  -6  -3  150.38    6.10
   6  -6   3  150.88    5.40
   6  -6   4   57.69    4.00
  -6  -6  -5   20.50    3.20
   6  -6   5   19.60    2.90
  -6  -6  -6   23.00    3.50
   6  -6   6   17.10    3.30
   6  -6   7  150.18    8.00
  -6  -6  -7  150.98    7.80
  -6  -6  -8   21.60    4.20
   6  -6   8   41.10    5.10
   6  -6   9   60.09    6.10
  -6  -6  -9   46.30    5.30
   6  -6  10  125.29    8.90
  -6  -6 -10  116.49    8.30
  -6  -6 -11   31.10    5.20
   6  -6  11   50.39    6.60
  -6  -6 -12   33.30    5.80
   6  -6  12   47.00    6.60
   6  -7 -14    8.80    4.20
  -6  -7  14    9.80    5.40
   6  -7 -13   27.90    4.70
  -6  -7  13   17.10    5.30
  -6  -7  12   35.50    6.00
   6  -7 -12   23.90    4.20
   6  -7 -11  199.28    8.90
  -6  -7  11  213.18   11.10
  -6  -7  10    2.70    3.90
   6  -7 -10   -6.80    2.40
   6   7  -9  160.78   11.10
   6  -7  -9  154.08    6.70
  -6  -7   9  161.28    9.00
   6   7  -8  167.18   10.60
  -6  -7   8  189.68    9.00
   6  -7  -8  183.58    6.70
   6   7  -7   14.80    5.40
   6  -7  -7   20.10    1.80
  -6  -7   7   16.20    3.40
   6  -7  -7   22.50    2.00
   6   7  -6    1.00    4.70
  -6  -7   6    0.20    2.40
   6   7  -5   22.70    5.50
  -6  -7   5   18.50    2.90
   6   7  -4    5.00    4.40
  -6  -7   4   -0.60    2.00
   6  -7  -4   -1.00    2.20
   6   7  -3   19.30    4.20
   6  -7  -3   29.30    3.80
  -6  -7   3   34.30    3.10
   6   7  -2  144.99    8.00
  -6  -7   2  154.88    5.90
   6   7  -1    6.30    4.20
  -6  -7   1    4.70    1.50
  -6  -7   1    3.40    1.70
   6   7   0   25.60    5.20
  -6  -7   0   27.60    2.50
  -6  -7   0   22.90    2.20
   6   7   1  563.44   20.10
  -6  -7  -1  572.74   16.20
  -6  -7  -1  555.24   17.20
  -6  -7  -2   74.49    4.20
   6  -7   3   26.80    2.20
  -6  -7  -3   22.40    2.70
   6  -7   3   28.30    2.20
  -6  -7  -4  136.69    6.30
   6  -7   4  141.69    5.80
   6  -7   5  102.29    5.50
  -6  -7  -5   87.59    5.80
  -6  -7  -6   16.30    3.30
   6  -7   6   15.60    3.30
  -6  -7  -7   18.40    3.50
   6  -7   7   19.60    3.70
   6  -7   8    2.40    3.40
  -6  -7  -8    6.00    3.40
   6  -7   9   50.39    5.60
  -6  -7  -9   46.90    5.50
   6  -7  10   84.99    7.50
  -6  -7 -10   47.20    5.70
   6  -7  11   -3.20    4.30
  -6  -7 -11    0.60    4.20
  -6  -7 -12   51.39    6.40
   6  -7  12   57.69    7.30
   6  -8 -13    9.00    3.90
  -6  -8  13    6.80    5.00
  -6  -8  12    0.70    4.40
   6  -8 -12    3.50    3.30
  -6  -8  11   18.20    5.00
   6  -8 -11   10.80    3.40
  -6  -8  10   11.60    4.40
   6  -8 -10   21.60    3.30
   6   8  -9   83.79    9.40
  -6  -8   9   85.29    6.90
   6  -8  -9   73.99    4.80
   6   8  -8   65.39    8.30
  -6  -8   8   71.39    5.90
   6  -8  -8   58.69    3.80
   6   8  -7   41.60    6.90
  -6  -8   7   46.00    4.90
   6   8  -6   10.30    5.60
  -6  -8   6   10.70    3.00
   6   8  -5  132.29    9.50
  -6  -8   5  130.29    6.40
   6   8  -1  227.98   12.00
  -6  -8   1  223.08    7.50
   6   8   0   53.69    6.70
  -6  -8   0   49.99    3.40
   6   8   1  308.57   14.20
  -6  -8  -1  311.37    9.70
   6   8   2   72.29    7.90
  -6  -8  -2   54.29    3.80
   6  -8   3    2.80    1.40
   6  -8   3    6.80    1.50
  -6  -8  -3    9.10    2.20
  -6  -8  -4   -0.40    2.10
   6  -8   4    1.20    1.90
   6  -8   5   17.50    3.00
  -6  -8  -5   11.40    2.90
  -6  -8  -6  409.26   13.70
   6  -8   6  400.36   13.80
   6  -8   7  265.97   10.80
  -6  -8  -7  257.87   10.50
   6  -8   8    5.70    3.50
  -6  -8  -8    4.30    3.40
  -6  -8  -9    4.80    4.00
   6  -8   9    5.50    4.10
   6  -8  10   30.30    5.50
  -6  -8 -10   27.00    5.20
   6  -8  11   72.99    7.50
  -6  -8 -11   52.99    6.30
  -6  -9  12   11.40    5.20
  -6  -9  11   23.80    5.40
  -6  -9  10    6.70    4.10
   6   9  -9    5.30    5.50
  -6  -9   9    8.60    4.00
   6   9  -8  154.88   11.50
  -6  -9   8  177.18    9.00
   6   9  -7   38.20    7.00
  -6  -9   7   41.10    4.80
   6   9  -6  111.19   10.00
  -6  -9   6  125.19    6.90
   6   9  -5   -2.20    4.70
  -6  -9   5    5.60    2.70
   6   9  -4   39.60    6.30
  -6  -9   4   37.00    3.50
   6   9  -3  165.18   10.50
  -6  -9   3  179.58    6.90
   6   9  -2  105.59    9.40
  -6  -9   2   97.19    4.70
   6   9  -1    9.00    4.80
  -6  -9   1    7.00    1.90
   6   9   0   61.69    7.30
  -6  -9   0   57.39    3.50
   6   9   1   93.89    9.20
  -6  -9  -1   67.89    3.90
   6   9   2  129.59   10.30
  -6  -9  -2  124.89    5.30
   6   9   3   18.00    5.70
  -6  -9  -3   19.00    2.70
   6   9   4   30.10    6.60
   6  -9   4   19.20    2.60
  -6  -9  -4   19.90    3.00
  -6  -9  -5   11.40    2.90
   6  -9   5    8.10    2.60
   6  -9   6   34.20    4.10
  -6  -9  -6   50.19    4.70
   6  -9   7   25.70    4.10
  -6  -9  -7   24.80    4.00
  -6  -9  -8   53.89    5.50
   6  -9   8   48.00    5.40
   6  -9   9    3.30    3.90
  -6  -9  -9   -4.90    3.60
  -6  -9 -10    2.00    4.40
   6  -9  10    5.30    4.50
  -6 -10  11    4.80    4.80
  -6 -10  10    3.80    4.30
  -6 -10   9   49.50    5.70
   6  10  -8   58.59    9.20
  -6 -10   8   42.30    5.10
   6  10  -7   51.59    8.30
  -6 -10   7   46.60    4.90
   6  10  -6  252.07   14.30
  -6 -10   6  258.27   10.20
   6  10  -5   24.10    6.60
  -6 -10   5   26.70    3.60
   6  10  -4  768.62   27.20
  -6 -10   4  755.32   22.20
   6  10  -3    5.20    5.10
  -6 -10   3    6.80    2.20
   6  10  -2    3.10    5.50
  -6 -10   2    1.20    1.90
   6  10  -1   13.40    5.70
  -6 -10   1   15.70    2.20
   6  10   0   70.79    8.80
  -6 -10   0   58.99    3.70
   6  10   1    2.80    5.40
  -6 -10  -1   -0.10    1.80
   6  10   2   40.30    7.50
  -6 -10  -2   21.70    2.60
   6  10   3  133.99   11.00
  -6 -10  -3  107.79    5.60
   6  10   4  159.28   12.00
  -6 -10  -4  153.58    6.90
   6  10   5   40.40    7.50
  -6 -10  -5   37.60    3.90
   6  10   6   89.89    9.60
   6 -10   6   90.59    6.40
  -6 -10  -6   94.29    6.50
   6  10   7  -10.90    5.50
   6 -10   7   -1.10    3.10
  -6 -10  -7    0.80    3.30
  -6 -10  -8   32.50    4.60
   6 -10   8   32.60    4.90
  -6 -10  -9    0.30    3.70
   6 -10   9    5.60    4.20
  -6 -11  10    3.80    4.50
  -6 -11   9   41.80    5.70
   6  11  -8   46.30    9.10
  -6 -11   8   42.60    5.30
   6  11  -7   37.80    7.80
  -6 -11   7   37.60    4.90
   6  11  -6   34.30    7.50
  -6 -11   6   25.40    4.10
   6  11  -5   57.69    8.30
  -6 -11   5   50.79    4.60
   6  11  -4    3.30    4.90
  -6 -11   4    4.50    2.60
   6  11  -3  132.49   12.10
  -6 -11   3  117.49    5.90
   6  11  -2  122.09   11.30
   6  11  -1  184.78   12.40
   6  11   0   23.10    6.80
   6  11   1   28.20    7.20
   6  11   2  126.19   12.00
   6  11   3   54.69    8.30
   6  11   4   13.10    6.60
   6  11   5    6.70    6.40
   6  11   6   -0.70    6.20
   6  11   7   -2.20    6.10
   6  11   8   10.40    6.60
  -6 -12   9   31.60    5.70
   6  12  -8    8.80    7.40
   6  12  -7   16.00    7.20
   6  12  -6   22.10    6.90
   6  12  -5  188.78   13.20
   6  12  -4    9.40    6.00
   6  12  -3   64.29    9.40
   6  12  -2    0.40    5.80
   6  12  -1    5.50    6.30
   6  12   0    1.60    6.50
   6  12   1  155.08   13.10
   6  12   2    4.20    6.70
   6  12   3   -6.50    5.70
   6  12   4   41.70    8.20
   6  12   5    0.80    6.20
   6  12   6    9.20    6.70
   6  12   7   -0.30    6.40
   6  13  -7   91.29   11.40
   6  13  -6   15.90    7.30
   6  13  -5   22.60    7.50
   6  13  -4   61.99    9.60
   6  13  -3    6.70    6.90
   6  13  -2  113.89   12.50
   6  13  -1   10.40    6.90
   6  13   0   32.70    8.70
   6  13   1  123.99   12.30
   6  13   2   93.89   11.00
   6  13   3   59.39    9.70
   6  13   4   25.20    7.70
   6  13   5   24.70    8.50
   6  14  -4   24.90    8.40
   6  14  -3   33.40    9.20
   6  14  -2   10.50    7.20
   6  14  -1   -0.60    6.60
   6  14   0    8.80    7.60
   6  14   1   19.00    8.50
   6  14   2   62.99   10.50
  -7   0  16    2.70    4.00
   7   0 -16   -4.10    3.90
   7   0 -15   -0.80    3.80
  -7   0  15    5.10    3.90
   7   0 -14  117.39    8.30
  -7   0  14  122.39    8.30
  -7   0  13    3.60    3.60
   7   0 -13   -4.10    3.20
  -7   0  12  261.37   10.90
   7   0 -12  270.67   11.00
  -7   0  11    2.10    2.40
   7   0 -11    1.10    2.90
  -7   0  11   -1.30    2.90
   7   0 -10    9.70    3.00
  -7   0  10    4.40    2.40
  -7   0  10    4.60    2.90
  -7   0   9   -1.70    2.00
  -7   0   9    1.40    2.60
   7   0  -9   -2.50    2.30
   7   0  -8   41.50    3.70
  -7   0   8   44.80    4.00
  -7   0   8   45.90    3.80
   7   0  -7    4.10    2.20
  -7   0   7    3.70    2.30
  -7   0   7    2.90    1.70
   7   0  -7    3.90    1.90
  -7   0   6   61.59    4.40
   7   0  -6   68.09    4.10
   7   0  -6   64.09    4.30
   7   0  -5   -0.30    1.50
  -7   0   5   -3.10    1.80
   7   0  -5    1.90    1.80
  -7   0   5   -0.30    1.40
   7   0  -5    0.70    2.00
  -7   0   4   93.09    4.20
   7   0  -4  101.39    4.60
  -7   0   4   98.09    4.70
   7   0  -3   -0.10    1.70
  -7   0   3   -0.10    1.40
   7   0  -3    0.00    0.60
  -7   0   3   -0.70    1.80
  -7   0   2  160.18    5.60
   7   0  -2  163.98    6.00
  -7   0   2  156.78    6.00
  -7   0   1   -2.40    1.20
  -7   0   1   -0.40    1.80
   7   0  -1   -0.80    1.60
   7   0  -1    0.40    0.70
  -7   0   0  311.67    9.70
  -7   0   0  303.97    9.40
   7   0   0  315.47    9.80
  -7   0  -1   -0.50    1.30
  -7   0  -1   -2.40    1.90
   7   0   1   -0.50    1.80
   7   0   1   -0.70    1.40
   7   0   2   50.09    3.50
  -7   0  -2   47.70    4.00
   7   0   2   52.59    3.90
   7   0   3    0.20    1.70
   7   0   3    1.90    2.10
  -7   0  -3   -0.70    1.60
  -7   0  -3   -0.80    2.10
   7   0   4   -1.60    2.10
  -7   0  -4   -0.80    2.10
  -7   0  -4    0.30    1.70
  -7   0  -5    1.30    2.30
   7   0   5    1.80    2.30
   7   0   6  118.19    6.50
  -7   0  -6  122.79    6.40
  -7   0  -7    1.00    2.80
   7   0   7   -4.20    2.50
  -7   0  -8   82.69    6.40
   7   0   8   91.59    6.50
   7   0   9    2.30    3.20
  -7   0  -9   -0.70    3.20
  -7   0 -10   34.20    4.80
   7   0  10   36.00    5.10
   7   0  11    3.00    3.60
  -7   0 -11   -3.70    3.80
   7   0  12   43.40    5.60
  -7   0 -12   38.00    5.40
   7   0  13    2.40    4.10
  -7   0 -13   -2.90    4.40
  -7   1  16    5.90    3.70
   7   1 -16    2.90    4.10
   7  -1 -16    5.30    4.40
  -7  -1  16    1.60    4.20
  -7   1  15   32.10    4.50
   7   1 -15   20.50    4.80
   7  -1 -15   26.00    5.20
  -7  -1  15   28.70    5.40
   7   1 -14   71.89    6.50
  -7   1  14   55.69    5.40
  -7  -1  14   43.90    5.60
   7  -1 -14   44.00    5.60
  -7   1  13    6.50    3.30
   7   1 -13    3.60    3.30
   7  -1 -13    8.80    3.70
  -7  -1  13    4.20    3.70
  -7   1  12  125.39    7.20
   7   1 -12  134.99    7.60
  -7   1  12  102.59    7.40
  -7  -1  12  137.09    8.30
   7  -1 -12  142.99    7.90
   7   1 -11   40.00    4.30
  -7   1  11   49.60    3.90
  -7   1  11   42.90    3.80
  -7   1  11   52.79    4.60
   7  -1 -11   61.59    5.30
  -7  -1  11   48.10    4.80
  -7   1  10  104.99    5.90
  -7   1  10   91.69    4.70
  -7   1  10  107.39    5.10
   7   1 -10   95.99    6.10
  -7  -1  10   86.79    5.80
   7  -1 -10   98.69    6.30
  -7  -1  10   97.79    6.50
  -7   1   9   26.00    3.20
   7   1  -9   19.00    3.00
  -7  -1   9   22.10    3.40
  -7  -1   9   14.90    3.20
   7  -1  -9   18.50    3.10
   7   1  -8  378.46   12.50
  -7   1   8  384.56   12.20
  -7  -1   8  388.86   12.90
  -7  -1   8  374.16   12.80
   7  -1  -8  398.36   12.60
   7   1  -7   20.60    3.20
  -7   1   7   23.00    2.40
   7   1  -7   21.70    2.90
  -7   1   7   18.80    2.50
  -7  -1   7   18.40    2.90
  -7  -1   7   21.80    3.20
   7  -1  -7   16.80    2.80
   7   1  -6   74.49    4.90
  -7   1   6   70.49    4.10
   7   1  -6   75.59    4.50
   7   1  -6   71.89    4.40
  -7   1   6   71.79    3.80
  -7  -1   6   68.19    4.00
  -7  -1   6   67.29    4.80
   7  -1  -6   72.19    3.40
   7  -1  -6   70.39    4.40
  -7   1   5 1749.72   45.50
  -7   1   5 1694.63   45.60
   7   1  -5 1676.03   46.30
   7   1  -5 1712.83   46.10
   7   1  -5 1715.23   46.70
  -7  -1   5 1700.13   46.30
   7  -1  -5 1708.23   46.10
   7  -1  -5 1679.63   45.50
   7  -1  -5 1704.33   45.90
  -7  -1   5 1684.43   45.90
  -7   1   4 1357.56   35.90
   7   1  -4 1356.76   36.60
   7   1  -4 1322.27   37.10
   7   1  -4 1366.86   36.50
  -7   1   4 1349.36   36.00
  -7  -1   4 1304.37   36.60
   7  -1  -4 1315.97   36.30
   7  -1  -4 1338.57   36.40
   7   1  -3   65.59    3.90
  -7   1   3   67.49    3.30
  -7   1   3   58.59    3.50
  -7  -1   3   74.89    4.20
   7  -1  -3   71.09    3.60
   7  -1  -3   66.39    3.70
  -7   1   2   39.90    3.10
   7   1  -2   44.00    3.50
  -7   1   2   42.20    2.80
  -7  -1   2   45.00    3.20
   7  -1  -2   41.90    3.20
   7  -1  -2   49.50    4.40
  -7   1   1   35.00    2.50
   7   1  -1   35.80    2.80
   7   1  -1   22.60    2.30
  -7   1   1   34.20    2.70
  -7  -1   1   29.40    2.70
   7  -1  -1   35.90    2.70
   7  -1  -1   36.00    2.60
  -7   1   0   22.90    2.30
   7   1   0   20.50    2.50
  -7   1   0   22.80    2.10
   7  -1   0   24.70    2.50
  -7  -1   0   20.10    2.60
   7  -1   0   23.70    2.40
   7   1   1   86.09    4.40
  -7   1  -1   80.19    4.20
  -7   1  -1   83.49    3.80
  -7  -1  -1   83.29    4.70
   7  -1   1   83.09    4.10
  -7  -1  -1   83.29    4.00
   7  -1   1   84.69    4.40
   7   1   2    0.10    2.00
  -7   1  -2    2.30    2.00
   7   1   2    1.00    1.70
  -7   1  -2    2.50    1.60
  -7  -1  -2    2.60    1.70
   7  -1   2    1.60    1.90
  -7  -1  -2    1.20    2.10
   7  -1   2    0.20    0.30
  -7   1  -3    2.70    2.20
  -7   1  -3    1.40    1.40
   7   1   3    4.40    1.90
   7   1   3    3.20    2.10
  -7  -1  -3    1.20    2.30
   7  -1   3    3.10    2.10
  -7  -1  -3    7.00    2.00
   7   1   4    8.00    2.10
  -7   1  -4    6.30    1.90
  -7   1  -4    7.70    2.50
   7   1   4    6.40    2.40
  -7  -1  -4    6.10    2.50
   7  -1   4   11.10    2.60
  -7   1  -5   62.39    4.80
   7   1   5   65.89    4.90
  -7   1  -5   56.89    4.00
   7  -1   5   60.29    5.00
  -7  -1  -5   55.69    4.30
  -7   1  -6  141.79    6.80
   7   1   6  146.49    7.10
  -7  -1  -6  146.99    7.20
   7  -1   6  146.19    7.30
  -7   1  -7   16.10    3.30
   7   1   7   14.00    3.20
   7  -1   7    9.90    3.20
  -7  -1  -7   11.20    3.20
   7   1   8   49.00    4.80
  -7   1  -8   45.10    4.60
   7  -1   8   58.89    5.40
  -7  -1  -8   49.60    5.10
  -7   1  -9   14.30    3.90
   7   1   9   14.50    3.70
   7  -1   9   13.50    4.00
  -7  -1  -9    9.80    3.80
   7   1  10   -4.30    3.10
  -7   1 -10   -1.90    3.50
  -7  -1 -10   -3.20    3.50
   7  -1  10   -1.90    3.50
   7   1  11    3.30    3.70
  -7   1 -11    3.10    3.90
  -7  -1 -11   -3.10    3.80
   7  -1  11   -1.70    3.60
   7   1  12   26.20    4.70
  -7   1 -12   25.90    5.00
  -7  -1 -12   23.50    5.40
   7  -1  12   26.10    5.30
  -7   1 -13   17.40    4.90
   7   1  13   23.80    4.80
   7  -1  13   31.90    5.80
  -7  -1 -13   20.60    5.10
   7   2 -16    9.40    4.30
   7  -2 -16    3.90    4.60
  -7  -2  16    5.10    4.80
  -7   2  15   13.60    3.10
   7   2 -15    9.90    4.00
   7  -2 -15   11.30    4.60
  -7  -2  15    6.10    4.60
   7   2 -14   34.70    5.10
  -7   2  14   40.60    4.10
   7  -2 -14   37.80    5.50
   7  -2 -14   40.90    5.60
  -7  -2  14   50.59    6.30
   7   2 -13   45.00    5.10
  -7   2  13   52.49    4.20
   7  -2 -13   44.70    5.20
   7  -2 -13   51.19    5.30
  -7  -2  13   49.60    6.00
  -7   2  12    4.40    2.50
   7   2 -12    4.20    3.10
  -7  -2  12    4.40    3.60
   7  -2 -12    3.30    3.20
  -7   2  11   42.50    3.20
  -7   2  11   49.90    3.80
   7   2 -11   41.70    4.20
  -7  -2  11   45.60    5.10
   7  -2 -11   52.49    5.10
  -7   2  10   47.10    3.60
  -7   2  10   43.80    3.40
   7   2 -10   48.70    4.50
  -7  -2  10   39.40    4.70
   7  -2 -10   45.00    4.50
  -7   2   9  137.49    5.60
   7   2  -9  135.69    6.60
  -7   2   9  143.69    5.40
   7  -2  -9  142.19    6.80
  -7  -2   9  125.29    7.20
  -7   2   8   32.00    2.50
   7   2  -8   37.90    4.40
   7   2  -8   28.10    3.10
  -7   2   8   35.50    2.70
  -7  -2   8   27.40    3.70
  -7  -2   8   27.40    3.90
   7  -2  -8   28.70    3.20
   7   2  -7  181.58    8.00
  -7   2   7  172.58    5.80
   7   2  -7  174.58    7.00
  -7   2   7  172.38    5.90
   7  -2  -7  185.18    7.00
  -7  -2   7  168.48    7.80
  -7  -2   7  166.38    7.60
  -7   2   6   92.69    3.80
  -7   2   6   95.59    3.70
   7   2  -6   88.59    5.90
   7   2  -6   91.29    4.90
   7   2  -6   89.69    4.90
   7  -2  -6   98.69    4.80
  -7  -2   6   97.39    5.50
  -7   2   5  180.18    5.40
   7   2  -5  186.48    6.80
   7   2  -5  175.68    7.90
   7   2  -5  171.98    6.70
  -7   2   5  178.68    5.50
   7  -2  -5  188.08    6.50
  -7  -2   5  159.48    7.10
   7  -2  -5  160.58    5.30
   7  -2  -5  182.38    6.40
   7  -2  -5  185.78    6.50
  -7  -2   5  174.58    6.60
   7   2  -4  757.22   22.40
   7   2  -4  732.93   21.00
   7  -2  -4  761.62   20.80
  -7  -2   4  724.13   21.40
   7  -2  -4  743.23   20.70
   7   2  -3  244.18    7.90
   7   2  -3  239.58    7.80
  -7  -2   3  232.08    8.20
  -7  -2   3  212.08    7.50
   7  -2  -3  238.98    7.40
   7  -2  -3  228.98    7.40
   7   2  -2   46.50    3.30
   7   2  -2   46.60    3.50
  -7  -2   2   37.10    3.10
   7  -2  -2   46.70    3.00
   7  -2  -2   47.00    3.00
   7   2  -1   86.19    4.30
   7   2  -1   88.59    4.10
  -7  -2   1   80.59    4.50
   7  -2  -1   90.29    3.90
   7  -2  -1   81.29    3.80
  -7   2   0   35.80    2.20
  -7   2   0   38.30    2.40
   7   2   0   34.00    2.90
   7   2   0   36.80    2.90
  -7  -2   0   42.90    3.30
   7  -2   0   34.40    2.50
   7  -2   0   35.20    3.00
   7   2   1  422.16   12.70
   7   2   1  417.56   12.50
  -7   2  -1  421.56   12.00
  -7   2  -1  428.06   11.90
   7  -2   1  408.56   12.40
  -7  -2  -1  417.36   12.80
   7  -2   1  429.16   12.50
  -7   2  -2   38.80    3.20
  -7   2  -2   39.20    2.90
   7   2   2   38.60    3.10
  -7  -2  -2   42.00    3.30
  -7  -2  -2   41.60    3.00
   7  -2   2   35.20    2.80
   7  -2   2   42.20    3.20
   7   2   3   29.20    3.10
  -7   2  -3   31.90    2.80
  -7   2  -3   26.60    2.40
  -7  -2  -3   28.80    3.10
   7  -2   3   27.60    3.00
   7   2   4   11.80    2.60
  -7   2  -4    7.70    1.80
  -7   2  -4    7.70    2.30
   7   2   4    6.00    2.00
  -7  -2  -4   13.60    2.90
   7  -2   4   10.30    2.50
  -7   2  -5   34.50    3.30
   7   2   5   31.00    3.00
   7   2   5   29.10    3.40
  -7  -2  -5   29.30    3.60
   7  -2   5   34.80    3.60
  -7   2  -6  926.61   26.30
  -7   2  -6  911.11   26.10
   7   2   6  909.91   26.50
   7   2   6  947.31   26.70
   7  -2   6  912.11   27.00
  -7  -2  -6  922.51   26.80
  -7   2  -7   94.39    5.90
   7   2   7   92.89    6.00
   7  -2   7   91.59    6.40
  -7  -2  -7   85.69    6.30
  -7   2  -8   -2.80    2.80
   7   2   8    3.50    2.90
  -7  -2  -8    2.00    3.10
   7  -2   8    4.20    3.30
  -7   2  -9   27.30    4.10
   7   2   9   27.10    4.00
   7  -2   9   25.70    4.30
  -7  -2  -9   24.80    4.40
  -7   2 -10   34.40    4.70
   7   2  10   30.20    4.40
   7  -2  10   21.10    4.50
  -7  -2 -10   28.80    4.90
   7   2  11   23.50    4.40
  -7   2 -11   27.10    4.90
  -7  -2 -11   23.20    5.00
   7  -2  11   26.10    5.30
   7   2  12    5.00    3.60
  -7   2 -12    6.50    4.30
  -7  -2 -12    7.00    4.70
   7  -2  12    3.10    4.20
   7   2  13   35.40    5.20
  -7   2 -13   37.40    5.60
   7  -2  13   30.10    5.90
  -7  -2 -13   25.00    5.70
   7  -3 -16    7.70    8.10
   7   3 -15   28.90    4.90
   7  -3 -15   27.80    5.20
   7  -3 -15   31.90    5.30
  -7  -3  15   30.90    6.00
   7   3 -14   64.69    6.00
  -7  -3  14   77.09    7.60
   7  -3 -14   68.79    6.20
   7   3 -13    6.00    3.50
   7  -3 -13    8.80    3.80
  -7  -3  13   13.60    4.60
   7   3 -12    1.60    3.10
   7  -3 -12   -2.50    3.00
  -7  -3  12    5.00    3.80
   7   3 -11  334.17   12.10
   7  -3 -11  334.57   12.30
  -7  -3  11  335.57   13.30
   7   3 -10   40.10    4.20
  -7  -3  10   32.60    4.50
   7  -3 -10   51.79    4.70
   7   3  -9    3.20    2.40
  -7  -3   9    6.80    3.20
   7  -3  -9    6.40    2.70
   7   3  -8    4.00    3.30
   7   3  -8    1.20    2.20
   7  -3  -8    1.50    2.30
  -7  -3   8    3.00    3.00
   7   3  -7    1.60    2.00
   7   3  -7    1.00    3.10
   7   3  -7    4.40    2.10
  -7  -3   7    1.70    2.70
   7  -3  -7    1.10    2.00
   7   3  -6   23.30    2.70
   7   3  -6   25.90    2.80
   7   3  -6   25.00    4.00
   7  -3  -6   29.70    2.80
  -7  -3   6   24.50    3.40
   7   3  -5  100.09    4.90
   7   3  -5  103.69    6.70
  -7  -3   5   98.19    5.60
   7  -3  -5  102.29    4.30
   7  -3  -5  100.49    4.50
   7   3  -4    0.50    3.20
   7   3  -4    5.20    1.90
   7   3  -4   -0.80    1.60
  -7  -3   4    1.70    2.20
   7  -3  -4    2.50    1.50
   7  -3  -4    2.70    1.40
   7   3  -3  684.63   19.40
   7   3  -3  682.63   19.50
   7   3  -3  699.43   21.50
   7  -3  -3  713.03   18.90
   7  -3  -3  669.53   18.90
  -7  -3   3  685.93   19.90
  -7  -3   3  693.13   19.60
   7   3  -2    7.30    1.90
   7   3  -2    8.50    1.80
  -7  -3   2    7.70    2.20
   7  -3  -2    6.40    1.40
   7  -3  -2    7.30    1.40
  -7  -3   2    5.40    1.70
   7   3  -1  209.38    6.90
   7   3  -1  204.48    6.80
   7  -3  -1  200.68    6.30
   7  -3  -1  198.38    6.30
  -7  -3   1  196.98    6.90
  -7  -3   1  207.88    7.30
   7   3   0  160.38    5.70
   7   3   0  157.98    5.90
  -7  -3   0  160.78    5.90
   7  -3   0  160.98    5.40
   7  -3   0  154.38    5.40
  -7  -3   0  151.18    6.20
   7   3   1   88.19    4.40
   7   3   1   89.49    4.20
   7  -3   1   90.39    4.10
  -7  -3  -1   87.09    4.90
   7  -3   1   94.09    4.10
  -7  -3  -1   84.99    4.30
   7   3   2   21.70    2.30
   7   3   2   20.70    2.50
   7  -3   2   23.40    2.50
  -7  -3  -2   30.70    3.10
   7  -3   2   23.80    2.50
   7   3   3  323.27   10.10
  -7   3  -3  321.07    9.40
   7   3   3  330.87   10.50
  -7   3  -3  330.07    9.50
  -7  -3  -3  327.57   10.90
   7  -3   3  329.77   10.60
   7   3   4   97.59    4.90
  -7   3  -4   92.59    4.00
  -7   3  -4   91.29    4.30
   7   3   4   87.39    4.30
   7  -3   4   91.39    5.30
  -7  -3  -4   89.99    5.50
  -7   3  -5 1389.56   38.60
   7   3   5 1470.45   39.30
  -7   3  -5 1446.06   38.70
  -7  -3  -5 1397.86   39.60
   7  -3   5 1432.06   39.80
   7   3   6    4.20    1.80
   7   3   6    5.30    2.40
  -7   3  -6    7.10    1.80
  -7   3  -6    6.90    2.40
  -7  -3  -6   12.10    3.30
   7  -3   6   11.00    3.10
   7   3   7    7.60    2.60
  -7   3  -7    6.20    2.00
  -7   3  -7    7.50    2.60
   7   3   7    4.30    2.00
  -7  -3  -7    6.80    3.20
   7  -3   7    4.60    3.10
  -7   3  -8    3.90    2.20
   7   3   8    3.30    2.10
   7   3   8    2.90    2.70
  -7   3  -8    2.80    3.00
   7  -3   8   -1.10    3.10
  -7  -3  -8   -0.80    3.10
   7   3   9    1.20    2.80
  -7   3  -9    4.80    3.20
   7  -3   9    1.60    3.50
  -7  -3  -9   -2.60    3.60
  -7   3 -10    2.40    3.40
   7   3  10    5.50    3.20
  -7  -3 -10   -2.50    3.80
   7  -3  10   -1.20    3.60
  -7   3 -11   11.50    4.10
   7   3  11   14.20    3.70
  -7   3 -11   15.80    3.80
   7  -3  11   10.10    4.70
  -7  -3 -11   12.90    4.70
  -7   3 -12   -0.80    3.50
   7   3  12   -1.50    3.10
   7  -3  12    2.90    4.40
  -7  -3 -12   -0.30    4.50
   7   3  13   -1.70    3.40
  -7   3 -13   -8.80    3.50
   7  -3  13    4.20    4.90
  -7  -3 -13    7.20    5.00
   7   4 -15   11.30    4.10
   7  -4 -15   10.10    4.60
  -7  -4  15   11.50    5.30
   7   4 -14   57.39    5.50
   7  -4 -14   68.09    6.20
  -7  -4  14   98.39    8.60
   7   4 -13  132.19    7.70
   7  -4 -13  132.79    8.30
  -7  -4  13  132.59    9.50
   7   4 -12  170.68    8.30
   7  -4 -12  182.18    9.00
  -7  -4  12  162.78    9.90
   7   4 -11   29.10    3.80
  -7  -4  11   29.30    4.80
   7  -4 -11   37.80    4.60
   7   4 -10   17.80    3.30
   7  -4 -10   21.70    3.60
  -7  -4  10   20.10    4.30
   7   4  -9   37.10    3.60
   7   4  -9   21.60    4.60
   7   4  -9   21.80    3.40
   7  -4  -9   33.70    3.60
  -7  -4   9   18.50    3.70
   7   4  -8    6.70    4.00
   7   4  -8    6.30    2.40
   7   4  -8    2.10    2.10
   7  -4  -8    7.50    2.40
  -7  -4   8    8.10    3.20
   7   4  -7   33.20    3.10
   7   4  -7   33.00    5.00
  -7  -4   7   26.20    3.60
   7  -4  -7   36.20    3.10
   7   4  -6   53.99    3.70
   7   4  -6   71.49    6.40
   7   4  -6   53.19    3.90
  -7  -4   6   54.89    4.60
   7  -4  -6   60.99    3.30
   7  -4  -6   55.89    3.50
   7   4  -5   40.80    5.10
   7   4  -5   41.00    3.00
   7   4  -5   40.70    3.00
   7  -4  -5   36.00    2.70
   7  -4  -5   36.20    2.50
  -7  -4   5   37.00    3.70
   7  -4  -5   38.90    2.10
   7   4  -4    2.70    1.70
   7   4  -4    4.40    1.80
   7   4  -4    4.00    3.70
   7  -4  -4    5.40    1.70
   7  -4  -4    4.20    1.20
  -7  -4   4    5.90    2.40
   7  -4  -4    5.60    1.30
   7   4  -3    5.40    3.60
   7   4  -3    9.30    1.80
   7   4  -3    9.50    1.80
  -7  -4   3   11.30    2.50
  -7  -4   3    8.10    2.10
   7   4  -2  539.15   15.20
   7   4  -2  542.85   15.20
  -7  -4   2  538.35   15.70
  -7  -4   2  545.15   16.00
   7   4  -1  142.09    5.00
   7   4  -1  152.08    5.10
  -7  -4   1  144.49    5.60
  -7  -4   1  142.39    6.00
   7   4   0  273.07    8.30
   7   4   0  282.27    8.30
   7  -4   0  275.87    8.10
  -7  -4   0  273.57    9.00
   7  -4   0  280.77    8.10
  -7  -4   0  284.27    9.20
   7   4   1   81.19    3.60
   7   4   1   82.49    3.50
  -7  -4  -1   80.99    4.60
   7  -4   1   78.79    3.60
  -7  -4  -1   84.19    5.40
   7  -4   1   85.09    3.70
   7   4   2  127.09    4.80
   7   4   2  121.09    4.60
   7  -4   2  130.79    5.10
  -7  -4  -2  127.29    5.90
   7  -4   2  134.39    5.10
   7   4   3  136.49    5.10
   7   4   3  137.69    4.90
  -7  -4  -3  124.99    6.30
   7  -4   3  134.59    5.70
   7   4   4   71.89    3.70
   7   4   4   80.09    4.10
   7  -4   4   73.49    4.70
  -7  -4  -4   71.69    5.10
   7   4   5   83.89    4.40
   7   4   5   81.09    4.00
  -7  -4  -5   79.09    5.60
   7  -4   5   84.19    5.50
  -7   4  -6  329.37    9.70
  -7   4  -6  312.27    9.60
   7   4   6  322.07   10.30
   7   4   6  317.87   10.00
  -7  -4  -6  318.77   11.60
   7  -4   6  321.57   11.60
   7   4   7  116.59    5.20
   7   4   7  120.49    5.80
  -7   4  -7  113.79    5.00
  -7   4  -7  124.09    5.40
   7  -4   7  126.49    7.30
  -7  -4  -7  115.69    7.40
   7   4   8   42.90    3.70
   7   4   8   42.50    3.30
  -7   4  -8   38.30    3.10
  -7   4  -8   40.00    3.50
  -7  -4  -8   33.10    4.70
   7  -4   8   34.70    4.80
  -7   4  -9    0.20    2.50
   7   4   9    3.00    2.50
   7  -4   9   -0.40    3.60
  -7  -4  -9    0.70    3.60
   7   4  10   -4.30    2.40
  -7   4 -10   -4.70    2.60
   7  -4  10    0.60    3.90
  -7  -4 -10   -4.10    3.90
   7   4  11   19.40    3.40
  -7   4 -11   24.70    3.70
  -7  -4 -11   24.80    5.30
   7  -4  11   25.50    5.50
   7   4  12   42.90    4.00
  -7   4 -12   29.30    4.10
   7  -4  12   38.60    6.10
  -7  -4 -12   26.20    5.70
  -7  -4 -13    8.80    5.30
   7   5 -15   -0.90    3.50
   7  -5 -15   -1.70    3.90
  -7  -5  15    3.40    4.90
   7   5 -14    0.30    3.20
  -7  -5  14    5.20    4.70
   7  -5 -14    0.30    3.70
   7   5 -13   32.00    4.20
   7  -5 -13   32.10    4.80
  -7  -5  13   25.70    5.70
   7   5 -12   67.39    5.70
   7  -5 -12   81.89    6.30
  -7  -5  12   71.79    6.90
   7   5 -11   47.40    4.40
  -7  -5  11   52.09    5.80
   7  -5 -11   60.69    5.20
   7   5 -10   11.80    2.80
   7   5 -10   11.40    2.70
   7  -5 -10    8.20    3.00
  -7  -5  10   14.30    4.10
   7   5  -9   38.70    3.50
   7   5  -9   26.90    5.50
   7  -5  -9   34.60    3.60
  -7  -5   9   25.90    4.40
   7   5  -8  139.29    9.10
   7   5  -8  151.88    6.10
   7   5  -8  162.58    6.40
   7  -5  -8  140.09    6.30
  -7  -5   8  158.78    8.10
   7   5  -7  154.18    9.30
   7   5  -7  153.08    6.10
   7   5  -7  167.48    6.30
   7  -5  -7  163.48    6.20
  -7  -5   7  169.18    7.90
   7   5  -6   60.89    3.60
   7   5  -6   64.49    3.80
   7   5  -6   77.69    7.10
  -7  -5   6   66.69    5.30
   7  -5  -6   65.89    3.20
   7  -5  -6   66.19    3.50
   7   5  -5   69.69    3.40
   7   5  -5   65.29    6.40
   7   5  -5   76.69    3.60
  -7  -5   5   66.79    5.10
   7  -5  -5   73.99    3.50
   7  -5  -5   73.89    2.90
   7  -5  -5   73.89    2.80
   7   5  -4  248.28   11.40
   7   5  -4  250.97    7.30
   7  -5  -4  247.08    8.40
  -7  -5   4  238.88    9.00
   7   5  -3    5.60    3.80
   7  -5  -3   10.30    2.40
  -7  -5   3    4.80    2.30
   7   5  -2  481.05   16.90
   7  -5  -2  475.85   15.00
  -7  -5   2  464.35   14.30
  -7  -5   1    4.90    1.90
  -7  -5   1    6.60    2.10
  -7  -5   0   23.80    2.70
   7  -5   1    7.00    1.30
   7  -5   1    5.20    1.30
  -7  -5  -1    5.00    2.00
  -7  -5  -2    0.20    1.90
   7  -5   2    0.20    1.50
   7  -5   2   -2.00    1.40
  -7  -5  -3   37.90    3.40
   7  -5   3   28.70    2.70
   7  -5   4   79.39    4.90
  -7  -5  -4   86.39    5.50
   7  -5   5  147.69    6.90
  -7  -5  -5  139.19    7.00
  -7  -5  -6  139.69    7.50
   7  -5   6  149.39    7.50
  -7  -5  -7   29.70    4.20
   7  -5   7   24.50    4.10
   7  -5   8  477.05   16.80
  -7  -5  -8  483.25   16.50
  -7   5  -9   17.60    2.20
   7  -5   9   18.20    4.60
  -7  -5  -9   10.80    4.10
  -7   5 -10    5.40    2.20
  -7  -5 -10    5.70    4.20
   7  -5  10    9.30    4.50
  -7   5 -11   75.59    4.80
   7  -5  11   70.49    7.50
  -7  -5 -11   73.09    7.10
   7  -5  12   29.80    6.00
  -7  -5 -12   19.00    5.50
   7   6 -14    5.20    3.10
  -7  -6  14   -0.90    4.70
   7  -6 -14   -6.70    3.60
   7   6 -13  114.19    6.40
  -7  -6  13  128.39    9.80
   7  -6 -13  129.49    8.20
   7   6 -12   33.40    3.80
   7  -6 -12   42.40    4.90
  -7  -6  12   33.80    5.70
   7   6 -11    7.30    2.80
  -7  -6  11   15.90    4.70
   7  -6 -11    6.20    3.10
   7   6 -10   62.79    4.60
   7  -6 -10   68.09    5.10
  -7  -6  10   63.99    6.20
   7   6  -9   22.20    5.20
   7   6  -9   29.90    2.90
   7   6  -9   23.30    2.50
  -7  -6   9   26.10    4.30
   7  -6  -9   27.70    3.40
   7   6  -8  257.17    8.40
   7   6  -8  277.57    8.50
   7   6  -8  278.57   13.10
  -7  -6   8  269.27   11.00
   7  -6  -8  272.27    9.20
   7   6  -7   35.20    6.00
  -7  -6   7   29.60    4.00
   7  -6  -7   32.90    2.60
   7   6  -6  244.98   11.90
   7  -6  -6  235.38    7.00
  -7  -6   6  231.08    9.30
   7   6  -5    3.50    4.00
   7  -6  -5    7.10    2.00
  -7  -6   5    2.60    2.40
   7   6  -4   95.59    8.20
  -7  -6   4   99.99    5.50
   7  -6  -4  101.39    5.30
   7   6  -3    9.00    4.20
  -7  -6   3   10.90    2.50
   7  -6  -3   14.40    2.90
   7   6  -2  381.26   14.60
  -7  -6   2  386.06   12.00
   7  -6  -2  379.96   13.10
   7   6  -1   20.20    3.30
  -7  -6   0  128.89    5.60
  -7  -6  -1    1.50    1.90
   7  -6   2   12.20    1.80
   7  -6   2   14.80    1.80
  -7  -6  -2   18.70    2.60
   7  -6   3   43.30    3.40
  -7  -6  -3   44.20    3.70
   7  -6   4   56.89    4.30
  -7  -6  -4   60.99    5.00
   7  -6   5  255.07    9.50
  -7  -6  -5  255.57    9.80
   7  -6   6   12.60    3.30
  -7  -6  -6   15.50    3.40
   7  -6   7    6.10    3.30
  -7  -6  -7    6.20    3.40
  -7  -6  -8    2.00    3.70
   7  -6   8    1.00    3.30
  -7  -6  -9    2.70    4.00
   7  -6   9    3.80    3.80
   7  -6  10   -6.20    3.70
  -7  -6 -10    2.60    4.00
   7  -6  11   -1.00    4.40
  -7  -6 -11    0.00    4.10
   7  -6  12   95.09    8.60
  -7  -6 -12   83.79    7.60
  -7  -7  14    0.00    5.10
   7  -7 -14   12.80    4.40
   7  -7 -13    3.10    3.70
  -7  -7  13   -4.30    4.60
   7  -7 -12   15.20    3.80
  -7  -7  12    6.40    4.70
  -7  -7  11   18.40    4.70
   7  -7 -11   26.80    3.80
  -7  -7  10    4.60    4.00
   7  -7 -10    3.00    2.70
   7   7  -9  242.98   13.10
  -7  -7   9  241.68   10.90
   7  -7  -9  229.08    8.60
   7   7  -8   27.20    5.90
  -7  -7   8   28.80    4.30
   7   7  -7  103.29    8.70
   7  -7  -7  103.69    4.10
   7  -7  -7   99.99    4.60
  -7  -7   7   99.49    6.70
   7   7  -6   14.30    5.00
  -7  -7   6   16.30    3.30
   7   7  -5   24.80    5.50
   7  -7  -5   33.50    3.40
  -7  -7   5   30.10    3.60
   7   7  -4   40.10    6.00
   7  -7  -4   47.30    4.30
  -7  -7   4   43.80    3.80
   7   7  -3    5.60    3.60
  -7  -7   3   26.10    2.90
   7  -7  -3   24.80    3.60
   7   7  -1  183.88   10.20
  -7  -7   1  206.28    7.40
   7   7   0  776.12   25.60
  -7  -7   0  766.72   21.90
  -7  -7  -1   17.90    2.50
   7  -7   2   19.10    1.60
  -7  -7  -2   20.50    2.70
   7  -7   2   18.60    1.70
   7  -7   3    1.60    1.70
  -7  -7  -3   -0.80    2.10
   7  -7   4    5.50    2.20
  -7  -7  -4    9.30    2.70
  -7  -7  -5  232.98    9.30
   7  -7   5  222.38    8.90
   7  -7   6    8.90    3.10
  -7  -7  -6    2.70    3.00
   7  -7   7   66.69    5.70
  -7  -7  -7   69.79    5.60
   7  -7   8   15.20    4.20
  -7  -7  -8    9.80    4.00
  -7  -7  -9    3.70    4.00
   7  -7   9    4.00    3.90
  -7  -7 -10    5.30    4.40
   7  -7  10    2.70    4.20
  -7  -7 -11   48.40    6.20
   7  -7  11   45.90    6.40
  -7  -8  13    8.60    5.40
   7  -8 -13   10.30    3.90
  -7  -8  12   -1.40    4.40
   7  -8 -12   -4.70    3.00
   7  -8 -11   50.59    4.80
  -7  -8  11   54.39    6.70
   7  -8 -10   29.60    3.70
  -7  -8  10   33.00    5.30
   7   8  -9   54.29    7.90
   7  -8  -9   59.99    4.40
  -7  -8   9   63.79    6.20
   7   8  -8   -1.40    5.20
  -7  -8   8    8.80    3.60
   7  -8  -8    2.00    1.90
   7   8  -7   31.80    6.50
  -7  -8   7   28.90    4.30
   7   8  -6  239.18   13.20
  -7  -8   6  225.88    9.40
   7   8  -5  155.78   10.40
  -7  -8   5  165.78    7.40
   7   8  -4   83.29    8.50
  -7  -8   4   97.99    5.50
   7   8  -3   -2.00    2.20
  -7  -8   3   10.90    2.50
   7   8  -1   48.70    7.10
  -7  -8   1   42.40    3.40
   7   8   0  143.39   10.10
  -7  -8   0  132.29    5.80
   7   8   1  312.87   14.80
  -7  -8  -1  329.67   10.50
   7   8   2   25.40    5.50
  -7  -8  -2   31.10    3.20
  -7  -8  -3   29.20    3.20
   7  -8   3   28.80    2.50
   7  -8   4    9.50    2.40
  -7  -8  -4    5.90    2.80
   7  -8   5    6.70    2.70
  -7  -8  -5   13.50    3.30
   7  -8   6   25.80    3.80
  -7  -8  -6   26.40    3.90
   7  -8   7   33.70    4.50
  -7  -8  -7   29.60    4.20
  -7  -8  -8   36.60    5.10
   7  -8   8   29.40    4.90
   7  -8   9   24.90    4.90
  -7  -8  -9   15.30    4.70
   7  -8  10   35.30    5.90
  -7  -8 -10   40.50    6.00
  -7  -8 -11   10.00    4.70
  -7  -9  12   68.29    7.40
  -7  -9  11   44.20    6.40
  -7  -9  10   80.89    7.40
   7   9  -9  148.89   12.10
  -7  -9   9  139.59    9.00
   7   9  -8   36.10    7.10
  -7  -9   8   34.40    4.90
   7   9  -7   16.20    6.00
  -7  -9   7   28.70    4.30
   7   9  -6   78.69    9.10
  -7  -9   6   99.39    6.60
   7   9  -5   55.89    7.50
  -7  -9   5   68.99    5.40
   7   9  -4   46.60    6.80
  -7  -9   4   45.20    4.00
   7   9  -3   -4.20    3.40
  -7  -9   3    6.20    2.50
   7   9  -2   40.80    6.60
  -7  -9   2   35.50    3.40
   7   9  -1    3.30    4.90
  -7  -9   1    6.80    2.30
   7   9   0  175.68   11.70
  -7  -9   0  188.08    7.10
   7   9   1  101.79    9.10
  -7  -9  -1   94.29    5.00
   7   9   2   35.00    6.60
  -7  -9  -2   27.80    3.20
   7   9   3  120.79    9.80
   7  -9   3  120.39    4.90
  -7  -9  -3  127.09    6.20
   7  -9   4   18.40    2.80
  -7  -9  -4   16.90    3.10
   7  -9   5  235.28    9.20
  -7  -9  -5  237.88    9.50
  -7  -9  -6    1.50    3.20
   7  -9   6    2.70    2.90
  -7  -9  -7   49.20    5.10
   7  -9   7   57.79    5.60
  -7  -9  -8   -0.30    3.60
   7  -9   8    4.30    3.80
   7  -9   9   26.20    5.30
  -7  -9  -9   11.50    4.70
   7  -9  10   10.90    4.90
  -7  -9 -10   12.40    4.90
  -7 -10  11   13.00    5.10
  -7 -10  10   27.30    5.30
   7  10  -9   44.50    8.40
  -7 -10   9   50.99    5.90
   7  10  -8    6.30    5.70
  -7 -10   8    9.70    4.00
   7  10  -7  125.59   11.70
  -7 -10   7  129.69    8.00
   7  10  -6    5.40    5.90
  -7 -10   6    5.90    3.20
   7  10  -5  646.54   24.50
  -7 -10   5  641.64   19.90
   7  10  -4   10.20    5.10
  -7 -10   4   13.80    3.10
   7  10  -3  150.98   11.50
  -7 -10   3  160.48    7.00
   7  10  -2   74.29    8.80
  -7 -10   2   76.59    4.90
   7  10  -1  191.68   12.50
  -7 -10   1  152.98    6.60
   7  10   0   35.10    7.10
  -7 -10   0   21.20    2.80
   7  10   1   -2.30    5.30
  -7 -10  -1    5.40    2.30
   7  10   2    7.70    5.90
  -7 -10  -2    3.80    2.50
   7  10   3    4.80    6.10
  -7 -10  -3    5.90    2.70
   7  10   4   -0.70    5.60
  -7 -10  -4    1.80    2.70
   7  10   5   52.49    8.10
  -7 -10  -5   63.09    5.00
   7  10   6    3.20    5.90
  -7 -10  -6    6.30    3.50
   7 -10   6    1.90    3.10
   7 -10   7    2.40    3.40
  -7 -10  -7   -2.00    3.40
   7 -10   8    0.50    3.60
  -7 -10  -8    9.20    4.00
   7 -10   9   -6.30    3.60
  -7 -10  -9    3.90    4.20
  -7 -11  10  104.59    8.50
   7  11  -9   -0.30    6.60
  -7 -11   9    8.50    4.30
   7  11  -8   21.70    7.40
  -7 -11   8   21.10    4.70
   7  11  -7    6.80    6.70
  -7 -11   7    6.70    3.70
   7  11  -6    5.80    5.80
  -7 -11   6    2.60    3.20
   7  11  -5   10.70    6.00
  -7 -11   5   10.10    3.20
   7  11  -4  147.79   12.00
  -7 -11   4  148.49    7.30
   7  11  -3   23.20    6.80
  -7 -11   3   19.90    3.20
   7  11  -2   24.60    7.10
  -7 -11   2   20.10    3.10
   7  11  -1    5.70    6.30
  -7 -11   1    4.00    3.90
   7  11   0   85.49   10.10
   7  11   1   32.20    7.30
   7  11   2   51.59    8.70
   7  11   3   58.59    8.60
   7  11   4    1.70    6.40
   7  11   5   41.50    8.40
   7  11   6   61.49    9.20
   7  11   7   16.50    7.30
   7  11   8    7.30    6.80
   7  12  -9    2.90    7.50
  -7 -12   9    4.00    4.40
   7  12  -8   -3.90    6.50
  -7 -12   8   -5.10    4.10
   7  12  -7    6.20    6.50
   7  12  -6    4.10    5.90
   7  12  -5    5.80    6.30
   7  12  -4   19.80    7.30
   7  12  -3    6.50    6.80
   7  12  -2    2.10    6.90
   7  12  -1   36.90    8.10
   7  12   0    4.50    6.20
   7  12   1   31.80    8.50
   7  12   2   -0.30    6.30
   7  12   3   22.80    7.30
   7  12   4   -1.20    6.10
   7  12   5   37.50    8.30
   7  12   6    6.00    7.40
   7  13  -7    9.50    7.00
   7  13  -6   18.90    8.00
   7  13  -5   13.60    7.50
   7  13  -4    5.90    6.50
   7  13  -3   10.00    7.10
   7  13  -2   25.80    8.30
   7  13  -1   45.90    9.70
   7  13   0   71.59   10.60
   7  13   1   40.40    8.60
   7  13   2    7.20    7.10
   7  13   3   -6.60    6.60
   7  13   4   32.60    8.70
   7  14  -3  117.39   13.60
   7  14  -2   11.90    7.40
   7  14  -1   -2.00    7.20
   7  14   0    4.90    7.90
   8   0 -16   16.30    4.90
  -8   0  16   20.70    4.80
   8   0 -15   -0.50    4.00
  -8   0  15    4.40    4.00
   8   0 -14   19.90    4.40
  -8   0  14   30.30    5.00
   8   0 -13    3.70    3.50
  -8   0  13    3.40    3.70
  -8   0  12  436.76   15.20
  -8   0  11   -0.40    2.30
   8   0 -11   -1.60    2.80
  -8   0  11    0.60    3.10
  -8   0  10   97.49    6.50
   8   0 -10  105.09    6.40
  -8   0   9    0.80    2.60
   8   0  -9    0.00    2.30
  -8   0   8  784.12   22.40
   8   0  -8  785.82   22.90
  -8   0   8  775.42   22.80
   8   0  -7   -1.00    2.10
   8   0  -7    1.90    2.00
  -8   0   7    0.10    1.70
  -8   0   7   -1.80    2.10
  -8   0   6   11.20    2.10
  -8   0   6   12.20    2.50
   8   0  -6   14.70    2.50
   8   0  -6   15.50    2.60
   8   0  -5    0.70    1.80
   8   0  -5   -0.30    1.40
   8   0  -5   -1.00    2.20
  -8   0   5   -1.40    1.90
  -8   0   5    0.20    1.30
  -8   0   4 1934.41   57.39
   8   0  -4 2286.67   57.89
  -8   0   4 2191.38   57.69
   8   0  -4 2214.58   57.89
  -8   0   3   -1.40    1.80
  -8   0   3    1.40    1.50
   8   0  -3   -0.40    1.80
   8   0  -3    0.00    1.10
  -8   0   2   46.80    3.70
   8   0  -2   46.20    3.60
  -8   0   2   52.79    3.20
   8   0  -1   -0.20    1.10
  -8   0   1   -0.50    1.40
   8   0  -1   -1.10    1.80
  -8   0   1   -2.30    1.90
   8   0   0 1028.10   28.10
   8   0   0 1013.20   28.20
  -8   0   0 1017.20   28.10
  -8   0  -1    1.00    2.20
   8   0   1   -0.70    1.70
  -8   0  -1    1.20    1.50
   8   0   1    0.90    1.90
   8   0   2    2.40    2.00
   8   0   2    4.60    1.80
  -8   0  -2   -0.60    2.10
  -8   0  -2    0.50    1.60
   8   0   3   -0.80    2.10
  -8   0  -3   -2.50    2.20
  -8   0  -3   -0.90    1.60
   8   0   4  167.88    7.00
  -8   0  -4  148.29    6.80
  -8   0  -5    0.60    2.40
   8   0   5   -1.90    2.30
  -8   0  -6    8.00    2.90
   8   0   6   10.20    3.00
   8   0   7   -1.80    2.70
  -8   0  -7   -2.00    2.90
   8   0   8    2.70    3.10
  -8   0  -8   -2.20    3.00
   8   0   9    0.60    3.20
  -8   0  -9    2.00    3.50
  -8   0 -10  113.09    8.30
   8   0  10  126.59    8.50
   8   0  11   -1.60    3.70
  -8   0 -11    0.70    4.20
   8   0  12  126.49    9.00
  -8   0 -12  119.29    9.20
  -8   0 -13   -5.80    4.60
   8   0  13   -2.90    4.00
  -8   1  16   36.00    4.70
   8   1 -16   24.20    5.20
   8  -1 -16   33.10    5.70
  -8  -1  16   25.20    5.30
  -8   1  15   65.49    5.60
   8   1 -15   53.19    6.10
  -8  -1  15   48.30    6.10
   8  -1 -15   53.69    6.00
  -8   1  14   16.30    4.00
   8   1 -14   17.90    4.30
  -8  -1  14   22.60    5.00
   8  -1 -14   16.40    4.50
   8   1 -13   42.80    5.10
  -8   1  13   57.49    5.10
   8  -1 -13   42.00    5.10
  -8  -1  13   36.00    5.20
  -8   1  12   64.09    5.20
   8   1 -12   43.10    4.80
  -8  -1  12   74.39    6.30
   8  -1 -12   67.29    5.90
  -8   1  11  100.09    5.30
   8   1 -11   93.49    6.50
  -8   1  11  109.49    6.30
  -8  -1  11   92.79    7.00
   8  -1 -11  100.69    6.90
  -8   1  10   12.90    2.50
   8   1 -10   18.70    3.40
  -8   1  10   16.50    3.00
  -8  -1  10   13.40    3.30
   8  -1 -10   10.10    3.10
  -8  -1  10    7.70    3.30
   8   1  -9  234.88    9.20
  -8   1   9  242.28    8.80
   8  -1  -9  249.28    9.40
  -8  -1   9  230.58    9.60
  -8   1   8   36.00    3.30
   8   1  -8   37.50    3.80
   8   1  -8   38.10    3.90
  -8  -1   8   24.60    3.40
   8  -1  -8   33.60    3.50
  -8   1   7  482.05   14.60
  -8   1   7  504.75   14.40
   8   1  -7  478.35   15.50
   8   1  -7  485.55   15.10
   8  -1  -7  502.35   15.10
  -8  -1   7  483.15   15.40
   8  -1  -7  500.45   14.10
   8   1  -6  341.47   11.60
  -8   1   6  343.77   10.60
   8   1  -6  346.47   11.10
  -8   1   6  341.67   10.40
  -8  -1   6  324.57   10.70
  -8  -1   6  334.97   10.80
   8  -1  -6  346.37   11.00
  -8  -1   6  337.97   11.40
   8  -1  -6  339.47   10.30
   8   1  -5   15.80    2.50
   8   1  -5   14.40    3.10
   8   1  -5   17.00    2.50
  -8   1   5   15.90    2.20
  -8   1   5   12.40    2.00
   8  -1  -5   13.00    2.30
  -8  -1   5   16.10    2.80
   8  -1  -5   15.10    3.00
  -8  -1   5   15.90    2.20
   8   1  -4  433.06   13.20
  -8   1   4  426.26   12.50
  -8   1   4  429.76   12.60
   8   1  -4  434.76   13.10
  -8  -1   4  426.96   12.90
  -8  -1   4  425.66   13.20
   8  -1  -4  433.06   13.00
   8  -1  -4  440.06   13.00
  -8   1   3 1201.98   32.40
   8   1  -3 1221.98   33.00
   8   1  -3 1211.48   33.10
  -8   1   3 1208.88   32.50
  -8  -1   3 1181.58   33.00
   8  -1  -3 1228.18   32.90
  -8  -1   3 1171.38   32.80
   8  -1  -3 1198.58   32.80
   8   1  -2  346.97   10.80
   8   1  -2  333.87   10.70
  -8   1   2  350.06   10.30
  -8   1   2  358.96   10.30
   8  -1  -2  348.17   10.60
  -8  -1   2  337.27   10.90
   8  -1  -2  343.57   10.60
   8   1  -1   38.30    3.00
   8   1  -1   31.60    2.80
  -8   1   1   42.60    3.00
  -8   1   1   40.50    3.40
  -8  -1   1   36.30    3.00
  -8  -1   1   36.60    3.10
   8  -1  -1   40.90    3.30
   8  -1  -1   44.40    3.10
   8   1   0  200.58    7.30
   8   1   0  213.78    7.10
  -8   1   0  205.58    6.70
  -8   1   0  192.28    6.90
   8  -1   0  195.88    7.20
   8  -1   0  199.58    7.00
  -8  -1   0  209.28    7.50
  -8  -1   0  196.38    7.00
   8   1   1    1.60    1.70
   8   1   1    0.50    2.00
  -8   1  -1    2.10    1.90
  -8   1  -1    2.50    1.50
  -8  -1  -1    3.10    2.20
   8  -1   1    0.80    1.20
  -8  -1  -1    1.00    1.50
   8  -1   1    1.50    1.90
  -8   1  -2   55.49    3.50
  -8   1  -2   72.09    4.30
   8   1   2   61.39    4.10
   8   1   2   66.39    4.50
  -8  -1  -2   73.49    4.00
  -8  -1  -2   74.29    4.90
   8  -1   2   66.89    4.40
   8   1   3   31.60    3.20
  -8   1  -3   31.20    3.00
  -8   1  -3   22.80    2.50
   8   1   3   31.00    3.00
   8  -1   3   21.30    2.90
  -8  -1  -3   32.50    3.30
  -8   1  -4    4.00    1.90
  -8   1  -4    3.70    2.40
   8   1   4    7.30    2.50
  -8  -1  -4    5.50    2.60
   8  -1   4    5.50    2.40
  -8   1  -5  225.88    8.50
   8   1   5  216.98    8.70
  -8   1  -5  224.28    9.00
   8  -1   5  220.48    8.80
  -8  -1  -5  203.68    8.70
  -8   1  -6   -2.00    2.60
   8   1   6    6.80    2.80
  -8  -1  -6    2.30    2.70
   8  -1   6   -0.30    2.70
   8   1   7    0.30    2.80
  -8   1  -7   -3.10    2.80
  -8  -1  -7   -2.20    2.80
   8  -1   7    3.30    3.00
   8   1   8    9.20    3.30
  -8   1  -8   10.50    3.60
  -8  -1  -8   11.80    3.70
   8  -1   8    7.80    3.60
  -8   1  -9    9.10    3.70
   8   1   9    8.70    3.70
  -8  -1  -9    4.50    3.90
   8  -1   9    2.20    3.50
   8   1  10    6.60    3.80
  -8   1 -10    5.60    3.90
  -8  -1 -10    0.00    3.80
   8  -1  10    5.50    3.90
  -8   1 -11    4.90    4.30
   8   1  11    5.30    3.90
   8  -1  11   14.20    4.50
  -8  -1 -11   18.90    4.90
   8   1  12   13.80    4.40
  -8   1 -12   15.80    4.80
   8  -1  12   14.40    5.00
  -8  -1 -12   11.80    4.80
  -8   1 -13  100.99    8.20
   8   1  13   98.19    8.30
   8  -1  13   82.29    7.70
  -8  -1 -13  114.89    9.60
   8   2 -16   20.30    5.00
   8  -2 -16   23.90    5.50
  -8  -2  16   36.10    6.40
   8   2 -15   23.00    5.10
  -8   2  15   37.90    3.80
   8  -2 -15   20.00    5.20
  -8  -2  15   25.00    5.50
  -8   2  14   23.10    3.40
   8   2 -14   23.00    4.50
   8  -2 -14   21.60    4.90
  -8  -2  14   21.30    5.10
   8   2 -13   14.80    3.80
  -8   2  13   19.10    3.10
   8  -2 -13   10.80    4.00
  -8  -2  13   16.60    4.50
   8   2 -12  268.27   11.10
  -8   2  12  264.17    9.40
   8  -2 -12  264.57   11.30
  -8  -2  12  283.97   12.00
  -8   2  11   55.89    4.40
  -8   2  11   50.69    3.70
   8   2 -11   65.79    5.30
   8  -2 -11   58.19    5.30
   8  -2 -11   71.39    5.60
  -8  -2  11   66.79    6.00
  -8   2  10  327.67   10.10
  -8   2  10  325.07   10.40
   8   2 -10  331.17   11.70
   8  -2 -10  308.17   11.70
   8  -2 -10  322.57   11.70
  -8  -2  10  321.57   12.30
  -8   2   9   16.10    2.40
   8   2  -9   10.80    2.80
  -8   2   9   14.90    2.10
  -8  -2   9   14.40    3.40
   8  -2  -9   16.30    3.10
   8  -2  -9   13.10    3.00
   8   2  -8    5.30    2.40
  -8   2   8   11.30    1.90
   8   2  -8   10.40    3.30
  -8   2   8    8.90    2.00
  -8  -2   8    9.80    3.00
   8  -2  -8   10.90    2.70
   8  -2  -8    9.90    2.70
   8   2  -7  296.67   10.30
  -8   2   7  310.27    9.30
  -8   2   7  306.47    9.10
   8   2  -7  300.37   11.20
   8  -2  -7  297.27   10.20
  -8  -2   7  297.77   10.80
   8   2  -6  141.29    7.00
  -8   2   6  131.99    4.80
   8   2  -6  138.69    6.10
   8   2  -6  129.69    5.90
  -8   2   6  135.79    4.70
   8  -2  -6  139.99    5.90
  -8  -2   6  129.99    6.60
   8  -2  -6  134.39    4.20
   8   2  -5  308.67   10.30
  -8   2   5  314.87    9.10
   8   2  -5  315.17   11.60
   8   2  -5  315.57   10.50
  -8   2   5  318.57    9.10
   8  -2  -5  311.37   10.10
  -8  -2   5  310.67   10.80
  -8  -2   5  393.66   13.20
   8  -2  -5  312.77   10.20
   8   2  -4  192.58    7.30
   8   2  -4  208.28    7.40
  -8   2   4  199.08    6.00
  -8   2   4  200.68    6.00
   8   2  -4  202.38    8.60
  -8  -2   4  195.18    7.70
  -8  -2   4  202.78    7.20
   8  -2  -4  201.18    7.00
   8  -2  -4  201.18    6.90
   8   2  -3 1362.66   37.30
  -8   2   3 1376.16   36.20
   8  -2  -3 1369.66   37.00
  -8  -2   3 1383.96   37.60
   8  -2  -3 1354.26   37.00
  -8   2   2  203.68    6.00
  -8   2   2  198.88    6.00
   8   2  -2  204.68    7.30
   8  -2  -2  203.88    6.90
  -8  -2   2  205.88    7.50
   8  -2  -2  201.18    6.90
  -8  -2   2  209.48    7.10
   8   2  -1   23.30    2.60
  -8   2   1   21.10    1.70
  -8   2   1   19.50    1.50
  -8  -2   1   19.90    2.20
   8  -2  -1   20.60    2.30
  -8  -2   1   17.90    2.70
   8  -2  -1   21.90    2.30
  -8   2   0  127.09    4.70
  -8   2   0  131.29    4.60
   8   2   0  135.29    5.60
  -8  -2   0  129.69    5.20
   8  -2   0  132.19    5.30
   8  -2   0  132.19    5.20
  -8  -2   0  133.29    5.90
  -8   2  -1   21.50    2.20
   8   2   1   19.60    2.50
  -8   2  -1   22.90    2.10
   8  -2   1   20.40    2.30
  -8  -2  -1   18.20    2.80
   8  -2   1   21.70    2.60
  -8  -2  -1   18.30    2.20
  -8   2  -2  159.98    5.60
  -8   2  -2  137.99    5.70
   8   2   2  158.08    6.40
   8   2   2  153.98    6.00
   8  -2   2  156.18    6.30
  -8  -2  -2  153.78    6.60
  -8   2  -3   58.59    3.40
   8   2   3   54.39    3.80
   8   2   3   52.19    4.40
  -8   2  -3   53.09    4.10
  -8  -2  -3   62.29    4.70
   8  -2   3   55.29    4.50
  -8   2  -4    2.10    1.50
   8   2   4    3.60    2.30
   8   2   4   -1.20    1.80
  -8   2  -4    0.80    2.20
   8  -2   4    1.80    2.30
  -8  -2  -4    0.50    2.60
   8   2   5    1.80    2.40
  -8   2  -5   -0.50    1.70
   8   2   5    0.00    2.10
  -8   2  -5    1.20    2.40
  -8  -2  -5    0.00    2.70
   8  -2   5   -2.00    2.40
   8   2   6  456.55   14.60
  -8   2  -6  448.16   14.10
  -8   2  -6  425.76   13.80
   8  -2   6  438.46   14.90
  -8  -2  -6  442.46   14.70
  -8   2  -7   51.19    4.40
   8   2   7   44.10    4.40
  -8  -2  -7   41.20    4.60
   8  -2   7   38.70    4.50
  -8   2  -8   27.10    4.00
   8   2   8   22.00    3.80
   8  -2   8   25.70    4.40
  -8  -2  -8   19.10    4.00
   8   2   9   88.59    6.70
  -8   2  -9   82.49    6.90
   8  -2   9   86.89    6.90
  -8  -2  -9   73.49    6.40
  -8   2 -10    1.20    3.70
   8   2  10    3.00    3.40
   8  -2  10    0.30    3.90
  -8  -2 -10    5.10    4.20
  -8   2 -11  181.18    9.60
   8   2  11  172.38    9.10
  -8  -2 -11  158.78    9.90
   8  -2  11  162.08   10.20
  -8   2 -12   49.00    5.80
   8   2  12   41.70    5.30
  -8  -2 -12   35.10    5.90
   8  -2  12   43.10    6.30
   8   2  13    3.20    3.90
  -8   2 -13    7.10    4.60
   8  -2  13    2.90    4.70
  -8  -2 -13    2.30    4.80
   8   3 -15   15.00    4.60
   8  -3 -15   14.30    4.90
  -8  -3  15   20.10    5.50
   8  -3 -15   16.10    5.00
   8   3 -14   10.80    4.10
   8  -3 -14   15.50    4.50
   8  -3 -14   16.40    4.20
  -8  -3  14   18.20    5.00
   8   3 -13   -1.60    3.30
   8  -3 -13   -1.70    3.50
  -8  -3  13    0.00    3.90
   8   3 -12  221.18    9.80
   8  -3 -12  220.58   10.00
  -8  -3  12  213.58   10.80
   8   3 -11    2.60    3.00
  -8  -3  11    4.80    3.50
   8  -3 -11    2.60    2.90
   8   3 -10   51.29    4.70
  -8  -3  10   39.70    4.90
   8  -3 -10   40.40    4.20
   8   3  -9   -0.20    3.20
   8   3  -9    2.20    2.50
  -8  -3   9    3.80    3.20
   8  -3  -9    5.00    2.60
   8   3  -8   25.00    4.30
   8   3  -8   24.60    3.20
   8  -3  -8   28.80    3.30
  -8  -3   8   29.80    4.00
   8   3  -7   17.50    2.80
   8   3  -7   12.00    2.60
   8   3  -7   11.10    3.60
  -8  -3   7   10.50    3.00
   8  -3  -7   16.10    2.50
   8   3  -6  100.19    5.10
   8   3  -6  102.09    5.10
   8   3  -6   95.99    6.60
   8  -3  -6   96.19    4.80
  -8  -3   6   90.09    5.80
   8   3  -5    1.10    2.00
   8   3  -5   -1.30    1.60
   8   3  -5    0.80    3.20
   8  -3  -5    0.00    1.50
   8  -3  -5    0.10    1.70
  -8  -3   5    2.00    2.30
   8   3  -4  611.64   17.40
   8   3  -4  611.34   19.50
   8  -3  -4  581.14   16.90
   8  -3  -4  604.14   16.90
  -8  -3   4  590.74   17.90
   8   3  -3  712.13   19.70
   8   3  -3  689.73   19.70
   8  -3  -3  683.33   19.20
  -8  -3   3  690.73   20.10
   8  -3  -3  684.83   19.20
   8   3  -2   30.70    2.70
   8   3  -2   31.20    2.70
   8  -3  -2   28.00    2.30
  -8  -3   2   34.50    3.20
   8  -3  -2   32.40    2.70
   8   3  -1  219.48    7.40
   8   3  -1  235.68    7.60
  -8  -3   1  198.58    7.40
   8  -3  -1  223.38    7.10
   8  -3  -1  228.58    7.20
  -8  -3   1  218.18    8.00
   8   3   0  349.47   10.60
   8   3   0  345.87   10.70
  -8  -3   0  338.97   11.10
   8  -3   0  342.27   10.40
   8  -3   0  353.26   10.50
  -8  -3   0  340.07   11.30
   8   3   1   20.00    2.30
   8   3   1   15.80    2.40
  -8  -3  -1   23.90    2.90
   8  -3   1   22.20    2.40
   8  -3   1   22.60    2.40
   8   3   2   20.60    2.30
  -8   3  -2   19.40    1.50
  -8   3  -2   23.50    1.90
   8   3   2   23.70    2.80
  -8  -3  -2   20.80    3.10
   8  -3   2   19.30    2.60
   8   3   3    4.00    1.70
  -8   3  -3    6.00    1.80
   8   3   3    7.40    2.30
  -8   3  -3    4.70    1.50
  -8  -3  -3    7.80    2.70
   8  -3   3    1.60    2.20
  -8   3  -4  871.11   23.00
  -8   3  -4  797.72   22.80
   8   3   4  832.72   23.80
  -8  -3  -4  825.62   24.10
   8  -3   4  811.52   24.00
  -8   3  -5   19.10    2.70
   8   3   5   23.90    2.70
  -8   3  -5   22.50    2.40
   8   3   5   23.40    3.10
  -8  -3  -5   20.80    3.50
   8  -3   5   22.00    3.40
  -8   3  -6   23.00    2.50
   8   3   6   28.50    3.00
  -8   3  -6   25.90    3.20
   8   3   6   26.80    3.50
  -8  -3  -6   25.80    3.90
   8  -3   6   23.20    3.60
  -8   3  -7   37.20    3.90
   8   3   7   27.10    3.10
  -8   3  -7   23.10    2.80
   8   3   7   40.80    4.00
  -8  -3  -7   28.80    4.30
   8  -3   7   34.70    4.40
   8   3   8   90.19    6.10
  -8   3  -8  100.59    6.40
   8   3   8   79.59    7.50
  -8   3  -8   93.29    5.30
  -8  -3  -8   89.79    7.20
   8  -3   8   97.99    7.20
   8   3   9   24.90    3.90
  -8   3  -9   26.50    4.20
   8  -3   9   21.60    4.50
  -8  -3  -9   29.70    4.80
  -8   3 -10    9.40    3.80
   8   3  10    9.10    3.50
  -8  -3 -10    5.70    4.40
   8  -3  10   17.80    4.80
  -8   3 -11   12.40    4.30
  -8   3 -11   13.00    3.80
   8   3  11   11.50    3.70
  -8  -3 -11   15.60    5.00
   8  -3  11    9.30    4.70
   8   3  12   22.00    4.20
  -8   3 -12   20.40    4.30
   8  -3  12   15.80    5.30
  -8  -3 -12   24.30    5.70
   8   4 -15    4.30    3.90
  -8  -4  15    5.70    4.90
   8  -4 -15    4.60    4.20
   8   4 -14   64.39    5.90
   8  -4 -14   51.69    5.90
  -8  -4  14   57.39    6.70
   8   4 -13   -1.80    3.20
   8  -4 -13    3.40    3.60
  -8  -4  13   -1.20    4.00
   8   4 -12   13.40    3.50
   8  -4 -12   14.20    3.80
  -8  -4  12   15.70    4.50
   8   4 -11  114.69    6.80
   8  -4 -11  119.39    7.30
  -8  -4  11  121.59    8.50
   8   4 -10  145.19    7.20
  -8  -4  10  150.88    8.70
   8  -4 -10  146.19    7.40
   8   4  -9  583.24   17.50
   8   4  -9  554.24   19.60
  -8  -4   9  567.64   18.60
   8  -4  -9  561.14   17.40
   8   4  -8   33.80    3.50
   8   4  -8   35.70    3.50
   8   4  -8   35.20    5.20
  -8  -4   8   33.50    4.20
   8  -4  -8   35.00    3.50
   8   4  -7  367.06   11.70
   8   4  -7  370.36   14.10
   8   4  -7  361.16   11.80
  -8  -4   7  357.76   12.80
   8  -4  -7  362.26   11.50
   8   4  -6   57.39    5.90
   8   4  -6   66.89    4.30
  -8  -4   6   62.29    5.20
   8  -4  -6   63.59    3.90
   8   4  -5  318.97   10.00
   8   4  -5  316.97   10.00
   8   4  -5  308.37   12.50
   8  -4  -5  297.67    9.40
  -8  -4   5  301.77   10.80
   8  -4  -5  307.97    9.30
   8  -4  -5  300.47    9.10
   8   4  -4  181.98    6.70
   8   4  -4  190.88    9.50
   8   4  -4  181.18    6.60
   8  -4  -4  180.48    6.00
   8  -4  -4  187.88    6.00
  -8  -4   4  189.58    7.60
   8   4  -3  184.48    6.50
   8   4  -3  182.68    6.50
   8   4  -3  177.08    9.40
   8  -4  -3  185.58    5.80
  -8  -4   3  176.58    7.30
   8  -4  -3  186.68    5.80
   8   4  -2  220.98    7.30
   8   4  -2  217.68    7.30
   8  -4  -2  222.88    6.70
  -8  -4   2  218.88    8.20
   8  -4  -2  232.48    6.80
   8   4  -1   48.40    3.10
   8   4  -1   48.80    3.30
   8  -4  -1   44.10    2.70
   8  -4  -1   42.50    2.70
  -8  -4   1   52.49    4.10
   8   4   0  371.86   10.90
   8   4   0  371.16   10.80
   8  -4   0  370.36   10.70
  -8  -4   0  349.17   11.50
   8  -4   0  350.86   10.60
   8   4   1  120.49    4.90
   8   4   1  113.99    4.60
   8  -4   1  119.49    4.80
   8  -4   1  115.19    4.70
  -8  -4  -1  113.59    5.70
   8   4   2   -0.70    1.60
   8   4   2   -0.20    1.70
  -8  -4  -2   -1.50    2.20
   8  -4   2    2.70    1.80
   8   4   3   20.10    2.40
   8   4   3   17.40    2.20
  -8  -4  -3   21.30    3.20
   8  -4   3   24.50    2.80
   8   4   4  113.29    5.30
   8   4   4  117.39    4.90
   8  -4   4  111.69    5.90
  -8  -4  -4  120.69    6.40
   8   4   5   26.20    2.60
   8   4   5   28.90    3.10
  -8   4  -5   27.40    1.90
   8  -4   5   29.20    3.60
  -8  -4  -5   26.70    3.60
   8   4   6  214.98    7.80
  -8   4  -6  215.28    7.20
   8   4   6  229.18    8.30
  -8   4  -6  238.18    7.50
  -8  -4  -6  238.38    9.80
   8  -4   6  223.68    9.60
   8   4   7  121.69    6.00
   8   4   7  111.19    5.30
  -8   4  -7  122.49    5.50
   8  -4   7  128.99    7.70
  -8  -4  -7  131.29    7.90
   8   4   8  131.49    6.50
  -8   4  -8  129.79    6.10
  -8  -4  -8  141.39    8.50
   8  -4   8  117.59    8.10
  -8   4  -9   11.60    3.00
   8   4   9   13.70    3.10
   8  -4   9    6.50    4.00
  -8  -4  -9   17.90    4.60
  -8   4 -10   65.49    5.50
   8   4  10   68.39    5.40
  -8  -4 -10   70.29    7.00
   8  -4  10   52.99    6.20
  -8   4 -11   14.00    3.40
   8   4  11   15.90    3.30
   8  -4  11   10.40    4.70
  -8  -4 -11   14.50    4.90
   8   4  12    7.00    3.10
  -8   4 -12   -0.90    3.10
   8  -4  12    7.80    5.20
  -8  -4 -12    3.10    4.80
   8   5 -15   17.70    4.30
   8  -5 -15   18.10    5.00
  -8  -5  15   27.80    6.10
   8   5 -14   76.49    6.10
   8  -5 -14   73.59    6.80
  -8  -5  14   90.39    8.50
   8   5 -13    9.10    3.40
  -8  -5  13   20.10    5.20
   8  -5 -13   13.70    4.20
   8   5 -12   16.80    3.60
  -8  -5  12   14.00    4.70
   8  -5 -12   13.10    3.60
   8   5 -11   16.40    3.30
   8  -5 -11   14.40    3.60
  -8  -5  11   20.50    4.90
   8   5 -10   99.29    5.70
   8   5 -10   89.99    8.20
   8   5 -10   83.99    5.30
  -8  -5  10   72.99    6.40
   8  -5 -10   87.59    6.10
   8   5  -9  179.58    7.30
   8   5  -9  174.68   10.20
   8  -5  -9  184.88    7.70
  -8  -5   9  185.08    9.40
   8   5  -8   -3.00    3.80
   8   5  -8   -0.90    1.50
   8   5  -8   -3.00    2.00
  -8  -5   8   -1.70    3.00
   8  -5  -8    0.00    2.20
   8   5  -7   57.79    3.80
   8   5  -7   54.59    4.10
   8   5  -7   52.29    6.00
   8  -5  -7   56.49    3.90
   8   5  -6   39.30    3.10
   8   5  -6   36.60    5.70
   8   5  -6   30.70    2.80
  -8  -5   6   37.10    4.00
   8  -5  -6   36.10    2.80
   8  -5  -6   35.90    3.00
   8   5  -5  108.19    4.70
   8   5  -5  114.79    4.70
   8   5  -5  109.09    8.00
   8  -5  -5  111.99    4.60
  -8  -5   5  106.69    6.20
   8  -5  -5  113.79    4.10
   8  -5  -5  112.79    4.20
   8   5  -4  534.15   14.80
   8   5  -4  503.35   14.70
   8   5  -4  538.35   18.50
   8  -5  -4  501.35   15.60
  -8  -5   4  531.55   16.20
   8  -5  -4  527.55   14.20
   8   5  -3  132.69    4.50
   8   5  -3  139.19    8.80
   8   5  -3  133.19    4.60
  -8  -5   3  126.49    6.20
   8  -5  -3  128.29    6.00
   8   5  -2   56.09    6.20
  -8  -5   2   48.20    3.80
  -8  -5   1  244.28    8.70
  -8  -5   0  418.56   13.00
   8  -5   0  408.36   11.70
   8  -5   0  420.06   11.70
   8  -5   1   11.80    1.80
   8  -5   1   13.30    1.80
  -8  -5  -1   11.80    2.50
  -8  -5  -2   -1.40    2.20
   8  -5   2    0.30    1.70
  -8  -5  -3   22.10    3.20
   8  -5   3   21.90    2.80
  -8  -5  -4   21.10    3.40
   8  -5   4   21.10    3.00
  -8  -5  -5  102.89    6.50
   8  -5   5  104.39    6.10
   8  -5   6  424.16   14.70
  -8  -5  -6  433.96   14.70
   8  -5   7   54.59    5.50
  -8  -5  -7   56.99    5.40
   8  -5   8    2.60    3.60
  -8  -5  -8    3.00    3.70
   8  -5   9   40.00    5.50
  -8  -5  -9   26.40    4.80
  -8  -5 -10  114.39    8.80
   8  -5  10  116.29    9.00
   8  -5  11   -0.10    4.60
  -8  -5 -11    7.20    4.70
   8  -5  12   12.60    5.30
  -8  -5 -12   11.80    5.20
   8   6 -14    7.70    3.30
   8  -6 -14   19.50    4.60
  -8  -6  14   28.60    6.20
   8   6 -13    9.10    3.20
   8  -6 -13    7.70    4.00
  -8  -6  13    9.90    4.90
   8   6 -12    9.10    3.10
   8  -6 -12   13.00    3.70
  -8  -6  12   15.90    5.00
   8   6 -11   21.00    3.40
  -8  -6  11   16.80    4.70
   8  -6 -11   23.30    4.00
   8   6 -10  139.09    6.40
   8   6 -10  155.78   10.50
  -8  -6  10  151.08    9.30
   8  -6 -10  133.89    7.10
   8   6  -9   31.80    2.90
   8   6  -9   25.10    6.30
   8   6  -9   34.30    3.30
   8  -6  -9   32.30    3.50
  -8  -6   9   30.00    4.70
   8   6  -8   -0.50    4.40
   8   6  -8    1.30    1.90
   8   6  -8   -1.70    1.60
  -8  -6   8   -2.60    3.10
   8  -6  -8    1.90    2.10
   8   6  -7    1.60    1.60
   8   6  -7    0.80    1.40
   8   6  -7    3.50    4.40
  -8  -6   7    1.60    2.90
   8  -6  -7    1.30    1.80
   8   6  -6   14.10    4.90
   8  -6  -6   18.20    1.90
   8  -6  -6   18.50    1.80
  -8  -6   6   19.90    3.60
   8   6  -5  191.48   10.50
  -8  -6   5  167.48    7.60
   8  -6  -5  162.38    6.50
   8   6  -4   36.00    5.60
  -8  -6   4   32.30    3.70
   8  -6  -4   35.00    3.60
   8   6  -3   -1.30    4.20
  -8  -6   3    3.10    2.30
   8  -6  -3    4.30    2.40
   8   6  -2  265.47   12.10
  -8  -6   2  270.57    9.50
  -8  -6   0  288.87    9.90
   8  -6   1  148.29    5.20
  -8  -6  -1  160.48    6.60
   8  -6   1  154.08    5.20
   8  -6   2    8.80    1.90
  -8  -6  -2    4.90    2.40
   8  -6   3   92.79    4.90
  -8  -6  -3   98.19    5.70
   8  -6   4    1.60    2.30
  -8  -6  -4    8.00    2.90
   8  -6   5    1.30    2.50
  -8  -6  -5    1.00    3.00
  -8  -6  -6  299.07   11.30
   8  -6   6  279.27   11.10
  -8  -6  -7   98.39    7.40
   8  -6   7   90.89    7.10
  -8  -6  -8   21.90    4.60
   8  -6   8   25.50    4.60
  -8  -6  -9    8.40    4.30
   8  -6   9   12.30    4.50
   8  -6  10   43.10    6.10
  -8  -6 -10   29.10    5.20
   8  -6  11   28.60    6.10
  -8  -6 -11   26.00    5.50
  -8  -7  14   13.30    5.60
   8  -7 -14    0.70    4.00
  -8  -7  13   30.60    6.30
   8  -7 -13   22.20    4.50
   8   7 -12   43.50    3.30
   8  -7 -12   40.80    4.90
  -8  -7  12   44.10    6.30
   8  -7 -11   10.80    3.20
  -8  -7  11   16.90    4.80
   8   7 -10  100.59   10.00
  -8  -7  10   89.29    7.50
   8  -7 -10   76.19    5.60
   8   7  -9   71.79    8.70
   8  -7  -9   83.89    5.10
  -8  -7   9   62.69    6.20
   8   7  -8   39.50    6.80
  -8  -7   8   32.90    4.60
   8   7  -7   11.70    4.90
   8  -7  -7    8.30    1.90
  -8  -7   7    8.50    3.40
   8   7  -6   46.10    6.70
  -8  -7   6   45.80    4.60
   8   7  -5    2.70    4.40
  -8  -7   5    8.20    2.90
   8  -7  -5    5.60    2.40
   8   7  -4  297.67   13.80
  -8  -7   4  322.57   11.10
   8  -7  -4  307.07   11.10
  -8  -7   3  115.39    6.00
   8   7   0   12.40    5.10
  -8  -7   0   20.40    2.90
  -8  -7  -1    3.00    2.30
   8  -7   2   12.40    1.90
  -8  -7  -2   14.10    2.80
   8  -7   3    9.30    2.20
  -8  -7  -3    9.50    2.80
  -8  -7  -4  216.18    8.80
   8  -7   4  210.18    8.20
  -8  -7  -5    2.20    3.10
   8  -7   5    1.30    2.60
   8  -7   6   36.40    4.30
  -8  -7  -6   33.40    4.40
  -8  -7  -7   65.89    5.70
   8  -7   7   74.89    6.20
  -8  -7  -8   -0.10    3.90
   8  -7   8   -1.80    3.40
   8  -7   9    3.50    4.00
  -8  -7  -9    2.60    4.20
   8  -7  10    8.10    4.60
  -8  -7 -10    1.00    4.40
   8  -7  11   40.40    6.50
  -8  -7 -11   29.70    5.60
  -8  -8  13    0.10    4.90
   8  -8 -13    4.30    3.70
  -8  -8  12   35.30    6.50
   8  -8 -12   30.90    4.50
  -8  -8  11   18.20    5.10
   8  -8 -11   12.10    3.40
   8   8 -10   41.20    7.80
  -8  -8  10   37.90    5.60
   8  -8 -10   28.80    3.70
   8   8  -9    7.70    5.50
  -8  -8   9   11.40    4.30
   8  -8  -9   11.80    2.70
   8   8  -8  111.49   10.40
   8  -8  -8   85.89    4.60
  -8  -8   8   96.49    7.60
   8   8  -7   21.10    6.00
  -8  -8   7   25.60    4.20
   8   8  -6    1.70    5.10
  -8  -8   6    3.80    3.10
   8   8  -5  110.79    9.40
  -8  -8   5  120.39    6.70
   8  -8  -5  106.49    6.00
   8   8  -4    0.80    5.10
  -8  -8   4   -1.40    2.40
   8   8  -3    7.80    3.80
  -8  -8   3    0.20    2.40
   8   8  -2    2.20    2.80
  -8  -8   2   -0.70    2.30
   8   8  -1   15.30    4.80
  -8  -8   1   37.80    3.50
   8   8   0   -4.00    4.30
  -8  -8   0    0.80    2.10
   8   8   1  109.09    9.60
  -8  -8  -1  109.19    5.80
  -8  -8  -2    8.20    2.50
   8  -8   2    6.40    1.50
   8  -8   3  127.89    5.60
  -8  -8  -3  139.39    6.80
  -8  -8  -4  540.75   17.10
   8  -8   4  546.05   16.60
  -8  -8  -5   18.40    3.70
   8  -8   5   13.20    3.20
   8  -8   6   39.50    4.50
  -8  -8  -6   36.80    4.50
  -8  -8  -7   28.10    4.60
   8  -8   7   27.90    4.70
   8  -8   8    7.50    4.00
  -8  -8  -8    6.30    4.00
  -8  -8  -9   13.60    4.70
   8  -8   9    4.90    4.30
  -8  -8 -10   12.70    5.00
   8  -8  10   13.80    5.20
  -8  -9  12    6.10    5.00
  -8  -9  11   37.70    6.30
   8   9 -10    9.80    6.30
  -8  -9  10    2.90    4.30
   8   9  -9  401.86   18.70
  -8  -9   9  375.06   15.00
   8   9  -8  133.09   12.10
  -8  -9   8  129.39    8.50
   8   9  -7  113.49   11.00
  -8  -9   7   87.69    7.20
   8   9  -6    7.10    5.70
  -8  -9   6    3.50    3.20
   8   9  -5  501.05   20.50
  -8  -9   5  509.55   16.50
   8   9  -4   52.99    7.40
  -8  -9   4   56.49    4.70
   8   9  -3   57.49    7.20
  -8  -9   3   58.19    4.50
   8   9  -2   73.59    8.50
  -8  -9   2   84.49    5.40
   8   9  -1  117.69   10.40
  -8  -9   1   93.29    5.60
   8   9   0    6.20    5.20
  -8  -9   0    4.50    2.40
   8   9   1    0.40    5.10
  -8  -9  -1    4.20    2.50
   8   9   2   35.40    6.80
  -8  -9  -2   42.50    4.00
   8   9   3   23.70    6.40
   8  -9   3   22.30    2.60
  -8  -9  -3   26.30    3.70
   8  -9   4   -2.20    2.30
  -8  -9  -4   -5.40    2.60
   8  -9   5  140.39    7.30
  -8  -9  -5  150.28    8.00
  -8  -9  -6    2.00    3.30
   8  -9   6   -2.10    2.90
   8  -9   7   24.60    4.60
  -8  -9  -7   22.80    4.40
   8  -9   8   22.80    4.70
  -8  -9  -8   26.60    4.80
   8  -9   9   29.80    5.30
  -8  -9  -9   31.80    5.50
  -8 -10  11   28.10    6.00
   8  10 -10    9.50    6.90
  -8 -10  10   31.90    5.80
   8  10  -9   -2.70    6.00
  -8 -10   9    3.20    4.10
   8  10  -8  110.29   11.60
  -8 -10   8  102.49    8.10
   8  10  -7   -5.50    5.20
  -8 -10   7    3.80    3.40
   8  10  -6   34.20    7.40
  -8 -10   6   41.50    4.90
   8  10  -5   10.10    6.00
  -8 -10   5    7.50    3.20
   8  10  -4   -7.10    4.60
  -8 -10   4    0.50    2.80
   8  10  -3   72.99    8.70
  -8 -10   3   85.39    5.80
   8  10  -2    1.40    5.70
  -8 -10   2   -0.10    2.50
   8  10  -1   22.80    6.70
  -8 -10   1   26.10    3.40
   8  10   0    0.40    5.30
  -8 -10   0    1.80    2.40
   8  10   1  249.38   14.40
  -8 -10  -1  281.07    9.90
   8  10   2   11.30    6.30
  -8 -10  -2   10.70    2.90
   8  10   3   62.19    9.30
  -8 -10  -3   69.49    5.60
   8  10   4   15.30    6.70
  -8 -10  -4   15.60    3.40
   8  10   5   16.90    7.00
  -8 -10  -5    9.30    3.40
   8 -10   6   12.10    5.50
  -8 -10  -6   13.30    4.00
   8 -10   7   37.40    5.20
  -8 -10  -7   30.60    4.90
  -8 -10  -8   -0.70    3.90
   8 -10   8    2.10    3.90
   8  11 -10   28.90    8.00
  -8 -11  10   33.90    5.90
   8  11  -9   -2.30    6.20
  -8 -11   9    5.30    4.30
   8  11  -8   28.30    7.70
  -8 -11   8   41.60    5.60
   8  11  -7   66.09    9.80
  -8 -11   7   63.19    6.20
   8  11  -6   15.10    6.90
  -8 -11   6   18.50    4.10
   8  11  -5   27.20    7.10
  -8 -11   5   25.70    4.20
   8  11  -4    5.90    5.60
  -8 -11   4   13.40    3.40
   8  11  -3   30.10    7.50
  -8 -11   3   27.40    3.80
   8  11  -2   -8.40    6.00
  -8 -11   2    1.90    2.70
   8  11  -1   77.59   10.10
  -8 -11   1   56.29    4.60
   8  11   0   -3.10    6.20
  -8 -11   0    3.60    2.90
   8  11   1    7.50    6.20
  -8 -11  -1   14.10    4.00
   8  11   2   22.00    7.60
   8  11   3    9.50    6.40
   8  11   4   21.90    7.60
   8  11   5    8.60    6.70
   8  11   6   87.89   10.90
   8  11   7    3.90    6.60
   8  12  -9    1.80    7.20
  -8 -12   9    8.60    4.60
   8  12  -8    5.70    6.40
  -8 -12   8    5.00    4.00
   8  12  -7   49.99    9.10
  -8 -12   7   65.89    9.40
   8  12  -6   -3.50    6.20
   8  12  -5   -1.40    6.00
   8  12  -4   60.79    9.60
   8  12  -3    8.50    7.20
   8  12  -2   56.49   10.00
   8  12  -1  124.69   12.60
   8  12   0   10.30    6.90
   8  12   1   85.29   11.20
   8  12   2   70.59   10.20
   8  12   3    7.90    6.80
   8  12   4   -1.00    6.40
   8  12   5   86.59   11.30
   8  13  -6    5.60    6.90
   8  13  -5    4.80    7.10
   8  13  -4   12.10    7.00
   8  13  -3    1.70    6.40
   8  13  -2   26.20    8.50
   8  13  -1    8.50    7.80
   8  13   0   65.49   10.40
   8  13   1    0.90    6.90
   8  13   2   41.70    9.30
   8  13   3    7.30    7.10
  -9   0  16   82.79    6.90
   9   0 -16   66.09    6.80
  -9   0  15    1.40    3.90
   9   0 -15   -3.60    3.80
  -9   0  14    1.10    3.70
   9   0 -14    2.60    3.90
   9   0 -13    2.20    3.50
  -9   0  13    1.20    3.50
   9   0 -12   55.69    5.30
  -9   0  12   51.09    5.10
  -9   0  11   -0.10    3.10
   9   0 -11   -1.20    2.90
   9   0 -10   53.59    4.90
  -9   0  10   44.70    4.50
  -9   0   9    2.60    2.60
   9   0  -9   -0.10    2.40
   9   0  -8 1151.98   32.50
  -9   0   8 1167.08   32.00
   9   0  -8 1140.49   32.10
  -9   0   8 1138.19   32.30
   9   0  -7    0.60    2.20
  -9   0   7   -1.90    2.10
   9   0  -7    0.60    2.10
  -9   0   7    0.30    1.80
   9   0  -6  130.39    6.00
   9   0  -6  131.49    6.00
  -9   0   6  135.19    5.50
  -9   0   6  136.79    6.00
  -9   0   5   -0.50    1.40
   9   0  -5    3.80    2.10
  -9   0   5   -0.60    2.00
   9   0  -4 1057.59   29.30
   9   0  -4 1033.10   28.50
  -9   0   4  980.80   28.30
  -9   0   3   -0.10    1.90
  -9   0   3    0.50    1.30
   9   0  -3   -0.20    1.40
   9   0  -3   -0.60    1.80
   9   0  -2  216.78    7.70
  -9   0   2  205.98    7.60
   9   0  -2  221.88    7.50
   9   0  -1   -0.30    1.80
  -9   0   1   -1.50    1.20
  -9   0   1    1.00    2.10
   9   0  -1    0.90    1.50
   9   0   0    6.30    2.10
  -9   0   0    6.00    2.20
  -9   0   0    2.20    1.50
   9   0   0    4.30    1.90
  -9   0  -1    0.60    1.70
   9   0   1   -0.70    2.00
  -9   0  -1   -0.80    2.20
   9   0   2  167.98    6.90
  -9   0  -2  162.88    6.90
  -9   0  -2  168.48    6.50
   9   0   3    1.30    2.20
  -9   0  -3    0.60    1.90
  -9   0  -3    1.30    2.40
  -9   0  -4  242.78    9.10
   9   0   4  238.18    9.20
  -9   0  -5    2.80    2.70
   9   0   5    0.40    2.60
  -9   0  -6  374.86   13.00
   9   0   6  380.96   13.40
  -9   0  -7   -3.30    3.00
   9   0   7   -0.70    2.90
   9   0   8    6.00    3.40
  -9   0  -8    4.30    3.60
   9   0   9   -3.40    3.40
  -9   0  -9    0.70    3.80
   9   0  10   -0.20    3.70
  -9   0 -10   -3.50    3.80
  -9   0 -11   -2.30    4.10
   9   0  11   -3.70    3.80
  -9   0 -12  116.89    9.50
   9   0  12  118.79    9.30
  -9   1  16    8.70    3.70
   9   1 -16   12.70    4.60
  -9  -1  16    9.40    4.80
   9  -1 -16    7.30    4.60
   9   1 -15   95.39    8.20
  -9   1  15  107.89    7.20
  -9  -1  15  104.99    8.70
   9  -1 -15  105.99    8.30
  -9   1  14   23.50    4.10
   9   1 -14   28.00    4.80
  -9  -1  14   26.10    5.20
   9  -1 -14   21.60    4.80
  -9   1  13    3.10    3.20
   9   1 -13    1.70    3.30
  -9  -1  13    0.00    3.80
   9  -1 -13    0.00    3.40
   9   1 -12   31.80    4.30
  -9   1  12   51.89    4.60
  -9  -1  12   37.70    5.20
   9  -1 -12   52.19    5.30
   9   1 -11   35.10    4.40
  -9   1  11   28.30    3.20
  -9   1  11   33.70    3.90
   9  -1 -11   48.70    5.00
  -9  -1  11   30.20    4.50
  -9   1  10   50.39    4.10
  -9   1  10   54.99    4.00
   9   1 -10   45.40    4.30
  -9  -1  10   44.60    4.80
   9  -1 -10   48.70    4.60
   9   1  -9   15.40    3.10
   9   1  -9   24.20    3.50
  -9   1   9   28.80    3.30
   9  -1  -9   14.50    3.20
  -9  -1   9   26.60    4.00
  -9   1   8   35.70    3.30
   9   1  -8   30.80    3.80
   9   1  -8   26.70    3.40
  -9  -1   8   31.60    3.80
   9  -1  -8   30.10    3.40
   9   1  -7  170.88    7.60
  -9   1   7  174.48    6.70
  -9   1   7  173.58    6.40
   9   1  -7  183.18    7.40
  -9  -1   7  165.58    7.50
   9  -1  -7  172.78    6.30
   9  -1  -7  182.68    7.30
  -9   1   6   37.70    3.10
   9   1  -6   41.50    4.20
   9   1  -6   40.20    3.50
  -9   1   6   45.20    3.20
  -9  -1   6   29.30    3.30
  -9  -1   6   41.10    3.40
   9  -1  -6   41.40    3.30
   9  -1  -6   39.00    3.50
  -9   1   5  426.66   12.70
   9   1  -5  443.86   14.30
  -9   1   5  423.46   12.80
   9   1  -5  433.76   13.40
  -9  -1   5  422.16   13.50
  -9  -1   5  428.26   13.20
   9  -1  -5  447.36   13.40
  -9   1   4    3.30    1.90
  -9   1   4    1.40    1.60
   9   1  -4    1.70    2.00
   9   1  -4    1.60    1.80
   9  -1  -4    2.10    1.90
  -9  -1   4    1.00    2.00
  -9  -1   4    2.30    1.70
  -9   1   3  224.28    7.30
  -9   1   3  233.58    7.60
   9   1  -3  225.48    8.00
   9   1  -3  233.08    8.20
  -9  -1   3  228.68    7.80
   9  -1  -3  225.18    7.90
   9  -1  -3  224.48    7.80
  -9  -1   3  230.78    8.20
  -9   1   2   19.20    2.30
  -9   1   2   21.40    2.20
   9   1  -2   24.40    2.80
   9   1  -2   18.70    2.30
   9  -1  -2   24.20    2.60
   9  -1  -2   19.90    2.40
  -9  -1   2   25.80    2.50
  -9  -1   2   17.60    2.70
   9   1  -1    7.70    2.00
  -9   1   1    7.90    2.20
  -9   1   1    8.40    1.80
   9   1  -1    9.80    2.20
  -9  -1   1    9.70    2.00
   9  -1  -1    6.50    1.90
  -9  -1   1    5.10    2.20
   9  -1  -1    7.00    2.10
  -9   1   0  127.99    5.50
  -9   1   0  133.19    5.00
   9   1   0  132.79    5.50
   9   1   0  134.39    5.80
   9  -1   0  125.69    5.60
  -9  -1   0  130.29    6.00
  -9  -1   0  121.69    5.30
   9  -1   0  125.09    5.30
  -9   1  -1    4.60    1.60
   9   1   1    4.00    1.90
  -9   1  -1    2.80    2.20
   9   1   1    3.40    2.10
  -9  -1  -1    3.60    2.40
  -9  -1  -1    2.30    1.80
   9  -1   1    1.10    2.00
   9   1   2   -2.90    2.00
  -9   1  -2    2.50    2.20
  -9   1  -2   -0.10    1.40
   9   1   2   -1.50    2.00
   9  -1   2   -1.00    2.00
  -9  -1  -2   -0.60    2.30
   9   1   3  162.98    7.10
  -9   1  -3  160.08    6.80
  -9   1  -3  163.48    6.30
  -9  -1  -3  165.68    7.20
   9  -1   3  167.48    7.20
  -9   1  -4    5.70    2.10
   9   1   4    8.30    2.70
  -9   1  -4    3.00    2.40
   9  -1   4    5.70    2.60
  -9  -1  -4    6.80    2.80
  -9   1  -5   69.09    5.30
   9   1   5   69.59    5.50
  -9  -1  -5   57.69    4.80
   9  -1   5   75.89    5.50
   9   1   6  168.48    8.10
  -9   1  -6  177.78    7.90
  -9  -1  -6  168.08    8.10
   9  -1   6  165.48    8.20
  -9   1  -7  162.78    8.10
   9   1   7  156.98    8.10
   9  -1   7  162.18    8.40
  -9  -1  -7  153.48    8.10
   9   1   8   15.30    3.80
  -9   1  -8    8.40    3.60
  -9  -1  -8    6.00    3.70
   9  -1   8    6.90    3.60
   9   1   9   50.79    5.60
  -9   1  -9   55.69    5.60
   9  -1   9   35.90    5.00
  -9  -1  -9   36.90    5.10
  -9   1 -10    9.80    4.20
   9   1  10   10.00    4.10
  -9  -1 -10    8.60    4.30
   9  -1  10   16.00    4.50
   9   1  11    5.40    4.00
  -9   1 -11    8.30    4.60
  -9  -1 -11   -0.90    4.30
   9  -1  11    5.40    4.30
  -9   1 -12   81.59    7.20
   9   1  12   78.99    7.10
  -9  -1 -12   75.29    7.30
   9  -1  12   75.69    7.40
   9   2 -16   -3.80    4.10
  -9  -2  16    3.30    4.70
   9  -2 -16    0.80    4.40
   9   2 -15   22.80    5.10
  -9   2  15   25.80    3.40
   9  -2 -15   22.90    5.20
  -9  -2  15   24.80    5.70
   9   2 -14   14.00    4.40
  -9   2  14   13.40    2.90
  -9  -2  14    2.50    4.50
   9  -2 -14    8.30    4.30
  -9   2  13    4.40    2.50
   9   2 -13    4.00    3.60
  -9  -2  13   -2.70    3.80
   9  -2 -13   -0.50    3.60
  -9   2  12   21.70    3.00
   9   2 -12   25.00    4.30
   9  -2 -12   18.30    4.20
  -9  -2  12   19.50    4.70
  -9   2  11  123.49    5.70
   9   2 -11  127.19    7.30
  -9   2  11  124.09    5.30
   9  -2 -11  133.09    7.60
  -9  -2  11  117.69    8.00
  -9   2  10   91.49    4.90
  -9   2  10   89.89    4.50
   9   2 -10  105.39    6.40
   9  -2 -10   94.89    6.50
  -9  -2  10   89.89    6.90
  -9   2   9   51.49    3.50
   9   2  -9   70.59    5.20
  -9   2   9   57.19    3.80
   9   2  -9   55.09    5.40
  -9  -2   9   53.69    5.20
   9  -2  -9   63.59    4.90
  -9   2   8  806.22   22.00
   9   2  -8  789.32   23.30
   9   2  -8  786.22   24.10
  -9   2   8  806.42   21.90
   9  -2  -8  796.52   23.20
  -9  -2   8  761.32   23.60
   9   2  -7   81.69    6.10
  -9   2   7   89.19    3.80
  -9   2   7   83.19    3.90
   9   2  -7   82.09    5.10
   9  -2  -7   86.79    5.20
  -9  -2   7   82.79    5.80
   9   2  -6  407.26   14.40
  -9   2   6  430.46   12.00
   9   2  -6  407.36   13.20
  -9   2   6  425.26   12.00
   9  -2  -6  429.16   12.10
  -9  -2   6  407.36   13.70
   9  -2  -6  418.86   13.10
   9   2  -5  132.69    6.10
   9   2  -5  150.58    7.50
   9   2  -5  132.19    6.00
  -9   2   5  135.29    4.80
  -9   2   5  144.09    4.80
  -9  -2   5  135.19    6.60
   9  -2  -5  142.59    5.90
  -9   2   4   28.70    2.20
  -9   2   4   29.90    2.40
   9   2  -4   25.10    2.90
   9   2  -4   29.40    3.10
   9  -2  -4   25.40    2.70
  -9  -2   4   25.80    3.10
   9  -2  -4   28.50    3.30
   9   2  -3  427.96   13.00
  -9   2   3  425.46   11.80
   9   2  -3  426.76   13.00
  -9   2   3  415.06   11.70
  -9  -2   3  421.16   12.80
   9  -2  -3  409.36   12.60
   9  -2  -3  434.46   12.70
  -9  -2   3  412.26   13.20
  -9   2   2  114.09    4.10
   9   2  -2  124.29    5.40
   9   2  -2  123.79    5.50
  -9   2   2  119.09    4.30
  -9  -2   2  122.89    5.70
   9  -2  -2  112.19    5.00
   9  -2  -2  121.59    5.10
  -9  -2   2  114.29    5.10
   9   2  -1   90.59    4.50
  -9   2   1   84.49    3.70
   9   2  -1   90.89    4.70
  -9   2   1   88.69    3.60
   9  -2  -1   85.99    4.30
  -9  -2   1   83.39    5.00
  -9  -2   1   84.09    4.40
   9  -2  -1   87.49    4.50
  -9   2   0   -0.60    1.60
  -9   2   0    0.50    1.40
   9   2   0    0.90    1.70
   9   2   0    0.10    1.90
   9  -2   0    0.80    1.90
   9  -2   0   -1.40    1.80
  -9  -2   0    1.30    2.10
   9   2   1  393.36   12.30
  -9   2  -1  384.66   11.40
   9   2   1  389.16   12.10
  -9   2  -1  385.26   11.50
  -9  -2  -1  367.86   12.30
   9  -2   1  395.46   12.10
  -9   2  -2  180.98    6.70
   9   2   2  183.08    6.90
   9   2   2  182.48    7.40
  -9   2  -2  184.18    6.40
   9  -2   2  186.28    7.30
  -9  -2  -2  182.08    7.50
   9   2   3    4.50    2.40
  -9   2  -3    4.80    2.20
  -9   2  -3    2.40    1.60
   9   2   3    3.70    2.00
  -9  -2  -3    4.30    2.80
   9  -2   3    3.90    2.40
  -9   2  -4   34.00    3.30
   9   2   4   26.00    3.30
   9  -2   4   27.10    3.50
  -9  -2  -4   38.40    4.00
   9   2   5    0.30    2.50
  -9   2  -5    1.90    1.90
  -9   2  -5    3.00    2.60
  -9  -2  -5   -3.40    2.60
   9  -2   5    4.90    2.90
   9   2   6    2.60    2.80
  -9   2  -6    1.40    1.90
  -9   2  -6    0.00    2.70
  -9  -2  -6    3.70    3.10
   9  -2   6   -0.50    2.80
   9   2   7   63.09    5.30
  -9   2  -7   74.79    6.00
   9  -2   7   67.39    5.80
  -9  -2  -7   41.70    4.80
  -9   2  -8  421.16   14.30
   9   2   8  415.06   14.60
  -9  -2  -8  383.96   14.80
   9  -2   8  421.46   15.20
   9   2   9   10.90    3.70
  -9   2  -9    5.80    3.80
   9  -2   9    8.00    4.00
  -9  -2  -9    0.60    3.90
  -9   2 -10    6.50    4.00
   9   2  10    2.70    3.40
   9  -2  10    3.20    4.20
  -9  -2 -10    6.00    4.40
   9   2  11    0.90    3.50
  -9   2 -11    9.40    4.30
   9  -2  11    0.80    4.20
  -9  -2 -11    5.50    4.60
   9   2  12    3.50    3.90
  -9   2 -12    2.80    4.50
  -9  -2 -12   -1.70    4.70
   9  -2  12    5.10    4.70
   9   3 -15   46.60    5.80
   9  -3 -15   41.50    6.20
  -9  -3  15   49.50    6.50
   9   3 -14   73.09    6.40
   9  -3 -14   52.49    6.00
  -9  -3  14   64.89    7.10
   9   3 -13   11.30    3.90
   9  -3 -13   32.50    5.00
  -9  -3  13   23.70    5.00
   9  -3 -13   13.40    4.10
   9   3 -12  285.37   11.70
  -9  -3  12  304.17   13.10
   9  -3 -12  312.47   12.20
   9  -3 -12  304.37   12.10
   9   3 -11  132.29    7.50
   9  -3 -11  149.09    7.80
  -9  -3  11  136.69    8.70
   9  -3 -11  135.39    7.80
   9   3 -10    8.10    3.70
   9   3 -10   10.00    3.20
   9  -3 -10   11.50    3.30
  -9  -3  10   12.40    3.80
   9  -3 -10    8.20    3.10
   9   3  -9  453.05   16.20
   9   3  -9  439.26   14.60
   9  -3  -9  445.46   14.50
   9  -3  -9  455.75   14.60
  -9  -3   9  444.96   15.50
   9   3  -8   75.49    6.30
   9   3  -8   71.29    5.10
   9  -3  -8   66.99    5.00
  -9  -3   8   60.09    5.10
   9  -3  -8   65.39    4.80
   9   3  -7   -0.50    3.30
   9   3  -7    2.40    2.10
   9  -3  -7    2.40    2.20
   9  -3  -7    1.40    2.10
  -9  -3   7    2.10    2.70
   9   3  -6    5.30    2.20
   9   3  -6    8.10    2.40
   9   3  -6    4.70    3.50
   9  -3  -6    6.40    2.20
  -9  -3   6    5.70    2.80
   9   3  -5   36.80    3.30
   9   3  -5   31.70    4.60
   9   3  -5   39.70    3.40
  -9  -3   5   32.50    3.70
   9  -3  -5   35.00    3.00
   9   3  -4  708.33   21.30
   9   3  -4  770.52   23.50
   9   3  -4  749.23   21.40
  -9  -3   4  755.92   21.90
   9  -3  -4  744.53   20.90
   9  -3  -4  744.83   20.90
   9   3  -3  103.89    5.10
   9  -3  -3  102.59    4.60
  -9  -3   3  106.09    5.60
   9  -3  -3  106.59    4.50
   9   3  -2  661.93   19.00
   9  -3  -2  671.73   18.60
   9  -3  -2  651.33   18.50
  -9  -3   2  649.93   19.30
   9   3  -1  103.09    5.00
   9  -3  -1  101.09    4.60
   9  -3  -1  104.99    4.50
  -9  -3   1  100.29    5.40
   9   3   0   65.79    4.30
  -9  -3   0   64.09    4.80
   9  -3   0   68.39    4.20
   9  -3   0   62.59    3.90
   9   3   1   24.30    2.90
  -9  -3  -1   22.40    3.10
   9  -3   1   32.10    3.00
  -9   3  -2  120.99    4.20
   9   3   2  118.09    5.70
  -9   3  -2  112.09    4.00
  -9  -3  -2  112.29    6.20
   9  -3   2  115.69    5.70
   9   3   3  109.89    5.40
  -9   3  -3   79.79    3.80
  -9   3  -3   97.59    4.20
   9   3   3   71.59    4.40
   9  -3   3   91.59    5.40
  -9  -3  -3   86.39    5.70
   9   3   4   54.19    4.00
  -9   3  -4   54.29    3.40
   9   3   4   55.19    4.20
  -9   3  -4   51.09    3.90
   9  -3   4   48.00    4.10
  -9  -3  -4   59.29    4.80
   9   3   5  451.35   14.30
   9   3   5  464.05   14.80
  -9   3  -5  466.55   14.00
  -9   3  -5  464.95   13.80
  -9  -3  -5  463.55   15.30
   9  -3   5  461.05   15.30
   9  -3   6   27.70    4.00
  -9  -3  -6   35.10    4.20
  -9   3  -7  231.88    8.80
   9   3   7  215.08    9.10
  -9   3  -7  202.58    7.90
   9  -3   7  207.68    9.90
  -9  -3  -7  212.68   10.00
  -9   3  -8    3.90    3.10
   9   3   8    2.40    3.00
   9  -3   8    6.80    3.70
  -9  -3  -8    2.00    3.50
   9   3   9    6.00    3.20
  -9   3  -9    3.50    3.40
   9  -3   9    5.30    3.90
  -9  -3  -9    3.70    4.00
   9   3  10   -1.20    3.20
  -9   3 -10    2.10    3.60
  -9  -3 -10   -3.90    4.10
   9  -3  10   -2.70    3.90
   9   3  11   -3.30    3.10
  -9   3 -11   -0.20    3.80
  -9  -3 -11    3.10    4.60
   9  -3  11    0.40    4.30
  -9   3 -12   24.00    4.70
   9   3  12   40.60    5.00
  -9  -3 -12   34.30    6.30
   9  -3  12   41.10    6.60
   9   4 -15   56.59    6.10
   9  -4 -15   62.49    6.80
  -9  -4  15   60.29    7.50
   9  -4 -15   60.09    6.90
   9   4 -14    1.90    3.60
   9  -4 -14    0.40    3.60
  -9  -4  14    6.60    4.80
   9   4 -13   58.29    5.70
   9  -4 -13   52.19    5.70
  -9  -4  13   47.90    6.50
   9   4 -12   10.30    3.50
   9  -4 -12   15.10    3.70
  -9  -4  12   16.80    4.60
   9   4 -11   77.69    6.20
   9  -4 -11   79.59    6.00
  -9  -4  11  104.19    7.70
   9   4 -10   20.90    5.20
   9   4 -10   14.80    3.20
  -9  -4  10   16.10    4.20
   9  -4 -10   18.70    3.30
   9   4  -9  157.08    9.60
   9   4  -9  181.68    7.60
  -9  -4   9  164.48    8.80
   9  -4  -9  154.28    7.40
   9   4  -8  257.27    9.30
   9   4  -8  241.28    9.40
   9   4  -8  255.77   11.60
  -9  -4   8  248.48   10.40
   9  -4  -8  255.87    9.20
   9   4  -7  423.96   15.70
   9   4  -7  401.26   13.20
   9   4  -7  425.96   13.40
   9  -4  -7  422.66   13.00
  -9  -4   7  411.86   14.20
   9   4  -6   -2.30    2.00
   9   4  -6   -0.70    1.80
   9   4  -6   -1.80    3.40
  -9  -4   6   -3.80    2.50
   9  -4  -6   -0.80    1.80
   9   4  -5  244.78    8.40
   9   4  -5  239.18   10.70
   9  -4  -5  240.98    7.90
  -9  -4   5  231.78    9.30
   9   4  -4  204.68    7.40
   9   4  -4  203.98    9.90
   9   4  -4  205.58    7.50
  -9  -4   4  210.18    8.40
   9  -4  -4  212.98    6.90
   9  -4  -4  214.78    7.00
   9   4  -3    4.70    1.80
   9   4  -3    7.10    2.10
  -9  -4   3    6.40    2.70
   9  -4  -3    4.80    1.60
   9  -4  -3    4.50    1.60
   9   4  -2  337.87   10.30
   9   4  -2  337.27   10.30
  -9  -4   2  323.57   11.00
   9  -4  -2  320.77    9.70
   9  -4  -2  318.27    9.80
   9   4  -1    0.70    1.80
   9   4  -1    0.20    1.70
   9  -4  -1    1.20    1.50
   9  -4  -1   -0.20    1.50
  -9  -4   1    3.70    2.30
   9   4   0   24.20    2.60
   9   4   0   19.40    2.30
   9  -4   0   27.70    2.50
  -9  -4   0   23.30    3.00
   9  -4   0   19.30    2.20
   9   4   1  556.34   16.00
   9   4   1  541.85   15.90
   9  -4   1  562.54   16.10
  -9  -4  -1  531.35   16.70
   9   4   2  131.49    5.70
   9   4   2  128.39    5.30
  -9  -4  -2  133.69    6.50
   9  -4   2  131.49    5.90
   9   4   3   87.69    4.90
   9   4   3   91.39    4.40
  -9  -4  -3   88.89    5.90
   9  -4   3   93.29    5.30
   9   4   4   16.50    2.70
   9   4   4   17.00    2.30
   9  -4   4   17.00    3.10
  -9  -4  -4   16.70    3.30
   9   4   5   17.90    2.90
   9   4   5   19.50    2.50
  -9   4  -5   18.30    1.80
   9  -4   5   19.60    3.40
  -9  -4  -5   19.60    3.70
  -9   4  -6 1052.39   26.90
   9   4   6  988.60   27.90
   9   4   6  886.51   27.40
  -9   4  -6  942.81   26.70
   9  -4   6 1009.40   29.20
  -9  -4  -6 1004.10   29.00
  -9   4  -7  150.88    6.20
  -9   4  -7  129.49    5.60
   9   4   7  141.89    6.80
  -9  -4  -7  153.08    8.60
   9  -4   7  155.78    8.50
   9   4   8  124.99    6.60
  -9   4  -8  128.59    6.10
  -9  -4  -8  108.79    8.20
   9  -4   8  116.69    8.20
   9   4   9    0.90    2.80
  -9   4  -9    0.30    2.70
   9  -4   9    4.60    4.10
  -9  -4  -9    1.40    4.00
   9   4  10    5.30    3.00
  -9   4 -10   -0.20    2.70
  -9  -4 -10   -3.00    4.10
   9  -4  10   -4.80    3.90
   9   4  11  192.28    8.20
  -9   4 -11  162.28    7.90
  -9  -4 -11  176.98   11.00
   9  -4  11  172.38   11.10
   9   4  12  102.19    6.40
  -9   4 -12   83.49    6.40
  -9  -4 -12   78.99    8.00
   9  -4  12   96.19    8.80
   9   5 -15   -2.40    3.50
  -9  -5  15    9.60    5.50
   9  -5 -15    4.80    4.10
   9   5 -14    3.40    3.30
  -9  -5  14   -0.30    4.50
   9  -5 -14   -1.10    3.70
   9   5 -13   50.89    5.10
  -9  -5  13   39.40    6.10
   9  -5 -13   52.79    5.70
   9   5 -12   26.10    3.90
  -9  -5  12   17.10    5.00
   9  -5 -12   22.30    4.10
   9   5 -11   37.00    4.30
   9  -5 -11   38.60    4.50
  -9  -5  11   47.60    6.10
   9   5 -10  767.92   24.80
   9   5 -10  813.22   23.90
   9   5 -10  817.92   27.10
  -9  -5  10  821.32   25.70
   9  -5 -10  840.82   24.30
   9   5  -9   10.50    2.60
   9   5  -9   11.90    2.90
   9   5  -9    8.20    4.90
   9  -5  -9   14.50    3.00
  -9  -5   9    7.20    3.70
   9   5  -8   -1.50    1.60
   9   5  -8   12.80    4.80
   9   5  -8    6.50    2.60
  -9  -5   8    6.30    3.50
   9  -5  -8    6.10    2.40
   9   5  -7  228.98    8.10
   9   5  -7  208.98    7.90
   9   5  -7  213.08   11.20
  -9  -5   7  224.98    9.60
   9  -5  -7  224.08    7.90
   9   5  -6    7.20    3.90
   9   5  -6    0.70    2.00
   9   5  -6    0.30    1.70
   9  -5  -6    1.00    1.80
  -9  -5   6    0.00    2.70
   9   5  -5   47.50    6.10
   9   5  -5   44.60    3.40
   9   5  -5   48.40    3.60
   9  -5  -5   45.60    3.00
   9  -5  -5   45.00    3.10
  -9  -5   5   54.79    4.70
   9  -5  -5   46.10    3.30
   9   5  -4  445.36   13.10
   9   5  -4  467.45   17.00
   9   5  -4  448.16   13.10
   9  -5  -4  433.26   12.60
   9  -5  -4  446.26   13.80
   9  -5  -4  444.36   12.60
  -9  -5   4  440.86   14.40
   9   5  -3   99.09    4.20
   9   5  -3   98.19    8.00
   9   5  -3   89.09    4.40
   9  -5  -3   88.49    3.60
   9  -5  -3   89.99    3.60
  -9  -5   3   88.19    5.60
   9   5  -2  486.35   14.00
   9   5  -2  513.15   14.10
   9  -5  -2  486.75   13.80
   9  -5  -2  493.15   13.80
  -9  -5   2  504.55   15.50
   9   5  -1   16.30    1.80
   9   5  -1   14.80    1.60
   9  -5  -1   13.40    1.70
   9  -5  -1   14.10    1.70
  -9  -5   1   14.80    2.80
   9   5   0   29.60    2.50
   9   5   0   26.90    2.20
  -9  -5   0   28.50    3.20
   9  -5   0   31.50    2.40
   9  -5   0   29.80    2.40
   9   5   1   32.60    2.30
   9   5   1   32.30    2.50
   9  -5   1   32.80    2.70
  -9  -5  -1   25.70    3.30
   9   5   2    2.30    1.40
   9   5   2   -0.20    1.20
  -9  -5  -2    2.50    2.50
   9  -5   2   -0.30    1.80
   9   5   3   37.60    2.70
   9   5   3   36.00    2.90
  -9  -5  -3   43.00    4.30
   9  -5   3   36.80    3.50
   9   5   4   40.40    3.10
   9   5   4   41.30    2.80
   9  -5   4   40.30    4.00
  -9  -5  -4   41.20    4.20
   9   5   5    2.60    1.60
   9   5   5   -0.60    1.60
   9  -5   5    1.90    2.70
  -9  -5  -5    0.90    3.10
   9   5   6 1605.24   44.90
   9   5   6 1709.83   45.10
   9  -5   6 1727.53   47.30
  -9  -5  -6 1675.93   47.00
   9   5   7   67.99    4.10
  -9  -5  -7   58.69    5.70
   9  -5   7   69.09    6.10
   9   5   8   26.60    2.80
  -9  -5  -8   24.60    4.90
   9  -5   8   22.20    4.50
   9   5   9   58.99    4.10
  -9  -5  -9   59.89    6.40
   9  -5   9   56.09    6.40
  -9  -5 -10   10.60    4.80
   9  -5  10    5.30    4.50
   9  -5  11    0.00    4.60
  -9  -5 -11    3.40    4.80
   9   6 -14    7.40    3.50
  -9  -6  14    4.50    5.30
   9  -6 -14    1.80    3.90
   9   6 -13   24.80    4.00
  -9  -6  13   29.70    6.00
   9  -6 -13   23.50    4.60
   9   6 -12   62.19    5.00
   9  -6 -12   62.49    5.80
  -9  -6  12   64.39    7.00
   9   6 -11   12.10    3.10
   9  -6 -11   10.30    3.60
  -9  -6  11   19.50    5.00
   9   6 -10   46.80    7.00
   9   6 -10   38.30    3.80
  -9  -6  10   40.70    5.50
   9  -6 -10   45.80    4.50
   9   6  -9  241.28   12.60
   9   6  -9  229.48    8.30
   9   6  -9  206.08    8.10
   9  -6  -9  235.58    8.80
  -9  -6   9  232.38   10.80
   9   6  -8   11.90    2.50
   9   6  -8    9.80    4.70
   9   6  -8    9.30    2.10
   9  -6  -8   12.30    2.60
  -9  -6   8   14.00    4.00
   9   6  -7  540.25   15.60
   9   6  -7  550.54   20.30
   9   6  -7  521.95   15.60
   9  -6  -7  538.85   15.90
  -9  -6   7  579.04   18.00
   9   6  -6   10.00    1.60
   9   6  -6   11.00    4.60
   9   6  -6    9.70    1.80
  -9  -6   6    9.20    3.30
   9  -6  -6    8.80    1.80
   9   6  -5   20.40    5.50
   9  -6  -5   18.00    2.60
  -9  -6   5   16.20    3.50
   9  -6  -5   18.20    1.80
   9  -6  -5   16.90    1.60
   9   6  -4   43.60    6.10
   9  -6  -4   48.10    4.10
  -9  -6   4   43.20    4.20
   9   6  -3    4.00    4.70
   9  -6  -3    4.50    2.50
  -9  -6   3    7.90    2.60
   9   6  -2   19.90    5.30
  -9  -6   2   13.80    2.90
  -9  -6   1   82.29    5.30
   9  -6   0  195.88    6.40
   9  -6   0  200.58    6.40
  -9  -6   0  200.88    8.00
  -9  -6  -1   23.80    3.30
   9  -6   1   30.70    2.50
   9  -6   2   54.69    3.90
  -9  -6  -2   58.79    4.60
  -9  -6  -3   39.90    4.00
   9  -6   3   41.80    3.60
  -9  -6  -4   45.60    4.60
   9  -6   4   45.30    4.20
   9  -6   5    1.70    2.80
  -9  -6  -5    3.50    3.20
   9  -6   6  130.19    7.70
  -9  -6  -6  136.29    8.10
  -9  -6  -7   87.09    6.80
   9  -6   7  109.09    7.60
  -9  -6  -8   -1.30    4.00
   9  -6   8    0.30    3.60
   9  -6   9  108.89    8.50
  -9  -6  -9   92.69    7.70
   9  -6  10    6.60    4.60
  -9  -6 -10    1.80    4.20
   9  -6  11    2.10    4.90
  -9  -6 -11    2.30    4.50
  -9  -7  14   -1.10    4.90
   9  -7 -14    0.90    4.00
   9   7 -13    5.20    3.20
  -9  -7  13    2.50    4.90
   9  -7 -13    6.70    4.00
   9   7 -12   40.20    3.40
   9  -7 -12   44.30    5.00
  -9  -7  12   34.50    5.90
  -9  -7  11    0.80    4.20
   9  -7 -11   -1.20    2.80
   9   7 -10   57.29    8.00
  -9  -7  10   57.89    6.20
   9  -7 -10   66.59    5.00
   9   7  -9   13.00    5.60
   9  -7  -9    0.60    2.40
  -9  -7   9    0.00    3.70
   9   7  -8   93.89    9.20
   9  -7  -8   98.69    5.20
  -9  -7   8  107.49    7.80
   9   7  -7   44.30    6.80
   9  -7  -7   51.89    3.60
  -9  -7   7   48.00    5.20
   9   7  -6    9.50    4.90
   9  -7  -6   16.60    1.80
  -9  -7   6   13.50    3.40
   9   7  -5   34.50    6.20
  -9  -7   5   41.90    4.50
   9  -7  -5   40.50    3.80
   9   7  -4  336.77   14.90
   9  -7  -4  318.67   11.70
  -9  -7   4  345.27   11.90
   9   7  -3   54.89    7.20
  -9  -7   3   43.60    4.20
  -9  -7   0   27.10    3.30
  -9  -7  -1  314.37   10.90
   9  -7   1  301.07    9.30
   9  -7   2  277.47    9.00
  -9  -7  -2  261.37   10.00
   9  -7   3   41.20    3.50
  -9  -7  -3   29.40    3.90
  -9  -7  -4    5.40    3.10
   9  -7   4   13.80    2.90
   9  -7   5    9.50    3.10
  -9  -7  -5   17.80    3.90
   9  -7   6   17.90    3.80
  -9  -7  -6   19.30    4.10
   9  -7   7   15.20    4.20
  -9  -7  -7   18.60    4.40
   9  -7   8   52.59    5.90
  -9  -7  -8   62.09    6.50
  -9  -7  -9   16.70    5.20
   9  -7   9    9.50    4.50
  -9  -7 -10    3.60    4.70
   9  -7  10    6.50    4.90
   9  -8 -13   -1.40    3.60
  -9  -8  13   -0.90    5.00
  -9  -8  12   24.10    6.00
   9  -8 -12    9.90    3.70
   9  -8 -11   41.80    4.60
  -9  -8  11   33.20    5.90
   9   8 -10    9.10    5.80
   9  -8 -10    8.00    2.80
  -9  -8  10    4.60    4.30
   9   8  -9    6.90    6.10
   9  -8  -9    7.90    2.60
  -9  -8   9    8.50    4.20
   9   8  -8   20.70    6.30
  -9  -8   8   48.50    5.60
   9  -8  -8   42.40    3.30
   9   8  -7    9.20    5.80
   9  -8  -7    5.90    1.70
  -9  -8   7    4.20    3.50
   9   8  -6    7.20    5.30
  -9  -8   6    5.90    3.40
   9   8  -5  137.89   10.90
   9  -8  -5  130.09    6.60
  -9  -8   5  127.79    7.40
   9   8  -4   25.80    6.00
  -9  -8   4   22.90    3.70
   9   8  -3  285.97   14.10
  -9  -8   3  274.77   10.40
  -9  -8   2  610.74   18.70
   9   8  -1   -4.30    3.80
  -9  -8   1    1.00    2.40
   9   8   0    3.70    4.80
  -9  -8   0    6.80    2.80
  -9  -8  -1   23.70    3.50
   9  -8   1   23.30    1.90
  -9  -8  -2  109.89    6.50
   9  -8   2  115.89    5.00
   9  -8   3   45.90    3.70
  -9  -8  -3   42.20    4.40
   9  -8   4   42.90    4.00
  -9  -8  -4   52.69    5.00
  -9  -8  -5    6.80    3.60
   9  -8   5    3.30    2.90
   9  -8   6   -7.00    2.80
  -9  -8  -6   -0.60    3.40
   9  -8   7    0.80    3.60
  -9  -8  -7    1.70    3.60
   9  -8   8  149.69    9.40
  -9  -8  -8  147.99    9.50
   9  -8   9   23.30    5.40
  -9  -8  -9   13.60    5.10
   9  -8  10   37.40    6.30
  -9  -8 -10   34.00    6.00
  -9  -9  12    4.90    5.00
  -9  -9  11   -1.10    4.60
   9   9 -10    8.40    6.20
  -9  -9  10   -0.10    4.30
   9   9  -9    0.00    5.70
  -9  -9   9    2.50    4.20
   9   9  -8    3.40    5.50
  -9  -9   8    4.10    3.80
   9   9  -7    1.40    5.50
  -9  -9   7    6.50    3.70
   9   9  -6   51.19    8.20
  -9  -9   6   54.69    5.50
   9   9  -5  142.59   11.80
  -9  -9   5  138.09    7.90
   9   9  -4   -2.50    5.20
  -9  -9   4    0.30    2.80
   9   9  -3  278.87   14.00
  -9  -9   3  272.47   10.50
   9   9  -2  255.47   13.40
  -9  -9   2  268.97   10.10
   9   9  -1   60.39    8.50
  -9  -9   1   63.19    5.20
   9   9   0  374.36   17.00
  -9  -9   0  370.36   12.60
   9   9   1    5.20    5.50
  -9  -9  -1    0.40    2.60
   9   9   2   -5.70    4.80
   9  -9   2    0.90    1.70
  -9  -9  -2    0.10    2.70
  -9  -9  -3    2.70    2.90
   9  -9   3    5.80    2.30
   9  -9   4   -0.90    2.50
  -9  -9  -4    2.10    3.10
  -9  -9  -5    2.80    3.60
   9  -9   5    9.80    3.20
   9  -9   6    3.20    3.30
  -9  -9  -6    9.10    3.90
  -9  -9  -7   23.90    4.70
   9  -9   7   14.40    4.40
  -9  -9  -8   22.40    4.90
   9  -9   8   19.60    4.80
  -9  -9  -9    6.00    4.90
   9  -9   9    0.80    4.20
  -9 -10  11   71.29    8.00
   9  10 -10    5.90    6.50
  -9 -10  10   10.70    5.10
   9  10  -9   -8.30    5.30
  -9 -10   9    5.50    4.20
   9  10  -8   16.10    7.10
  -9 -10   8   27.10    5.00
   9  10  -7   11.00    7.00
  -9 -10   7   15.10    4.30
   9  10  -6   11.00    7.10
  -9 -10   6   14.30    3.90
   9  10  -5    6.20    6.10
  -9 -10   5   21.20    3.90
   9  10  -4   56.09    8.40
  -9 -10   4   71.79    5.60
   9  10  -3   72.29    8.80
  -9 -10   3   72.69    5.50
   9  10  -2    7.40    5.60
  -9 -10   2    6.60    3.00
   9  10  -1  161.28   11.90
  -9 -10   1  147.19    7.30
   9  10   0   11.30    6.10
  -9 -10   0   19.00    3.50
   9  10   1   19.20    6.70
  -9 -10  -1   17.90    3.40
   9  10   2   20.10    7.30
  -9 -10  -2   20.50    3.60
   9  10   3   84.79    9.70
  -9 -10  -3   75.39    6.30
   9  10   4   -7.50    5.60
  -9 -10  -4    0.10    3.00
  -9 -10  -5   12.10    3.80
  -9 -10  -6    4.70    3.80
  -9 -10  -7   30.40    5.10
   9 -10   7   28.70    5.00
  -9 -10  -8    3.10    4.30
   9 -10   8    2.50    4.10
   9  11 -10   36.20    8.90
  -9 -11  10   41.50    6.50
   9  11  -9    5.00    6.60
  -9 -11   9    8.10    4.50
   9  11  -8   -1.10    7.00
  -9 -11   8   16.70    4.80
   9  11  -7   -1.40    6.10
  -9 -11   7    2.00    3.90
   9  11  -6   -1.10    6.30
  -9 -11   6    1.80    3.50
   9  11  -5   13.00    6.30
  -9 -11   5   11.70    3.80
   9  11  -4   20.40    6.60
  -9 -11   4   27.20    4.20
   9  11  -3   85.89   10.60
  -9 -11   3   87.59    6.50
   9  11  -2   -1.90    6.20
  -9 -11   2    4.00    3.00
   9  11  -1   59.49    9.60
  -9 -11   1   44.70    4.50
   9  11   0   82.59   10.60
  -9 -11   0   69.59    5.60
   9  11   1   42.70    8.10
  -9 -11  -1   41.10    4.40
   9  11   2   50.99    9.30
  -9 -11  -2   34.60    4.40
   9  11   3   23.80    8.20
  -9 -11  -3   28.20    5.00
   9  11   4   17.30    7.80
   9  11   5   -6.60    6.80
   9  11   6    6.50    7.00
   9  12  -8   -1.90    6.50
  -9 -12   8    0.90    4.30
   9  12  -7    4.40    6.90
  -9 -12   7   24.40    4.90
   9  12  -6    1.20    6.90
  -9 -12   6   14.40    6.70
   9  12  -5    6.20    6.60
   9  12  -4    7.70    6.60
   9  12  -3    5.80    6.70
   9  12  -2   12.20    7.60
   9  12  -1   59.49   10.20
   9  12   0    7.30    6.70
   9  12   1  253.57   16.60
   9  12   2    2.60    7.30
   9  12   3   84.79   11.40
   9  12   4    0.40    7.60
   9  12   5   66.29   10.60
   9  13  -6   14.90    7.90
   9  13  -5    1.70    7.30
   9  13  -4   47.10    9.10
   9  13  -3    0.10    6.90
   9  13  -2   21.20    8.70
   9  13  -1    7.30    7.30
   9  13   0   69.89   11.20
   9  13   1  -10.40    6.50
   9  13   2   -1.40    7.00
  10   0 -16  108.59    9.10
 -10   0  16  125.19    8.60
  10   0 -15   -2.80    3.90
 -10   0  15    2.60    3.90
 -10   0  14    8.40    4.00
  10   0 -14    9.40    4.30
 -10   0  13    0.30    3.50
  10   0 -13    2.00    3.60
 -10   0  12  124.49    7.60
  10   0 -12  113.29    7.70
  10   0 -11   -1.30    2.90
 -10   0  11    1.50    3.10
  10   0 -10   33.80    4.20
 -10   0  10   33.40    4.00
  10   0  -9    0.80    2.10
 -10   0   9    2.20    2.60
  10   0  -9   -0.80    2.40
  10   0  -8    4.70    2.40
 -10   0   8    3.20    2.20
  10   0  -8    5.00    2.60
 -10   0   8    4.10    2.50
  10   0  -7    1.00    2.30
 -10   0   7    0.90    1.90
  10   0  -7    3.40    2.40
 -10   0   7    1.70    2.30
  10   0  -6  322.77   11.30
 -10   0   6  337.67   11.00
  10   0  -6  337.97   11.20
 -10   0   6  330.77   10.60
 -10   0   5    5.40    2.20
  10   0  -5    3.10    2.20
 -10   0   5    1.50    1.70
 -10   0   4  354.56   11.00
 -10   0   4  316.07   10.60
  10   0  -4  348.87   11.10
  10   0  -3    1.90    2.00
 -10   0   3   -1.40    1.40
 -10   0   3    1.50    2.00
 -10   0   2   95.09    5.00
 -10   0   2   68.29    4.00
  10   0  -2   96.19    4.90
 -10   0   1   -2.00    1.50
 -10   0   1    2.80    2.20
  10   0  -1    1.70    2.00
 -10   0   0  435.96   13.60
  10   0   0  448.16   13.90
 -10   0   0  444.56   13.40
  10   0   1   -0.60    2.10
 -10   0  -1    0.40    1.70
 -10   0  -1   -0.70    2.30
 -10   0  -2  384.06   12.40
 -10   0  -2  390.26   12.60
  10   0   2  404.96   12.90
  10   0   3   -0.80    2.30
 -10   0  -3   -1.90    2.50
  10   0   4   53.69    4.50
 -10   0  -4   50.89    4.40
 -10   0  -5   -0.90    2.70
  10   0   5   -2.30    2.70
  10   0   6   64.89    5.50
 -10   0  -6   61.09    5.10
  10   0   7   -3.60    3.00
 -10   0  -7    1.90    3.40
 -10   0  -8   40.70    4.90
  10   0   8   42.00    5.30
  10   0   9   -1.70    3.60
 -10   0  -9   -1.50    3.80
 -10   0 -10    0.00    4.20
  10   0  10    1.90    3.90
  10   0  11    1.20    4.20
 -10   0 -11    2.70    4.40
  10   0  12   32.40    6.00
 -10   0 -12   25.80    5.60
 -10   1  16   18.80    3.90
  10   1 -16    4.30    4.60
  10  -1 -16    7.00    4.70
 -10  -1  16   15.50    4.90
 -10   1  15   47.70    4.80
  10   1 -15   41.30    5.70
 -10  -1  15   38.30    5.70
  10  -1 -15   44.60    6.10
 -10   1  14    4.50    3.30
  10   1 -14    6.00    4.00
  10  -1 -14   -1.30    3.80
 -10  -1  14    3.20    4.20
 -10   1  13   77.79    6.20
  10   1 -13   86.59    6.90
  10  -1 -13   66.29    6.30
 -10  -1  13   65.29    6.20
  10   1 -12   44.40    5.00
 -10   1  12   44.60    4.40
 -10  -1  12   51.49    5.50
  10  -1 -12   43.60    5.00
 -10   1  11   42.70    4.20
  10   1 -11   44.10    4.70
 -10   1  11   46.80    3.80
 -10  -1  11   46.20    5.00
  10  -1 -11   56.09    5.40
 -10   1  10    4.70    2.70
  10   1 -10    6.40    3.10
 -10   1  10    8.00    2.20
  10  -1 -10    6.20    3.10
 -10  -1  10   10.70    3.50
  10   1  -9  157.98    7.40
 -10   1   9  158.48    6.80
  10   1  -9  151.08    7.40
  10  -1  -9  154.28    7.40
 -10  -1   9  136.59    7.60
 -10   1   8  195.08    7.50
  10   1  -8  198.18    8.10
  10   1  -8  191.08    8.30
  10  -1  -8  194.78    8.10
  10  -1  -8  188.48    6.70
 -10  -1   8  176.78    8.20
 -10   1   7  179.58    6.80
  10   1  -7  180.28    7.90
 -10   1   7  158.68    6.30
  10   1  -7  167.28    7.30
  10  -1  -7  177.78    6.60
  10  -1  -7  163.68    7.20
 -10  -1   7  183.98    7.60
 -10   1   6  574.14   16.90
  10   1  -6  599.44   17.60
 -10   1   6  594.84   16.80
  10   1  -6  584.94   18.30
 -10  -1   6  562.74   17.60
  10  -1  -6  586.14   17.20
  10  -1  -6  573.34   17.50
  10   1  -5  130.49    6.00
 -10   1   5  120.89    5.40
 -10   1   5  120.49    5.00
  10  -1  -5  129.89    5.90
 -10  -1   5  129.09    6.20
 -10  -1   5  126.89    5.60
 -10   1   4    0.00    2.00
 -10   1   4   -0.40    1.40
  10   1  -4    1.50    2.00
 -10   1   4   -0.40    1.50
 -10  -1   4    1.30    2.20
 -10  -1   4   -0.60    1.70
  10  -1  -4    2.10    2.00
 -10   1   3    1.70    1.50
  10   1  -3    4.20    2.10
 -10   1   3    3.30    2.00
  10  -1  -3    4.10    2.10
 -10  -1   3    5.80    2.30
 -10  -1   3    3.10    1.80
 -10   1   2  194.08    6.60
 -10   1   2  194.68    6.90
  10   1  -2  188.28    7.40
  10   1  -2  194.18    7.80
 -10  -1   2  195.48    7.40
 -10  -1   2  179.28    6.90
  10  -1  -2  194.38    7.20
 -10   1   1    1.90    1.50
 -10   1   1    2.10    2.10
  10   1  -1    3.60    2.20
  10   1  -1    1.10    2.00
 -10  -1   1    1.70    2.20
 -10  -1   1    0.70    1.70
  10  -1  -1    0.00    2.00
  10   1   0  395.56   12.50
 -10   1   0  394.66   12.10
 -10   1   0  379.06   11.80
 -10  -1   0  393.56   12.50
 -10  -1   0  400.76   12.30
  10  -1   0  387.46   12.40
  10   1   1   30.40    3.20
 -10   1  -1   40.90    3.40
  10  -1   1   41.90    3.70
 -10  -1  -1   33.70    3.40
 -10   1  -2   74.99    4.20
  10   1   2   79.09    5.20
 -10   1  -2   72.49    4.90
 -10  -1  -2   76.59    5.20
  10  -1   2   78.09    5.10
 -10   1  -3  652.03   19.40
 -10   1  -3  658.63   19.60
  10   1   3  670.33   20.20
  10  -1   3  678.43   20.20
 -10  -1  -3  683.43   20.00
 -10   1  -4   18.80    3.80
  10   1   4   10.70    3.00
 -10   1  -4   15.30    3.10
  10  -1   4    8.20    2.80
 -10  -1  -4    5.40    2.90
  10   1   5   19.20    3.60
 -10   1  -5   18.40    3.40
 -10  -1  -5   22.30    3.60
  10  -1   5   16.40    3.40
 -10   1  -6   87.19    6.30
  10   1   6   74.79    6.20
 -10  -1  -6   77.39    6.30
  10  -1   6   77.99    6.50
 -10   1  -7   90.59    6.80
  10   1   7   98.99    6.90
  10  -1   7   71.29    6.10
 -10  -1  -7   86.49    6.80
  10   1   8   41.80    4.90
 -10   1  -8   45.50    5.20
  10  -1   8   52.49    5.70
 -10  -1  -8   42.70    5.30
  10   1   9    8.40    4.00
 -10   1  -9   13.90    4.30
 -10  -1  -9   13.80    4.40
  10  -1   9   11.00    4.10
 -10   1 -10   45.10    5.70
  10   1  10   44.60    5.50
 -10  -1 -10   43.20    5.70
  10  -1  10   39.80    5.80
 -10   1 -11   -2.70    4.20
  10   1  11    1.40    3.90
  10  -1  11    0.40    4.40
 -10  -1 -11    1.20    4.70
  10   1  12    8.00    4.50
 -10   1 -12    7.10    5.00
  10  -1  12    7.10    4.80
 -10  -1 -12   10.90    5.10
  10   2 -15   89.89    7.30
 -10  -2  15  106.69    8.40
  10  -2 -15   92.89    7.60
  10   2 -14   24.50    4.70
 -10   2  14   30.70    3.40
  10  -2 -14   28.70    5.10
 -10  -2  14   35.50    6.00
  10   2 -13    5.40    3.90
 -10   2  13    8.00    2.60
  10  -2 -13    6.30    3.90
 -10  -2  13    4.10    4.20
  10   2 -12   -5.60    3.10
 -10   2  12   -2.20    2.20
 -10  -2  12    4.80    3.90
  10  -2 -12   -3.20    3.30
 -10   2  11   44.00    3.50
  10   2 -11   42.10    4.80
 -10   2  11   38.50    3.20
 -10  -2  11   46.50    5.40
  10  -2 -11   28.30    4.30
 -10   2  10   10.20    2.20
  10   2 -10   12.30    3.60
 -10   2  10    8.00    2.40
  10   2 -10    9.60    3.20
 -10  -2  10    9.10    3.70
  10  -2 -10    8.50    3.20
 -10   2   9  171.48    6.50
 -10   2   9  180.58    6.40
  10   2  -9  180.58    8.70
  10   2  -9  174.08    8.00
 -10  -2   9  186.98    8.80
  10  -2  -9  177.58    8.00
 -10   2   8   32.40    2.60
  10   2  -8   32.60    4.60
 -10   2   8   37.00    2.80
  10   2  -8   41.40    4.10
  10  -2  -8   28.30    3.50
 -10  -2   8   31.70    4.20
 -10   2   7   15.10    1.90
  10   2  -7   20.10    3.80
 -10   2   7   15.90    2.20
  10   2  -7   16.70    3.00
  10  -2  -7   16.80    1.90
 -10  -2   7   14.00    3.20
  10  -2  -7   17.20    2.90
  10   2  -6   17.20    2.80
  10   2  -6   23.50    4.10
 -10   2   6   21.50    2.10
 -10   2   6   26.40    2.30
  10  -2  -6   17.30    2.80
 -10  -2   6   20.20    3.20
  10   2  -5   24.20    3.00
 -10   2   5   27.70    2.10
  10   2  -5   23.20    4.30
 -10   2   5   30.30    2.20
  10  -2  -5   31.00    3.20
 -10  -2   5   27.40    3.40
 -10   2   4  429.66   11.80
  10   2  -4  405.96   13.00
  10   2  -4  411.96   13.10
 -10   2   4  412.66   11.70
 -10  -2   4  405.86   13.20
  10  -2  -4  416.56   12.80
 -10   2   3   87.89    3.80
  10   2  -3   84.19    4.70
  10   2  -3   93.59    5.00
 -10   2   3   84.09    3.50
  10  -2  -3   86.89    4.70
 -10  -2   3   81.99    5.20
 -10   2   2   53.59    4.10
 -10   2   2   54.69    2.90
  10   2  -2   61.49    4.10
  10   2  -2   56.49    4.20
  10  -2  -2   59.79    4.10
 -10  -2   2   50.29    4.00
 -10   2   1    7.70    1.60
 -10   2   1    7.50    1.80
  10   2  -1    6.30    2.10
  10   2  -1   10.70    2.30
  10  -2  -1   10.50    2.20
 -10  -2   1    9.90    2.50
 -10   2   0    0.90    1.80
  10   2   0    4.70    2.00
 -10   2   0    3.10    1.60
  10   2   0    0.70    2.00
 -10  -2   0    5.70    2.50
  10  -2   0    5.40    2.20
  10   2   1  499.55   15.20
 -10   2  -1  500.35   14.60
  10   2   1  490.85   15.30
 -10   2  -1  501.65   14.40
 -10  -2  -1  499.75   15.50
  10  -2   1  502.95   15.30
 -10   2  -2  126.29    5.70
 -10   2  -2  123.29    5.20
  10   2   2  131.59    6.40
  10   2   2  132.49    7.00
  10  -2   2  134.99    6.30
 -10  -2  -2  136.89    6.60
 -10   2  -3   33.80    2.90
  10   2   3   37.90    3.80
 -10   2  -3   35.20    3.30
 -10  -2  -3   34.90    3.90
  10  -2   3   43.90    4.00
 -10   2  -4   32.20    3.50
  10   2   4   34.20    3.80
 -10  -2  -4   35.00    4.10
  10  -2   4   30.40    3.80
 -10   2  -5    4.50    2.10
 -10   2  -5    4.40    2.80
  10   2   5    4.90    2.90
 -10  -2  -5   10.50    3.30
  10  -2   5    3.90    3.00
  10   2   6   89.19    6.40
 -10   2  -6   85.69    6.10
  10  -2   6   78.09    6.50
 -10  -2  -6   84.99    6.80
 -10   2  -7  374.76   12.90
  10   2   7  360.06   13.30
  10  -2   7  358.66   13.70
 -10  -2  -7  360.06   13.60
 -10   2  -8  179.28    8.90
  10   2   8  195.68    9.50
  10  -2   8  189.08    9.90
 -10  -2  -8  192.28    9.90
 -10   2  -9   24.80    4.60
  10   2   9   33.00    4.80
  10  -2   9   39.70    5.50
 -10  -2  -9   25.80    5.10
  10   2  10   -1.70    3.50
 -10   2 -10   -4.40    3.90
  10  -2  10    3.80    4.40
 -10  -2 -10    8.80    4.60
  10   2  11    9.40    4.10
 -10   2 -11    2.00    4.30
 -10  -2 -11    3.30    4.80
  10  -2  11    1.60    4.40
  10   2  12   17.80    4.30
 -10   2 -12    7.70    4.60
  10  -2  12   16.20    5.30
 -10  -2 -12   19.30    5.60
  10   3 -15   18.70    4.70
  10  -3 -15   21.60    5.20
 -10  -3  15   30.60    6.20
  10   3 -14  137.69    8.80
  10  -3 -14  143.99    9.40
 -10  -3  14  157.68   10.60
  10   3 -13    5.10    3.70
  10  -3 -13    1.20    3.80
 -10  -3  13    6.20    4.50
  10   3 -12  128.69    7.80
  10  -3 -12  130.49    8.20
 -10  -3  12  124.69    9.10
  10   3 -11   30.60    4.30
  10  -3 -11   28.60    4.30
 -10  -3  11   28.80    4.80
  10   3 -10   12.20    3.30
  10   3 -10   19.30    4.40
  10  -3 -10   14.60    3.50
 -10  -3  10   18.00    4.30
  10   3  -9    4.90    2.80
  10   3  -9   -1.90    3.30
 -10  -3   9    1.50    3.20
  10  -3  -9    2.70    2.80
  10   3  -8    5.90    2.70
  10   3  -8   11.20    3.80
 -10  -3   8    5.60    3.20
  10  -3  -8    8.50    2.80
  10   3  -7  233.18    8.90
  10   3  -7  224.18   10.50
  10  -3  -7  250.07    8.90
 -10  -3   7  223.58    9.60
  10   3  -6  109.39    5.70
  10   3  -6   95.09    7.20
 -10  -3   6  106.69    6.30
  10  -3  -6  106.29    5.40
  10   3  -5    1.40    2.00
  10   3  -5    4.40    3.50
  10   3  -5    6.60    2.30
  10  -3  -5    1.50    2.00
 -10  -3   5    0.60    2.50
  10   3  -4    9.10    2.30
  10   3  -4    7.50    2.30
 -10  -3   4    5.40    2.40
  10  -3  -4   10.00    2.20
  10   3  -3  386.96   12.30
  10   3  -3  393.76   12.40
  10  -3  -3  384.76   11.90
 -10  -3   3  388.26   12.70
  10   3  -2   -0.60    2.00
  10   3  -2    1.50    1.80
  10  -3  -2    0.50    1.80
 -10  -3   2    1.10    2.40
  10   3  -1    0.40    1.70
  10   3  -1    0.20    2.00
 -10  -3   1    0.50    2.30
  10  -3  -1   -0.80    1.80
  10   3   0   10.70    2.50
  10   3   0   14.70    2.40
  10  -3   0   16.10    2.50
 -10  -3   0   14.70    2.90
  10   3   1   69.39    4.20
  10   3   1   69.99    4.80
  10  -3   1   81.29    4.80
 -10  -3  -1   72.89    5.30
 -10   3  -2   -1.60    1.30
  10   3   2    0.90    2.30
 -10   3  -2   -0.50    1.60
  10   3   2   -0.10    1.80
 -10  -3  -2    0.10    2.50
  10  -3   2   -0.30    2.20
 -10   3  -3   16.10    2.00
 -10   3  -3   14.60    2.30
  10   3   3   11.90    2.90
  10   3   3   15.90    2.60
 -10  -3  -3   15.80    3.20
  10  -3   3   15.00    2.80
 -10   3  -4  124.89    5.10
  10   3   4  126.29    6.60
  10   3   4  128.29    5.90
 -10   3  -4  128.79    5.70
  10  -3   4  123.59    6.80
 -10  -3  -4  120.29    7.20
  10   3   5   11.60    3.10
 -10   3  -5    6.50    2.60
 -10   3  -5   11.10    2.10
 -10  -3  -5    7.20    3.50
  10  -3   5    8.70    3.20
 -10   3  -6  198.58    8.00
  10   3   6  185.58    8.50
 -10  -3  -6  191.88    9.30
  10  -3   6  188.18    9.10
  10   3   7    1.80    3.00
 -10   3  -7   -1.80    2.90
 -10   3  -7    0.90    2.40
 -10  -3  -7    1.30    3.70
  10  -3   7    1.90    3.40
 -10   3  -8    2.10    3.30
  10   3   8    5.70    3.40
  10  -3   8    5.80    3.90
 -10  -3  -8    6.60    4.00
 -10   3  -9   21.30    4.20
  10   3   9   13.10    3.70
  10  -3   9    9.20    4.40
 -10  -3  -9   16.00    4.90
 -10   3 -10    8.30    3.90
  10   3  10    7.90    3.60
 -10  -3 -10    5.20    4.50
  10  -3  10    5.10    4.50
  10   3  11   13.90    4.00
 -10   3 -11   21.90    4.60
  10  -3  11   21.70    5.40
 -10  -3 -11   22.70    5.60
  10   4 -15   82.99    7.00
  10  -4 -15   76.29    7.60
 -10  -4  15   58.39    7.60
  10   4 -14   14.90    4.30
  10  -4 -14   16.50    5.00
 -10  -4  14   10.70    5.40
  10   4 -13    0.40    3.40
  10  -4 -13   -1.80    3.70
 -10  -4  13   -2.10    4.40
  10  -4 -13   -0.40    3.40
  10   4 -12  277.87   11.00
  10  -4 -12  276.17   11.50
 -10  -4  12  243.68   12.30
  10  -4 -12  266.87   11.30
  10   4 -11    4.40    3.20
  10  -4 -11   11.50    3.50
 -10  -4  11    7.60    4.20
  10   4 -10  514.95   16.50
  10   4 -10  481.45   18.50
 -10  -4  10  522.25   17.90
  10  -4 -10  514.05   16.50
  10   4  -9    3.80    2.80
  10   4  -9    1.40    4.20
 -10  -4   9    3.00    3.30
  10  -4  -9    1.90    2.70
  10   4  -8   66.29    6.90
  10   4  -8   60.99    4.90
  10  -4  -8   51.39    4.20
 -10  -4   8   53.89    5.20
  10   4  -7    6.90    2.40
  10   4  -7    7.90    4.10
  10   4  -7   13.40    2.80
  10  -4  -7    9.40    2.50
 -10  -4   7    6.40    3.10
  10  -4  -7    9.50    2.50
  10   4  -6  211.38    8.00
  10   4  -6  205.78   10.50
  10   4  -6  208.28    8.10
  10  -4  -6  218.08    7.80
  10  -4  -6  203.68    6.50
 -10  -4   6  225.28    9.20
  10   4  -5   32.80    5.40
  10   4  -5   22.80    2.80
  10   4  -5   28.00    3.20
  10  -4  -5   24.90    2.70
 -10  -4   5   21.10    3.50
  10   4  -4  351.96   14.00
  10   4  -4  365.16   11.50
  10  -4  -4  361.56   11.10
 -10  -4   4  351.86   12.20
  10   4  -3  279.37    9.40
  10   4  -3  268.67    9.20
 -10  -4   3  277.37   10.10
  10  -4  -3  287.97    8.90
  10   4  -2   18.00    2.50
  10   4  -2   27.30    2.70
  10  -4  -2   21.60    2.40
 -10  -4   2   23.70    3.10
  10   4  -1   30.50    2.70
  10   4  -1   30.30    3.00
  10  -4  -1   31.50    2.80
 -10  -4   1   30.80    3.60
  10   4   0   29.20    2.80
  10   4   0   24.90    2.80
 -10  -4   0   28.60    3.50
  10  -4   0   28.90    2.80
  10   4   1  822.42   23.30
  10   4   1  806.82   23.20
 -10  -4  -1  820.22   23.90
  10  -4   1  833.12   23.40
  10   4   2    3.30    1.80
  10   4   2    1.90    2.30
  10  -4   2    6.40    2.40
 -10  -4  -2    1.90    2.70
  10   4   3   40.80    3.70
  10   4   3   39.70    3.20
  10  -4   3   39.20    3.80
 -10  -4  -3   34.60    4.00
  10   4   4    3.20    1.70
  10   4   4    3.50    2.50
 -10  -4  -4   10.20    3.30
  10  -4   4    5.40    2.80
  10   4   5    3.90    2.70
  10   4   5    3.20    1.70
  10  -4   5    7.20    3.20
 -10  -4  -5    4.50    3.40
 -10   4  -6  128.79    5.30
  10   4   6  117.79    6.40
 -10   4  -6  114.99    4.90
  10  -4   6  120.49    7.80
 -10  -4  -6  130.79    8.10
  10   4   7   28.10    3.70
 -10   4  -7   35.80    3.20
  10  -4   7   27.50    4.60
 -10  -4  -7   30.20    4.90
  10   4   8   45.90    4.40
 -10   4  -8   49.30    3.90
 -10  -4  -8   43.50    5.50
  10  -4   8   32.90    5.10
 -10   4  -9    0.70    2.80
  10   4   9    4.00    3.10
 -10  -4  -9    4.50    4.30
  10  -4   9    6.40    4.30
 -10   4 -10   10.40    3.20
  10   4  10   17.80    3.60
 -10  -4 -10   17.90    5.20
  10  -4  10   15.40    4.90
  10   4  11   -1.00    2.90
 -10   4 -11   -0.20    3.00
  10  -4  11   -4.80    4.50
 -10  -4 -11    6.50    5.00
  10   5 -15    0.40    3.60
  10  -5 -15    6.20    4.60
  10  -5 -15    4.60    4.30
 -10  -5  15    9.60    5.80
  10   5 -14   86.89    7.00
 -10  -5  14  127.39    9.90
  10  -5 -14   98.19    8.10
  10   5 -13    1.80    3.20
 -10  -5  13    4.40    4.70
  10  -5 -13    1.10    3.50
  10   5 -12   56.49    5.20
  10  -5 -12   54.09    5.50
 -10  -5  12   53.79    6.50
  10   5 -11    0.90    2.90
  10   5 -11    5.00    4.70
 -10  -5  11    5.40    4.20
  10  -5 -11    9.30    3.30
  10   5 -10   37.00    6.10
  10   5 -10   33.30    4.00
 -10  -5  10   35.50    5.20
  10  -5 -10   34.90    4.20
  10   5  -9  198.48   11.20
  10   5  -9  205.68    8.40
  10   5  -9  200.18    8.10
  10  -5  -9  198.08    8.40
 -10  -5   9  191.78   10.00
  10   5  -8   40.90    3.70
  10   5  -8   39.80    5.90
  10   5  -8   41.70    3.90
 -10  -5   8   35.30    4.70
  10  -5  -8   36.60    3.60
  10   5  -7  212.38   11.10
  10   5  -7  206.68    8.10
  10  -5  -7  211.08    7.80
 -10  -5   7  220.68    9.70
  10   5  -6  170.48   10.00
  10   5  -6  166.28    6.60
  10   5  -6  160.38    6.70
 -10  -5   6  171.48    8.20
  10  -5  -6  160.48    6.30
  10  -5  -6  163.78    5.60
  10   5  -5  129.19    5.70
  10   5  -5  121.79    5.40
  10   5  -5  150.98    9.30
  10  -5  -5  122.89    5.40
 -10  -5   5  140.19    7.20
  10  -5  -5  125.99    5.20
  10   5  -4   13.20    4.80
  10   5  -4   11.00    2.20
  10   5  -4    8.30    2.00
  10  -5  -4    7.60    2.00
 -10  -5   4    7.40    2.90
  10  -5  -4    8.90    1.90
  10   5  -3   85.19    4.10
  10   5  -3   89.49    7.50
  10   5  -3   83.49    4.30
  10  -5  -3   80.49    3.80
 -10  -5   3   80.79    5.70
  10  -5  -3   78.29    3.90
  10   5  -2  225.48    7.30
  10   5  -2  208.18    7.10
  10  -5  -2  210.78    6.90
 -10  -5   2  198.88    8.40
  10  -5  -2  210.98    7.00
  10   5  -1   45.70    3.10
  10   5  -1   45.80    3.50
  10  -5  -1   45.70    3.30
 -10  -5   1   46.00    4.20
  10   5   0   37.50    2.80
  10   5   0   34.10    2.90
  10  -5   0   31.70    2.80
 -10  -5   0   28.80    3.50
  10   5   1  531.25   15.30
  10   5   1  538.45   15.40
 -10  -5  -1  524.85   16.70
  10  -5   1  548.55   15.90
  10   5   2  190.18    6.60
  10   5   2  202.18    6.90
 -10  -5  -2  193.08    8.40
  10  -5   2  197.18    7.60
  10   5   3   26.20    2.70
  10   5   3   22.80    2.30
 -10  -5  -3   23.60    3.80
  10  -5   3   20.40    3.20
  10   5   4    0.10    1.70
  10   5   4   -0.20    1.90
  10  -5   4    2.30    2.80
 -10  -5  -4    2.60    3.20
  10   5   5   78.79    4.50
  10   5   5   80.59    4.30
  10  -5   5   78.09    6.30
 -10  -5  -5   77.69    6.10
  10   5   6   98.49    5.10
  10  -5   6  101.79    7.30
 -10  -5  -6  123.59    8.10
  10   5   7  399.76   12.30
 -10  -5  -7  398.86   15.00
  10  -5   7  379.86   14.70
  10   5   8  284.77    9.50
  10  -5   8  282.97   12.50
 -10  -5  -8  280.67   12.60
  10   5   9   14.30    2.60
  10  -5   9   11.80    4.60
 -10  -5  -9   15.10    4.70
  10  -5  10   -2.60    4.30
 -10  -5 -10   -1.90    4.50
 -10  -5 -11    6.90    5.20
  10  -5  11   -1.80    4.60
  10   6 -14    5.90    3.50
 -10  -6  14   18.30    5.80
  10  -6 -14    4.50    4.00
  10   6 -13    0.90    3.20
  10  -6 -13   -1.40    3.60
 -10  -6  13   13.30    5.50
  10   6 -12   57.99    4.90
 -10  -6  12   66.19    7.10
  10  -6 -12   55.69    5.40
  10   6 -11   -0.50    4.70
  10   6 -11    0.80    3.00
 -10  -6  11    1.50    4.30
  10  -6 -11   -1.90    3.00
  10   6 -10    0.30    4.70
  10   6 -10   -0.30    2.70
  10  -6 -10   -1.60    2.80
 -10  -6  10    0.60    4.00
  10   6  -9   30.90    6.60
  10   6  -9   35.70    3.60
 -10  -6   9   27.40    4.90
  10  -6  -9   30.60    3.80
  10   6  -8   -2.00    2.20
  10   6  -8   -3.20    4.10
  10   6  -8   -2.10    1.80
  10  -6  -8   -0.10    2.30
 -10  -6   8    1.00    3.50
  10   6  -7   18.60    2.40
  10   6  -7   20.70    2.60
  10   6  -7   22.10    5.80
  10  -6  -7   19.10    2.70
 -10  -6   7   17.40    4.00
  10   6  -6   48.50    3.50
  10   6  -6   49.30    3.30
  10   6  -6   44.90    6.30
 -10  -6   6   43.60    4.60
  10  -6  -6   43.70    3.20
  10  -6  -6   44.40    3.50
  10   6  -5   39.40    6.50
  10   6  -5   30.60    2.40
  10   6  -5   25.40    2.10
  10  -6  -5   31.30    2.50
  10  -6  -5   33.00    3.30
 -10  -6   5   23.30    3.70
  10   6  -4  101.09    8.80
  10  -6  -4   85.59    3.60
  10  -6  -4   89.99    3.80
  10  -6  -4   82.49    5.40
 -10  -6   4   88.99    6.10
  10   6  -3   48.90    6.50
  10  -6  -3   43.70    2.60
 -10  -6   3   45.00    4.20
  10   6  -2   82.49    8.00
  10  -6  -2   73.19    3.50
  10  -6  -2   79.29    3.50
 -10  -6   2   89.39    5.80
  10  -6  -1  114.69    4.60
 -10  -6   1  126.39    6.50
  10  -6  -1  116.49    4.60
 -10  -6   0  107.49    6.20
  10  -6   0  100.69    4.50
 -10  -6  -1  145.39    7.20
  10  -6   1  142.19    5.90
 -10  -6  -2   33.60    4.00
  10  -6   2   30.80    3.20
 -10  -6  -3   83.39    5.90
  10  -6   3   77.69    5.30
 -10  -6  -4   -3.50    3.10
  10  -6   4    0.30    2.60
 -10  -6  -5  144.29    8.40
  10  -6   5  141.59    7.70
  10  -6   6   28.30    4.40
 -10  -6  -6   28.10    4.80
  10  -6   7    2.40    3.70
 -10  -6  -7   -4.40    3.80
 -10  -6  -8   18.60    4.90
  10  -6   8   21.40    4.80
  10  -6   9   39.20    6.00
 -10  -6  -9   36.80    6.00
  10  -6  10   12.20    5.10
 -10  -6 -10   11.50    4.90
 -10  -7  14   37.30    7.10
  10  -7 -14   32.80    5.40
  10   7 -13   21.60    3.40
 -10  -7  13   26.00    6.30
  10  -7 -13   17.60    4.50
  10   7 -12   12.10    2.80
  10  -7 -12   11.00    4.00
 -10  -7  12   20.90    5.60
  10   7 -11    0.00    2.20
  10   7 -11   -2.90    5.10
  10  -7 -11    2.50    3.10
 -10  -7  11    9.80    4.80
  10   7 -10  126.99   10.30
  10   7 -10  135.99    5.50
 -10  -7  10  146.99    9.70
  10  -7 -10  141.89    7.20
  10   7  -9   71.99    8.30
  10  -7  -9   72.89    5.40
 -10  -7   9   75.19    6.70
  10   7  -8   29.80    6.30
 -10  -7   8   35.20    5.10
  10  -7  -8   33.60    3.40
  10   7  -7   39.00    6.70
  10  -7  -7   44.80    3.70
 -10  -7   7   50.69    5.30
  10   7  -6  124.09    9.50
 -10  -7   6  140.59    7.90
  10  -7  -6  125.59    5.70
  10  -7  -6  133.09    5.10
  10   7  -5   18.00    5.70
  10  -7  -5   14.70    2.90
  10  -7  -5   12.90    1.70
 -10  -7   5    9.00    3.40
  10  -7  -5   13.00    1.50
  10   7  -4   19.20    5.80
 -10  -7   4   14.40    3.40
  10  -7  -4    8.70    3.10
  10   7  -3   13.50    5.30
 -10  -7   3   20.70    3.50
  10  -7  -1  137.89    4.70
  10  -7  -1  129.09    4.70
 -10  -7   1  152.38    7.20
 -10  -7   0  236.28    9.50
  10  -7   0  241.08    7.70
  10  -7   1   87.89    4.50
 -10  -7  -1   99.89    6.20
  10  -7   2    1.60    2.10
 -10  -7  -2    1.10    2.90
  10  -7   3   20.00    3.10
 -10  -7  -3   21.10    3.70
 -10  -7  -4   -0.80    3.30
  10  -7   4    0.50    2.60
  10  -7   5    8.70    3.40
 -10  -7  -5   15.40    4.10
  10  -7   6   23.10    4.20
 -10  -7  -6   30.30    4.70
 -10  -7  -7   -0.20    4.00
  10  -7   7    3.10    3.80
  10  -7   8   -1.30    3.90
 -10  -7  -8    4.00    4.60
  10  -7   9   31.00    5.70
 -10  -7  -9   34.30    5.80
  10  -7  10   19.90    5.70
 -10  -7 -10   14.80    5.30
  10  -8 -13    8.50    4.50
 -10  -8  13    7.90    5.40
 -10  -8  12   11.00    5.20
  10  -8 -12    6.40    3.90
  10   8 -11   19.50    6.70
  10  -8 -11   13.70    3.80
 -10  -8  11   12.80    4.90
  10   8 -10    4.70    6.10
 -10  -8  10    7.10    4.50
  10  -8 -10    2.40    2.80
  10   8  -9   15.20    6.10
 -10  -8   9   15.30    4.60
  10  -8  -9   13.60    2.80
  10   8  -8  111.09   10.40
 -10  -8   8  111.09    8.30
  10  -8  -8   94.49    5.10
  10   8  -7   14.90    5.90
 -10  -8   7   12.40    4.00
  10  -8  -7    9.50    2.10
  10   8  -6   37.70    7.20
 -10  -8   6   43.00    4.90
  10   8  -5    9.90    5.40
 -10  -8   5   11.10    3.50
  10  -8  -5   13.00    3.20
  10   8  -4    8.20    5.80
 -10  -8   4   13.60    3.50
  10   8  -3    4.00    5.40
 -10  -8   3    2.90    2.90
  10   8  -2    6.40    4.60
 -10  -8   2    0.20    2.80
  10   8  -1  220.78   12.60
 -10  -8   1  236.38    9.40
  10   8   0   76.39    8.30
  10  -8   0   72.39    3.30
  10  -8   0   66.69    3.70
 -10  -8   0   72.69    5.80
 -10  -8  -1  611.14   18.90
  10  -8   1  601.44   17.30
 -10  -8  -2  178.08    8.40
  10  -8   2  179.78    7.10
 -10  -8  -3    2.40    3.10
  10  -8   3   -0.80    2.40
  10  -8   4   -0.80    2.70
 -10  -8  -4   -2.30    3.30
  10  -8   5    6.10    3.20
 -10  -8  -5    8.70    3.70
  10  -8   6   38.80    4.80
 -10  -8  -6   38.90    5.10
  10  -8   7    4.80    4.00
 -10  -8  -7    6.50    4.20
 -10  -8  -8   22.50    5.30
  10  -8   8   18.70    4.80
  10  -8   9   12.60    4.90
 -10  -8  -9   11.00    5.10
 -10  -9  12   86.39    8.80
  10   9 -11   12.10    6.30
 -10  -9  11    6.30    4.90
  10   9 -10   71.59    9.40
 -10  -9  10   81.79    7.70
  10   9  -9   39.20    8.00
 -10  -9   9   29.00    5.30
  10   9  -8    7.10    6.50
 -10  -9   8    1.40    3.90
  10   9  -7   15.40    6.90
 -10  -9   7   23.20    4.50
  10   9  -6   83.79   10.10
 -10  -9   6   83.49    6.60
  10   9  -5    6.40    5.90
 -10  -9   5    4.60    3.60
  10   9  -4   50.29    8.60
 -10  -9   4   43.30    4.90
  10   9  -3  261.37   14.50
 -10  -9   3  281.17   10.90
  10   9  -2  137.69   10.40
 -10  -9   2  145.39    7.50
  10   9  -1   11.30    6.30
 -10  -9   1   18.30    3.60
  10   9   0   19.90    6.80
 -10  -9   0   21.30    3.60
  10   9   1    3.60    5.90
  10  -9   1    8.80    3.00
 -10  -9  -1    9.50    3.30
 -10  -9  -2   28.00    4.10
  10  -9   2   24.50    2.90
  10  -9   3   35.90    3.70
 -10  -9  -3   34.90    4.50
 -10  -9  -4    0.80    3.40
  10  -9   4    4.50    2.80
  10  -9   5    7.70    3.30
 -10  -9  -5   11.20    4.10
  10  -9   6   29.70    4.70
 -10  -9  -6   34.00    5.10
  10  -9   7   -2.50    3.80
 -10  -9  -7   -2.10    3.90
 -10  -9  -8   62.29    6.70
  10  -9   8   56.09    6.60
  10  10 -11   67.39   10.20
 -10 -10  11   70.49    7.90
  10  10 -10   19.90    7.70
 -10 -10  10   30.60    5.80
  10  10  -9   87.29   10.40
 -10 -10   9   90.49    7.90
  10  10  -8   54.49    8.90
 -10 -10   8   63.19    6.60
  10  10  -7    3.60    5.90
 -10 -10   7    7.20    4.00
  10  10  -6   62.29    9.60
 -10 -10   6   60.69    6.00
  10  10  -5   28.20    7.70
 -10 -10   5   43.40    5.00
  10  10  -4   -0.60    5.20
 -10 -10   4   13.10    3.80
  10  10  -3   -0.10    5.40
 -10 -10   3    8.90    3.50
  10  10  -2   60.29    8.70
 -10 -10   2   56.69    5.00
  10  10  -1   26.50    7.10
 -10 -10   1   33.40    4.30
  10  10   0    1.60    5.70
 -10 -10   0    4.20    3.20
  10  10   1   20.10    7.60
 -10 -10  -1   21.00    3.90
  10  10   2   28.10    7.30
 -10 -10  -2   18.00    3.80
  10  10   3   71.49   10.20
 -10 -10  -3   79.29    6.70
 -10 -10  -4   -0.70    3.30
 -10 -10  -5   35.00    5.10
 -10 -10  -6   42.60    5.50
  10 -10   7   20.10    5.60
 -10 -10  -7   17.40    4.80
  10  11 -10    6.70    7.00
 -10 -11  10   -4.90    4.60
  10  11  -9   14.10    7.20
 -10 -11   9   21.00    5.40
  10  11  -8   97.09   11.90
 -10 -11   8   81.99    7.60
  10  11  -7    3.80    6.20
 -10 -11   7   -0.10    3.80
  10  11  -6    7.90    7.10
 -10 -11   6    4.50    3.90
  10  11  -5   31.70    7.80
 -10 -11   5   29.40    4.70
  10  11  -4   16.30    6.50
 -10 -11   4   17.40    4.00
  10  11  -3   -2.40    5.70
 -10 -11   3    6.40    3.40
  10  11  -2   16.00    7.00
 -10 -11   2   17.50    3.90
  10  11  -1   20.30    7.90
 -10 -11   1   21.60    3.90
  10  11   0    2.00    6.20
 -10 -11   0    2.20    3.20
  10  11   1    0.30    6.80
 -10 -11  -1    5.40    3.30
  10  11   2   -0.80    6.40
 -10 -11  -2    6.00    3.50
  10  11   3   20.00    7.90
 -10 -11  -3   18.40    4.00
  10  11   4    2.80    6.60
 -10 -11  -4   11.20    3.90
  10  11   5    7.00    7.20
 -10 -11  -5    2.90    4.00
  10  11   6   11.20    8.00
 -10 -11  -6   11.60    5.00
  10  12  -8   15.60    7.70
 -10 -12   8   25.60    5.40
  10  12  -7   12.70    7.40
 -10 -12   7   13.40    4.60
  10  12  -6   12.20    7.90
 -10 -12   6   18.60    4.70
  10  12  -5    5.10    6.50
 -10 -12   5    2.00    5.70
  10  12  -4   24.60    8.10
  10  12  -3   -7.40    6.20
  10  12  -2   36.50    9.00
  10  12  -1   16.50    7.60
  10  12   0  -11.00    6.90
  10  12   1   12.40    7.50
  10  12   2    2.70    6.80
  10  12   3   15.50    7.60
  10  12   4   -3.60    7.00
  10  13  -5   52.79    9.80
  10  13  -4  182.18   14.30
  10  13  -3    5.00    7.20
  10  13  -2   27.80    9.30
  10  13  -1   15.30    7.80
  10  13   0   17.40    7.80
  10  13   1   13.80    8.40
  11   0 -16   47.50   14.70
  11   0 -15   -5.00    3.90
 -11   0  15    7.60    4.10
 -11   0  14   63.49    6.10
  11   0 -14   67.19    6.70
  11   0 -13    0.80    3.60
 -11   0  13    0.60    3.60
 -11   0  12   25.70    4.30
  11   0 -12   24.40    4.50
  11   0 -11    2.20    3.10
 -11   0  11    2.20    3.20
 -11   0  10  158.98    7.90
  11   0 -10  167.28    8.30
  11   0  -9    2.00    2.70
 -11   0   9   -2.50    2.50
  11   0  -9    0.30    2.30
  11   0  -8    3.40    2.70
 -11   0   8    2.90    2.30
  11   0  -8    4.70    2.60
 -11   0   8    4.50    2.70
  11   0  -7    1.70    2.40
 -11   0   7    0.70    2.00
  11   0  -7    1.30    2.50
 -11   0   7    1.30    2.40
  11   0  -6  125.99    6.20
 -11   0   6  113.89    5.90
 -11   0   6  107.09    5.20
 -11   0   5   -3.30    2.20
  11   0  -5    0.70    2.20
 -11   0   5   -1.60    1.60
 -11   0   4  114.39    5.60
 -11   0   4  115.59    5.20
  11   0  -4  111.09    5.70
 -11   0   3   -1.60    2.10
  11   0  -3   -1.80    2.00
 -11   0   3    1.10    1.70
 -11   0   2  598.44   17.70
  11   0  -2  622.34   18.20
 -11   0   2  606.64   17.90
 -11   0   1   -0.90    1.70
 -11   0   1    0.00    2.20
  11   0  -1   -1.00    2.10
  11   0   0  471.45   14.60
 -11   0   0  446.96   14.00
 -11   0   0  476.15   14.40
  11   0   1    0.90    2.30
 -11   0  -1    0.80    2.40
 -11   0  -1   -2.20    1.70
  11   0   2   18.40    3.00
 -11   0  -2   16.80    3.10
  11   0   3   -0.10    2.50
 -11   0  -3    0.90    2.70
  11   0   4   84.09    6.10
 -11   0  -4   71.49    5.80
 -11   0  -5   -3.20    2.90
  11   0   5   -2.00    2.70
 -11   0  -6   31.40    4.30
  11   0   6   33.20    4.50
  11   0   7   -3.60    3.20
 -11   0  -7    1.70    3.50
  11   0   8   10.10    4.10
 -11   0  -8   14.50    4.30
  11   0   9   -7.50    3.60
 -11   0  -9   -0.60    4.10
 -11   0 -10   13.30    4.90
  11   0  10   11.70    4.60
 -11   0 -11    2.60    4.80
  11   0  11    9.10    4.70
  11   1 -15  123.49    8.90
 -11   1  15  112.79    7.00
 -11  -1  15  103.09    8.00
  11  -1 -15   94.99    7.80
 -11   1  14   82.49    5.90
  11   1 -14   64.59    6.60
 -11  -1  14   70.89    6.70
  11  -1 -14   76.79    7.20
  11   1 -13  150.18    9.10
 -11   1  13  150.28    7.80
 -11  -1  13  158.68    9.40
  11  -1 -13  159.08    9.20
 -11   1  12   -1.10    2.80
  11   1 -12    0.90    3.30
 -11  -1  12    2.30    3.80
  11  -1 -12    4.70    3.50
  11   1 -11   -0.30    3.00
 -11   1  11    0.10    2.30
 -11   1  11    0.80    2.80
  11  -1 -11    0.10    3.10
 -11  -1  11    5.30    3.50
  11   1 -10   -0.80    2.90
  11   1 -10    2.40    2.80
 -11   1  10   -1.10    2.50
 -11   1  10    0.20    2.10
 -11  -1  10   -0.10    3.10
  11  -1 -10    3.40    3.10
  11   1  -9   98.09    6.20
 -11   1   9  101.29    5.70
  11   1  -9  103.79    6.40
  11  -1  -9   96.39    6.30
 -11  -1   9   91.09    6.50
 -11   1   8   12.30    2.70
  11   1  -8    9.20    2.80
  11   1  -8   10.20    3.20
 -11  -1   8   11.60    3.20
  11  -1  -8   12.00    3.00
  11  -1  -8   12.90    2.40
  11   1  -7   95.59    6.30
 -11   1   7   96.29    5.30
  11   1  -7  105.79    5.90
  11  -1  -7  111.99    6.00
  11  -1  -7  102.69    5.10
 -11  -1   7  110.69    6.10
 -11   1   6    1.30    2.00
 -11   1   6    2.80    1.70
  11   1  -6    3.50    2.40
  11   1  -6    1.30    2.90
  11  -1  -6    1.30    2.30
 -11  -1   6    0.20    2.40
  11   1  -5  569.74   17.10
 -11   1   5  563.14   16.10
 -11   1   5  556.04   16.40
  11  -1  -5  560.04   16.90
 -11  -1   5  543.45   17.00
 -11   1   4   15.40    2.00
 -11   1   4   20.00    2.60
  11   1  -4   22.90    3.10
  11  -1  -4   23.00    3.00
 -11  -1   4   19.50    3.10
 -11   1   3  708.73   20.10
 -11   1   3  733.03   19.90
  11   1  -3  722.93   20.80
 -11  -1   3  648.34   21.00
 -11  -1   3  697.53   20.60
  11  -1  -3  719.33   20.60
  11   1  -2  131.89    6.20
 -11   1   2  133.99    5.30
 -11   1   2  135.49    5.80
 -11  -1   2  129.89    6.60
  11  -1  -2  138.49    6.20
 -11  -1   2  127.49    6.10
 -11   1   1   59.99    3.70
  11   1  -1   74.79    5.00
 -11   1   1   71.19    4.50
 -11  -1   1   75.09    5.10
  11  -1  -1   82.19    4.90
  11   1   0   61.89    4.70
 -11   1   0   57.49    4.40
  11  -1   0   61.29    4.50
 -11  -1   0   49.20    4.00
  11   1   1   32.80    3.50
 -11   1  -1   34.80    3.50
 -11   1  -1   38.10    3.10
 -11  -1  -1   36.90    3.60
  11  -1   1   35.10    3.40
 -11   1  -2   14.80    2.30
  11   1   2   17.70    3.10
 -11   1  -2   18.80    3.00
  11  -1   2   16.80    3.00
 -11  -1  -2   19.10    3.30
  11   1   3  170.28    7.70
 -11   1  -3  159.18    6.70
 -11   1  -3  167.88    7.30
  11  -1   3  157.48    7.60
 -11  -1  -3  163.38    7.60
  11   1   4    6.80    2.90
 -11   1  -4   -3.70    2.50
  11  -1   4   -2.80    2.60
 -11  -1  -4   -0.70    2.80
  11   1   5   16.10    3.50
 -11   1  -5   17.90    3.70
  11  -1   5   21.40    3.90
 -11  -1  -5   16.60    3.60
 -11   1  -6    5.70    3.40
  11   1   6    7.50    3.40
  11  -1   6    9.20    3.60
 -11  -1  -6    6.80    3.50
  11   1   7   12.30    4.00
 -11   1  -7   10.40    3.70
  11  -1   7    3.50    3.60
 -11  -1  -7    8.80    3.70
 -11   1  -8    7.70    4.10
  11   1   8   10.60    4.00
  11  -1   8    7.60    4.00
 -11  -1  -8    8.00    4.20
  11   1   9   38.80    5.40
 -11   1  -9   37.20    5.30
 -11  -1  -9   30.30    5.30
  11  -1   9   37.90    5.50
 -11   1 -10    1.30    4.10
  11   1  10    2.00    4.00
 -11  -1 -10   -0.70    4.40
  11  -1  10    4.10    4.50
 -11   1 -11   34.00    5.70
  11   1  11   43.00    5.80
  11  -1  11   36.40    6.20
 -11  -1 -11   24.60    5.80
  11   2 -15   21.50    5.30
 -11  -2  15   18.70    5.50
  11  -2 -15   22.50    5.10
 -11   2  14   -1.90    2.30
  11   2 -14   -0.50    4.00
  11  -2 -14    2.10    4.10
 -11  -2  14    8.30    4.70
 -11   2  13    4.00    2.40
  11   2 -13    2.80    3.70
 -11  -2  13   11.20    4.60
  11  -2 -13    2.50    3.70
  11   2 -12   22.30    4.40
 -11   2  12   24.90    3.00
 -11  -2  12   21.40    4.80
  11  -2 -12   25.10    4.50
 -11   2  11  192.48    7.30
  11   2 -11  190.68    9.20
  11  -2 -11  204.08    9.40
 -11  -2  11  203.28   10.00
 -11   2  10   10.30    2.10
  11   2 -10    5.10    3.60
 -11   2  10   12.30    2.40
  11   2 -10    6.80    3.10
 -11  -2  10   11.20    3.70
  11  -2 -10    7.00    3.20
  11   2  -9   -1.30    2.60
  11   2  -9    2.20    3.10
 -11   2   9   -0.60    1.90
 -11   2   9    0.20    1.70
 -11  -2   9   -0.70    3.20
  11  -2  -9   -3.20    2.60
 -11   2   8   10.70    1.90
  11   2  -8    7.40    3.60
 -11   2   8   10.10    2.20
  11   2  -8    8.50    2.80
  11  -2  -8   15.00    3.00
  11  -2  -8   10.90    1.50
 -11  -2   8    5.40    3.10
  11   2  -7   68.39    5.20
 -11   2   7   69.79    3.90
 -11   2   7   64.79    3.50
  11   2  -7   72.59    6.20
  11  -2  -7   74.39    5.10
 -11  -2   7   48.20    4.50
  11  -2  -7   69.89    3.70
 -11   2   6  279.17    8.40
  11   2  -6  263.07    9.80
 -11   2   6  280.17    8.50
  11   2  -6  274.37   11.10
 -11  -2   6  264.97   10.10
  11  -2  -6  268.67    9.70
  11   2  -5   82.39    5.30
 -11   2   5   84.69    3.80
 -11   2   5   85.19    4.00
 -11  -2   5   83.79    5.40
  11  -2  -5   91.99    5.10
  11   2  -4  284.87   10.00
 -11   2   4  283.37    8.60
 -11   2   4  303.67    8.80
 -11  -2   4  277.07   10.20
  11  -2  -4  284.27    9.80
  11   2  -3  163.98    7.10
 -11   2   3  171.88    5.70
 -11   2   3  172.08    5.90
  11  -2  -3  169.38    6.90
 -11  -2   3  166.48    7.30
 -11   2   2  318.57    9.70
 -11   2   2  306.17    9.50
  11   2  -2  323.17   10.90
 -11  -2   2  325.87   11.10
  11  -2  -2  333.57   10.70
 -11   2   1  142.99    5.50
 -11   2   1  133.79    5.10
  11   2  -1  139.79    6.30
  11  -2  -1  137.29    6.20
 -11  -2   1  138.49    6.60
 -11   2   0   89.29    4.60
 -11   2   0   87.29    4.10
  11   2   0   90.59    5.30
  11  -2   0   91.89    5.20
 -11  -2   0   94.39    5.70
 -11   2  -1   15.30    2.50
  11   2   1   19.20    3.00
 -11   2  -1   14.40    2.10
 -11  -2  -1   18.60    3.20
  11  -2   1   19.80    3.20
 -11   2  -2  169.48    6.30
 -11   2  -2  174.68    6.90
  11   2   2  171.48    7.60
  11  -2   2  164.88    7.50
 -11  -2  -2  177.18    7.70
 -11   2  -3  291.37   10.10
  11   2   3  294.57   10.80
  11  -2   3  307.17   11.10
 -11  -2  -3  303.47   11.00
  11   2   4   67.69    5.70
 -11   2  -4   65.19    4.20
 -11   2  -4   70.99    5.40
  11  -2   4   71.69    5.50
 -11  -2  -4   67.49    5.40
  11   2   5    1.70    3.10
 -11   2  -5   -0.90    2.80
 -11   2  -5    1.90    2.00
 -11  -2  -5    0.00    3.20
  11  -2   5    2.90    3.10
  11   2   6   15.50    3.80
 -11   2  -6   22.90    3.90
 -11  -2  -6   20.80    4.20
  11  -2   6   14.50    4.00
 -11   2  -7   79.59    6.70
  11   2   7   69.09    5.80
  11  -2   7   77.19    6.60
 -11  -2  -7   77.99    6.40
 -11   2  -8   15.80    4.20
  11   2   8   18.70    4.20
 -11  -2  -8    7.90    4.20
  11  -2   8   16.90    4.50
 -11   2  -9    3.40    4.00
  11   2   9    6.30    3.90
 -11  -2  -9   -0.90    4.10
  11  -2   9    7.10    4.40
  11   2  10   -1.90    3.50
 -11   2 -10   -1.40    4.00
  11  -2  10   -0.70    4.30
 -11  -2 -10   -1.20    4.40
 -11   2 -11    9.90    4.70
  11   2  11    4.70    4.00
  11  -2  11    4.80    4.80
 -11  -2 -11    1.30    4.90
  11   3 -15   13.30    4.80
  11  -3 -15    8.60    4.60
 -11  -3  15    1.50    5.00
  11   3 -14   -0.40    3.80
  11  -3 -14    2.80    4.10
 -11  -3  14   -2.20    4.50
  11   3 -13   76.59    6.70
  11  -3 -13   97.19    7.60
 -11  -3  13   74.99    7.30
  11   3 -12    5.10    3.60
 -11  -3  12    6.10    4.30
  11  -3 -12    2.10    3.70
  11   3 -11   11.40    4.20
  11   3 -11   17.10    3.90
  11  -3 -11   16.00    4.00
 -11  -3  11   16.90    4.60
  11   3 -10   22.40    3.80
  11   3 -10   30.20    5.00
  11  -3 -10   26.10    4.10
 -11  -3  10   21.60    4.50
  11   3  -9  260.37   10.10
  11   3  -9  247.68   11.50
  11  -3  -9  253.27   10.10
 -11  -3   9  278.57   11.30
  11   3  -8   83.09    5.70
  11   3  -8   79.79    7.00
 -11  -3   8   82.39    6.30
  11  -3  -8   75.59    5.50
  11   3  -7    0.40    3.50
  11   3  -7    2.30    2.50
  11  -3  -7   -1.00    2.20
  11  -3  -7    0.90    1.20
 -11  -3   7    4.10    3.00
  11   3  -6   68.29    5.00
  11   3  -6   84.39    7.00
 -11  -3   6   67.89    5.30
  11  -3  -6   60.89    4.70
  11   3  -5  195.48    7.90
  11   3  -5  206.08   10.00
 -11  -3   5  201.58    8.50
  11  -3  -5  199.98    7.70
  11   3  -4   91.19    5.20
  11   3  -4   82.29    4.90
  11  -3  -4   83.99    4.80
 -11  -3   4   84.39    5.70
  11   3  -3   15.80    2.70
  11   3  -3   16.40    2.60
  11  -3  -3   12.40    2.40
 -11  -3   3   14.40    3.10
  11   3  -2   68.39    4.40
  11   3  -2   73.89    4.80
 -11  -3   2   71.79    5.30
  11  -3  -2   68.59    4.40
  11   3  -1   83.79    5.00
  11   3  -1   76.39    4.70
  11  -3  -1   78.89    4.80
 -11  -3   1   77.99    5.50
  11   3   0   21.20    2.70
  11   3   0   28.40    3.30
 -11  -3   0   32.00    3.60
  11  -3   0   38.20    3.50
  11   3   1    1.80    2.40
  11   3   1   -0.50    1.80
 -11   3  -1    0.70    1.50
 -11  -3  -1   -1.00    2.60
  11  -3   1   -2.40    2.00
 -11   3  -2   15.90    2.20
  11   3   2   15.70    2.60
  11   3   2   15.70    3.10
 -11   3  -2   11.90    1.90
 -11  -3  -2   11.10    3.10
  11  -3   2   15.20    3.10
  11   3   3   69.19    6.80
 -11   3  -3   62.99    4.20
  11   3   3   65.89    5.30
 -11   3  -3   62.39    3.60
 -11  -3  -3   62.09    4.90
  11  -3   3   63.39    5.30
 -11   3  -4    1.30    1.80
  11   3   4    3.10    2.90
 -11   3  -4    0.30    2.40
 -11  -3  -4    2.10    3.30
  11  -3   4   -0.40    2.60
 -11   3  -5   -3.90    2.60
 -11   3  -5   -4.00    1.60
  11   3   5    0.80    2.80
 -11  -3  -5   -1.00    3.30
  11  -3   5    0.40    3.10
 -11   3  -6   53.39    4.40
  11   3   6   48.10    4.70
 -11  -3  -6   43.00    5.30
  11  -3   6   47.20    5.30
  11   3   7    2.80    3.20
 -11   3  -7    3.60    3.20
 -11  -3  -7    5.50    4.10
  11  -3   7    5.90    3.80
  11   3   8   45.00    5.00
 -11   3  -8   47.80    4.80
 -11  -3  -8   34.60    5.30
  11  -3   8   45.90    5.80
 -11   3  -9   13.20    3.90
  11   3   9   11.30    3.80
 -11  -3  -9    9.10    4.60
  11  -3   9   12.70    4.50
 -11   3 -10    3.60    3.80
  11   3  10    3.40    3.60
  11  -3  10   -0.90    4.30
 -11  -3 -10   -2.20    4.50
  11   3  11   34.50    4.80
 -11   3 -11   34.70    5.00
 -11  -3 -11   20.10    5.90
  11  -3  11   27.20    5.80
  11   4 -15    4.70    4.10
  11  -4 -15   10.30    4.80
 -11  -4  15    7.40    5.60
  11   4 -14    8.70    4.20
  11  -4 -14   17.50    5.10
 -11  -4  14   21.00    5.70
  11   4 -13   -3.70    3.40
  11  -4 -13   -0.90    3.70
 -11  -4  13    0.50    4.50
  11   4 -12   17.80    4.10
 -11  -4  12   23.80    5.30
  11  -4 -12    8.50    3.90
  11   4 -11    7.90    3.40
  11   4 -11    5.30    4.30
 -11  -4  11   16.10    4.70
  11  -4 -11   10.50    3.70
  11   4 -10   39.90    4.40
  11   4 -10   33.90    5.80
 -11  -4  10   26.70    4.80
  11  -4 -10   46.30    4.70
  11   4  -9  127.09    6.80
  11   4  -9  123.09    8.70
  11  -4  -9  139.29    7.10
 -11  -4   9  122.49    8.30
  11   4  -8  472.35   15.10
  11   4  -8  453.15   17.50
  11  -4  -8  464.95   14.90
 -11  -4   8  468.25   16.10
  11   4  -7   56.79    6.20
  11   4  -7   67.89    5.10
 -11  -4   7   63.89    5.50
  11  -4  -7   61.69    4.50
  11   4  -6  109.09    5.80
  11   4  -6   93.69    7.90
  11   4  -6  107.39    5.60
  11  -4  -6  110.09    5.50
 -11  -4   6   95.59    6.80
  11   4  -5   28.10    5.50
  11   4  -5   26.00    3.10
  11   4  -5   25.50    3.20
 -11  -4   5   22.70    3.70
  11  -4  -5   27.20    3.00
  11   4  -4  805.62   22.90
  11   4  -4  795.22   25.80
  11   4  -4  801.12   22.90
 -11  -4   4  775.92   23.50
  11  -4  -4  795.82   22.50
  11   4  -3    7.70    2.50
  11   4  -3    3.70    1.90
 -11  -4   3    1.60    2.60
  11  -4  -3    3.90    2.00
  11   4  -2   16.50    2.60
 -11  -4   2   10.20    3.00
  11  -4  -2   12.60    2.40
  11   4  -1   86.29    5.10
 -11  -4   1   87.29    5.80
  11  -4  -1   82.29    4.60
  11   4   0   12.70    2.70
  11  -4   0    9.20    2.40
 -11  -4   0   14.70    3.10
  11   4   1    2.00    2.30
  11   4   1    0.10    1.50
 -11  -4  -1   -2.60    2.40
  11  -4   1    2.50    2.20
  11   4   2   83.99    5.30
 -11  -4  -2   81.09    6.30
  11  -4   2   81.59    5.40
  11   4   3   11.60    2.20
  11   4   3   12.40    2.90
 -11  -4  -3    4.30    3.20
  11  -4   3   12.80    3.00
  11   4   4    4.50    2.80
  11   4   4    4.30    2.10
 -11  -4  -4    1.70    3.30
  11  -4   4    0.10    2.80
  11   4   5   98.49    6.20
  11   4   5   97.39    5.30
  11  -4   5  100.09    7.10
 -11  -4  -5  102.29    7.60
 -11   4  -6   89.69    4.70
  11   4   6  101.39    6.40
 -11  -4  -6  103.99    8.10
  11  -4   6   98.99    7.60
  11   4   7    3.50    3.00
 -11   4  -7    4.50    2.40
  11  -4   7    4.50    3.80
 -11  -4  -7    6.50    4.20
  11   4   8   13.70    3.40
 -11   4  -8   13.70    3.10
  11  -4   8   12.90    4.40
 -11  -4  -8   12.40    4.80
  11   4   9    6.40    3.30
 -11   4  -9   -0.40    2.70
 -11  -4  -9    6.50    4.40
  11  -4   9    4.10    4.30
 -11   4 -10   -3.80    2.80
  11   4  10    4.80    3.30
 -11  -4 -10    0.50    4.70
  11  -4  10   -2.60    4.30
  11   4  11   -0.20    3.10
 -11   4 -11   -1.10    3.00
 -11  -4 -11    1.90    5.20
  11  -4  11    3.50    4.90
  11   5 -14   27.50    4.60
 -11  -5  14   17.20    5.80
  11  -5 -14   19.30    5.00
  11   5 -13   17.30    4.00
  11  -5 -13    9.80    4.30
 -11  -5  13   18.70    5.80
  11  -5 -13   16.80    4.30
  11   5 -12    4.30    3.20
  11  -5 -12    9.20    3.80
  11  -5 -12    9.80    3.70
 -11  -5  12   16.40    5.20
  11   5 -11   80.19    8.10
 -11  -5  11  108.49    8.90
  11  -5 -11   97.29    6.80
  11   5 -10   12.30    3.40
  11   5 -10    9.10    4.80
 -11  -5  10    4.50    4.20
  11  -5 -10   11.60    3.30
  11   5  -9   95.59    6.20
  11   5  -9  100.99    9.10
  11  -5  -9   89.79    6.00
 -11  -5   9  107.59    8.20
  11   5  -8   10.80    2.60
  11   5  -8   12.00    5.00
  11   5  -8   17.80    3.20
  11  -5  -8   13.70    3.00
 -11  -5   8   13.20    4.10
  11   5  -7    3.90    2.30
  11   5  -7   -0.90    2.30
  11   5  -7    3.00    4.20
  11  -5  -7    3.50    2.40
 -11  -5   7    0.10    3.30
  11   5  -6   56.99    6.90
  11   5  -6   68.29    4.90
  11  -5  -6   67.49    3.60
 -11  -5   6   67.99    5.70
  11  -5  -6   62.99    4.50
  11   5  -5  213.78    7.80
  11   5  -5  210.58    8.00
  11   5  -5  223.98   11.20
 -11  -5   5  224.38    9.40
  11   5  -4 1178.28   32.20
  11   5  -4 1118.39   32.10
  11   5  -4 1179.88   36.10
  11  -5  -4 1175.78   32.00
 -11  -5   4 1173.58   33.40
  11   5  -3   19.30    2.40
  11   5  -3   21.30    2.80
 -11  -5   3   20.60    3.50
  11  -5  -3   19.80    2.40
  11   5  -2   19.40    2.40
  11   5  -2   23.70    2.70
 -11  -5   2   11.90    3.00
  11  -5  -2   16.20    2.40
  11   5  -1   10.50    2.10
  11   5  -1    8.10    2.30
  11  -5  -1   12.90    2.30
 -11  -5   1   13.30    3.20
  11   5   0    2.10    1.80
  11   5   0    3.00    2.10
  11  -5   0    1.00    2.00
 -11  -5   0   -0.20    2.60
  11   5   1  129.89    5.70
  11   5   1  122.09    5.30
  11  -5   1  142.29    6.20
 -11  -5  -1  138.69    7.20
  11   5   2    9.40    2.40
  11   5   2    9.30    2.00
 -11  -5  -2    6.50    3.10
  11  -5   2    8.40    2.60
  11   5   3  131.89    5.60
  11   5   3  130.89    5.90
 -11  -5  -3  138.29    7.80
  11  -5   3  132.99    6.80
  11   5   4  278.27    9.40
  11   5   4  294.97    9.80
  11  -5   4  295.17   11.10
 -11  -5  -4  277.77   11.60
  11   5   5   12.70    2.70
  11   5   5   12.50    2.60
 -11  -5  -5   12.60    4.10
  11  -5   5   12.10    3.70
  11   5   6    8.70    2.50
  11  -5   6    3.50    3.60
 -11  -5  -6    5.30    4.20
  11   5   7    2.60    2.50
  11  -5   7    6.50    3.80
 -11  -5  -7   -0.20    4.20
  11   5   8  162.08    6.90
 -11  -5  -8  150.68    9.90
  11  -5   8  150.28    9.70
  11   5   9  118.59    5.90
  11  -5   9  117.89    9.40
 -11  -5  -9  116.19    9.50
  11  -5  10   28.60    5.90
 -11  -5 -10   28.80    5.90
  11   6 -14   -0.70    3.50
 -11  -6  14    6.90    5.60
  11  -6 -14    0.80    3.80
  11   6 -13   22.50    4.20
  11  -6 -13   27.70    4.80
 -11  -6  13   27.90    6.10
  11   6 -12  226.08    9.60
  11  -6 -12  226.88   10.30
 -11  -6  12  219.68   12.20
  11   6 -11   42.30    4.40
  11   6 -11   54.39    7.60
  11  -6 -11   47.10    5.00
 -11  -6  11   51.39    6.50
  11   6 -10   23.50    5.90
  11   6 -10   35.20    4.00
 -11  -6  10   29.30    5.30
  11  -6 -10   30.30    4.00
  11   6  -9  225.08    8.80
  11   6  -9  230.68   12.80
  11  -6  -9  231.78    9.20
 -11  -6   9  225.38   11.20
  11   6  -8   23.00    5.80
  11   6  -8   10.50    2.80
  11   6  -8   13.20    2.50
 -11  -6   8   12.90    4.20
  11  -6  -8    5.90    2.70
  11   6  -7  111.39    9.60
  11   6  -7  114.59    5.60
  11   6  -7  112.39    5.40
  11  -6  -7  121.49    5.70
 -11  -6   7  119.69    7.90
  11   6  -6   18.40    5.70
  11   6  -6   18.00    2.40
  11   6  -6   25.10    2.70
  11  -6  -6   21.60    2.80
  11  -6  -6   26.50    2.80
 -11  -6   6   24.20    4.20
  11   6  -5   79.09    4.20
  11   6  -5   74.19    4.00
  11   6  -5   62.79    7.40
 -11  -6   5   79.79    6.40
  11  -6  -5   85.39    4.90
  11   6  -4   26.90    2.20
  11   6  -4   27.40    2.40
  11   6  -4   30.40    5.90
  11  -6  -4   26.30    2.60
  11  -6  -4   23.90    3.50
 -11  -6   4   30.70    4.10
  11   6  -3  164.68    5.60
  11   6  -3  181.18   10.60
  11  -6  -3  163.78    6.00
 -11  -6   3  153.28    7.90
  11  -6  -2    2.20    1.80
 -11  -6   2    0.30    2.80
 -11  -6   1  125.69    7.00
  11  -6  -1  125.49    5.40
 -11  -6   0   51.39    4.60
  11  -6   0   49.40    3.90
  11  -6   1  313.27   10.50
 -11  -6  -1  313.17   11.60
 -11  -6  -2    2.60    3.00
  11  -6   2    3.70    2.50
 -11  -6  -3   12.60    3.80
  11  -6   3    9.90    3.00
  11  -6   4    5.70    3.10
 -11  -6  -4   -1.80    3.50
  11  -6   5   -1.00    2.90
 -11  -6  -5    5.20    3.90
  11  -6   6    2.40    3.40
 -11  -6  -6    1.20    3.90
  11  -6   7   37.20    5.50
 -11  -6  -7   38.50    5.60
  11  -6   8    9.30    4.50
 -11  -6  -8   20.00    5.30
 -11  -6  -9  245.18   12.80
  11  -6   9  267.47   13.00
 -11  -6 -10   28.50    5.70
  11  -6  10   36.40    6.10
  11   7 -13  114.09    6.30
  11  -7 -13  119.49    8.20
 -11  -7  13  127.79   10.70
  11   7 -12   16.30    3.20
  11  -7 -12   25.80    4.50
 -11  -7  12   29.80    6.00
  11   7 -11    4.90    5.50
  11   7 -11   -3.90    2.30
 -11  -7  11    4.70    4.70
  11  -7 -11   -1.00    2.90
  11   7 -10    2.70    5.70
  11   7 -10    9.10    2.40
  11  -7 -10    6.00    3.00
 -11  -7  10    6.30    4.50
  11   7  -9   86.79    4.50
  11   7  -9   92.09    9.90
  11  -7  -9   88.29    5.80
 -11  -7   9   78.39    7.10
  11   7  -8   12.80    6.20
 -11  -7   8   18.90    4.60
  11  -7  -8   15.50    2.90
  11   7  -7  555.14   21.90
  11  -7  -7  544.35   16.60
 -11  -7   7  588.74   19.10
  11   7  -6    3.50    5.30
  11  -7  -6    0.30    1.90
 -11  -7   6   -1.50    3.40
  11  -7  -6   -1.30    1.90
  11   7  -5   70.29    8.10
  11  -7  -5   73.99    5.10
  11  -7  -5   76.89    3.90
 -11  -7   5   70.89    5.70
  11   7  -4  451.55   18.00
  11  -7  -4  408.16   12.30
 -11  -7   4  439.66   14.80
  11   7  -3  101.99    9.50
 -11  -7   3   92.49    6.70
  11  -7  -3   94.39    4.10
  11   7  -2    9.80    5.60
 -11  -7   2    8.80    3.30
  11  -7  -2    9.80    1.80
  11  -7  -1   68.89    3.90
 -11  -7   1   75.49    5.60
 -11  -7   0   25.10    3.90
  11  -7   0   28.50    2.80
 -11  -7  -1  419.76   14.20
  11  -7   1  404.06   12.80
 -11  -7  -2    7.50    3.50
  11  -7   2    7.40    2.60
 -11  -7  -3   88.29    7.10
  11  -7   3   79.39    5.70
 -11  -7  -4  166.68    9.20
  11  -7   4  158.38    8.00
  11  -7   5   55.29    5.20
 -11  -7  -5   64.59    5.90
  11  -7   6   14.30    4.00
 -11  -7  -6   13.40    4.50
 -11  -7  -7   21.10    5.20
  11  -7   7   19.50    4.90
  11  -7   8   12.00    4.70
 -11  -7  -8   10.30    5.00
  11  -7   9   46.70    6.50
 -11  -7  -9   43.70    6.40
 -11  -8  13   83.09    8.60
 -11  -8  12    8.90    5.40
  11   8 -11  168.38   12.70
 -11  -8  11  175.78   11.40
  11   8 -10   41.90    7.60
 -11  -8  10   52.69    6.70
  11  -8 -10   55.89    7.10
  11   8  -9   48.30    8.30
  11  -8  -9   38.10    4.40
 -11  -8   9   49.99    5.90
  11   8  -8  138.49   10.90
 -11  -8   8  133.69    9.10
  11  -8  -8  124.09    6.10
  11   8  -7    5.80    6.00
  11  -8  -7    4.80    2.10
 -11  -8   7   -0.60    3.80
  11   8  -6    7.90    5.50
 -11  -8   6    4.40    3.70
  11  -8  -6    4.00    1.90
  11   8  -5   29.50    7.10
  11  -8  -5   15.60    1.90
 -11  -8   5   15.90    4.10
  11   8  -4   82.59    9.20
 -11  -8   4   66.89    5.80
  11   8  -3  129.99   11.10
 -11  -8   3  112.59    7.30
  11   8  -2    2.10    5.00
 -11  -8   2    3.20    3.20
  11   8  -1    5.90    4.70
 -11  -8   1   16.10    3.50
  11  -8  -1   10.90    1.80
  11  -8   0   26.20    2.60
  11  -8   1   18.30    2.70
 -11  -8  -1   23.30    3.90
 -11  -8  -2   20.70    4.00
  11  -8   2   14.20    2.90
 -11  -8  -3    9.90    3.60
  11  -8   3    6.00    2.90
 -11  -8  -4   17.20    4.20
  11  -8   4    9.50    3.30
  11  -8   5   -0.10    3.10
 -11  -8  -5    6.00    4.10
 -11  -8  -6   82.59    7.10
  11  -8   6   90.69    7.40
  11  -8   7    0.70    4.10
 -11  -8  -7   -2.10    4.30
  11  -8   8  142.19    9.80
 -11  -8  -8  120.49   10.10
 -11  -9  12    3.60    5.20
  11   9 -11    6.10    5.90
 -11  -9  11   -1.30    4.70
  11   9 -10  149.19   12.70
 -11  -9  10  125.39   10.30
  11   9  -9   -3.50    6.00
 -11  -9   9    1.40    4.40
  11   9  -8   -0.60    6.00
 -11  -9   8   -1.70    4.00
  11   9  -7    7.50    6.20
 -11  -9   7    6.00    4.00
  11   9  -6  106.09   10.60
 -11  -9   6  123.59    8.30
  11   9  -5    4.60    5.70
 -11  -9   5    8.20    3.70
  11   9  -4   32.20    7.70
 -11  -9   4   23.10    4.30
  11   9  -3   83.59    9.70
 -11  -9   3   79.19    6.70
  11   9  -2  141.89   10.90
 -11  -9   2  154.48    8.30
  11   9  -1  221.98   13.10
 -11  -9   1  219.08    9.70
  11   9   0  157.78   12.90
 -11  -9   0  178.78    8.70
  11   9   1   -5.50    5.40
 -11  -9  -1   -1.00    3.20
  11  -9   2   68.89    5.10
 -11  -9  -2   79.49    6.70
  11  -9   3    1.90    2.70
 -11  -9  -3    6.30    3.50
  11  -9   4   -2.10    2.80
 -11  -9  -4    4.80    3.90
 -11  -9  -5   14.80    4.60
  11  -9   5   11.50    3.80
 -11  -9  -6   10.10    4.70
  11  -9   6   12.10    4.00
 -11  -9  -7   10.30    4.60
  11  -9   7   11.70    4.70
  11  10 -11   37.30    8.80
 -11 -10  11   35.30    6.70
  11  10 -10    5.30    6.90
 -11 -10  10    6.00    5.00
  11  10  -9   54.09    9.10
 -11 -10   9   56.69    6.80
  11  10  -8   30.90    7.70
 -11 -10   8   43.90    6.10
  11  10  -7    4.50    6.10
 -11 -10   7    2.20    4.00
  11  10  -6   15.40    7.50
 -11 -10   6   25.10    4.80
  11  10  -5    4.50    6.30
 -11 -10   5    7.60    4.00
  11  10  -4    7.20    6.00
 -11 -10   4   19.70    4.20
  11  10  -3   12.40    6.00
 -11 -10   3   16.70    4.00
  11  10  -2   25.60    7.20
 -11 -10   2   26.60    4.40
  11  10  -1  117.79   12.00
 -11 -10   1  108.89    7.40
  11  10   0   59.49    9.50
 -11 -10   0   54.59    5.30
  11  10   1   31.20    7.60
 -11 -10  -1   30.30    4.40
  11  10   2    8.20    7.20
 -11 -10  -2    0.40    3.40
  11  10   3   36.40    8.70
 -11 -10  -3   32.00    4.70
 -11 -10  -4   24.00    4.80
 -11 -10  -5    2.60    4.10
 -11 -10  -6   15.20    4.80
  11  11  -9    2.90    6.70
 -11 -11   9    5.20    4.80
  11  11  -8   -1.20    6.80
 -11 -11   8    6.50    4.60
  11  11  -7   38.20    8.50
 -11 -11   7   49.99    6.20
  11  11  -6   24.30    8.40
 -11 -11   6   25.80    5.10
  11  11  -5   -0.30    6.50
 -11 -11   5    5.90    4.00
  11  11  -4   42.70    8.10
 -11 -11   4   54.29    5.80
  11  11  -3   25.30    7.10
 -11 -11   3   18.10    4.20
  11  11  -2   15.90    6.50
 -11 -11   2   13.10    3.80
  11  11  -1    6.70    6.50
 -11 -11   1   15.90    4.00
  11  11   0  181.38   14.60
 -11 -11   0  176.28    9.00
  11  11   1   38.70    8.50
 -11 -11  -1   44.20    5.10
  11  11   2   -0.80    7.40
 -11 -11  -2    2.60    3.50
  11  11   3   56.79   10.50
 -11 -11  -3   50.79    5.50
  11  11   4   28.40    8.90
 -11 -11  -4   22.00    4.70
  11  11   5    4.50    7.30
 -11 -11  -5    6.00    4.40
  11  12  -7    8.70    7.30
 -11 -12   7   12.20    4.90
  11  12  -6    2.30    7.00
 -11 -12   6   20.40    4.80
  11  12  -5    3.10    7.00
 -11 -12   5   11.30    4.30
  11  12  -4   16.50    7.70
 -11 -12   4    8.90    4.80
  11  12  -3    7.90    7.10
  11  12  -2   62.19    9.90
  11  12  -1  -15.20    6.40
  11  12   0    4.60    6.80
  11  12   1   10.30    8.00
  11  12   2   -9.30    6.90
  11  12   3    1.70    8.10
  11  13  -3   -5.10    6.90
  11  13  -2   17.00    8.30
  11  13  -1   45.60   10.50
  12   0 -15   -2.40    4.40
 -12   0  15    3.80    4.10
  12   0 -14   13.30    4.70
 -12   0  14   26.50    4.80
 -12   0  13    3.40    3.90
  12   0 -13   -3.80    3.70
  12   0 -12   36.70    5.00
 -12   0  12   60.49    5.50
  12   0 -11   -6.30    2.90
 -12   0  11   -1.20    3.10
 -12   0  10   76.99    6.20
  12   0 -10   79.79    6.50
  12   0 -10   81.39    5.10
  12   0  -9    0.20    2.30
  12   0  -9   -1.00    2.70
 -12   0   9   -1.10    2.70
  12   0  -8   95.09    5.80
 -12   0   8   95.29    6.00
  12   0  -8   94.69    6.30
  12   0  -7   -0.50    2.40
 -12   0   7    0.30    2.00
 -12   0   7   -0.10    2.50
  12   0  -7   -0.50    2.60
 -12   0   6  781.52   22.60
 -12   0   6  776.72   22.70
  12   0  -6  793.32   23.30
 -12   0   6  811.62   23.00
  12   0  -5    1.10    2.30
 -12   0   5   -2.20    1.80
 -12   0   5   -0.70    2.20
  12   0  -4  146.19    6.70
 -12   0   4  142.39    6.50
 -12   0   4  149.09    6.10
 -12   0   3   -1.90    2.20
  12   0  -3   -2.30    2.00
 -12   0   3    0.40    1.90
 -12   0   2   45.90    3.50
  12   0  -2   37.20    3.60
 -12   0   2   52.39    4.00
 -12   0   1   -1.20    2.30
 -12   0   1   -1.10    1.70
  12   0  -1   -0.70    2.20
  12   0   0  887.01   25.20
 -12   0   0  867.21   24.70
 -12   0   0  832.72   24.70
 -12   0  -1   -5.60    2.40
  12   0   1   -4.20    2.20
 -12   0  -2   18.50    3.30
  12   0   2   17.70    3.20
  12   0   3   -3.40    2.60
 -12   0  -3   -1.20    2.80
 -12   0  -4    6.30    3.20
  12   0   4   10.60    3.40
 -12   0  -5    1.80    3.30
  12   0   5    0.60    3.10
 -12   0  -6   41.60    4.90
  12   0   6   45.00    5.20
  12   0   7   -1.90    3.50
 -12   0  -7   -1.10    3.70
  12   0   8   14.80    4.50
 -12   0  -8   19.70    4.70
 -12   0  -9   -2.00    4.00
  12   0   9    1.50    4.10
 -12   0 -10  140.19    9.80
  12   0  10  132.69    9.80
 -12   0 -11   -4.00    4.70
  12   0  11   -2.90    4.30
  12   1 -15   -0.80    4.20
 -12   1  15   13.20    3.60
  12  -1 -15    3.00    4.40
 -12  -1  15   18.20    4.90
  12   1 -14   -4.20    3.70
 -12   1  14    4.00    3.20
 -12  -1  14    2.00    4.20
  12  -1 -14   -1.10    3.90
  12   1 -13   -0.50    3.70
 -12   1  13    5.90    3.20
  12  -1 -13    6.00    4.10
 -12  -1  13    2.70    4.10
 -12   1  12  212.18    9.10
  12   1 -12  219.28   10.50
 -12  -1  12  237.18   10.70
  12  -1 -12  223.08   10.50
 -12   1  11   21.90    3.60
  12   1 -11   24.70    4.30
  12  -1 -11   27.00    4.40
 -12  -1  11   34.20    4.60
  12   1 -10   11.80    3.40
 -12   1  10   12.40    3.00
 -12   1  10    7.90    2.40
  12   1 -10   10.20    3.40
 -12  -1  10   12.00    3.60
  12  -1 -10   13.70    3.70
 -12   1   9    0.90    2.50
 -12   1   9   -2.80    1.70
  12   1  -9    2.70    2.90
  12   1  -9    3.30    2.90
 -12  -1   9   -2.00    2.90
  12  -1  -9    0.40    1.90
  12  -1  -9   -2.50    2.80
 -12   1   8    1.50    1.60
 -12   1   8   -2.10    2.30
  12   1  -8   -2.80    2.80
  12   1  -8    0.40    2.60
  12  -1  -8    2.00    2.10
 -12  -1   8    0.60    2.70
  12  -1  -8   -3.30    2.40
  12   1  -7  546.15   17.70
 -12   1   7  538.85   16.00
  12   1  -7  522.85   16.90
 -12  -1   7  531.55   16.80
  12  -1  -7  530.85   16.80
  12  -1  -7  533.65   16.50
 -12   1   6    1.80    1.70
  12   1  -6    1.60    3.10
 -12   1   6    1.20    2.20
  12   1  -6    2.80    2.50
  12  -1  -6    3.90    2.50
 -12  -1   6    3.20    2.70
 -12   1   5   56.09    4.40
  12   1  -5   54.09    4.40
 -12   1   5   41.00    3.30
  12  -1  -5   62.29    4.60
 -12  -1   5   57.19    4.50
  12   1  -4   41.60    3.80
 -12   1   4   54.29    4.20
 -12   1   4   39.20    3.10
 -12  -1   4   45.70    4.00
  12  -1  -4   46.20    3.90
  12   1  -3  251.47    9.30
 -12   1   3  270.77    8.80
 -12   1   3  211.98    8.10
 -12  -1   3  259.67    9.30
  12  -1  -3  269.77    9.30
 -12   1   2    1.20    1.50
 -12   1   2    8.10    2.40
  12   1  -2    8.40    2.60
 -12  -1   2    2.70    2.60
  12  -1  -2    6.30    2.50
  12   1  -1  235.78    9.00
 -12   1   1  227.98    8.40
 -12  -1   1  245.18    9.00
  12  -1  -1  230.58    8.90
 -12   1   0   22.10    3.00
  12   1   0   25.30    3.30
 -12   1   0   17.20    2.40
 -12  -1   0   29.30    3.60
  12  -1   0   21.60    3.10
  12   1   1    0.70    2.40
 -12   1  -1    0.10    1.90
 -12   1  -1    0.70    2.50
  12  -1   1   -1.80    2.40
 -12  -1  -1    3.60    2.70
 -12   1  -2   24.20    2.80
 -12   1  -2   29.40    3.50
  12   1   2   25.40    3.50
 -12  -1  -2   30.40    3.80
  12  -1   2   31.50    3.90
  12   1   3    6.30    3.00
 -12   1  -3    0.00    2.70
  12  -1   3    0.50    2.80
 -12  -1  -3    3.60    3.10
  12   1   4   28.80    3.90
 -12   1  -4   30.40    3.90
 -12  -1  -4   31.60    4.30
  12  -1   4   28.30    4.20
 -12   1  -5   -0.30    3.20
  12   1   5    0.40    3.10
 -12  -1  -5   -1.50    3.10
  12  -1   5   -1.80    3.00
 -12   1  -6    9.40    3.70
  12   1   6    7.50    3.60
  12  -1   6    1.70    3.40
 -12  -1  -6    5.50    3.80
 -12   1  -7   20.50    4.40
  12   1   7   21.10    4.50
  12  -1   7   22.50    4.60
 -12  -1  -7   20.90    4.50
 -12   1  -8   -2.10    3.80
  12   1   8   -0.60    3.80
 -12  -1  -8    4.80    4.20
  12  -1   8    2.50    4.00
  12   1   9   17.20    4.80
 -12   1  -9   -0.70    4.30
 -12  -1  -9    8.70    4.60
  12  -1   9    5.90    4.30
  12   1  10   15.80    4.80
 -12   1 -10   13.40    4.80
  12  -1  10    8.00    4.80
 -12  -1 -10    9.90    4.90
 -12   1 -11  146.49   10.10
  12   1  11  136.49    9.70
 -12  -1 -11  134.99   10.60
  12  -1  11  137.89   10.50
  12   2 -15    0.40    4.30
  12  -2 -15    9.20    4.60
 -12  -2  15   17.20    5.40
  12   2 -14   27.40    5.40
 -12   2  14   38.20    4.60
  12  -2 -14   31.60    5.60
 -12  -2  14   28.60    5.60
  12   2 -13    6.80    3.90
 -12   2  13    4.60    2.40
 -12  -2  13    7.70    4.50
  12  -2 -13    5.90    4.20
 -12   2  12   16.60    2.70
  12   2 -12   11.10    4.10
  12  -2 -12   10.00    4.10
 -12  -2  12   17.90    4.70
 -12   2  11   14.10    2.60
  12   2 -11   10.00    3.60
  12   2 -11    8.00    3.60
  12  -2 -11   10.40    3.80
 -12  -2  11   13.90    4.20
  12   2 -10   35.10    4.30
  12   2 -10   41.40    5.30
 -12   2  10   43.50    3.30
 -12   2  10   35.50    2.90
  12  -2 -10   36.10    4.50
 -12  -2  10   40.90    5.10
 -12   2   9  230.08    8.00
 -12   2   9  239.58    7.80
  12   2  -9  249.38   10.60
  12   2  -9  223.08    9.70
 -12  -2   9  236.08   10.30
  12  -2  -9  229.18    9.70
  12   2  -8   79.59    5.80
 -12   2   8   75.99    4.30
  12   2  -8   75.99    6.60
 -12   2   8   74.69    3.90
  12  -2  -8   77.29    3.90
  12  -2  -8   84.99    6.00
 -12  -2   8   66.29    5.40
  12   2  -7   50.09    4.40
  12   2  -7   67.69    6.30
 -12   2   7   55.99    3.40
 -12   2   7   48.90    3.70
  12  -2  -7   53.19    4.60
 -12  -2   7   48.30    4.50
  12  -2  -7   50.99    3.80
  12   2  -6   12.20    3.90
  12   2  -6    7.20    2.70
 -12   2   6    8.20    1.80
 -12   2   6    7.80    2.00
  12  -2  -6   10.60    2.80
 -12  -2   6    6.50    2.90
 -12   2   5   47.00    3.10
 -12   2   5   48.20    3.40
  12   2  -5   62.59    4.70
  12  -2  -5   48.00    4.00
 -12  -2   5   48.50    4.20
 -12   2   4    8.60    2.00
  12   2  -4    4.90    2.50
 -12   2   4    4.50    1.60
  12  -2  -4    9.60    2.50
 -12  -2   4    1.20    2.50
 -12   2   3   13.90    2.20
 -12   2   3   13.80    1.90
  12   2  -3   15.80    3.00
  12  -2  -3   11.80    2.70
 -12  -2   3   10.00    2.90
 -12   2   2 1174.48   31.10
  12   2  -2 1159.58   32.30
 -12   2   2 1085.29   31.00
  12  -2  -2 1173.08   32.20
 -12  -2   2 1135.19   32.40
 -12   2   1   56.09    4.00
  12   2  -1   59.79    4.90
 -12   2   1   54.19    3.40
  12  -2  -1   57.59    4.80
 -12  -2   1   54.49    4.40
 -12   2   0   35.00    3.10
  12   2   0   36.70    3.80
 -12   2   0   31.50    2.70
 -12  -2   0   30.60    3.80
  12  -2   0   34.50    3.70
  12   2   1  190.48    8.20
 -12   2  -1  200.38    7.00
 -12   2  -1  188.98    7.40
  12  -2   1  207.08    8.40
 -12  -2  -1  203.08    8.60
 -12   2  -2    4.20    1.90
 -12   2  -2    3.60    2.50
  12   2   2    5.60    2.70
  12  -2   2    4.50    2.70
 -12  -2  -2    5.30    3.00
 -12   2  -3   39.70    3.80
  12   2   3   39.90    4.20
  12  -2   3   42.90    4.30
 -12  -2  -3   34.50    4.40
 -12   2  -4    0.70    2.80
 -12   2  -4    1.80    2.00
  12   2   4   -2.70    2.70
 -12  -2  -4    1.00    3.20
  12  -2   4    3.60    3.10
 -12   2  -5   -2.70    1.90
  12   2   5    2.40    3.10
 -12   2  -5   -1.90    3.10
 -12  -2  -5    6.70    3.70
  12  -2   5   -2.20    3.20
  12   2   6   27.60    4.40
 -12   2  -6   27.20    4.20
 -12  -2  -6   24.50    4.60
  12  -2   6   18.50    4.20
 -12   2  -7    2.30    3.60
  12   2   7    3.30    3.60
  12  -2   7   -3.90    3.50
 -12  -2  -7   -0.80    3.80
  12   2   8   13.80    4.30
 -12   2  -8   12.30    4.20
  12  -2   8    9.10    4.40
 -12  -2  -8    5.70    4.40
  12   2   9    2.70    3.90
 -12   2  -9    3.00    4.00
  12  -2   9   -2.30    4.00
 -12  -2  -9   -2.80    4.40
  12   2  10   30.10    5.10
 -12   2 -10   35.80    5.20
 -12  -2 -10   33.20    6.00
  12  -2  10   26.90    5.50
 -12   2 -11    1.50    4.40
 -12  -2 -11   -7.50    4.80
  12   3 -15    0.20    4.20
  12  -3 -15    7.90    4.70
 -12  -3  15    4.10    5.10
  12   3 -14    2.20    4.20
  12  -3 -14    0.40    4.10
 -12  -3  14   -1.70    4.60
  12   3 -13    5.20    3.90
  12  -3 -13    1.30    3.90
 -12  -3  13    4.60    4.60
  12   3 -12   78.89    6.60
 -12  -3  12   71.39    6.80
  12  -3 -12   72.99    6.30
  12   3 -11    1.30    3.80
  12   3 -11   -5.00    3.00
 -12  -3  11   -4.20    3.80
  12  -3 -11   -2.40    3.30
  12   3 -10   80.39    6.40
  12   3 -10   76.99    7.00
 -12  -3  10   81.99    6.80
  12  -3 -10   83.29    6.60
  12   3  -9   15.00    3.30
  12   3  -9   16.70    4.60
  12  -3  -9   19.90    3.70
 -12  -3   9   12.70    3.90
  12   3  -8   73.59    5.60
  12   3  -8   84.09    7.00
  12  -3  -8   70.29    5.70
 -12  -3   8   75.29    6.10
  12   3  -7  556.54   19.10
  12   3  -7  529.15   17.00
  12  -3  -7  540.85   16.90
 -12  -3   7  540.45   17.70
  12   3  -6   96.19    7.50
  12   3  -6   74.69    5.50
  12  -3  -6   77.99    5.40
 -12  -3   6   88.99    6.20
  12   3  -5  121.29    6.40
  12   3  -5  135.99    8.60
  12  -3  -5  131.29    6.30
 -12  -3   5  122.49    6.90
  12   3  -4  272.27    9.90
 -12  -3   4  280.47   10.40
  12  -3  -4  274.67    9.70
  12   3  -3  113.69    6.00
 -12  -3   3  105.99    6.30
  12  -3  -3  111.49    5.70
  12   3  -2    4.10    2.40
  12  -3  -2    5.80    2.30
 -12  -3   2    4.90    2.70
  12   3  -1    2.80    2.50
  12  -3  -1   -1.00    2.20
 -12  -3   1    1.30    2.60
  12   3   0   32.60    3.50
  12  -3   0   38.30    3.80
 -12  -3   0   25.60    3.60
 -12   3  -1  140.89    5.10
 -12   3  -1  137.79    4.80
  12   3   1  142.39    6.90
 -12  -3  -1  152.68    7.50
  12  -3   1  136.19    6.80
 -12   3  -2   92.29    4.50
  12   3   2   87.69    5.80
 -12   3  -2   82.89    3.90
  12  -3   2   92.49    5.90
 -12  -3  -2   94.89    6.60
 -12   3  -3    9.80    2.00
 -12   3  -3   11.80    2.50
  12   3   3   13.80    3.30
 -12  -3  -3   12.10    3.50
  12  -3   3   11.00    3.20
 -12   3  -4   46.40    3.60
 -12   3  -4   53.89    4.00
  12   3   4   49.00    4.70
 -12  -3  -4   41.30    4.90
  12  -3   4   53.89    5.00
 -12   3  -5   82.79    5.70
  12   3   5   86.79    6.60
 -12   3  -5   74.59    4.30
  12  -3   5   88.19    6.80
 -12  -3  -5   89.39    6.70
  12   3   6    4.00    3.40
 -12   3  -6    2.70    3.10
 -12  -3  -6    5.70    4.10
  12  -3   6    0.40    3.60
 -12   3  -7   13.70    3.50
  12   3   7    8.40    3.70
  12  -3   7   15.90    4.50
 -12  -3  -7    9.80    4.40
 -12   3  -8   11.80    3.80
  12   3   8   11.20    4.00
 -12  -3  -8    5.70    4.60
  12  -3   8    5.20    4.30
  12   3   9    6.50    3.90
 -12   3  -9    9.20    3.90
 -12  -3  -9    5.50    4.70
  12  -3   9    7.50    4.70
 -12   3 -10   20.40    4.30
  12   3  10   17.30    4.30
 -12  -3 -10   14.90    5.40
  12  -3  10   20.60    5.60
  12   4 -15   -0.50    4.00
  12  -4 -15  -10.30    4.20
 -12  -4  15   -5.50    5.10
  12   4 -14   32.40    5.20
 -12  -4  14   24.80    6.40
  12  -4 -14   34.70    5.70
  12   4 -13   11.80    4.20
  12  -4 -13    2.00    4.00
 -12  -4  13   10.60    5.00
  12   4 -12   16.80    4.10
 -12  -4  12   29.80    5.60
  12  -4 -12   22.30    4.60
  12   4 -11    8.00    4.70
  12   4 -11    3.30    3.30
  12  -4 -11    9.40    3.80
 -12  -4  11    8.10    4.50
  12   4 -10  200.58   11.00
  12   4 -10  206.08    9.10
  12  -4 -10  202.28    9.40
 -12  -4  10  214.98   10.80
  12   4  -9   73.19    6.00
  12   4  -9   78.59    7.70
 -12  -4   9   74.49    6.40
  12  -4  -9   75.99    6.00
  12   4  -8   11.20    3.20
  12   4  -8   15.50    4.90
 -12  -4   8   12.80    3.90
  12  -4  -8   15.80    3.30
  12   4  -7    6.70    2.80
  12   4  -7    5.90    4.30
 -12  -4   7    4.40    3.30
  12  -4  -7    5.00    2.60
  12   4  -6   48.60    6.40
  12   4  -6   39.50    3.90
 -12  -4   6   39.30    4.60
  12  -4  -6   35.70    3.80
  12   4  -5    2.00    2.20
  12   4  -5    8.10    4.20
  12   4  -5    3.20    2.50
 -12  -4   5    5.90    3.00
  12  -4  -5    3.50    2.40
  12   4  -4   71.49    4.80
  12   4  -4   79.49    5.10
  12  -4  -4   75.29    4.80
 -12  -4   4   82.69    6.00
  12   4  -3  332.87   11.00
  12   4  -3  304.47   10.70
 -12  -4   3  315.27   11.60
  12  -4  -3  323.77   10.60
  12   4  -2    0.20    1.90
  12   4  -2    5.10    2.40
  12  -4  -2   -1.60    2.00
 -12  -4   2    1.00    2.60
  12   4  -1   30.10    3.20
  12   4  -1   31.50    3.50
 -12  -4   1   30.10    4.00
  12  -4  -1   33.10    3.30
  12   4   0   44.20    3.70
  12   4   0   45.90    3.90
  12  -4   0   46.00    3.90
 -12  -4   0   45.60    4.40
  12   4   1    7.40    2.70
  12   4   1    6.00    2.30
 -12  -4  -1    6.60    3.20
  12  -4   1    7.40    2.70
  12   4   2   87.09    5.80
  12   4   2   86.29    5.00
  12  -4   2   93.99    6.00
 -12  -4  -2   97.19    6.90
  12   4   3   71.49    4.60
  12   4   3   71.89    5.50
 -12  -4  -3   69.79    5.60
  12  -4   3   61.79    5.20
  12   4   4  139.59    6.40
  12   4   4  138.69    7.20
  12  -4   4  129.79    7.70
 -12  -4  -4  137.89    8.20
  12   4   5   -1.90    2.90
  12   4   5    0.70    2.40
  12  -4   5   -3.60    3.30
 -12  -4  -5    4.10    4.00
  12   4   6   10.90    3.40
  12  -4   6   17.90    4.50
 -12  -4  -6   13.90    4.50
  12   4   7   40.30    4.50
 -12   4  -7   42.50    3.50
 -12  -4  -7   46.10    5.90
  12  -4   7   32.50    5.30
 -12   4  -8   38.40    3.70
  12   4   8   39.70    4.60
 -12  -4  -8   47.40    6.00
  12  -4   8   49.20    6.10
  12   4   9    3.10    3.30
 -12   4  -9   -0.60    2.60
 -12  -4  -9    0.60    4.70
  12  -4   9    2.70    4.40
 -12   4 -10    2.10    3.20
  12   4  10    6.20    3.40
 -12  -4 -10    1.60    5.20
  12  -4  10    6.50    5.00
  12   5 -14    3.50    3.70
  12  -5 -14    0.00    4.30
 -12  -5  14   12.80    5.80
  12   5 -13   44.10    5.20
  12  -5 -13   44.00    5.90
 -12  -5  13   49.90    7.10
  12   5 -12   81.59    6.90
  12   5 -12   78.49    8.10
  12  -5 -12   87.79    6.90
 -12  -5  12   92.99    8.30
  12   5 -11    5.20    4.90
  12   5 -11    0.30    3.20
  12  -5 -11    7.00    3.70
 -12  -5  11    7.30    4.70
  12   5 -10   -2.40    4.20
  12   5 -10   -0.30    3.00
 -12  -5  10    7.20    4.40
  12  -5 -10   -4.60    2.90
  12   5  -9   -1.10    4.40
  12   5  -9    1.80    2.90
 -12  -5   9    1.60    4.00
  12  -5  -9   -1.30    2.70
  12   5  -8   69.99    5.70
  12   5  -8   65.19    7.50
  12   5  -8   77.39    6.00
 -12  -5   8   97.59    7.20
  12  -5  -8   84.29    5.70
  12   5  -7  162.98    7.10
  12   5  -7  165.88    7.40
  12   5  -7  165.88   10.40
  12  -5  -7  158.38    5.20
 -12  -5   7  164.08    9.00
  12  -5  -7  166.28    7.30
  12   5  -6   24.50    3.40
  12   5  -6   25.90    3.10
  12   5  -6   26.20    5.80
 -12  -5   6   31.10    4.60
  12  -5  -6   34.40    3.00
  12  -5  -6   30.60    3.40
  12   5  -5    1.50    4.80
  12   5  -5    1.20    1.70
  12   5  -5    1.70    2.30
 -12  -5   5    5.20    3.40
  12  -5  -5    3.40    2.20
  12   5  -4   14.80    5.10
  12   5  -4   25.70    3.00
  12   5  -4   11.40    2.10
 -12  -5   4   19.60    3.70
  12  -5  -4   25.00    2.90
  12   5  -3   31.50    2.90
  12   5  -3   27.30    3.10
  12  -5  -3   28.40    3.00
 -12  -5   3   25.90    3.80
  12   5  -2   20.20    2.50
  12   5  -2   20.60    2.90
  12  -5  -2   24.80    2.90
  12   5  -1   33.10    3.00
  12   5  -1   28.10    3.10
 -12  -5   1   31.60    4.10
  12  -5  -1   26.90    3.10
  12   5   0   29.80    2.90
  12   5   0   33.10    3.30
  12  -5   0   32.10    3.40
 -12  -5   0   30.20    4.00
  12   5   1   31.90    3.30
  12   5   1   35.20    3.00
  12  -5   1   36.70    3.70
 -12  -5  -1   31.30    4.20
  12   5   2   10.40    2.70
  12   5   2   12.50    2.40
  12  -5   2   11.20    3.10
 -12  -5  -2   12.00    3.70
  12   5   3   10.30    2.90
  12   5   3    9.10    2.30
 -12  -5  -3    8.20    3.80
  12  -5   3    9.80    3.30
  12   5   4   59.19    4.90
  12   5   4   63.79    5.10
  12  -5   4   44.50    4.90
 -12  -5  -4   62.59    5.90
  12   5   5  100.29    5.70
 -12  -5  -5   82.59    6.90
  12  -5   5   95.59    7.20
  12   5   6   65.39    5.10
  12  -5   6   65.59    6.30
 -12  -5  -6   61.29    6.60
  12   5   7  183.08    7.70
 -12  -5  -7  167.78   10.50
  12  -5   7  176.28   10.20
  12   5   8   99.59    5.80
 -12  -5  -8   71.89    7.30
  12  -5   8   77.89    7.30
  12   5   9    6.10    3.10
 -12  -5  -9    6.50    4.80
  12  -5   9    5.40    4.70
  12  -5  10   90.59    8.60
 -12  -5 -10   77.99    7.90
  12   6 -14   16.70    4.30
  12  -6 -14    4.30    4.50
 -12  -6  14   16.00    6.20
  12   6 -13    4.10    3.60
  12  -6 -13    1.60    3.60
 -12  -6  13   -4.60    4.90
  12  -6 -13    1.30    4.00
  12   6 -12   12.20    3.70
  12   6 -12   -1.20    5.00
 -12  -6  12    9.10    5.10
  12  -6 -12    5.50    3.90
  12  -6 -12    6.10    3.60
  12   6 -11   35.70    6.90
  12   6 -11   51.19    4.70
  12  -6 -11   47.80    5.00
 -12  -6  11   43.50    6.20
  12  -6 -11   43.10    5.10
  12   6 -10   -0.40    5.00
  12   6 -10    2.00    3.10
  12  -6 -10    1.70    3.30
 -12  -6  10    0.90    4.30
  12  -6 -10    6.00    3.10
  12   6  -9  252.07    9.60
  12   6  -9  269.87   13.60
 -12  -6   9  253.17   12.10
  12  -6  -9  253.97   10.00
  12  -6  -9  240.88    9.70
  12   6  -8  448.66   14.50
  12   6  -8  436.26   18.70
 -12  -6   8  472.45   16.80
  12  -6  -8  475.75   14.90
  12   6  -7   56.69    7.40
  12   6  -7   64.69    4.80
  12   6  -7   51.69    4.00
  12  -6  -7   55.89    2.80
 -12  -6   7   58.19    5.90
  12  -6  -7   56.49    4.40
  12   6  -6   20.50    2.90
  12   6  -6   21.60    6.00
  12   6  -6   23.00    2.80
  12  -6  -6   25.20    2.90
 -12  -6   6   18.90    4.30
  12  -6  -6   22.30    3.10
  12   6  -5   85.89    8.70
  12   6  -5   70.39    4.30
  12   6  -5   71.39    4.50
  12  -6  -5   72.39    5.00
  12  -6  -5   75.99    4.70
 -12  -6   5   83.19    6.30
  12   6  -4   21.90    2.60
  12   6  -4   28.30    5.90
  12   6  -4   20.60    2.40
  12  -6  -4   17.40    2.60
 -12  -6   4   19.30    4.00
  12   6  -3   74.19    8.10
  12   6  -3   91.39    4.40
  12   6  -3   86.79    4.10
  12  -6  -3   83.09    4.70
 -12  -6   3   88.29    6.60
  12   6  -2   64.29    3.40
  12   6  -2   69.29    3.80
  12  -6  -2   58.49    4.20
 -12  -6   2   54.59    4.90
  12   6  -1  146.69    5.40
  12   6  -1  141.39    5.10
 -12  -6   1  146.69    7.80
  12  -6  -1  146.29    6.20
 -12  -6   0   15.60    3.70
  12  -6   0   15.30    2.80
 -12  -6  -1   56.49    5.30
  12  -6   1   78.09    5.30
 -12  -6  -2   14.00    3.90
  12  -6   2   11.30    3.00
 -12  -6  -3   47.90    5.30
  12  -6   3   49.20    4.70
 -12  -6  -4   -2.30    3.70
  12  -6   4   -1.50    3.10
  12  -6   5   49.20    5.40
 -12  -6  -5   50.89    5.80
 -12  -6  -6   -3.60    4.10
  12  -6   6    0.60    3.50
 -12  -6  -7   86.79    7.50
  12  -6   7   89.39    7.70
  12  -6   8  322.27   14.30
 -12  -6  -8  320.17   14.30
  12  -6   9    5.00    4.80
 -12  -6  -9    6.00    5.00
  12   7 -13   20.70    3.70
 -12  -7  13   20.40    6.20
  12  -7 -13   23.30    4.70
  12   7 -12   10.90    3.20
  12   7 -12    7.40    5.90
 -12  -7  12   11.00    5.50
  12  -7 -12   16.30    4.00
  12   7 -11   -1.30    5.30
  12   7 -11   -3.80    2.50
 -12  -7  11    3.50    4.80
  12  -7 -11   -3.60    2.90
  12   7 -10    3.80    2.50
  12   7 -10   -5.90    4.50
  12  -7 -10    2.00    3.00
 -12  -7  10   -2.20    4.50
  12   7  -9    4.00    5.10
  12   7  -9    6.40    2.30
 -12  -7   9    7.60    4.60
  12  -7  -9    8.30    3.00
  12   7  -8   65.79    8.10
  12   7  -8   59.39    3.80
  12  -7  -8   58.59    5.00
 -12  -7   8   74.39    6.70
  12   7  -7    0.90    5.10
 -12  -7   7    4.90    4.00
  12  -7  -7    1.90    2.20
  12   7  -6    0.40    5.40
 -12  -7   6    0.90    3.80
  12   7  -5  160.58   11.50
 -12  -7   5  144.09    8.50
  12  -7  -5  136.59    5.90
  12  -7  -5  140.39    7.00
  12   7  -4   64.69    8.30
 -12  -7   4   69.39    5.90
  12  -7  -4   58.79    4.00
  12   7  -3    5.10    5.30
 -12  -7   3   12.80    3.80
  12   7  -2  204.28   12.30
 -12  -7   2  218.78    9.70
 -12  -7   1   34.40    4.50
  12  -7   0  132.59    6.10
 -12  -7   0  131.89    7.80
 -12  -7  -1  313.77   12.00
  12  -7   1  301.17   10.70
 -12  -7  -2   41.90    4.90
  12  -7   2   39.50    4.10
 -12  -7  -3   28.60    4.80
  12  -7   3   21.50    3.70
  12  -7   4    4.70    3.20
 -12  -7  -4    5.80    4.10
  12  -7   5   -1.10    3.20
 -12  -7  -5   -0.30    3.80
  12  -7   6    0.40    3.60
 -12  -7  -6    0.30    4.00
 -12  -7  -7   47.30    6.40
  12  -7   7   39.80    6.00
 -12  -7  -8    1.80    4.90
  12  -7   8    6.30    4.60
  12   8 -12   26.90    7.20
 -12  -8  12   36.90    6.80
  12   8 -11    6.40    6.20
 -12  -8  11    1.40    5.10
  12   8 -10   22.20    7.20
 -12  -8  10   22.20    5.70
  12   8  -9    7.40    6.00
 -12  -8   9   10.20    4.90
  12   8  -8   36.90    7.70
  12  -8  -8   33.30    5.00
 -12  -8   8   41.70    5.80
  12   8  -7    9.80    5.80
 -12  -8   7    9.40    4.40
  12  -8  -7    2.20    2.30
  12   8  -6  273.87   14.80
  12  -8  -6  270.67    9.30
 -12  -8   6  307.97   12.40
  12   8  -5    1.00    5.90
 -12  -8   5   13.10    4.10
  12  -8  -5   11.00    2.10
  12   8  -4   41.30    7.90
  12  -8  -4   31.50    2.70
 -12  -8   4   46.20    5.30
  12   8  -3   10.90    6.50
  12  -8  -3   10.40    2.10
 -12  -8   3   11.20    3.90
  12   8  -2  170.08   11.70
  12  -8  -2  167.08    6.30
 -12  -8   2  175.48    8.90
  12   8  -1  370.86   17.20
 -12  -8   1  366.06   13.50
  12  -8  -1  365.86   11.40
 -12  -8   0  220.38   10.00
  12  -8   0  217.88    8.00
  12  -8   1    5.70    2.60
 -12  -8  -1    3.60    3.50
 -12  -8  -2    5.90    3.70
  12  -8   2    4.60    2.80
  12  -8   3   25.90    3.80
 -12  -8  -3   30.70    5.00
 -12  -8  -4    1.70    4.10
  12  -8   4   -1.20    3.10
 -12  -8  -5    3.80    4.10
  12  -8   5   -0.60    3.30
  12  -8   6   10.10    4.10
 -12  -8  -6   13.60    4.80
  12  -8   7   -2.30    4.30
 -12  -8  -7    0.80    4.70
  12  -8   8   11.90    5.10
 -12  -8  -8   24.10    6.00
  12   9 -11    7.30    6.00
 -12  -9  11   10.60    5.30
  12   9 -10   26.40    7.80
 -12  -9  10   18.30    5.60
  12   9  -9   14.80    7.40
 -12  -9   9   23.20    5.50
  12   9  -8    2.30    6.10
 -12  -9   8    2.80    4.50
  12   9  -7   -0.20    5.90
 -12  -9   7   -1.10    4.10
  12   9  -6   67.19    9.10
 -12  -9   6   66.49    6.50
  12   9  -5   24.40    7.40
 -12  -9   5   33.70    5.10
  12   9  -4   12.00    6.80
 -12  -9   4    0.60    3.50
  12   9  -3   28.00    7.10
 -12  -9   3   32.50    4.90
  12   9  -2  146.69   12.60
 -12  -9   2  137.69    8.30
  12   9  -1   45.40    8.00
 -12  -9   1   49.90    5.20
 -12  -9  -1    6.80    3.80
 -12  -9  -2    8.70    3.90
  12  -9   2   10.50    4.00
 -12  -9  -3  131.49    8.60
  12  -9   3  111.49    6.90
  12  -9   4   13.80    3.80
 -12  -9  -4   19.80    4.90
  12  -9   5   -2.70    3.30
 -12  -9  -5    6.50    4.50
 -12  -9  -6   82.59    7.40
  12  -9   6   99.49    8.10
 -12  -9  -7    3.50    4.80
  12  -9   7   -1.40    4.50
  12  10 -10    5.00    7.00
 -12 -10  10    6.50    5.50
  12  10  -9   37.00    8.50
 -12 -10   9   34.30    6.10
  12  10  -8   14.60    6.60
 -12 -10   8   16.70    5.10
  12  10  -7    7.90    6.90
 -12 -10   7    4.50    4.40
  12  10  -6    7.50    7.10
 -12 -10   6    6.00    4.30
  12  10  -5    9.80    6.50
 -12 -10   5    8.20    4.30
  12  10  -4   21.10    7.80
 -12 -10   4   22.30    4.50
  12  10  -3   68.19    9.00
 -12 -10   3   62.99    6.00
  12  10  -2   14.10    6.10
 -12 -10   2   15.10    4.20
  12  10  -1   -1.70    5.50
 -12 -10   1    2.50    3.70
  12  10   0   -0.40    6.40
 -12 -10   0    5.90    3.70
  12  10   1    0.40    6.80
 -12 -10  -1    4.50    3.70
  12  10   2   -4.80    6.70
 -12 -10  -2   -3.80    3.50
 -12 -10  -3   75.59    6.60
 -12 -10  -4    4.30    4.30
 -12 -10  -5  127.59    9.50
 -12 -10  -6    4.60    4.70
  12  11  -9   17.90    8.20
 -12 -11   9   24.80    5.90
  12  11  -8   20.00    8.30
 -12 -11   8   20.50    5.50
  12  11  -7    2.10    6.90
 -12 -11   7   -7.00    3.90
  12  11  -6   27.80    8.30
 -12 -11   6   34.40    5.70
  12  11  -5   25.10    8.60
 -12 -11   5   22.40    5.00
  12  11  -4   19.00    7.30
 -12 -11   4   12.40    4.20
  12  11  -3   90.59   10.70
 -12 -11   3  109.69    8.20
  12  11  -2    0.10    6.10
 -12 -11   2   -1.30    3.70
  12  11  -1   23.30    8.10
 -12 -11   1   25.70    4.80
  12  11   0   54.59    9.50
 -12 -11   0   50.69    5.60
  12  11   1   60.19   10.50
 -12 -11  -1   49.00    5.70
  12  11   2   39.00    9.50
 -12 -11  -2   27.60    4.90
  12  11   3   -3.70    7.50
 -12 -11  -3    5.00    4.10
  12  11   4  -11.90    6.90
 -12 -11  -4    7.10    4.40
  12  12  -6   10.10    7.40
 -12 -12   6    0.10    4.30
  12  12  -5  193.68   14.90
 -12 -12   5  203.98   11.00
  12  12  -4   19.50    7.60
 -12 -12   4   26.30    5.10
  12  12  -3    6.90    6.80
 -12 -12   3   12.00    4.20
  12  12  -2   94.89   12.00
 -12 -12   2   73.59    8.70
  12  12  -1    3.00    7.20
  12  12   0   15.10    8.50
  12  12   1   60.99   10.50
  12  12   2    4.60    8.00
 -13   0  15    5.10    4.00
  13   0 -15    4.90    4.60
  13   0 -14    9.70    4.50
 -13   0  14    9.10    4.10
 -13   0  13    8.40    3.90
  13   0 -13    7.90    4.30
  13   0 -12  113.09    8.20
 -13   0  12  117.59    7.70
 -13   0  11    5.00    3.40
  13   0 -11   -5.00    3.20
 -13   0  10   -5.50    2.90
  13   0 -10    0.70    3.20
  13   0 -10    1.40    2.50
  13   0  -9    1.80    2.60
  13   0  -9    2.50    3.10
 -13   0   9    0.60    2.90
  13   0  -8   18.70    3.60
 -13   0   8   10.00    3.10
  13   0  -8   12.30    3.40
  13   0  -7   -1.00    2.60
 -13   0   7   -4.10    2.40
  13   0  -7    1.90    3.00
  13   0  -6    0.70    2.60
 -13   0   6    2.10    2.00
 -13   0   6    1.20    2.60
  13   0  -5    5.40    2.60
 -13   0   5    0.90    2.00
 -13   0   5    0.20    2.40
 -13   0   4    2.70    2.60
  13   0  -4    5.70    2.60
 -13   0   4    3.80    2.10
 -13   0   3   -2.50    2.40
 -13   0   3    0.50    2.00
  13   0  -3    0.10    2.40
  13   0  -2  162.28    7.30
 -13   0   2  164.48    7.20
 -13   0   2  145.49    6.40
 -13   0   1    0.00    2.50
  13   0  -1    1.70    2.50
 -13   0   0  135.79    6.90
  13   0   0  131.39    6.80
 -13   0  -1    0.50    2.80
  13   0   1    1.80    2.70
  13   0   2  455.25   15.30
 -13   0  -2  468.25   15.10
  13   0   3   -0.20    2.80
 -13   0  -3    0.40    3.20
 -13   0  -4   54.49    5.00
  13   0   4   51.79    5.20
  13   0   5    0.60    3.20
 -13   0  -5   -1.50    3.30
 -13   0  -6   18.50    4.40
  13   0   6   20.60    4.40
 -13   0  -7    1.80    4.00
  13   0   7   -4.70    3.50
 -13   0  -8  159.78    9.90
  13   0   8  167.08   10.10
 -13   0  -9   -1.40    4.40
  13   0   9   -3.10    4.10
 -13   0 -10    6.50    4.70
  13   0  10   12.00    5.10
  13   1 -15   82.89    7.80
 -13   1  15   89.69    6.40
  13  -1 -15   82.89    7.80
 -13  -1  15   90.19    7.50
 -13   1  14   -3.00    3.10
  13   1 -14   -0.20    4.10
  13  -1 -14   -0.50    4.10
 -13  -1  14    2.30    4.20
  13   1 -13   39.40    5.70
 -13   1  13   48.10    4.50
  13  -1 -13   26.20    5.00
 -13  -1  13   40.20    5.50
  13   1 -12   -0.40    3.70
 -13   1  12   -0.60    2.90
  13  -1 -12   -1.50    3.70
 -13  -1  12    5.90    4.00
  13   1 -11   22.50    3.90
 -13   1  11   24.50    3.70
  13   1 -11   27.20    4.70
 -13  -1  11   38.20    5.00
  13  -1 -11   32.10    4.90
 -13   1  10  117.99    6.40
  13   1 -10  125.59    7.70
  13   1 -10  118.69    7.00
 -13   1  10  109.39    5.90
 -13  -1  10  119.79    7.60
  13  -1 -10  121.09    7.80
 -13   1   9    1.90    1.90
 -13   1   9    9.30    2.80
  13   1  -9    4.40    3.10
  13   1  -9    6.80    3.40
  13  -1  -9    2.30    2.20
 -13  -1   9    2.30    3.20
  13  -1  -9    1.80    3.10
 -13   1   8   12.20    2.80
  13   1  -8   12.90    3.70
  13   1  -8   11.10    3.40
 -13  -1   8    6.20    3.10
  13  -1  -8   15.60    3.50
  13  -1  -8   15.20    2.90
  13   1  -7  271.27   10.50
  13   1  -7  259.17   11.10
 -13   1   7  277.17    9.50
  13  -1  -7  282.97   10.50
 -13  -1   7  257.97   10.30
 -13   1   6   57.39    4.80
  13   1  -6   58.19    4.70
 -13  -1   6   65.79    5.50
  13  -1  -6   60.49    4.80
 -13   1   5   18.30    2.80
  13   1  -5   11.80    3.00
 -13   1   5    3.50    1.50
 -13  -1   5   10.60    3.10
  13  -1  -5   13.90    3.00
  13   1  -4  193.28    8.20
 -13   1   4  197.38    7.60
 -13  -1   4  187.68    8.10
  13  -1  -4  193.78    8.10
  13   1  -3    1.70    2.50
 -13   1   3   -1.60    1.40
 -13   1   3   -2.40    2.20
  13  -1  -3    0.40    2.40
 -13  -1   3    2.30    2.50
  13   1  -2  312.27   11.10
 -13   1   2  306.67   10.30
 -13  -1   2  303.77   10.90
  13  -1  -2  307.07   10.90
 -13   1   1   68.29    5.00
  13   1  -1   56.89    4.70
 -13   1   1   54.59    3.90
  13  -1  -1   62.99    5.20
 -13  -1   1   72.09    5.50
  13   1   0  253.97    9.60
 -13   1   0  237.58    8.50
 -13   1   0  254.77    9.10
  13  -1   0  233.38    9.50
 -13  -1   0  239.08    9.50
  13   1   1  353.66   12.50
 -13   1  -1  357.76   11.60
 -13   1  -1  367.96   12.10
  13  -1   1  353.96   12.50
 -13  -1  -1  349.96   12.40
 -13   1  -2   11.00    2.60
 -13   1  -2   10.30    3.10
  13   1   2   17.10    3.40
 -13  -1  -2   12.50    3.40
  13  -1   2   13.60    3.40
  13   1   3   12.50    3.40
 -13   1  -3   18.70    3.50
 -13  -1  -3   19.90    3.90
  13  -1   3   22.10    3.80
 -13   1  -4   55.39    4.90
  13   1   4   55.99    5.30
  13  -1   4   57.49    5.50
 -13  -1  -4   55.99    5.40
  13   1   5    2.00    3.30
 -13   1  -5    0.90    3.50
 -13  -1  -5    6.00    3.70
  13  -1   5   -1.60    3.30
 -13   1  -6  177.58    9.10
  13   1   6  182.38    9.50
 -13  -1  -6  166.88    9.40
  13  -1   6  163.08    9.40
  13   1   7    8.20    4.20
 -13   1  -7   12.00    4.10
  13  -1   7   10.40    4.30
 -13  -1  -7    9.70    4.20
  13   1   8   14.50    4.60
 -13   1  -8   11.20    4.60
 -13  -1  -8    8.70    4.80
  13  -1   8    6.30    4.30
  13   1   9   37.70    5.80
 -13   1  -9   41.60    5.70
 -13  -1  -9   37.80    6.10
  13  -1   9   46.60    6.30
  13   1  10    1.30    4.50
 -13   1 -10   15.50    5.10
 -13  -1 -10    1.00    4.90
  13  -1  10    2.70    4.60
  13   2 -15    1.00    4.50
 -13  -2  15   -6.30    4.40
  13  -2 -15   -5.20    4.20
  13   2 -14   10.90    4.70
  13  -2 -14    7.90    4.50
 -13  -2  14    8.50    4.90
 -13   2  13   31.20    3.10
  13   2 -13   27.30    5.00
  13  -2 -13   39.00    5.80
 -13  -2  13   33.40    5.60
 -13   2  12    9.60    2.50
  13   2 -12    7.40    4.00
 -13  -2  12   11.00    4.50
  13  -2 -12    0.70    3.60
  13   2 -11  147.99    8.50
  13   2 -11  141.49    8.30
 -13   2  11  155.28    6.20
 -13  -2  11  139.29    8.90
  13  -2 -11  148.99    8.60
  13   2 -10  172.98    9.20
 -13   2  10  167.28    6.50
  13   2 -10  158.78    8.60
  13  -2 -10  180.78    8.90
 -13  -2  10  158.88    9.00
 -13   2   9   63.79    3.80
 -13   2   9   57.89    4.20
  13   2  -9   60.99    5.30
  13   2  -9   65.79    6.30
  13  -2  -9   55.29    3.20
 -13  -2   9   53.49    5.20
  13  -2  -9   62.09    5.40
 -13   2   8  323.07   10.00
  13   2  -8  318.47   13.00
 -13   2   8  327.27   10.20
  13   2  -8  318.17   11.80
 -13  -2   8  320.37   12.20
  13  -2  -8  323.77   10.50
  13  -2  -8  331.07   12.00
  13   2  -7    5.60    3.80
 -13   2   7    7.80    2.10
  13   2  -7    5.20    2.80
 -13   2   7    6.70    1.90
  13  -2  -7    6.80    3.00
 -13  -2   7    4.90    3.20
 -13   2   6  272.97    8.60
 -13   2   6  274.07    8.80
  13   2  -6  286.77   12.00
  13   2  -6  263.27   10.30
 -13  -2   6  278.57   10.70
  13  -2  -6  279.17   10.30
  13   2  -5   20.10    3.40
 -13   2   5   24.00    2.50
 -13   2   5   18.70    2.10
 -13  -2   5   19.70    3.50
  13  -2  -5   19.20    3.20
  13   2  -4   14.30    3.00
 -13   2   4   18.90    2.40
 -13   2   4   13.80    2.00
  13  -2  -4   19.70    3.20
 -13  -2   4   14.50    3.30
 -13   2   3  363.56   10.80
  13   2  -3  342.87   12.00
 -13  -2   3  345.87   12.10
  13  -2  -3  341.27   11.80
  13   2  -2   -2.30    2.40
 -13   2   2    1.40    1.70
 -13   2   2    1.90    2.10
 -13  -2   2    0.20    2.50
  13  -2  -2    4.10    2.40
 -13   2   1   -1.30    2.10
 -13   2   1    1.20    1.70
  13   2  -1    1.80    2.50
  13  -2  -1    0.50    2.40
 -13  -2   1   -1.00    2.60
 -13   2   0   21.80    2.90
  13   2   0   24.60    3.50
 -13   2   0   21.70    2.40
 -13  -2   0   26.60    3.70
 -13   2  -1   64.89    4.90
  13   2   1   74.29    5.60
 -13   2  -1   59.39    3.80
 -13  -2  -1   72.29    6.00
  13  -2   1   70.19    5.60
 -13   2  -2   -2.30    2.60
 -13   2  -2    0.00    1.50
  13   2   2   -2.70    2.70
  13  -2   2   -1.40    2.60
 -13  -2  -2    6.00    3.40
  13   2   3   36.70    4.40
 -13   2  -3   32.80    3.20
 -13   2  -3   29.90    3.70
  13  -2   3   34.80    4.30
 -13  -2  -3   30.70    4.30
 -13   2  -4   15.80    3.50
  13   2   4   20.40    3.80
 -13   2  -4   19.30    2.80
  13  -2   4   15.90    3.80
 -13  -2  -4   13.00    4.00
 -13   2  -5   -2.80    3.10
  13   2   5    7.60    3.70
 -13   2  -5    0.70    2.50
  13  -2   5    1.20    3.50
 -13  -2  -5   -2.30    3.70
  13   2   6  329.47   13.10
 -13   2  -6  332.87   12.30
 -13  -2  -6  338.67   13.40
  13  -2   6  323.57   13.40
 -13   2  -7    5.50    3.90
  13   2   7    6.20    3.90
  13  -2   7   -0.10    3.90
 -13  -2  -7   -2.30    4.10
 -13   2  -8    0.80    3.90
  13   2   8    0.40    3.90
 -13  -2  -8    8.20    4.60
  13  -2   8   -0.30    4.10
 -13   2  -9   22.50    4.80
  13   2   9   21.80    5.00
 -13  -2  -9   25.40    5.70
  13  -2   9   17.50    5.30
  13   2  10   11.50    4.50
 -13   2 -10   13.70    4.70
  13  -2  10   12.40    5.20
 -13  -2 -10    3.70    5.00
  13   3 -15   24.70    5.40
  13  -3 -15   32.10    5.80
 -13  -3  15   27.30    6.20
  13   3 -14   26.60    5.30
  13  -3 -14   23.70    5.40
 -13  -3  14   16.50    5.50
  13   3 -13   21.20    4.80
  13  -3 -13   20.00    4.90
 -13  -3  13   24.60    5.60
  13   3 -12    9.30    4.00
 -13  -3  12   11.00    4.70
  13  -3 -12    8.00    4.10
  13   3 -11    0.70    3.80
  13   3 -11   -0.40    3.40
 -13  -3  11   -2.00    3.90
  13  -3 -11   -2.50    3.30
  13   3 -10    0.50    3.90
  13   3 -10    4.40    3.20
  13  -3 -10    2.60    3.40
 -13  -3  10    3.20    3.90
  13   3  -9    0.30    3.80
  13   3  -9    4.60    3.00
  13  -3  -9    1.00    3.10
 -13  -3   9   -2.00    3.40
  13   3  -8  225.88   11.20
  13   3  -8  253.07    9.90
 -13  -3   8  224.78   10.30
  13  -3  -8  248.58    9.80
  13  -3  -8  230.38    7.40
  13   3  -7   22.90    4.90
  13   3  -7   19.70    3.50
  13  -3  -7   21.10    3.50
 -13  -3   7   16.10    3.70
  13   3  -6  123.49    8.70
  13   3  -6  120.09    6.70
  13  -3  -6  136.19    6.80
 -13  -3   6  133.19    7.50
  13   3  -5  432.16   14.40
  13  -3  -5  457.95   14.30
 -13  -3   5  428.46   14.80
  13   3  -4  208.48    8.70
  13  -3  -4  229.18    8.60
 -13  -3   4  214.38    9.20
  13   3  -3  108.89    6.20
 -13  -3   3  117.99    6.80
  13  -3  -3  117.59    6.10
  13   3  -2   -2.60    2.30
  13  -3  -2    0.20    2.20
 -13  -3   2   -0.50    2.70
  13   3  -1    4.70    2.80
  13  -3  -1   10.10    2.70
 -13  -3   1    5.20    2.90
  13   3   0   68.49    5.50
  13  -3   0   74.99    5.50
 -13  -3   0   79.59    6.30
  13   3   1   14.40    3.20
 -13   3  -1    7.80    1.60
 -13   3  -1   12.00    2.00
 -13  -3  -1   11.50    3.50
  13  -3   1   11.80    3.20
 -13   3  -2   51.59    4.00
  13   3   2   46.50    4.40
 -13   3  -2   47.60    3.30
  13  -3   2   61.29    5.10
 -13  -3  -2   42.10    4.70
  13   3   3    5.70    3.20
 -13   3  -3    1.40    1.80
 -13   3  -3    3.70    2.50
 -13  -3  -3    7.60    3.70
  13  -3   3    1.70    3.10
 -13   3  -4   12.60    2.40
  13   3   4   16.50    3.80
 -13   3  -4   15.20    3.10
 -13  -3  -4   13.70    4.30
  13  -3   4   13.40    3.80
 -13   3  -5    1.60    3.00
  13   3   5    4.70    3.50
  13  -3   5    2.30    3.60
 -13  -3  -5    3.70    4.00
  13   3   6    1.10    3.40
 -13   3  -6   -3.50    3.00
  13  -3   6    0.50    3.80
 -13  -3  -6   -0.10    4.10
  13   3   7   -0.10    3.50
 -13   3  -7   -1.30    3.30
  13  -3   7   -3.40    3.80
 -13  -3  -7   -1.10    4.20
  13   3   8    5.40    3.90
 -13   3  -8    2.60    3.60
 -13  -3  -8    2.30    4.50
  13  -3   8    2.30    4.30
  13   3   9    6.50    3.90
 -13   3  -9    2.20    3.60
  13  -3   9   -0.10    4.50
 -13  -3  -9   -5.60    4.60
  13   3  10    3.20    3.70
 -13   3 -10    7.40    4.00
  13  -3  10   -1.20    4.70
 -13  -3 -10    8.60    5.40
  13   4 -14   13.70    4.30
  13  -4 -14   14.10    4.90
 -13  -4  14   13.00    5.70
  13   4 -13   53.79    5.80
 -13  -4  13   62.19    7.10
  13  -4 -13   60.09    6.30
  13   4 -12   66.09    7.30
  13   4 -12   51.49    5.40
 -13  -4  12   68.39    7.30
  13  -4 -12   58.29    5.90
  13   4 -11   -3.40    4.10
  13   4 -11   -2.60    3.10
  13  -4 -11   -4.80    3.30
 -13  -4  11   -0.90    4.10
  13   4 -10    5.70    3.30
  13   4 -10   13.50    4.90
  13  -4 -10    5.50    3.50
 -13  -4  10    9.10    4.40
  13   4  -9   24.00    4.00
  13   4  -9   30.60    5.90
  13  -4  -9   33.00    4.40
 -13  -4   9   34.70    5.40
  13   4  -8  242.38   10.10
  13   4  -8  238.18   12.20
  13  -4  -8  263.57   10.20
 -13  -4   8  265.37   11.40
  13   4  -7    4.90    4.70
  13   4  -7    9.70    3.10
  13  -4  -7   15.80    3.30
 -13  -4   7   10.30    3.80
  13   4  -6  107.89    8.30
  13   4  -6  109.29    6.40
 -13  -4   6  108.29    7.30
  13  -4  -6  116.79    6.30
  13   4  -5    3.60    4.30
  13   4  -5    2.70    2.70
  13  -4  -5   -1.80    2.30
 -13  -4   5   -0.50    3.00
  13   4  -4    6.90    2.70
 -13  -4   4    7.00    3.00
  13  -4  -4    6.30    2.60
  13   4  -3  134.39    6.90
  13   4  -3  143.19    6.80
 -13  -4   3  162.38    7.90
  13  -4  -3  154.48    6.80
  13   4  -2    6.30    2.30
  13   4  -2    7.30    2.70
  13  -4  -2    6.10    2.40
 -13  -4   2    8.50    3.20
  13   4  -1    1.10    2.60
  13   4  -1    2.70    2.10
  13  -4  -1    3.40    2.40
 -13  -4   1    1.40    3.00
  13   4   0   -1.20    2.50
  13   4   0    4.00    2.30
 -13  -4   0    7.40    3.20
  13  -4   0    2.80    2.60
  13   4   1   99.49    6.20
  13   4   1   94.09    5.40
  13  -4   1  108.39    6.30
 -13  -4  -1   99.49    7.10
  13   4   2  131.99    6.50
  13   4   2  154.68    7.40
  13  -4   2  141.79    7.40
 -13  -4  -2  144.49    8.20
  13   4   3   33.10    4.30
  13   4   3   45.00    4.50
  13  -4   3   39.20    4.80
 -13  -4  -3   46.80    5.10
  13   4   4   79.19    6.30
  13  -4   4   61.99    5.50
 -13  -4  -4   78.79    6.50
  13   4   5   71.79    5.60
  13  -4   5   60.69    5.80
 -13  -4  -5   65.49    6.20
  13   4   6   40.10    4.80
 -13  -4  -6   37.90    5.70
  13  -4   6   39.90    5.60
  13   4   7  222.48    9.80
 -13   4  -7  215.98    7.80
  13  -4   7  219.28   11.50
 -13  -4  -7  218.18   11.70
  13   4   8   10.10    3.70
 -13   4  -8    7.00    2.80
  13  -4   8    7.20    4.50
 -13  -4  -8    7.70    4.80
 -13   4  -9   10.40    3.90
  13   4   9   22.40    4.10
 -13  -4  -9   17.90    5.60
  13  -4   9   17.70    5.40
  13   5 -14   43.40    5.40
  13  -5 -14   37.60    5.90
 -13  -5  14   61.99    7.60
  13   5 -13   -1.30    3.60
  13  -5 -13   -0.90    3.90
 -13  -5  13    2.10    5.10
  13   5 -12    6.40    5.00
  13   5 -12   10.60    3.90
  13  -5 -12    7.10    4.10
 -13  -5  12   11.00    5.10
  13   5 -11    2.70    3.40
  13   5 -11    7.30    4.90
 -13  -5  11   -0.90    4.50
  13  -5 -11    3.20    3.70
  13   5 -10   35.60    6.50
  13   5 -10   25.10    4.20
 -13  -5  10   33.50    5.60
  13  -5 -10   27.60    4.40
  13   5  -9    8.70    5.00
  13   5  -9    3.80    3.10
  13  -5  -9    2.00    3.20
 -13  -5   9   -0.30    4.10
  13   5  -8   55.19    4.80
  13   5  -8   63.49    7.70
 -13  -5   8   46.10    5.60
  13  -5  -8   58.39    4.90
  13   5  -7    6.90    3.00
  13   5  -7    4.10    2.90
  13   5  -7    6.00    5.10
 -13  -5   7    3.30    3.80
  13  -5  -7    6.90    2.80
  13  -5  -7    6.60    1.70
  13   5  -6    4.70    2.80
  13   5  -6    6.10    2.50
  13   5  -6    0.50    4.30
  13  -5  -6    7.70    2.80
 -13  -5   6    4.90    3.60
  13   5  -5   73.19    5.30
  13   5  -5   80.79    8.60
  13   5  -5   71.99    4.80
  13  -5  -5   77.59    5.20
 -13  -5   5   81.99    6.80
  13   5  -4  140.09    6.70
  13   5  -4  192.58   11.30
  13   5  -4  173.18    7.40
 -13  -5   4  182.28    8.80
  13  -5  -4  184.78    7.30
  13   5  -3   -3.20    2.30
  13   5  -3    3.20    1.70
 -13  -5   3   -2.10    2.90
  13  -5  -3    0.90    2.30
  13   5  -2    7.20    2.70
  13   5  -2    2.90    1.70
  13  -5  -2    8.20    2.60
 -13  -5   2    7.90    3.40
  13   5  -1   -0.50    2.40
  13   5  -1    1.90    1.80
  13  -5  -1    0.70    2.30
 -13  -5   1    1.30    3.20
  13   5   0   19.10    3.10
  13   5   0   12.90    2.40
 -13  -5   0   15.70    3.90
  13  -5   0   18.40    3.20
  13   5   1   23.10    3.40
  13   5   1   25.20    2.90
  13  -5   1   21.00    3.50
 -13  -5  -1   22.20    4.20
  13   5   2   51.69    4.00
  13   5   2   55.39    4.40
 -13  -5  -2   48.80    5.30
  13  -5   2   49.20    4.70
  13   5   3    8.60    3.00
 -13  -5  -3    5.50    3.90
  13  -5   3    9.70    3.40
  13   5   4   -4.40    2.60
  13  -5   4    4.10    3.30
 -13  -5  -4   -4.80    3.70
  13   5   5   -4.10    2.70
 -13  -5  -5   -4.80    4.00
  13  -5   5   -1.70    3.30
  13   5   6   13.70    3.30
 -13  -5  -6    7.90    4.90
  13  -5   6   13.20    4.40
  13   5   7    3.00    2.80
 -13  -5  -7    5.70    4.80
  13  -5   7    3.60    4.30
  13   5   8   17.90    3.30
  13  -5   8   16.90    5.20
 -13  -5  -8   14.30    5.30
  13  -5   9   69.19    7.40
 -13  -5  -9   68.19    7.30
  13   6 -13   34.00    4.80
  13  -6 -13   35.30    5.60
 -13  -6  13   52.39    7.50
  13   6 -12   31.40    6.60
  13   6 -12   20.00    4.20
 -13  -6  12   45.00    7.00
  13  -6 -12   22.80    4.90
  13   6 -11    3.60    5.40
  13   6 -11   -4.60    3.00
  13  -6 -11    5.60    3.80
 -13  -6  11   -3.50    4.60
  13   6 -10    4.50    3.20
  13   6 -10    0.80    5.00
 -13  -6  10    5.10    4.60
  13  -6 -10   -0.50    3.30
  13   6  -9    9.20    3.20
  13   6  -9    6.80    5.60
  13  -6  -9    0.50    3.10
 -13  -6   9    5.20    4.40
  13   6  -8   37.80    4.00
  13   6  -8   24.30    6.20
  13  -6  -8   42.60    4.40
 -13  -6   8   34.10    5.30
  13   6  -7  431.46   13.90
  13   6  -7  428.86   18.40
 -13  -6   7  440.46   16.20
  13  -6  -7  439.86   14.20
  13   6  -6  135.19    6.10
  13   6  -6  142.59   11.00
  13   6  -6  149.79    6.60
  13  -6  -6  129.69    6.40
 -13  -6   6  147.79    8.80
  13  -6  -6  143.29    6.70
  13   6  -5   -0.20    5.30
  13   6  -5   -1.50    2.30
  13   6  -5   -1.40    1.90
  13  -6  -5   -0.20    2.20
  13  -6  -5   -2.60    2.20
 -13  -6   5   -4.00    3.40
  13   6  -4  529.05   15.90
  13   6  -4  505.05   20.40
  13  -6  -4  546.65   16.20
 -13  -6   4  544.95   17.90
  13   6  -3   31.20    2.90
  13   6  -3   40.20    3.30
  13  -6  -3   36.70    3.50
 -13  -6   3   27.50    4.50
  13   6  -2   74.99    4.10
  13   6  -2   74.39    4.50
  13  -6  -2   66.59    4.90
 -13  -6   2   73.39    5.90
  13   6  -1    4.60    2.20
  13   6  -1    2.60    1.80
  13  -6  -1    0.00    2.30
 -13  -6   1    2.20    3.50
  13   6   0   17.10    2.20
  13   6   0   21.80    2.60
 -13  -6   0   17.90    4.10
  13  -6   0   21.10    3.30
  13   6   1   47.80    3.80
  13   6   1   46.70    3.30
  13  -6   1   48.70    4.30
 -13  -6  -1   48.10    5.30
  13   6   2  259.67    8.90
  13   6   2  281.67    8.80
 -13  -6  -2  290.47   11.90
  13  -6   2  274.57   10.60
  13  -6   3   14.00    3.60
 -13  -6  -3   23.60    4.70
  13  -6   4  102.99    7.50
 -13  -6  -4  121.69    8.70
  13  -6   5    1.80    3.50
 -13  -6  -5   -0.30    4.20
 -13  -6  -6    4.70    4.60
  13  -6   6    1.60    3.60
  13  -6   7  109.29    9.30
 -13  -6  -7  120.49   10.00
  13  -6   8    4.50    4.70
 -13  -6  -8    6.80    5.10
  13   7 -13    4.70    3.30
 -13  -7  13    7.60    5.90
  13  -7 -13   12.40    4.50
  13   7 -12    2.30    3.00
  13   7 -12   -6.20    5.00
  13  -7 -12    4.40    4.00
 -13  -7  12    9.80    5.60
  13   7 -11   63.49    5.40
  13   7 -11   80.99    9.60
 -13  -7  11   67.29    7.50
  13  -7 -11   68.29    6.00
  13   7 -10   46.10    4.10
  13   7 -10   55.49    8.40
  13  -7 -10   50.39    5.10
 -13  -7  10   43.70    6.60
  13   7  -9   39.00    7.50
  13   7  -9   37.60    3.50
 -13  -7   9   39.90    6.00
  13  -7  -9   38.10    4.50
  13   7  -8   11.50    2.40
  13   7  -8    7.10    6.20
  13  -7  -8   11.50    3.20
 -13  -7   8    8.90    4.70
  13   7  -7    1.30    2.00
  13   7  -7    5.40    5.20
 -13  -7   7   -1.30    3.80
  13  -7  -7    1.00    2.60
  13   7  -6   26.50    7.10
 -13  -7   6   44.60    5.80
  13  -7  -6   33.20    3.60
  13   7  -5    0.90    5.00
 -13  -7   5   -3.10    3.50
  13  -7  -5   -1.20    2.20
  13   7  -4   -1.30    5.70
 -13  -7   4   -8.70    3.40
  13  -7  -4   -2.00    2.10
  13   7  -3   27.10    6.90
  13  -7  -3   22.80    3.00
 -13  -7   3   17.50    4.40
  13  -7  -2    8.70    2.60
 -13  -7   2   14.30    3.90
  13  -7  -1   21.00    3.10
 -13  -7   1   18.50    4.20
  13  -7   0    3.70    2.60
 -13  -7   0    5.80    3.70
  13  -7   1    9.30    3.00
 -13  -7  -1    6.00    3.80
 -13  -7  -2   15.60    4.40
  13  -7   2   13.60    3.40
  13  -7   3    9.40    3.50
 -13  -7  -3    7.40    4.20
 -13  -7  -4   11.00    4.40
  13  -7   4   12.70    3.80
  13  -7   5   37.50    5.00
 -13  -7  -5   44.50    5.80
  13  -7   6   40.70    5.30
 -13  -7  -6   42.80    6.00
  13  -7   7    9.10    5.00
 -13  -7  -7   -1.90    5.00
 -13  -7  -8   13.80    5.60
  13  -7   8   14.10    5.20
  13   8 -12    2.20    6.20
 -13  -8  12   15.80    6.00
  13   8 -11   14.00    6.50
 -13  -8  11    7.70    5.50
  13   8 -10   71.09    9.70
 -13  -8  10   72.09    7.60
  13   8  -9   -0.60    5.50
 -13  -8   9   12.10    5.20
  13   8  -8   -4.10    5.80
 -13  -8   8    4.10    4.50
  13   8  -7    3.30    5.90
 -13  -8   7    4.00    4.20
  13  -8  -7    5.60    5.10
  13   8  -6    7.30    5.90
  13  -8  -6    7.70    3.00
 -13  -8   6    8.80    4.40
  13   8  -5   -0.80    5.80
  13  -8  -5    2.10    2.20
 -13  -8   5    4.40    4.10
  13   8  -4   19.90    6.70
  13  -8  -4   21.30    2.80
 -13  -8   4   24.90    4.70
  13   8  -3   32.10    7.30
  13  -8  -3   27.90    3.10
 -13  -8   3   28.20    5.00
  13   8  -2   -8.60    5.40
 -13  -8   2    0.70    3.70
  13  -8  -2   -0.60    2.10
  13   8  -1    5.20    5.20
  13  -8  -1   13.10    2.60
 -13  -8   1   12.80    4.10
 -13  -8   0    3.20    3.60
  13  -8   0    5.30    2.60
  13  -8   1   94.49    6.20
 -13  -8  -1  107.79    8.00
  13  -8   2   38.20    4.20
 -13  -8  -2   32.60    5.00
  13  -8   3    4.10    3.20
 -13  -8  -3   -5.40    3.90
  13  -8   4    3.10    3.40
 -13  -8  -4   -3.50    4.00
 -13  -8  -5    6.60    4.60
  13  -8   5   -1.00    3.60
  13  -8   6  154.48    9.80
 -13  -8  -6  170.48   10.60
 -13  -8  -7   20.60    5.90
  13  -8   7   28.80    5.90
  13   9 -11    3.30    6.10
 -13  -9  11    8.90    5.70
  13   9 -10   51.29    9.30
 -13  -9  10   69.59    7.90
  13   9  -9   27.80    8.10
 -13  -9   9   18.40    5.70
  13   9  -8   -0.40    6.30
 -13  -9   8    0.10    4.60
  13   9  -7   73.59    9.90
 -13  -9   7   62.89    6.70
  13   9  -6    1.00    6.10
 -13  -9   6    1.70    4.30
  13   9  -5   18.20    7.50
 -13  -9   5   13.60    4.60
  13   9  -4    3.50    6.10
 -13  -9   4    4.10    4.00
  13   9  -3   13.10    7.30
 -13  -9   3    9.70    4.20
  13   9  -2   11.70    6.10
 -13  -9   2    7.70    4.00
  13   9  -1   74.79    9.50
 -13  -9   1   97.99    7.70
  13   9   0    3.70    5.70
 -13  -9   0    7.70    3.90
 -13  -9  -1   24.30    4.70
 -13  -9  -2   14.50    4.50
  13  -9   3   59.49    5.30
 -13  -9  -3   63.39    6.40
 -13  -9  -4   18.90    5.10
  13  -9   4   11.10    3.90
  13  -9   5    9.20    4.00
 -13  -9  -5   11.30    5.10
 -13  -9  -6   97.79    8.20
  13  -9   6  109.59    8.70
  13  10 -10    1.90    6.30
 -13 -10  10   -2.30    4.80
  13  10  -9    4.40    6.60
 -13 -10   9   16.30    5.80
  13  10  -8   13.80    7.30
 -13 -10   8   23.10    5.60
  13  10  -7   97.89   11.90
 -13 -10   7   90.19    7.90
  13  10  -6    6.90    6.80
 -13 -10   6   15.40    4.80
  13  10  -5    0.90    6.50
 -13 -10   5    1.70    4.10
  13  10  -4   25.90    7.60
 -13 -10   4   26.00    5.10
  13  10  -3   69.19    9.90
 -13 -10   3   62.59    6.50
  13  10  -2   35.80    8.20
 -13 -10   2   26.90    5.10
  13  10  -1   31.60    8.20
 -13 -10   1   16.60    4.50
  13  10   0   78.89   10.40
 -13 -10   0  109.19    8.20
  13  10   1   22.10    8.60
 -13 -10  -1   32.20    5.10
  13  10   2   10.00    7.60
 -13 -10  -2    1.90    4.20
 -13 -10  -3    1.40    4.20
 -13 -10  -4    8.20    4.70
 -13 -10  -5    6.70    5.00
  13  11  -8   30.70    8.30
 -13 -11   8   32.10    6.40
  13  11  -7    6.80    7.70
 -13 -11   7   15.50    5.20
  13  11  -6    5.00    6.80
 -13 -11   6   -1.70    4.20
  13  11  -5   43.70    9.20
 -13 -11   5   68.29    6.80
  13  11  -4   93.99   11.70
 -13 -11   4  105.99    8.10
  13  11  -3   17.00    7.50
 -13 -11   3   14.70    4.80
  13  11  -2   21.50    7.10
 -13 -11   2   14.80    4.70
  13  11  -1   30.90    8.30
 -13 -11   1   32.70    5.30
  13  11   0   52.69    9.90
 -13 -11   0   56.09    6.20
  13  11   1  -14.70    7.00
 -13 -11  -1    0.00    4.00
  13  11   2   -1.90    7.60
 -13 -11  -2   -1.70    4.00
  13  11   3   14.10    8.90
  13  12  -5    1.00    7.60
 -13 -12   5   -1.30    4.10
  13  12  -4    7.10    7.30
 -13 -12   4    1.80    4.50
  13  12  -3  119.59   13.50
 -13 -12   3  114.59    9.00
  13  12  -2   -3.00    6.00
 -13 -12   2    4.00    4.30
  13  12  -1   13.90    8.60
 -13 -12   1   22.20    5.20
  13  12   0   63.89   11.10
 -13 -12   0   73.69    8.40
  14   0 -15   -1.80    4.60
 -14   0  15    1.50    3.90
 -14   0  14    5.60    4.00
  14   0 -14    6.40    4.70
 -14   0  13   -0.60    3.60
  14   0 -13  -10.20    3.80
  14   0 -12  234.68   11.30
 -14   0  12  229.58   10.30
  14   0 -11   -0.30    3.50
  14   0 -11    1.50    2.50
 -14   0  11   -3.80    3.20
  14   0 -10   44.00    4.40
 -14   0  10   47.70    4.80
  14   0 -10   42.50    5.30
 -14   0   9    5.10    3.20
  14   0  -9    2.60    2.90
  14   0  -9    2.20    3.20
  14   0  -8   20.70    3.80
 -14   0   8   21.30    3.70
  14   0  -8   26.00    4.10
  14   0  -7    7.60    3.10
 -14   0   7   11.70    3.10
  14   0  -6   50.69    4.70
 -14   0   6   46.90    4.10
 -14   0   5   -2.20    2.70
  14   0  -5   -2.90    2.50
  14   0  -4  528.75   16.90
 -14   0   4  527.95   16.40
  14   0  -3    1.40    2.60
 -14   0   3   -1.90    2.60
  14   0  -2   13.50    3.20
 -14   0   2   11.40    3.10
 -14   0   1   -0.70    2.90
  14   0  -1    2.20    2.80
  14   0   0  438.26   14.80
 -14   0   0  439.86   14.40
 -14   0  -1    0.10    3.00
  14   0   1    0.60    2.80
  14   0   2  218.88    9.60
 -14   0  -2  226.48    9.60
  14   0   3    1.90    3.20
 -14   0  -3    0.00    3.20
 -14   0  -4    1.50    3.60
  14   0   4    1.10    3.50
  14   0   5    5.70    3.70
 -14   0  -5   -1.00    3.60
  14   0   6   66.59    6.40
 -14   0  -6   56.29    5.90
 -14   0  -7    2.20    4.30
  14   0   7   -0.90    3.90
 -14   0  -8    1.80    4.50
  14   0   8    4.20    4.40
  14   0   9    9.30    4.90
 -14   0  -9    2.00    4.80
  14   1 -15   -0.40    4.60
 -14   1  15    7.40    3.40
 -14  -1  15   -0.30    4.30
  14  -1 -15    5.50    4.90
  14   1 -14   -6.60    4.10
 -14   1  14    0.60    3.10
  14  -1 -14   -5.30    4.10
 -14  -1  14    2.60    4.30
 -14   1  13  145.29    7.30
  14   1 -13  123.59    9.30
  14  -1 -13  122.49    9.30
 -14  -1  13  150.38    9.20
 -14   1  12    9.10    3.30
  14   1 -12    3.30    4.00
 -14  -1  12    7.40    4.30
  14  -1 -12    3.40    4.00
  14   1 -11   -3.80    3.00
 -14   1  11   -0.20    2.80
  14   1 -11    0.80    3.60
 -14  -1  11    3.40    3.80
  14  -1 -11   -3.40    3.50
  14   1 -10   53.29    5.50
  14   1 -10   53.19    5.50
 -14   1  10   52.49    4.50
 -14  -1  10   55.19    5.50
  14  -1 -10   58.19    5.70
  14  -1 -10   51.89    4.10
  14   1  -9  232.68   10.40
 -14   1   9  235.28    9.20
  14   1  -9  255.47   10.70
  14  -1  -9  255.77   10.70
  14  -1  -9  231.28    9.00
 -14  -1   9  248.98   10.30
  14   1  -8   88.09    6.80
  14   1  -8   86.39    6.60
 -14   1   8   89.79    5.70
 -14  -1   8   88.19    6.60
  14  -1  -8   85.39    5.70
  14  -1  -8   89.99    6.70
  14   1  -7    3.40    2.90
 -14   1   7   -0.90    1.50
 -14   1   7    8.10    2.80
  14   1  -7    5.90    3.80
  14  -1  -7   10.20    3.40
 -14  -1   7    5.40    3.20
 -14   1   6   51.59    4.10
  14   1  -6   58.39    5.10
  14  -1  -6   48.50    4.50
 -14  -1   6   52.79    4.80
  14   1  -5   18.20    3.30
 -14   1   5   25.40    3.20
 -14  -1   5   22.10    3.60
  14  -1  -5   27.70    3.80
  14   1  -4   36.20    4.00
 -14   1   4   56.59    4.10
  14  -1  -4   49.60    4.50
 -14  -1   4   44.00    4.30
  14   1  -3   10.60    3.10
 -14   1   3    7.80    2.80
 -14   1   3    0.60    1.80
  14  -1  -3    2.90    2.70
 -14  -1   3    8.70    3.20
  14   1  -2   22.90    3.50
 -14   1   2   22.90    2.70
 -14   1   2   27.50    3.50
  14  -1  -2   20.60    3.40
 -14  -1   2   32.50    3.90
 -14   1   1  273.87    9.90
  14   1  -1  267.37   10.50
 -14   1   1  282.67    9.50
 -14  -1   1  281.17   10.60
  14  -1  -1  283.27   10.60
 -14   1   0    2.90    2.80
  14   1   0    4.40    2.80
 -14   1   0    5.30    2.20
 -14  -1   0    7.80    3.20
  14  -1   0    7.50    3.00
  14   1   1  757.32   23.00
 -14   1  -1  716.83   22.00
 -14   1  -1  797.12   22.40
  14  -1   1  741.83   23.00
 -14  -1  -1  771.12   22.80
 -14   1  -2  110.89    6.70
  14   1   2  108.39    7.00
  14  -1   2  101.19    6.90
 -14  -1  -2   96.09    6.90
 -14   1  -3  123.09    7.30
  14   1   3  108.69    7.40
 -14  -1  -3  125.69    7.60
  14  -1   3  119.79    7.60
  14   1   4    5.80    3.40
 -14   1  -4   -0.80    3.30
  14  -1   4    1.80    3.40
 -14  -1  -4    4.40    3.80
 -14   1  -5    2.90    3.60
  14   1   5    1.20    3.60
  14  -1   5   -2.90    3.40
 -14  -1  -5    0.30    3.80
  14   1   6   11.10    4.30
 -14   1  -6   17.00    4.50
 -14  -1  -6    9.80    4.40
  14  -1   6   11.10    4.20
 -14   1  -7   55.89    5.90
  14   1   7   42.20    5.60
 -14  -1  -7   42.80    5.80
  14  -1   7   50.29    6.20
 -14   1  -8   59.69    6.20
  14   1   8   68.59    6.70
  14  -1   8   53.19    6.60
 -14  -1  -8   72.09    6.90
  14   1   9    0.10    4.40
 -14   1  -9   -0.20    4.50
  14  -1   9    7.40    4.70
 -14  -1  -9   -0.20    4.80
  14   2 -15    0.00    4.60
 -14  -2  15    3.00    4.90
  14  -2 -15   -7.40    4.30
  14   2 -14   33.80    5.80
 -14  -2  14   20.90    5.40
  14  -2 -14   28.20    5.70
  14   2 -13    3.30    4.20
  14  -2 -13   -1.60    4.00
 -14  -2  13    4.20    4.50
 -14   2  12   -0.30    2.20
  14   2 -12    1.20    3.50
  14   2 -12    4.90    4.00
  14  -2 -12    5.90    4.10
 -14  -2  12    2.30    4.30
  14   2 -11   -0.90    3.50
  14   2 -11   -0.60    3.40
 -14   2  11   -0.30    2.20
  14  -2 -11   -4.00    3.40
 -14  -2  11   -1.60    3.80
 -14   2  10   24.10    2.80
  14   2 -10   26.00    4.70
  14   2 -10   29.50    4.70
  14  -2 -10   26.50    4.60
 -14  -2  10   26.40    4.80
  14   2  -9    7.20    3.90
 -14   2   9    5.00    2.00
 -14   2   9    9.00    2.40
  14   2  -9   13.10    3.60
  14  -2  -9   10.80    3.70
  14  -2  -9    7.10    2.10
 -14  -2   9    8.20    3.70
  14   2  -8    2.80    3.80
 -14   2   8   -2.30    2.20
  14   2  -8   -0.40    2.80
 -14   2   8    0.40    1.70
  14  -2  -8    2.20    2.30
 -14  -2   8    1.40    3.20
  14  -2  -8   -2.80    2.90
 -14   2   7  119.19    5.30
  14   2  -7  126.49    7.20
  14   2  -7  122.59    8.40
 -14   2   7  118.29    5.00
 -14  -2   7  128.49    7.50
  14  -2  -7  127.69    7.40
 -14   2   6  277.07    8.90
  14   2  -6  277.27   10.80
 -14   2   6  288.87    9.10
 -14  -2   6  292.17   11.20
  14  -2  -6  298.07   11.00
  14   2  -5   17.50    3.40
 -14   2   5   14.50    2.10
 -14   2   5   15.30    2.40
 -14  -2   5   18.10    3.50
  14  -2  -5   13.80    3.20
 -14   2   4   26.80    2.50
 -14   2   4   37.60    3.00
  14   2  -4   36.90    4.10
 -14  -2   4   28.50    4.00
  14  -2  -4   26.20    3.60
 -14   2   3   45.10    3.30
  14   2  -3   41.70    4.30
 -14   2   3   41.70    3.20
  14  -2  -3   44.80    4.20
 -14  -2   3   33.80    4.10
 -14   2   2    0.60    2.30
  14   2  -2    3.10    2.80
 -14   2   2   -2.90    1.60
 -14  -2   2    1.50    3.00
 -14   2   1   14.70    2.70
 -14   2   1   16.30    2.30
  14   2  -1   11.90    3.20
  14  -2  -1   17.40    3.50
 -14  -2   1   17.10    3.60
 -14   2   0  390.06   12.00
  14   2   0  356.36   13.00
 -14   2   0  356.76   11.50
  14  -2   0  389.26   13.20
 -14  -2   0  375.36   13.20
 -14   2  -1   62.49    5.00
  14   2   1   69.89    5.80
 -14   2  -1   46.90    3.60
 -14  -2  -1   60.89    5.20
  14  -2   1   68.69    5.70
 -14   2  -2   -2.60    1.50
 -14   2  -2    2.60    2.90
  14   2   2    5.30    3.20
  14  -2   2    7.00    3.30
 -14  -2  -2   11.10    3.70
 -14   2  -3   -0.60    2.00
  14   2   3   -2.70    2.90
 -14   2  -3   -1.00    3.00
 -14  -2  -3    4.60    3.70
  14  -2   3    1.30    3.10
  14   2   4   19.30    4.10
 -14   2  -4   14.10    3.60
 -14   2  -4   11.70    3.70
  14  -2   4   20.80    4.30
 -14  -2  -4   12.00    4.30
  14   2   5   60.59    5.80
 -14   2  -5   55.89    5.20
  14  -2   5   57.59    6.10
 -14  -2  -5   58.59    6.10
 -14   2  -6    9.10    3.90
  14   2   6    6.90    4.00
 -14  -2  -6   13.50    4.60
  14  -2   6    6.60    4.10
 -14   2  -7   14.10    4.30
  14   2   7   19.40    4.70
  14  -2   7   17.80    4.90
 -14  -2  -7   17.50    5.10
 -14   2  -8    8.30    4.20
  14   2   8   15.70    4.70
 -14  -2  -8    8.90    4.90
  14  -2   8   11.80    4.90
  14   2   9    3.80    4.30
 -14   2  -9   -6.80    4.10
  14  -2   9   -0.30    4.50
 -14  -2  -9    7.20    5.00
  14   3 -14   61.19    6.80
  14  -3 -14   58.79    6.80
 -14  -3  14   58.29    7.20
  14   3 -13   30.40    5.30
  14  -3 -13   20.60    5.00
 -14  -3  13   27.90    5.80
  14   3 -12   85.79    7.60
  14   3 -12   73.79    6.40
  14  -3 -12  103.19    7.70
 -14  -3  12   88.19    7.50
  14   3 -11   -2.80    3.30
  14   3 -11    0.20    4.00
 -14  -3  11   -3.40    4.10
  14  -3 -11   -3.70    3.50
  14   3 -10   -1.40    3.80
  14   3 -10   -0.70    3.20
 -14  -3  10    3.80    3.90
  14  -3 -10   -0.90    3.30
  14   3  -9   76.29    7.40
  14   3  -9   81.79    6.50
 -14  -3   9   70.09    6.40
  14  -3  -9   65.69    5.70
  14   3  -8    8.10    3.30
  14   3  -8   -0.40    4.20
  14  -3  -8   -0.20    3.10
 -14  -3   8    5.20    3.70
  14  -3  -8   -1.50    1.80
  14   3  -7    1.40    2.80
  14   3  -7   -2.30    4.10
 -14  -3   7    3.50    3.30
  14  -3  -7    2.40    2.90
  14   3  -6   20.40    3.60
  14   3  -6   21.40    5.50
  14  -3  -6   23.40    3.80
 -14  -3   6   21.90    4.10
  14   3  -5    3.50    2.80
 -14  -3   5    0.10    3.00
  14  -3  -5    0.60    2.60
  14   3  -4    1.70    2.80
  14  -3  -4    2.50    2.60
 -14  -3   4   -3.40    2.90
  14   3  -3    1.50    2.60
  14  -3  -3   -0.20    2.50
 -14  -3   3   -1.60    3.00
  14   3  -2  189.18    8.40
 -14  -3   2  189.98    8.80
  14  -3  -2  192.48    8.30
  14   3  -1    4.30    2.70
 -14  -3   1    3.70    3.10
  14  -3  -1    4.60    2.80
  14   3   0   97.59    6.20
 -14   3   0   85.39    3.80
 -14   3   0   74.29    3.30
 -14  -3   0   88.69    6.80
  14  -3   0   90.49    6.20
  14   3   1  235.38    9.70
 -14   3  -1  214.28    7.30
 -14   3  -1  247.18    7.70
 -14  -3  -1  227.18   10.10
  14  -3   1  246.28    9.90
  14   3   2  252.17   10.40
 -14   3  -2  268.87    8.80
 -14   3  -2  246.58    8.30
 -14  -3  -2  264.47   10.90
  14  -3   2  256.37   10.60
  14   3   3  236.08   10.20
 -14   3  -3  242.88    8.50
 -14   3  -3  227.08    8.00
 -14  -3  -3  229.18   10.70
  14  -3   3  244.48   10.50
 -14   3  -4   21.40    3.30
  14   3   4   18.90    4.20
 -14  -3  -4   16.80    4.50
  14  -3   4   21.90    4.40
  14   3   5   56.69    5.50
 -14   3  -5   54.49    4.50
 -14  -3  -5   68.29    6.40
  14  -3   5   36.80    5.20
  14   3   6    4.70    3.70
 -14   3  -6   -0.20    3.10
 -14  -3  -6    4.40    4.50
  14  -3   6   -4.30    3.80
 -14   3  -7   10.80    3.60
  14   3   7   15.00    4.30
  14  -3   7    9.10    4.60
 -14  -3  -7   12.50    5.00
 -14   3  -8    0.10    3.50
  14   3   8    0.00    3.80
  14  -3   8    1.10    4.30
 -14  -3  -8    1.90    4.80
  14   3   9    9.30    4.20
 -14   3  -9   12.40    4.10
 -14  -3  -9    2.90    4.90
  14  -3   9   12.00    5.20
  14   4 -14   14.70    4.50
 -14  -4  14   16.10    5.70
  14  -4 -14   13.40    5.10
  14   4 -13  100.19    8.00
 -14  -4  13  103.49    8.50
  14  -4 -13  104.09    8.70
  14   4 -12   93.79    8.80
  14   4 -12  106.09    7.70
 -14  -4  12  124.89    9.80
  14  -4 -12  115.39    8.50
  14   4 -11  157.48   10.30
  14   4 -11  147.19    8.70
 -14  -4  11  173.58   10.40
  14  -4 -11  141.99    8.80
  14   4 -10  103.09    7.40
  14   4 -10  105.09    8.80
  14  -4 -10  105.99    7.60
 -14  -4  10  125.39    9.10
  14   4  -9   10.90    3.60
  14   4  -9   14.00    5.10
 -14  -4   9   13.80    4.50
  14  -4  -9   15.50    3.90
  14   4  -8    1.20    4.60
  14   4  -8    9.10    3.50
  14  -4  -8    5.80    3.30
  14  -4  -8    9.30    1.70
 -14  -4   8    8.20    4.00
  14   4  -7   -3.30    4.40
  14   4  -7    2.60    3.10
 -14  -4   7   -0.20    3.50
  14  -4  -7   -0.30    2.90
  14   4  -6  154.08    7.70
  14   4  -6  160.68   10.40
  14  -4  -6  152.48    7.60
 -14  -4   6  149.69    8.50
  14   4  -5  116.59    9.20
  14   4  -5  108.19    6.70
 -14  -4   5  114.39    7.40
  14  -4  -5  106.09    6.40
  14   4  -4  178.58    8.10
 -14  -4   4  189.68    9.10
  14  -4  -4  189.98    8.10
  14   4  -3  450.45   14.80
 -14  -4   3  462.95   15.50
  14  -4  -3  435.46   14.50
  14   4  -2    9.10    3.00
  14  -4  -2    0.00    2.50
 -14  -4   2    6.20    3.50
  14   4  -1   13.70    3.40
 -14  -4   1   10.80    3.60
  14  -4  -1    6.80    3.00
  14   4   0   26.20    3.80
 -14  -4   0   31.00    4.50
  14  -4   0   31.50    4.20
  14   4   1  156.08    7.70
  14  -4   1  154.48    7.80
 -14  -4  -1  138.19    8.50
  14   4   2   49.60    4.70
  14  -4   2   51.49    4.80
 -14  -4  -2   39.90    5.10
  14   4   3  116.49    7.20
  14  -4   3  110.89    7.50
 -14  -4  -3  101.79    8.10
  14   4   4  129.39    7.70
 -14  -4  -4  126.59    9.00
  14  -4   4  117.59    8.00
  14   4   5   27.60    4.30
 -14  -4  -5   18.50    5.10
  14  -4   5   15.00    4.30
  14   4   6   12.30    3.90
 -14  -4  -6   15.90    5.00
  14  -4   6   10.00    4.80
 -14   4  -7    3.80    3.40
  14   4   7   15.00    4.00
 -14  -4  -7    4.80    4.90
  14  -4   7   11.10    5.00
  14   4   8   -0.70    3.40
 -14  -4  -8   -0.80    4.80
  14  -4   8    1.50    4.60
  14   4   9   15.60    4.00
  14  -4   9   10.90    5.30
 -14  -4  -9   14.60    5.90
  14   5 -14   65.19    6.30
  14  -5 -14   60.49    7.00
 -14  -5  14   70.99    8.00
  14   5 -13   63.89    6.20
 -14  -5  13   58.49    7.40
  14  -5 -13   54.89    6.40
  14   5 -12   26.00    6.20
  14   5 -12   28.20    4.80
  14  -5 -12   25.30    5.00
 -14  -5  12   32.60    6.20
  14   5 -11    9.30    3.90
  14   5 -11   -0.30    4.90
 -14  -5  11    7.50    4.80
  14  -5 -11    4.90    3.80
  14   5 -10   23.60    5.90
  14   5 -10   16.60    4.00
  14  -5 -10   14.70    4.00
 -14  -5  10   23.10    5.30
  14   5  -9  156.38   11.00
  14   5  -9  148.79    8.10
 -14  -5   9  159.88    9.90
  14  -5  -9  144.79    8.10
  14   5  -8  345.87   12.70
  14   5  -8  366.36   16.10
 -14  -5   8  348.07   14.30
  14  -5  -8  365.56   12.90
  14   5  -7   71.89    8.30
  14   5  -7   55.39    5.00
 -14  -5   7   56.09    6.00
  14  -5  -7   64.89    5.10
  14   5  -6    0.90    3.30
  14   5  -6    1.90    2.90
  14   5  -6    2.00    4.70
 -14  -5   6    4.80    3.80
  14  -5  -6    2.20    2.80
  14   5  -5   89.69    9.00
  14   5  -5   80.19    5.20
  14   5  -5   88.79    5.90
  14  -5  -5   83.19    5.80
 -14  -5   5   85.89    7.20
  14   5  -4    2.40    2.70
  14   5  -4    6.20    2.40
 -14  -5   4    3.30    3.50
  14  -5  -4    3.90    2.60
  14   5  -3   17.20    3.20
  14   5  -3   19.90    2.90
  14  -5  -3   17.60    3.10
 -14  -5   3   11.50    3.80
  14   5  -2   62.69    4.60
  14   5  -2   69.59    5.40
  14  -5  -2   73.09    5.50
 -14  -5   2   68.19    5.60
  14   5  -1   19.30    2.80
  14   5  -1   15.50    3.30
 -14  -5   1   19.00    4.20
  14  -5  -1   21.70    3.60
  14   5   0    1.90    2.80
  14   5   0   -0.80    1.80
  14  -5   0    0.30    2.80
 -14  -5   0   -3.60    3.20
  14   5   1   41.10    4.10
  14  -5   1   37.60    4.30
 -14  -5  -1   43.80    5.30
  14   5   2  110.19    6.60
 -14  -5  -2  122.39    8.40
  14  -5   2  104.19    7.10
  14   5   3  110.19    6.60
  14  -5   3  100.79    7.40
 -14  -5  -3   96.89    8.30
  14   5   4   -0.90    2.90
  14  -5   4    0.70    3.40
 -14  -5  -4   -0.20    4.20
  14   5   5   48.10    4.60
 -14  -5  -5   52.89    6.30
  14  -5   5   51.79    5.90
  14   5   6   21.50    3.70
 -14  -5  -6   24.90    5.70
  14  -5   6   11.70    4.50
  14   5   7    2.50    3.10
 -14  -5  -7   -1.90    4.60
  14  -5   7   -2.60    4.30
  14   5   8   15.40    3.40
  14  -5   8   16.00    5.40
 -14  -5  -8   16.30    5.50
  14   6 -13    6.90    3.90
  14   6 -13    1.30    5.40
  14  -6 -13    0.80    4.20
 -14  -6  13    2.80    5.50
  14   6 -12   16.70    6.40
  14   6 -12   18.90    4.30
 -14  -6  12   40.30    6.70
  14  -6 -12   18.80    4.80
  14   6 -11   26.80    6.50
  14   6 -11   26.10    4.30
 -14  -6  11   29.00    6.20
  14  -6 -11   18.70    4.40
  14   6 -10   14.20    3.80
  14   6 -10   18.30    6.30
 -14  -6  10   21.70    5.70
  14  -6 -10   20.40    4.30
  14   6  -9    4.50    3.30
  14   6  -9    1.80    5.30
 -14  -6   9   11.10    4.80
  14  -6  -9    5.20    3.40
  14   6  -8   10.10    3.20
  14   6  -8    6.70    5.30
  14  -6  -8    5.20    3.30
 -14  -6   8    0.90    4.30
  14   6  -7   50.79    4.50
  14   6  -7   59.49    8.40
 -14  -6   7   58.69    6.20
  14  -6  -7   45.60    4.50
  14   6  -6  699.83   20.70
  14   6  -6  677.83   25.40
 -14  -6   6  713.83   22.70
  14  -6  -6  694.53   20.90
  14   6  -5    7.80    3.10
  14   6  -5    7.20    2.70
  14   6  -5    8.80    5.50
  14  -6  -5   12.40    3.10
 -14  -6   5   12.10    4.20
  14   6  -4    4.40    2.10
  14   6  -4    4.90    5.90
  14   6  -4    3.80    2.60
  14  -6  -4    5.30    2.60
 -14  -6   4    2.50    3.70
  14   6  -3  187.78    7.70
  14   6  -3  193.38    7.30
  14  -6  -3  195.98    8.20
 -14  -6   3  208.68   10.00
  14   6  -2   13.00    2.40
  14   6  -2   14.00    2.80
 -14  -6   2   10.50    4.10
  14  -6  -2   12.20    2.90
  14   6  -1   -1.20    1.80
  14   6  -1   -1.10    2.30
  14  -6  -1   -0.30    2.60
 -14  -6   1    2.70    3.70
  14   6   0    7.20    2.50
 -14  -6   0    4.40    3.80
  14  -6   0    2.90    3.00
  14   6   1    4.40    2.30
  14  -6   1    6.70    3.10
 -14  -6  -1   -1.60    3.80
  14   6   2   65.49    4.60
 -14  -6  -2   64.59    6.40
  14  -6   2   59.79    5.30
  14   6   3  208.88    7.70
 -14  -6  -3  206.58   10.80
  14  -6   3  211.18    9.80
  14   6   4    8.30    2.40
  14  -6   4    3.70    3.60
 -14  -6  -4    1.90    4.40
  14  -6   5   -1.70    3.50
 -14  -6  -5    5.60    4.80
  14  -6   6   27.10    5.30
 -14  -6  -6   34.90    6.30
 -14  -6  -7   12.30    5.50
  14  -6   7   25.00    5.80
 -14  -6  -8   37.80    6.50
  14  -6   8   50.89    7.00
  14   7 -12  218.88    9.10
  14   7 -12  215.78   13.90
  14  -7 -12  197.98   10.70
 -14  -7  12  234.88   13.40
  14   7 -11   13.00    3.30
  14   7 -11   10.50    6.30
  14  -7 -11   13.80    4.20
 -14  -7  11   14.50    5.60
  14   7 -10    0.50    2.70
  14   7 -10    2.20    5.80
 -14  -7  10    7.60    5.10
  14  -7 -10    2.60    3.60
  14   7  -9   30.40    7.50
  14   7  -9   31.30    3.60
 -14  -7   9   37.20    6.30
  14  -7  -9   31.30    4.40
  14   7  -8   17.50    2.90
  14   7  -8   22.80    6.80
 -14  -7   8   18.50    5.40
  14  -7  -8   22.60    3.80
  14   7  -7    5.80    5.70
  14   7  -7    1.20    2.20
 -14  -7   7    1.20    4.30
  14  -7  -7   -0.40    2.70
  14   7  -6    0.70    2.00
  14   7  -6    0.50    5.80
 -14  -7   6    3.50    4.20
  14  -7  -6    0.50    2.70
  14   7  -5  135.09   11.20
 -14  -7   5  165.58    9.60
  14  -7  -5  167.48    7.30
  14   7  -4   82.59    9.30
  14  -7  -4   77.09    5.40
 -14  -7   4   80.59    6.90
  14   7  -3   26.30    7.00
 -14  -7   3   28.80    4.80
  14  -7  -3   23.20    3.40
 -14  -7   2  107.59    8.20
  14  -7  -2  102.29    6.00
  14  -7  -1    2.40    2.60
 -14  -7   1    1.60    3.80
  14  -7   0   78.09    5.90
 -14  -7   0   84.99    6.90
 -14  -7  -1    3.70    4.00
  14  -7   1    1.20    3.00
 -14  -7  -2   41.60    5.50
  14  -7   2   36.30    4.50
  14  -7   3   14.60    3.90
 -14  -7  -3   13.40    5.00
  14  -7   4   78.49    6.70
 -14  -7  -4   69.19    6.80
  14  -7   5    5.50    4.00
 -14  -7  -5   -1.20    4.30
  14  -7   6   18.80    4.80
 -14  -7  -6    5.90    5.30
 -14  -7  -7    1.60    5.30
  14  -7   7   -1.60    4.60
  14   8 -12   52.69    9.00
  14   8 -11    3.50    6.30
 -14  -8  11    5.70    5.50
  14   8 -10   30.30    7.60
 -14  -8  10   26.20    6.20
  14   8  -9   26.90    7.00
 -14  -8   9   44.50    6.80
  14   8  -8   -0.40    6.10
 -14  -8   8    5.60    4.80
  14   8  -7   30.20    7.80
 -14  -8   7   61.59    6.80
  14   8  -6    5.30    6.30
 -14  -8   6   15.20    5.00
  14   8  -5  185.98   12.90
 -14  -8   5  202.68   10.80
  14  -8  -5  193.78    8.50
  14   8  -4   50.49    8.80
  14  -8  -4   60.09    4.90
 -14  -8   4   56.39    6.20
  14   8  -3   94.09   11.00
  14  -8  -3   87.29    5.60
 -14  -8   3  106.39    8.40
  14   8  -2  163.68   13.40
 -14  -8   2  200.38   10.10
  14  -8  -2  184.28    7.80
 -14  -8   1   38.10    5.30
  14  -8  -1   24.80    3.50
  14  -8   0   40.10    4.30
 -14  -8   0   40.80    5.50
 -14  -8  -1  108.49    8.40
  14  -8   1   98.69    6.60
  14  -8   2    6.20    3.30
 -14  -8  -2    5.20    4.20
  14  -8   3    0.50    3.30
 -14  -8  -3    7.40    4.60
  14  -8   4    0.00    3.50
 -14  -8  -4    7.00    4.90
  14  -8   5   12.20    4.30
 -14  -8  -5    7.00    5.10
  14  -8   6   14.40    4.80
 -14  -8  -6   14.20    5.40
  14   9 -10    5.50    6.30
 -14  -9  10    6.50    5.30
  14   9  -9   23.60    7.90
 -14  -9   9   27.00    6.10
  14   9  -8   78.29   10.70
 -14  -9   8   70.59    7.50
  14   9  -7   77.59   10.60
 -14  -9   7   74.39    7.20
  14   9  -6  125.09   12.40
 -14  -9   6  100.69    8.40
  14   9  -5    7.80    6.40
 -14  -9   5    2.90    4.50
  14   9  -4   57.29    9.80
 -14  -9   4   50.19    6.30
  14   9  -3    6.70    6.50
 -14  -9   3   10.60    4.50
  14   9  -2  -12.50    5.00
 -14  -9   2    5.50    4.10
  14   9  -1   26.20    7.40
 -14  -9   1   31.40    5.10
  14   9   0   27.20    7.40
 -14  -9   0   41.00    5.60
 -14  -9  -1   39.00    5.50
 -14  -9  -2    5.50    4.40
 -14  -9  -3    9.90    4.80
  14  -9   3   15.00    4.20
  14  -9   4   -0.60    3.70
 -14  -9  -4   -3.70    4.60
  14  -9   5    6.00    4.10
 -14  -9  -5    4.10    4.80
  14  10  -9   18.20    7.90
 -14 -10   9   14.00    5.70
  14  10  -8   17.90    8.00
 -14 -10   8   10.20    5.30
  14  10  -7   26.40    7.90
 -14 -10   7   40.20    6.30
  14  10  -6   36.80    8.80
 -14 -10   6   31.90    5.80
  14  10  -5    6.80    7.20
 -14 -10   5   25.20    5.50
  14  10  -4   18.10    8.20
 -14 -10   4   31.70    5.50
  14  10  -3   79.49   10.80
 -14 -10   3   81.69    7.10
  14  10  -2    6.80    6.70
 -14 -10   2    6.60    4.30
  14  10  -1   19.90    7.90
 -14 -10   1   27.90    5.40
  14  10   0    7.10    6.60
 -14 -10   0   -2.40    4.10
  14  10   1   75.59   11.00
 -14 -10  -1   75.79    7.30
 -14 -10  -2    6.10    4.50
 -14 -10  -3   -0.50    4.50
 -14 -10  -4    0.10    4.70
  14  11  -7   -1.40    6.70
 -14 -11   7    2.00    4.90
  14  11  -6    9.70    7.90
 -14 -11   6   17.00    5.50
  14  11  -5    0.60    7.20
 -14 -11   5    2.90    4.70
  14  11  -4   -1.20    7.20
 -14 -11   4    5.30    4.70
  14  11  -3  -10.60    6.40
 -14 -11   3    2.00    4.50
  14  11  -2    9.50    7.10
 -14 -11   2    2.80    4.50
  14  11  -1    9.00    7.10
 -14 -11   1   15.70    5.00
  14  11   0    2.30    7.90
 -14 -11   0    4.70    4.40
  14  11   1   28.50    9.80
 -14 -11  -1   23.70    5.40
  14  11   2    3.00    7.90
 -14 -11  -2    6.40    4.50
  15   0 -14    1.60    4.60
 -15   0  14    6.90    4.20
  15   0 -13   -4.50    4.20
 -15   0  13   -2.70    3.60
  15   0 -12    5.60    4.20
 -15   0  12   11.60    3.80
  15   0 -11    1.80    2.80
  15   0 -11    3.30    3.90
 -15   0  11   -2.30    3.40
  15   0 -10   70.59    5.60
 -15   0  10   62.39    5.50
  15   0 -10   54.09    5.80
  15   0  -9   -1.00    3.00
  15   0  -9    1.10    3.40
 -15   0   9   -1.20    3.20
  15   0  -8  133.29    7.70
  15   0  -8  132.89    7.90
 -15   0   8  125.59    7.30
  15   0  -7   -0.70    3.00
 -15   0   7   -1.40    2.80
 -15   0   6  119.09    6.90
  15   0  -6  109.39    7.00
 -15   0   5   -0.10    2.80
  15   0  -5   -3.40    2.70
 -15   0   4   62.49    4.90
  15   0  -4   63.49    5.30
  15   0  -3   -0.80    2.90
 -15   0   3   -2.50    2.90
 -15   0   2   18.10    3.50
  15   0  -2   21.50    3.70
  15   0  -1   -3.20    2.80
 -15   0   1   -0.90    2.90
 -15   0   0    7.80    3.30
  15   0   0    5.20    3.20
 -15   0  -1    5.10    3.30
  15   0   1   -0.20    3.00
  15   0   2  189.68    9.20
 -15   0  -2  182.88    9.10
 -15   0  -3   -3.60    3.40
  15   0   3   -1.40    3.10
  15   0   4    6.90    3.90
 -15   0  -4    9.70    4.00
 -15   0  -5   -0.50    3.70
  15   0   5    6.10    4.00
  15   0   6   26.70    5.10
 -15   0  -7    0.10    4.50
  15   0   7    2.10    4.30
 -15   0  -8   89.99    7.40
  15   0   8   76.59    7.30
 -15   0  -9   -8.10    4.70
  15   0   9   -2.20    4.40
 -15   1  14    4.80    3.20
  15   1 -14   -8.10    4.20
 -15  -1  14   -0.60    4.20
  15  -1 -14    7.50    4.90
 -15   1  13    3.10    3.10
  15   1 -13    1.70    4.40
  15  -1 -13   -4.00    4.20
 -15  -1  13    5.50    4.20
 -15   1  12   26.50    3.80
  15   1 -12   16.40    4.70
  15  -1 -12   18.50    5.10
 -15  -1  12   25.00    4.80
  15   1 -11   26.20    4.30
  15   1 -11   31.50    5.10
 -15   1  11   24.50    3.70
  15  -1 -11   20.50    4.70
 -15  -1  11   31.00    4.90
  15   1 -10  153.88    8.30
 -15   1  10  134.99    7.20
  15   1 -10  150.28    8.90
  15  -1 -10  148.59    9.00
 -15  -1  10  145.69    8.70
  15  -1 -10  149.39    6.70
  15   1  -9   72.49    6.10
 -15   1   9   81.19    5.90
  15   1  -9   81.19    6.90
  15  -1  -9   98.99    7.50
  15  -1  -9   89.49    5.60
 -15  -1   9   87.89    7.10
 -15   1   8    0.60    1.90
  15   1  -8    0.00    3.60
  15   1  -8   -3.90    2.90
 -15   1   8    2.50    2.80
 -15  -1   8   -1.00    3.10
  15  -1  -8   -0.10    3.30
  15  -1  -8    0.50    3.00
 -15   1   7   86.59    5.80
  15   1  -7   85.29    7.20
  15   1  -7   84.99    6.60
  15  -1  -7   80.29    6.20
 -15  -1   7   82.19    6.70
  15   1  -6   48.90    4.60
 -15   1   6   59.69    4.50
  15  -1  -6   45.90    4.70
 -15  -1   6   52.09    4.80
 -15   1   5   54.09    4.20
  15   1  -5   43.40    4.40
  15  -1  -5   46.30    4.70
 -15  -1   5   44.10    4.50
 -15   1   4   10.10    2.90
  15   1  -4   10.20    3.20
 -15   1   4    4.80    1.90
 -15  -1   4    3.60    3.20
  15  -1  -4   10.10    3.20
 -15   1   3   47.80    4.10
  15   1  -3   36.30    4.30
 -15   1   3   44.00    3.60
 -15  -1   3   47.90    4.60
  15  -1  -3   43.30    4.50
 -15   1   2    1.00    2.10
  15   1  -2    0.40    2.90
 -15   1   2    2.50    2.80
 -15  -1   2   -0.50    3.00
  15  -1  -2    3.90    2.90
 -15   1   1  132.29    6.80
 -15   1   1  118.09    5.90
  15   1  -1  143.49    7.40
 -15  -1   1  126.59    7.40
  15  -1  -1  126.49    7.30
 -15   1   0    8.50    2.40
  15   1   0   10.80    3.40
 -15   1   0   12.90    3.50
 -15  -1   0   15.80    3.90
  15  -1   0   14.50    3.40
  15   1   1   14.20    3.50
 -15   1  -1   17.10    3.60
  15  -1   1   16.70    3.80
 -15  -1  -1   15.30    3.90
  15   1   2    1.60    3.30
 -15   1  -2    5.40    3.40
 -15  -1  -2    6.60    3.80
  15  -1   2    0.80    3.20
  15   1   3  148.99    8.60
 -15   1  -3  137.39    7.90
 -15  -1  -3  153.48    8.70
  15  -1   3  138.39    8.40
 -15   1  -4   67.79    5.80
  15   1   4   65.59    6.00
 -15  -1  -4   69.49    6.10
  15  -1   4   72.79    6.40
  15   1   5    0.50    3.70
 -15   1  -5   -0.40    3.80
  15  -1   5   -1.60    3.70
 -15  -1  -5   -5.80    3.80
  15   1   6  135.99    9.30
 -15   1  -6  140.39    8.80
  15  -1   6  121.49    9.40
 -15  -1  -6  140.19    9.60
  15   1   7   44.30    6.10
 -15   1  -7   48.70    5.70
 -15  -1  -7   34.20    5.70
  15  -1   7   32.10    5.70
  15   1   8   39.30    6.00
 -15   1  -8   35.40    5.60
 -15  -1  -8   35.40    6.00
  15  -1   8   37.80    6.20
  15   1   9   -1.90    4.40
 -15   1  -9   -0.70    4.50
  15  -1   9    0.60    4.60
 -15  -1  -9   -3.20    5.10
  15   2 -14   -3.10    4.40
 -15  -2  14    9.60    4.90
  15  -2 -14    5.20    4.70
  15   2 -13   21.70    5.10
  15  -2 -13   28.20    5.50
 -15  -2  13   21.00    5.20
  15   2 -12   19.70    4.50
  15   2 -12   21.50    4.90
  15  -2 -12   21.70    5.10
 -15  -2  12   18.30    5.10
 -15   2  11   10.30    2.40
  15   2 -11   16.50    4.50
  15   2 -11   10.30    4.20
  15  -2 -11    8.60    4.30
 -15  -2  11   10.50    4.50
  15   2 -10   63.59    6.40
  15   2 -10   60.09    6.00
 -15   2  10   50.19    4.20
 -15  -2  10   53.69    6.00
  15  -2 -10   61.89    6.20
  15   2  -9   -1.70    3.10
  15   2  -9    3.70    3.80
 -15   2   9    0.50    2.30
  15  -2  -9    2.30    2.20
 -15  -2   9   -0.90    3.60
  15  -2  -9   -2.00    3.30
 -15   2   8    0.80    1.80
 -15   2   8    3.00    2.20
  15   2  -8   -0.70    3.10
  15   2  -8   -1.30    3.90
 -15  -2   8    0.70    3.50
  15  -2  -8    0.00    2.60
  15  -2  -8    1.40    3.30
  15   2  -7    3.90    4.30
 -15   2   7   -0.90    2.10
 -15   2   7    0.30    1.80
  15   2  -7    3.40    3.10
  15  -2  -7    2.60    3.30
 -15  -2   7    6.20    3.50
 -15   2   6  156.18    6.00
  15   2  -6  163.98    8.10
 -15   2   6  162.78    6.30
 -15  -2   6  154.88    8.30
  15  -2  -6  158.38    8.20
 -15   2   5  147.79    6.10
  15   2  -5  149.29    7.70
 -15   2   5  140.69    5.60
  15  -2  -5  154.78    7.90
 -15  -2   5  155.88    8.20
 -15   2   4  202.18    7.20
  15   2  -4  204.38    8.80
 -15   2   4  175.78    6.70
  15  -2  -4  188.78    8.70
 -15  -2   4  194.28    9.00
 -15   2   3   73.29    4.00
 -15   2   3   74.69    4.80
  15   2  -3   75.29    6.10
  15  -2  -3   72.09    6.10
 -15  -2   3   75.19    6.30
 -15   2   2   42.70    3.60
  15   2  -2   36.40    4.10
 -15   2   2   48.00    3.70
 -15  -2   2   41.00    4.70
  15  -2  -2   46.60    4.70
 -15   2   1   75.89    4.30
 -15   2   1   80.99    5.30
  15   2  -1   92.19    6.40
  15  -2  -1   79.29    6.30
 -15  -2   1   81.99    6.70
 -15   2   0    1.80    1.90
  15   2   0    4.80    3.00
 -15   2   0    8.00    2.90
  15  -2   0    2.50    3.10
 -15  -2   0    6.00    3.50
  15   2   1    4.70    3.20
 -15   2  -1   -1.60    1.60
 -15   2  -1   -1.40    2.80
  15  -2   1   -0.80    2.90
 -15  -2  -1   -3.00    3.20
 -15   2  -2  125.89    6.90
  15   2   2  117.59    7.60
 -15  -2  -2  111.99    8.00
  15  -2   2  116.89    7.60
 -15   2  -3    8.10    3.40
  15   2   3    9.90    3.70
 -15  -2  -3    7.70    4.00
  15  -2   3    7.50    3.70
 -15   2  -4   11.90    3.80
  15   2   4   13.40    4.20
 -15  -2  -4   16.30    4.60
  15  -2   4    7.50    3.80
  15   2   5   18.40    4.60
 -15   2  -5   12.10    3.80
  15  -2   5    4.80    4.10
 -15  -2  -5   18.80    4.70
  15   2   6   17.70    4.60
 -15   2  -6   21.60    4.30
 -15  -2  -6   13.60    4.90
  15  -2   6   17.20    4.80
  15   2   7   11.60    4.60
 -15   2  -7    9.80    4.30
 -15  -2  -7    3.30    4.80
  15  -2   7    4.00    4.60
 -15   2  -8   33.50    5.30
  15   2   8   29.50    5.50
  15  -2   8   24.30    5.70
 -15  -2  -8   19.70    5.70
  15   3 -14    1.10    4.30
  15  -3 -14    0.10    4.60
 -15  -3  14    9.90    5.20
  15   3 -13    7.70    4.30
  15  -3 -13    7.60    4.70
 -15  -3  13    8.10    5.00
  15   3 -12   10.90    4.80
  15   3 -12   17.60    4.60
 -15  -3  12    8.50    4.90
  15  -3 -12    7.70    4.60
  15   3 -11  110.69    8.10
  15   3 -11  114.09    8.90
 -15  -3  11  108.29    9.00
  15  -3 -11  128.29    8.70
  15   3 -10   94.89    7.50
  15   3 -10   90.99    8.20
 -15  -3  10  104.09    8.50
  15  -3 -10   87.19    7.10
  15   3  -9   21.20    5.20
  15   3  -9   16.40    4.10
 -15  -3   9   19.30    4.60
  15  -3  -9   13.40    4.10
  15   3  -8    9.30    3.50
  15   3  -8    6.20    4.50
 -15  -3   8   11.60    4.10
  15  -3  -8    7.50    3.70
  15   3  -7   49.50    6.60
  15   3  -7   55.79    5.20
  15  -3  -7   57.79    5.20
 -15  -3   7   50.59    5.50
  15   3  -6   46.00    6.40
  15   3  -6   49.60    4.90
  15  -3  -6   50.49    4.90
 -15  -3   6   48.30    5.20
  15   3  -5   40.50    4.60
  15  -3  -5   48.10    4.80
 -15  -3   5   46.10    5.20
  15   3  -4  269.37   10.60
  15  -3  -4  267.27   10.40
 -15  -3   4  259.77   11.00
  15   3  -3    9.40    3.10
 -15  -3   3    9.70    3.40
  15  -3  -3    7.50    3.10
  15   3  -2    8.50    3.20
 -15  -3   2   14.80    3.70
  15  -3  -2    5.90    3.20
  15   3  -1  211.18    9.30
 -15  -3   1  208.98    9.80
  15  -3  -1  225.98    9.50
  15   3   0   10.20    3.40
 -15   3   0    3.90    1.40
  15  -3   0    6.20    3.20
 -15  -3   0    9.10    3.80
  15   3   1  247.58   10.40
 -15   3  -1  247.38    8.10
 -15   3  -1  230.18    7.70
 -15  -3  -1  250.17   10.90
  15  -3   1  246.78   10.50
 -15   3  -2   23.30    3.20
 -15   3  -2   27.70    3.10
  15   3   2   21.90    4.10
  15  -3   2   27.60    4.50
 -15  -3  -2   22.70    4.60
 -15   3  -3   45.50    3.80
  15   3   3   45.70    5.10
 -15  -3  -3   54.99    5.90
  15  -3   3   54.09    5.70
 -15   3  -4  134.99    6.80
  15   3   4  149.99    8.80
  15  -3   4  144.49    8.80
 -15  -3  -4  134.59    9.10
  15   3   5   31.20    5.00
 -15   3  -5   44.30    4.20
 -15  -3  -5   36.80    5.80
  15  -3   5   37.00    5.50
 -15   3  -6   20.20    3.80
  15   3   6   28.10    5.00
 -15  -3  -6   16.90    5.20
  15  -3   6   26.70    5.40
 -15   3  -7    3.80    3.50
  15   3   7   13.60    4.50
 -15  -3  -7    6.40    5.00
  15  -3   7    2.60    4.50
 -15   3  -8   22.00    4.30
  15   3   8   23.90    5.00
 -15  -3  -8   19.30    5.80
  15  -3   8   17.60    5.60
  15   4 -14    5.10    4.10
  15  -4 -14   -2.50    4.60
 -15  -4  14    0.80    5.20
  15   4 -13   43.60    6.70
  15   4 -13   43.60    5.80
 -15  -4  13   46.40    6.80
  15  -4 -13   45.50    6.30
  15   4 -12    0.30    4.00
 -15  -4  12   18.10    5.50
  15  -4 -12   10.70    4.70
  15   4 -11    5.80    3.90
  15   4 -11    6.60    5.20
 -15  -4  11    6.80    4.70
  15  -4 -11    9.10    4.30
  15   4 -10   -0.10    3.60
  15   4 -10   -4.40    4.10
  15  -4 -10    0.50    3.60
 -15  -4  10    3.40    4.40
  15   4  -9    4.70    4.60
  15   4  -9    7.40    3.70
 -15  -4   9    7.40    4.40
  15  -4  -9    4.00    3.70
  15   4  -8    2.20    4.60
  15   4  -8    1.70    3.40
  15  -4  -8    1.70    3.30
 -15  -4   8    3.40    4.00
  15   4  -7  130.29   10.00
  15   4  -7  144.09    7.90
 -15  -4   7  130.59    8.70
  15  -4  -7  146.19    8.00
  15   4  -6    7.20    5.10
  15   4  -6   19.40    3.70
 -15  -4   6   17.30    4.20
  15  -4  -6   19.90    3.80
  15   4  -5    6.60    3.30
 -15  -4   5    6.40    3.80
  15  -4  -5    4.00    3.00
  15   4  -4  103.19    6.70
  15  -4  -4  109.29    6.70
 -15  -4   4  102.09    7.70
  15   4  -3   38.80    4.30
 -15  -4   3   43.80    5.20
  15  -4  -3   39.50    4.30
  15   4  -2   91.09    6.40
 -15  -4   2   85.69    7.30
  15  -4  -2   98.89    6.50
  15   4  -1  108.19    6.90
  15  -4  -1  110.29    7.00
 -15  -4   1  110.69    7.80
  15   4   0   -0.20    3.10
  15  -4   0   -1.60    2.90
 -15  -4   0   -5.50    3.50
  15   4   1   20.60    3.80
 -15  -4  -1    9.60    4.20
  15  -4   1   21.20    4.00
  15   4   2    0.10    3.30
 -15  -4  -2    4.80    4.00
  15  -4   2   -2.40    3.20
  15   4   3   63.59    5.60
  15  -4   3   63.09    5.90
 -15  -4  -3   59.59    6.20
  15   4   4   21.90    4.40
 -15  -4  -4   27.60    5.30
  15  -4   4   14.30    4.40
  15   4   5    5.50    3.60
 -15  -4  -5    9.20    4.90
  15  -4   5   11.40    4.20
  15   4   6    7.90    3.80
  15  -4   6    7.80    4.70
 -15  -4  -6    6.50    5.00
  15   4   7   -0.60    3.60
  15  -4   7   -0.70    4.60
 -15  -4  -7    0.60    4.90
  15   4   8    1.50    3.70
  15  -4   8   -1.50    4.60
 -15  -4  -8   -6.20    4.90
  15   5 -13   -2.40    3.90
  15   5 -13    3.10    5.10
  15  -5 -13    0.70    4.20
 -15  -5  13    2.80    5.30
  15   5 -12   18.90    4.60
  15   5 -12   14.50    5.90
  15  -5 -12   11.60    4.60
 -15  -5  12   14.80    5.70
  15   5 -11   29.20    6.60
  15   5 -11   34.60    5.00
  15  -5 -11   27.40    5.00
 -15  -5  11   33.40    6.00
  15   5 -10    5.40    5.40
  15   5 -10    7.60    3.70
  15  -5 -10    2.40    3.70
 -15  -5  10    4.20    4.70
  15   5  -9    5.90    5.30
  15   5  -9   -1.00    3.30
  15  -5  -9    4.30    3.50
 -15  -5   9    4.50    4.60
  15   5  -8   96.09    9.30
  15   5  -8  111.59    7.30
  15  -5  -8  113.69    7.40
 -15  -5   8  110.39    8.80
  15   5  -7    8.50    6.00
  15   5  -7    1.90    3.20
 -15  -5   7    9.80    4.40
  15  -5  -7    4.40    3.30
  15   5  -6    7.40    3.30
  15   5  -6    1.50    5.40
 -15  -5   6    7.00    4.00
  15  -5  -6   13.00    3.40
  15   5  -5   72.59    6.00
  15   5  -5   73.89    8.60
 -15  -5   5   74.09    6.60
  15  -5  -5   79.79    6.10
  15   5  -4   -1.20    2.80
  15   5  -4   -2.60    2.40
 -15  -5   4    1.70    3.80
  15  -5  -4   -1.10    2.70
  15   5  -3    0.80    2.80
  15   5  -3    4.60    2.40
  15  -5  -3    3.60    2.80
 -15  -5   3    3.50    3.80
  15   5  -2   24.00    3.70
  15   5  -2   23.40    3.20
  15  -5  -2   29.70    4.00
 -15  -5   2   20.40    4.50
  15   5  -1   -3.30    2.90
  15   5  -1   -3.20    2.10
  15  -5  -1   -1.10    2.90
 -15  -5   1   -0.10    3.60
  15   5   0   22.10    3.80
  15  -5   0   24.30    4.10
 -15  -5   0   22.70    4.70
  15   5   1   77.29    6.40
  15  -5   1   89.49    6.90
 -15  -5  -1   88.09    7.10
  15   5   2  531.25   16.90
  15  -5   2  531.45   17.70
 -15  -5  -2  514.45   18.20
  15   5   3   -1.10    3.10
  15  -5   3    0.50    3.40
 -15  -5  -3    0.40    4.20
  15   5   4  152.68    8.00
 -15  -5  -4  150.18   10.20
  15  -5   4  158.28    9.20
  15   5   5    5.40    3.40
  15  -5   5    8.60    4.10
 -15  -5  -5   -6.90    4.60
  15   5   6   92.69    6.60
  15  -5   6   97.79    8.30
 -15  -5  -6   99.99    8.20
  15   5   7   20.20    3.80
  15  -5   7   15.30    5.20
 -15  -5  -7   13.00    5.60
  15   6 -13   10.90    4.20
  15   6 -13   10.70    6.00
 -15  -6  13   19.10    6.20
  15  -6 -13   14.00    4.90
  15   6 -12   78.09    6.20
  15   6 -12   73.79    9.10
  15  -6 -12   79.89    7.10
 -15  -6  12  103.69    9.00
  15   6 -11   16.80    6.40
  15   6 -11   15.10    4.10
  15  -6 -11   15.90    4.40
 -15  -6  11   25.00    6.20
  15   6 -10    4.20    5.50
  15   6 -10    0.90    3.40
 -15  -6  10   -2.50    4.90
  15  -6 -10   -6.90    3.30
  15   6  -9   91.39    9.40
  15   6  -9   99.39    6.90
 -15  -6   9  115.09    9.60
  15  -6  -9   96.69    7.30
  15   6  -8   23.90    6.40
  15   6  -8   30.90    4.20
  15  -6  -8   37.60    4.60
 -15  -6   8   26.80    5.40
  15   6  -7    8.70    5.60
  15   6  -7   16.50    3.50
 -15  -6   7   22.80    5.10
  15  -6  -7   20.20    3.80
  15   6  -6   52.39    7.80
  15   6  -6   40.90    4.10
  15  -6  -6   39.40    4.40
 -15  -6   6   49.00    5.80
  15   6  -5   21.60    6.90
  15   6  -5   20.90    3.40
  15  -6  -5   21.00    3.60
 -15  -6   5   17.40    4.60
  15   6  -4   66.19    4.70
  15   6  -4   56.09    8.20
 -15  -6   4   55.59    5.90
  15  -6  -4   54.29    4.80
  15   6  -3   72.49    5.50
 -15  -6   3   79.19    6.90
  15  -6  -3   80.39    5.90
  15   6  -2    3.80    2.80
 -15  -6   2    4.20    4.10
  15  -6  -2    7.30    3.10
  15   6  -1  113.89    6.20
 -15  -6   1  102.59    8.40
  15  -6  -1  114.59    6.90
  15   6   0   65.19    5.10
  15  -6   0   58.79    5.30
 -15  -6   0   72.29    6.70
  15   6   1   76.19    5.40
  15  -6   1   82.29    6.60
 -15  -6  -1   75.69    6.80
  15   6   2  146.59    6.70
 -15  -6  -2  145.59    9.60
  15  -6   2  137.39    8.20
  15   6   3   17.60    3.10
 -15  -6  -3   17.20    5.00
  15  -6   3   18.50    4.20
  15   6   4   88.39    5.20
 -15  -6  -4   79.69    7.20
  15  -6   4   68.89    6.30
  15   6   5    2.70    3.30
 -15  -6  -5   -4.50    4.60
  15  -6   5    3.20    4.00
  15  -6   6   29.00    5.30
 -15  -6  -6   34.60    6.30
 -15  -6  -7   -1.60    5.10
  15  -6   7   -9.20    4.70
  15   7 -12    3.90    6.40
  15   7 -12    6.90    3.40
  15  -7 -12    3.60    4.20
 -15  -7  12   11.20    5.80
  15   7 -11   12.90    3.50
  15   7 -11   16.90    7.00
 -15  -7  11   12.60    5.70
  15  -7 -11    8.90    4.30
  15   7 -10   -0.50    2.90
  15   7 -10   -0.80    5.90
  15  -7 -10   -5.00    3.40
 -15  -7  10    4.40    5.00
  15   7  -9   -2.20    2.70
  15   7  -9    0.00    5.80
 -15  -7   9    4.70    5.00
  15  -7  -9    0.70    3.40
  15   7  -8    1.00    2.70
  15   7  -8    5.30    5.40
  15  -7  -8    2.70    3.20
 -15  -7   8    3.20    4.90
  15   7  -7    3.30    2.60
  15   7  -7   -1.10    6.00
  15  -7  -7    6.60    3.30
 -15  -7   7    7.70    4.80
  15   7  -6   86.09    4.90
  15   7  -6   75.59    9.10
  15  -7  -6   83.29    6.20
 -15  -7   6   71.29    6.80
  15   7  -5   55.49    4.10
  15   7  -5   51.49    8.50
 -15  -7   5   60.79    6.50
  15  -7  -5   49.00    4.60
  15   7  -4  317.17   16.70
 -15  -7   4  312.47   13.30
  15  -7  -4  302.07   11.20
  15   7  -3   17.90    6.60
  15  -7  -3   19.60    3.50
 -15  -7   3   25.30    5.10
 -15  -7   2    6.20    4.30
  15  -7  -2    2.60    2.80
 -15  -7   1   37.80    5.40
  15  -7  -1   37.20    4.30
  15  -7   0   16.50    3.70
 -15  -7   0   17.10    4.60
 -15  -7  -1   51.89    6.20
  15  -7   1   44.60    4.90
  15  -7   2   83.79    7.00
 -15  -7  -2   85.49    7.30
 -15  -7  -3   11.90    5.00
  15  -7   3    9.20    4.00
  15  -7   4   39.20    5.50
 -15  -7  -4   40.70    6.20
  15  -7   5   18.20    4.80
 -15  -7  -5   14.60    5.30
 -15  -7  -6   19.80    6.10
  15  -7   6   17.80    5.10
  15   8 -11   27.30    7.70
 -15  -8  11   29.60    6.80
  15   8 -10    5.20    6.20
 -15  -8  10    7.20    5.60
  15   8  -9  -13.00    5.50
 -15  -8   9   -4.40    4.90
  15   8  -8    0.90    5.80
 -15  -8   8    3.20    5.00
  15   8  -7    0.20    6.30
 -15  -8   7   12.00    5.10
  15   8  -6  -12.60    6.20
 -15  -8   6    5.80    4.80
  15   8  -5   30.30    8.10
 -15  -8   5   33.40    5.60
  15  -8  -5   20.30    5.90
  15   8  -4    2.00    6.20
  15  -8  -4    5.00    3.00
 -15  -8   4    8.30    4.70
  15   8  -3  114.99   11.90
 -15  -8   3   90.09    7.40
  15  -8  -3   88.59    6.10
  15   8  -2   45.80    8.50
  15  -8  -2   38.70    4.10
 -15  -8   2   48.30    6.10
  15  -8  -1   78.49    6.10
 -15  -8   1   76.79    7.00
 -15  -8   0   14.80    4.80
  15  -8   0   11.00    3.50
  15  -8   1    7.80    3.60
 -15  -8  -1   10.30    4.70
  15  -8   2    6.80    3.60
 -15  -8  -2    1.90    4.30
  15  -8   3   10.20    4.10
 -15  -8  -3    3.30    4.80
 -15  -8  -4   24.70    5.50
  15  -8   4   29.40    5.00
  15  -8   5    5.10    4.40
 -15  -8  -5    7.10    5.10
  15   9 -10   11.00    6.60
 -15  -9  10    9.90    5.70
  15   9  -9   11.90    6.80
 -15  -9   9   32.60    6.50
  15   9  -8    9.50    6.70
 -15  -9   8    5.40    5.40
  15   9  -7   32.20    7.90
 -15  -9   7   45.20    6.70
  15   9  -6   49.70    9.30
 -15  -9   6   58.69    6.90
  15   9  -5   24.40    8.30
 -15  -9   5   18.90    5.40
  15   9  -4   21.80    7.30
 -15  -9   4   17.20    5.10
  15   9  -3   13.80    7.20
 -15  -9   3   21.20    5.20
  15   9  -2   12.20    6.90
 -15  -9   2   14.20    4.80
  15   9  -1   45.90    8.40
 -15  -9   1   68.29    6.70
 -15  -9   0   12.00    4.80
 -15  -9  -1    6.90    4.70
 -15  -9  -2    6.10    4.70
  15  -9   3   64.79    8.10
 -15  -9  -3   93.39    8.20
 -15  -9  -4   13.00    5.40
  15  -9   4   13.00    4.50
  15  10  -8    4.90    6.90
 -15 -10   8    8.20    5.60
  15  10  -7   22.00    8.30
 -15 -10   7   22.00    6.00
  15  10  -6    2.60    6.60
 -15 -10   6    2.80    5.10
  15  10  -5   17.90    8.50
 -15 -10   5   25.60    5.70
  15  10  -4   10.20    7.50
 -15 -10   4    5.50    4.70
  15  10  -3    0.40    6.40
 -15 -10   3    2.70    4.50
  15  10  -2   18.90    7.70
 -15 -10   2   19.40    5.10
  15  10  -1    2.30    6.80
 -15 -10   1    4.90    4.60
  15  10   0   18.20    7.80
 -15 -10   0   33.80    5.80
  15  10   1   41.40    9.20
 -15 -10  -1   41.50    6.20
 -15 -10  -2    8.80    5.00
  15  11  -6   50.49   10.20
 -15 -11   6   45.90    6.80
  15  11  -5   13.70    7.70
 -15 -11   5   15.50    5.60
  15  11  -4  146.49   14.40
 -15 -11   4  184.48   11.10
  15  11  -3   24.70    8.40
 -15 -11   3   31.60    6.10
  15  11  -2    9.20    7.60
 -15 -11   2   17.50    5.40
  15  11  -1  -11.70    6.00
 -15 -11   1   -0.80    4.80
  15  11   0   35.50    8.80
 -15 -11   0   29.10    5.70
 -16   0  14   25.60    4.60
  16   0 -14   27.70    5.80
 -16   0  13    0.30    3.70
  16   0 -13   -2.10    4.40
  16   0 -12  174.78   10.60
 -16   0  12  170.68    9.00
  16   0 -11   -1.80    4.00
 -16   0  11    5.70    3.70
 -16   0  10  116.59    7.50
  16   0 -10  108.99    7.00
  16   0 -10   98.89    7.70
 -16   0   9   -3.80    3.20
  16   0  -9   -8.80    3.20
  16   0  -9    5.70    3.50
  16   0  -8    5.80    3.80
  16   0  -8    1.50    3.50
 -16   0   8   -0.90    3.30
 -16   0   7   -1.80    3.10
  16   0  -7    0.00    3.30
 -16   0   6    7.10    3.50
  16   0  -6    3.40    3.20
 -16   0   5   -3.80    3.10
  16   0  -5   -3.10    2.90
  16   0  -4    6.40    3.20
 -16   0   4    2.90    3.20
 -16   0   3    1.80    3.10
  16   0  -3    0.00    2.90
  16   0  -2  365.16   13.60
 -16   0   2  390.16   13.20
  16   0  -1   -1.30    3.00
 -16   0   1    2.50    3.50
  16   0   0   87.39    6.90
 -16   0   0   79.19    6.70
  16   0   1   -0.60    3.10
 -16   0  -1   -6.30    3.30
  16   0   2  163.28    9.00
 -16   0  -2  163.08    9.00
 -16   0  -3    0.20    3.90
  16   0   3   -1.30    3.40
 -16   0  -4   71.19    6.30
  16   0   4   66.19    6.40
  16   0   5    3.60    4.10
 -16   0  -5    5.00    4.20
 -16   0  -6  134.29    9.40
  16   0   6  110.99    9.30
  16   0   7   -0.70    4.60
 -16   0  -7    1.30    4.70
  16   0   8   27.50    6.00
 -16   0  -8   37.20    6.20
 -16   1  14    6.80    3.30
  16   1 -14   -3.00    4.50
  16  -1 -14    4.90    4.90
 -16  -1  14    4.30    4.50
 -16   1  13   24.80    3.80
  16   1 -13   23.50    5.60
  16  -1 -13   17.20    5.30
 -16  -1  13   17.70    4.90
  16   1 -12   75.29    7.00
 -16   1  12   75.69    6.10
  16  -1 -12   64.09    6.70
 -16  -1  12   81.49    6.80
 -16   1  11  122.19    6.80
  16   1 -11  107.49    7.60
  16   1 -11  113.09    8.70
  16  -1 -11  111.89    8.80
 -16  -1  11  107.79    8.30
  16   1 -10   17.60    4.30
 -16   1  10   15.60    3.50
  16   1 -10    7.10    4.20
  16  -1 -10   14.20    3.20
 -16  -1  10   12.90    4.30
  16  -1 -10   18.30    4.70
  16   1  -9   -1.70    3.40
  16   1  -9    8.00    4.00
 -16   1   9    6.20    3.10
  16  -1  -9    3.20    3.00
 -16  -1   9    3.60    3.80
  16  -1  -9    2.50    3.80
  16   1  -8    1.70    3.90
 -16   1   8   -2.90    2.80
  16   1  -8   -1.40    3.20
  16  -1  -8    3.90    3.30
  16  -1  -8   -0.80    3.50
 -16  -1   8    1.50    3.50
 -16   1   7   48.00    4.30
  16   1  -7   48.60    5.30
 -16  -1   7   38.00    4.70
  16  -1  -7   44.50    5.10
  16   1  -6    0.20    3.00
 -16   1   6    0.90    1.90
 -16   1   6    0.60    2.90
  16  -1  -6    3.60    3.20
 -16  -1   6    3.80    3.40
 -16   1   5  119.89    6.40
  16   1  -5  114.49    7.20
 -16   1   5   85.99    5.10
  16  -1  -5  120.69    7.40
 -16  -1   5  107.79    7.30
 -16   1   4   -1.00    2.80
  16   1  -4    1.50    3.10
 -16  -1   4   -1.80    3.20
  16  -1  -4    1.00    3.00
  16   1  -3    5.00    3.20
 -16   1   3    8.00    2.40
 -16   1   3   10.20    3.20
 -16  -1   3   12.70    3.60
  16  -1  -3    6.40    3.30
 -16   1   2   76.39    4.90
 -16   1   2   84.79    6.00
  16   1  -2   66.99    5.60
  16  -1  -2   79.29    6.60
 -16  -1   2   87.49    6.80
 -16   1   1    1.70    2.10
  16   1  -1    1.80    3.20
 -16   1   1   -2.40    3.00
 -16  -1   1    3.00    3.40
  16  -1  -1   -3.60    3.00
 -16   1   0   82.39    6.40
  16   1   0   73.19    6.10
 -16   1   0   59.99    5.30
 -16  -1   0   76.39    6.00
  16  -1   0   81.59    6.70
 -16   1  -1   94.39    6.90
  16   1   1   97.49    7.20
  16  -1   1  109.99    7.60
 -16  -1  -1   99.69    7.50
  16   1   2    2.10    3.50
 -16   1  -2   -3.80    3.30
  16  -1   2   -2.00    3.30
 -16  -1  -2    8.10    4.10
  16   1   3    8.70    3.90
 -16   1  -3    2.90    3.80
  16  -1   3    5.00    3.70
 -16  -1  -3    4.70    4.30
 -16   1  -4   10.50    4.20
  16   1   4   13.20    4.30
 -16  -1  -4   12.70    4.60
  16  -1   4    5.10    4.00
 -16   1  -5   29.40    4.90
  16   1   5   30.50    5.20
  16  -1   5   22.80    5.10
 -16  -1  -5   26.20    5.20
  16   1   6   -1.20    4.20
 -16   1  -6    6.40    4.30
 -16  -1  -6    5.20    4.70
  16  -1   6    8.30    4.60
 -16   1  -7   35.20    5.40
  16   1   7   32.90    5.70
 -16  -1  -7   26.50    5.50
  16  -1   7   29.50    5.90
  16   1   8   11.30    5.00
 -16   1  -8   13.20    4.90
 -16  -1  -8   16.10    5.50
  16  -1   8   13.40    5.30
  16   2 -14   40.70    6.40
 -16  -2  14   52.19    6.60
  16  -2 -14   34.70    6.30
  16   2 -13   72.79    7.40
  16  -2 -13   60.59    7.00
 -16  -2  13   62.19    6.90
  16   2 -12   12.80    4.40
  16   2 -12   13.80    4.60
  16  -2 -12   12.50    4.80
 -16  -2  12   16.00    5.00
  16   2 -11    7.60    4.10
  16   2 -11    2.80    3.90
 -16  -2  11    3.50    4.20
  16  -2 -11    1.30    4.30
  16   2 -10   45.50    5.70
  16   2 -10   54.99    6.50
 -16   2  10   45.00    3.30
 -16  -2  10   50.59    6.10
  16  -2 -10   54.59    6.10
 -16   2   9   -2.20    2.20
  16   2  -9    0.90    3.70
  16   2  -9    2.50    4.30
  16  -2  -9   -1.60    3.60
  16  -2  -9    4.10    2.60
 -16  -2   9   -2.70    3.80
  16   2  -8    4.80    4.40
  16   2  -8    1.80    3.30
 -16   2   8   -1.60    2.20
  16  -2  -8    9.10    3.90
 -16  -2   8    0.50    3.80
 -16   2   7   95.99    5.00
  16   2  -7   98.69    8.30
 -16   2   7  103.69    6.10
  16   2  -7   91.29    7.10
  16  -2  -7   98.79    7.50
 -16  -2   7   88.89    7.40
 -16   2   6   11.30    2.50
 -16   2   6    2.20    1.90
  16   2  -6    7.70    3.40
 -16  -2   6    1.50    3.50
  16  -2  -6    7.30    3.40
 -16   2   5   45.80    3.60
 -16   2   5   46.20    3.50
  16   2  -5   57.69    5.30
  16  -2  -5   50.19    5.10
 -16  -2   5   41.20    4.80
 -16   2   4    0.80    2.50
  16   2  -4    3.00    2.90
 -16   2   4    1.60    1.90
  16  -2  -4    1.90    3.10
 -16  -2   4    1.00    3.20
 -16   2   3   33.30    2.80
  16   2  -3   37.10    4.50
 -16   2   3   38.70    3.50
 -16  -2   3   42.50    5.00
  16  -2  -3   27.30    4.10
  16   2  -2   47.00    4.90
 -16   2   2   40.80    3.20
 -16   2   2   44.40    3.80
  16  -2  -2   49.99    5.20
 -16  -2   2   52.19    5.20
  16   2  -1   32.10    4.40
 -16   2   1   20.70    3.30
 -16   2   1   27.90    2.80
  16  -2  -1   33.90    4.40
 -16  -2   1   29.10    4.50
 -16   2   0   71.09    5.60
 -16   2   0   54.09    4.00
  16   2   0   61.99    5.50
 -16  -2   0   61.09    5.60
  16  -2   0   72.09    5.90
  16   2   1   -1.60    3.10
 -16   2  -1    2.70    3.10
  16  -2   1   -0.60    3.40
 -16  -2  -1   -4.60    3.60
  16   2   2  143.89    8.70
 -16   2  -2  149.59    7.60
 -16  -2  -2  146.19    9.00
  16  -2   2  142.69    8.60
  16   2   3   66.99    6.20
 -16   2  -3   84.69    6.60
 -16  -2  -3   63.79    6.30
  16  -2   3   80.39    6.70
 -16   2  -4   37.30    4.60
  16   2   4   37.10    5.30
 -16  -2  -4   29.60    5.30
  16  -2   4   32.80    5.30
  16   2   5   33.70    5.50
 -16   2  -5   31.30    4.60
 -16  -2  -5   34.70    5.70
  16   2   6   -2.40    4.00
 -16   2  -6   -2.40    3.80
  16  -2   6   -3.30    4.30
 -16  -2  -6   -1.90    4.70
  16   2   7   15.50    4.90
 -16   2  -7   12.50    4.40
  16  -2   7   17.60    5.30
 -16  -2  -7   16.00    5.60
  16   2   8   11.50    4.90
 -16   2  -8    3.80    4.40
  16  -2   8   -2.30    4.70
 -16  -2  -8    2.30    5.10
  16   3 -14   -4.00    4.10
  16  -3 -14   -3.50    4.70
 -16  -3  14   -0.10    4.90
  16   3 -13   56.99    6.60
  16  -3 -13   50.69    6.70
 -16  -3  13   44.70    6.60
  16   3 -12   38.00    6.00
  16   3 -12   35.40    5.50
 -16  -3  12   39.00    6.10
  16  -3 -12   26.80    5.30
  16   3 -11  294.97   13.70
  16   3 -11  281.37   12.70
  16  -3 -11  317.97   13.30
 -16  -3  11  315.77   13.60
  16   3 -10   26.60    4.90
  16   3 -10   19.20    5.50
  16  -3 -10   23.30    5.00
 -16  -3  10   24.50    5.10
  16   3  -9  137.99    8.70
  16   3  -9  170.78   10.50
 -16  -3   9  154.08    9.60
  16  -3  -9  160.48    9.20
  16   3  -8  214.78   12.00
  16   3  -8  209.98   10.10
 -16  -3   8  214.58   10.80
  16  -3  -8  230.58   10.50
  16   3  -7    1.10    3.40
  16   3  -7    4.90    5.00
 -16  -3   7    5.80    4.00
  16  -3  -7    6.40    3.70
  16   3  -6  200.58    9.40
 -16  -3   6  206.58   10.10
  16  -3  -6  201.38    9.60
  16   3  -5   35.10    4.50
  16  -3  -5   29.30    4.30
 -16  -3   5   39.00    5.20
  16   3  -4    1.70    3.20
 -16  -3   4    2.90    3.60
  16  -3  -4    3.60    3.30
  16   3  -3    9.20    3.40
  16  -3  -3   12.70    3.50
 -16  -3   3    8.10    3.70
  16   3  -2   50.09    5.00
 -16  -3   2   51.09    5.50
  16  -3  -2   45.80    5.00
  16   3  -1   52.39    5.20
 -16  -3   1   52.29    5.70
  16  -3  -1   52.79    5.50
  16   3   0   26.00    4.40
 -16   3   0   19.70    1.90
  16  -3   0   28.40    4.50
 -16  -3   0   35.80    5.00
 -16   3  -1   79.19    4.50
  16   3   1   88.59    7.10
  16  -3   1   78.79    6.40
 -16  -3  -1   79.79    6.50
 -16   3  -2    1.30    2.50
  16   3   2   -2.80    3.30
 -16  -3  -2    4.40    4.20
  16  -3   2    3.90    3.60
 -16   3  -3   85.89    5.50
  16   3   3   83.29    6.60
  16  -3   3   68.99    6.50
 -16  -3  -3   78.69    7.00
  16   3   4    3.60    4.10
 -16   3  -4    7.30    3.10
 -16  -3  -4    3.00    4.60
  16  -3   4    6.20    4.00
 -16   3  -5   10.20    3.40
  16   3   5   11.30    4.30
 -16  -3  -5    9.00    4.90
  16  -3   5    8.40    4.30
  16   3   6   10.70    4.30
 -16   3  -6   14.00    3.60
  16  -3   6   20.40    5.30
 -16  -3  -6   11.50    5.20
  16   3   7   17.30    4.80
 -16   3  -7   15.30    4.00
  16  -3   7   14.90    5.30
 -16  -3  -7   15.70    5.70
  16   4 -13   22.90    5.80
  16   4 -13   18.60    5.00
 -16  -4  13   38.00    6.60
  16  -4 -13   30.80    5.80
  16   4 -12    0.00    4.80
  16   4 -12   -3.40    3.90
  16  -4 -12    7.00    4.60
 -16  -4  12    2.50    5.00
  16   4 -11   -4.60    4.20
  16   4 -11    5.40    4.10
  16  -4 -11    0.40    4.00
 -16  -4  11    3.10    4.70
  16   4 -10    1.30    3.70
  16   4 -10    1.50    5.10
 -16  -4  10   -2.00    4.40
  16  -4 -10    5.50    4.10
  16   4  -9    9.70    5.30
  16   4  -9    9.60    4.00
  16  -4  -9    9.80    4.10
 -16  -4   9   11.60    4.70
  16   4  -8    1.80    4.90
  16   4  -8    0.60    3.50
  16  -4  -8    3.70    3.70
 -16  -4   8    3.20    4.10
  16   4  -7   45.80    5.00
  16   4  -7   55.09    7.60
  16  -4  -7   45.30    5.30
 -16  -4   7   52.49    5.90
  16   4  -6    7.50    5.50
  16   4  -6    5.90    3.40
  16  -4  -6    3.20    3.30
 -16  -4   6    8.60    4.20
  16   4  -5   39.40    4.80
 -16  -4   5   46.00    5.50
  16  -4  -5   47.70    5.00
  16   4  -4    7.30    3.40
  16  -4  -4    9.20    3.40
 -16  -4   4   10.70    4.20
  16   4  -3   -0.50    3.10
 -16  -4   3    3.20    3.80
  16  -4  -3    0.40    3.10
  16   4  -2   54.59    5.10
 -16  -4   2   53.69    5.60
  16  -4  -2   55.19    5.10
  16   4  -1    3.10    3.30
 -16  -4   1   -3.40    3.80
  16  -4  -1    1.60    3.40
  16   4   0   21.90    4.20
  16  -4   0   19.10    4.00
 -16  -4   0   24.80    4.80
  16   4   1  227.08   10.20
  16  -4   1  238.38   10.60
 -16  -4  -1  215.98   11.00
  16   4   2   -2.40    3.40
  16  -4   2    4.00    3.70
 -16  -4  -2    1.40    4.30
  16   4   3   15.40    4.30
  16  -4   3   16.40    4.40
 -16  -4  -3   16.60    5.00
  16   4   4   57.29    5.50
  16  -4   4   62.09    6.40
 -16  -4  -4   57.39    6.60
  16   4   5    2.80    3.80
 -16  -4  -5   10.60    5.10
  16  -4   5    5.40    4.30
  16   4   6   61.29    6.10
  16  -4   6   77.99    7.70
 -16  -4  -6   61.79    7.20
  16   4   7   34.10    5.10
  16  -4   7   27.50    6.00
 -16  -4  -7   21.90    6.10
  16   5 -13    1.10    4.30
  16   5 -13   -1.80    5.00
 -16  -5  13    5.90    5.50
  16  -5 -13    1.60    4.60
  16   5 -12    1.00    4.10
  16   5 -12    5.20    5.40
 -16  -5  12    1.80    5.20
  16  -5 -12   -0.90    4.30
  16   5 -11    2.70    4.00
  16   5 -11   16.90    5.90
 -16  -5  11   13.90    5.40
  16  -5 -11   10.80    4.30
  16   5 -10   82.79    6.80
  16   5 -10   83.89    9.20
  16  -5 -10   75.19    6.70
 -16  -5  10   89.09    8.00
  16   5  -9   11.00    6.10
  16   5  -9   12.60    4.10
  16  -5  -9   10.60    4.10
 -16  -5   9   18.00    5.30
  16   5  -8   91.49    9.40
  16   5  -8  101.49    7.30
 -16  -5   8   96.09    8.20
  16  -5  -8  102.39    7.50
  16   5  -7   13.40    5.90
  16   5  -7    6.10    3.50
  16  -5  -7   11.70    3.90
 -16  -5   7    3.10    4.20
  16   5  -6  513.45   21.20
  16   5  -6  514.05   17.10
  16  -5  -6  534.15   17.40
 -16  -5   6  531.35   18.50
  16   5  -5   11.00    3.60
  16   5  -5   -0.70    4.90
 -16  -5   5    9.80    4.60
  16  -5  -5    5.10    3.30
  16   5  -4   50.39    4.80
  16  -5  -4   53.59    4.90
 -16  -5   4   45.40    5.80
  16   5  -3  135.59    7.60
 -16  -5   3  140.59    9.10
  16  -5  -3  142.59    7.80
  16   5  -2  162.58    8.20
  16  -5  -2  164.08    8.40
 -16  -5   2  159.68    9.60
  16   5  -1   -2.70    3.10
  16  -5  -1   -3.60    3.10
 -16  -5   1    5.30    4.00
  16   5   0   -0.90    3.20
  16  -5   0   -1.60    3.40
 -16  -5   0    2.60    4.20
  16   5   1    6.30    3.50
  16  -5   1    9.30    3.80
 -16  -5  -1    7.80    4.50
  16   5   2   37.80    4.60
  16  -5   2   39.90    5.10
 -16  -5  -2   40.90    5.90
  16   5   3  203.48    9.40
 -16  -5  -3  204.28   11.30
  16  -5   3  211.48   10.50
  16   5   4   50.69    5.00
 -16  -5  -4   48.20    6.40
  16  -5   4   39.60    5.70
  16   5   5   -0.10    3.20
 -16  -5  -5    2.90    5.10
  16  -5   5    2.40    4.20
  16   5   6   10.40    3.60
 -16  -5  -6    2.80    5.30
  16  -5   6    3.80    5.00
  16   5   7    2.40    3.20
  16  -5   7    5.90    5.10
 -16  -5  -7   -5.30    5.30
  16   6 -12   58.19    8.30
  16   6 -12   69.19    6.20
 -16  -6  12   59.79    7.70
  16  -6 -12   68.69    7.00
  16   6 -11   22.00    4.60
  16   6 -11   24.50    6.80
  16  -6 -11   21.70    5.00
 -16  -6  11   32.90    6.60
  16   6 -10   10.10    6.20
  16   6 -10    7.40    3.90
  16  -6 -10   15.70    4.30
 -16  -6  10   11.60    5.40
  16   6  -9   40.30    7.80
  16   6  -9   32.60    4.60
 -16  -6   9   38.20    6.30
  16  -6  -9   27.70    4.70
  16   6  -8   83.89    9.70
  16   6  -8   85.09    6.80
  16  -6  -8   88.39    6.70
 -16  -6   8   91.89    7.90
  16   6  -7   -2.40    5.60
  16   6  -7    1.40    3.20
  16  -6  -7    0.90    3.30
 -16  -6   7    3.50    4.50
  16   6  -6   18.50    3.70
  16   6  -6   10.30    6.80
 -16  -6   6   24.60    5.20
  16  -6  -6   18.20    4.00
  16   6  -5   25.20    7.20
  16   6  -5   27.30    3.80
 -16  -6   5   22.50    5.20
  16  -6  -5   24.90    4.10
  16   6  -4  126.29    7.00
  16   6  -4  119.99   10.90
  16  -6  -4  123.99    7.40
 -16  -6   4  131.69    9.20
  16   6  -3   -1.30    2.90
  16  -6  -3   -0.80    3.00
 -16  -6   3    2.70    4.30
  16   6  -2   16.60    3.50
 -16  -6   2   14.90    4.80
  16  -6  -2   11.70    3.50
  16   6  -1    0.70    2.90
  16  -6  -1    1.70    3.30
 -16  -6   1    0.30    4.20
  16   6   0    2.50    2.90
  16  -6   0    1.70    3.40
 -16  -6   0   -4.20    4.10
  16   6   1    3.70    2.90
  16  -6   1    1.40    3.40
 -16  -6  -1    2.50    4.50
  16   6   2   17.50    3.40
  16  -6   2   11.30    4.10
 -16  -6  -2   18.30    5.20
  16   6   3    4.60    2.90
 -16  -6  -3   10.10    5.00
  16  -6   3    9.10    4.10
  16   6   4   84.29    5.50
  16  -6   4   65.09    6.40
 -16  -6  -4   79.39    7.40
 -16  -6  -5   -5.10    4.90
  16  -6   5   -0.50    4.00
 -16  -6  -6   -6.00    5.10
  16  -6   6    0.90    4.50
  16   7 -11    0.40    3.20
  16   7 -11    3.10    6.10
  16  -7 -11    0.00    4.10
 -16  -7  11   -3.50    5.30
  16   7 -10   -0.80    3.00
  16   7 -10    0.40    5.70
  16  -7 -10   -4.10    3.70
 -16  -7  10    4.90    5.40
  16   7  -9    5.30    5.80
  16   7  -9    2.70    3.00
 -16  -7   9    6.00    5.20
  16  -7  -9    6.10    3.90
  16   7  -8   79.49   10.00
  16   7  -8   62.79    4.80
 -16  -7   8   83.69    7.60
  16  -7  -8   83.39    6.40
  16   7  -7   47.40    4.10
  16   7  -7   49.90    8.90
 -16  -7   7   59.89    6.90
  16  -7  -7   45.70    5.00
  16   7  -6   82.39   10.30
  16   7  -6   82.89    5.20
 -16  -7   6   70.89    7.30
  16  -7  -6   77.79    6.40
  16   7  -5    5.50    6.80
  16   7  -5   12.90    2.70
  16  -7  -5    9.50    3.50
 -16  -7   5    6.90    4.70
  16   7  -4    6.60    2.50
  16   7  -4   18.50    7.50
 -16  -7   4   18.40    5.20
  16  -7  -4    6.90    3.30
  16   7  -3   63.09    8.90
 -16  -7   3   75.29    7.20
  16  -7  -3   67.19    5.40
 -16  -7   2   18.10    5.10
  16  -7  -2   30.30    4.10
 -16  -7   1    1.00    4.40
  16  -7  -1   -3.40    3.00
  16  -7   0    0.60    3.30
 -16  -7   0   -0.80    4.30
 -16  -7  -1    4.70    4.70
  16  -7   1   -0.70    3.40
  16  -7   2   12.30    4.10
 -16  -7  -2   -0.30    4.60
  16  -7   3   19.10    4.60
 -16  -7  -3   16.20    5.30
  16  -7   4   28.80    5.10
 -16  -7  -4   31.10    6.10
 -16  -7  -5    2.00    5.10
  16  -7   5    4.80    4.20
  16   8 -10    4.70    6.40
 -16  -8  10   14.10    6.10
  16   8  -9   11.00    7.10
 -16  -8   9    7.00    5.50
  16   8  -8   33.50    8.20
 -16  -8   8   27.90    6.20
  16   8  -7   59.79    9.70
 -16  -8   7   75.49    7.70
  16   8  -6   43.30    8.80
 -16  -8   6   47.10    6.50
  16   8  -5  164.08   13.90
 -16  -8   5  169.58   10.80
  16   8  -4   29.50    7.90
  16  -8  -4   34.50    5.20
 -16  -8   4   31.80    5.70
  16   8  -3    1.50    7.00
 -16  -8   3   -1.80    4.50
  16  -8  -3   -4.80    2.80
  16   8  -2   35.80    8.60
  16  -8  -2   29.40    4.20
 -16  -8   2   27.80    5.80
  16  -8  -1    1.30    3.30
 -16  -8   1    9.80    4.70
  16  -8   0    0.30    3.30
 -16  -8   0    1.90    4.50
  16  -8   1   -1.50    3.30
 -16  -8  -1   -4.60    4.40
 -16  -8  -2   -0.80    4.70
  16  -8   2    0.50    3.70
 -16  -8  -3   -0.10    4.80
  16  -8   3   -2.30    3.80
  16  -8   4    2.00    4.10
 -16  -8  -4    9.30    5.50
  16   9  -9   70.79   10.70
 -16  -9   9   79.49    8.40
  16   9  -8    1.70    7.20
 -16  -9   8   14.30    5.80
  16   9  -7    8.70    7.50
 -16  -9   7   10.70    5.60
  16   9  -6  107.79   11.80
 -16  -9   6  107.59    9.00
  16   9  -5    5.50    7.20
 -16  -9   5   11.60    5.30
  16   9  -4   83.29   11.00
 -16  -9   4  132.09    9.90
  16   9  -3    5.40    6.90
 -16  -9   3   18.40    5.30
  16   9  -2   23.40    7.80
 -16  -9   2    7.60    5.10
  16   9  -1    4.40    6.80
 -16  -9   1    5.60    4.90
 -16  -9   0   -1.00    4.60
 -16  -9  -1   15.20    5.40
 -16  -9  -2   26.80    5.80
 -16  -9  -3    7.60    5.20
  16  10  -7    5.20    6.60
 -16 -10   7    7.00    5.40
  16  10  -6    8.60    8.10
 -16 -10   6    7.90    5.40
  16  10  -5  126.99   13.30
 -16 -10   5  137.79   10.70
  16  10  -4    7.50    7.20
 -16 -10   4   10.60    5.30
  16  10  -3   33.40    8.90
 -16 -10   3   43.80    6.60
  16  10  -2   43.70    9.90
 -16 -10   2   55.89    7.00
  16  10  -1   -3.90    6.30
 -16 -10   1    7.10    5.00
  16  10   0    0.20    7.50
 -16 -10   0    4.80    4.80
  16  10   1   44.80    9.70
 -16 -10  -1   40.00    6.30
  17   0 -14   18.40    5.70
 -17   0  14   24.00    4.60
  17   0 -13    0.50    4.80
 -17   0  13   -1.90    3.70
  17   0 -12  191.68   11.30
 -17   0  12  205.58    9.70
 -17   0  11    3.50    3.70
  17   0 -11   -1.40    4.20
  17   0 -10   -2.40    4.00
  17   0 -10    6.30    3.40
 -17   0  10    3.40    3.60
  17   0  -9    3.90    3.50
  17   0  -9    3.20    3.90
 -17   0   9   -4.00    3.40
  17   0  -8  130.39    8.40
 -17   0   8  132.09    7.90
  17   0  -8  119.79    8.40
  17   0  -7    4.00    3.70
 -17   0   7    1.70    3.50
 -17   0   6  135.79    7.70
  17   0  -6  119.69    8.00
  17   0  -5   -1.50    3.20
 -17   0   5    1.70    3.40
 -17   0   4   23.60    4.00
  17   0  -4   12.60    3.80
  17   0  -3   -3.90    3.10
 -17   0   3    3.20    3.30
  17   0  -2   78.79    6.50
 -17   0   2   99.59    7.00
  17   0  -1   -0.50    3.30
 -17   0   1   -2.00    3.40
  17   0   0   12.30    4.00
 -17   0   0   12.10    4.00
  17   0   1    1.60    3.50
 -17   0  -1    3.80    4.00
  17   0   2  409.76   15.60
 -17   0  -2  430.96   15.20
  17   0   3   -3.80    3.70
 -17   0  -3    0.50    4.00
  17   0   4    6.10    4.30
 -17   0  -4   14.40    4.70
  17   0   5   -6.30    4.00
 -17   0  -5    0.60    4.30
  17   0   6   30.50    5.80
 -17   0  -6   42.10    5.90
 -17   0  -7   12.00    5.10
  17   0   7    3.90    4.80
  17   1 -14   -7.30    4.60
 -17  -1  14    7.00    4.60
  17  -1 -14   -2.30    4.90
 -17   1  13    4.80    3.10
  17   1 -13   -0.10    4.80
 -17  -1  13    7.20    4.50
  17  -1 -13    0.90    4.80
 -17   1  12    6.70    3.40
  17   1 -12    5.10    4.60
  17  -1 -12    3.50    4.70
 -17  -1  12   11.00    4.60
  17   1 -11  145.79    9.80
 -17   1  11  161.48    7.80
  17   1 -11  151.68    8.90
  17  -1 -11  152.58   10.10
 -17  -1  11  175.48    9.60
  17   1 -10   -0.50    4.00
  17   1 -10   -1.80    3.70
 -17   1  10    7.80    3.30
 -17  -1  10    3.60    4.00
  17  -1 -10    0.20    4.00
  17   1  -9   41.10    5.80
 -17   1   9   39.80    4.20
  17   1  -9   41.10    5.50
  17  -1  -9   37.50    4.80
  17  -1  -9   35.70    5.30
 -17  -1   9   38.70    5.20
  17   1  -8   52.09    5.70
  17   1  -8   54.09    6.70
 -17   1   8   48.90    4.60
 -17  -1   8   47.00    5.40
  17  -1  -8   53.79    5.90
 -17   1   7    0.50    3.10
  17   1  -7    3.70    3.50
 -17  -1   7   -0.90    3.50
  17  -1  -7    3.40    3.70
 -17   1   6   71.99    5.80
  17   1  -6   47.70    5.10
  17  -1  -6   62.79    6.00
 -17  -1   6   61.19    5.50
 -17   1   5  117.79    6.10
  17   1  -5  127.09    8.00
 -17   1   5  130.99    7.00
 -17  -1   5  147.49    8.20
  17  -1  -5  124.29    8.10
  17   1  -4    4.50    3.30
 -17   1   4    2.00    3.20
 -17   1   4   -0.20    2.00
  17  -1  -4    5.40    3.50
 -17  -1   4    5.50    3.60
  17   1  -3  220.48   10.10
 -17   1   3  203.48    8.10
 -17   1   3  220.68    8.90
 -17  -1   3  219.58   10.00
  17  -1  -3  206.98   10.00
 -17   1   2   -4.90    2.10
 -17   1   2    1.00    3.10
  17   1  -2    2.40    3.40
 -17  -1   2    0.30    3.60
  17  -1  -2   -0.70    3.20
  17   1  -1   -3.00    3.10
 -17   1   1    4.50    3.50
 -17   1   1    0.00    2.40
  17  -1  -1    3.90    3.50
 -17  -1   1   -6.80    3.50
 -17   1   0    0.50    3.40
  17   1   0    1.60    3.30
  17  -1   0   -1.70    3.30
 -17  -1   0    1.70    3.90
  17   1   1    4.70    3.70
 -17   1  -1   11.40    3.80
  17  -1   1    7.80    3.90
 -17  -1  -1    5.40    4.10
 -17   1  -2   29.80    4.60
  17   1   2   27.40    5.00
 -17  -1  -2   26.10    4.90
  17  -1   2   33.80    5.00
 -17   1  -3   39.70    5.00
  17   1   3   42.20    5.50
  17  -1   3   38.60    5.50
 -17  -1  -3   38.40    5.70
  17   1   4   23.50    4.90
 -17   1  -4   38.60    5.20
  17  -1   4   33.40    5.40
 -17  -1  -4   32.90    5.40
 -17   1  -5   24.10    4.90
  17   1   5   27.80    5.40
  17  -1   5   19.80    5.10
 -17  -1  -5   37.50    5.80
 -17   1  -6  193.38   10.40
  17   1   6  172.98   11.20
  17  -1   6  199.88   11.50
 -17  -1  -6  195.08   11.10
  17   1   7   -6.80    4.20
 -17   1  -7    6.10    4.60
 -17  -1  -7    1.70    5.10
  17  -1   7   -1.00    4.60
  17   2 -13    3.30    4.70
  17  -2 -13    7.60    5.30
 -17  -2  13   18.20    5.30
  17   2 -12  149.39    9.90
 -17  -2  12  140.09    9.90
  17  -2 -12  140.99   10.30
  17   2 -11   15.40    4.70
  17   2 -11   14.20    4.40
 -17  -2  11    9.30    4.70
  17  -2 -11   21.60    5.20
  17   2 -10   11.60    4.70
  17   2 -10   20.90    4.80
  17  -2 -10   20.10    5.00
 -17  -2  10   16.30    4.90
  17   2  -9   34.50    5.90
  17   2  -9   36.30    5.40
 -17   2   9   34.20    2.90
 -17  -2   9   41.70    5.60
  17  -2  -9   35.20    5.30
  17  -2  -9   38.00    4.30
  17   2  -8    4.80    3.80
  17   2  -8    5.90    4.80
 -17   2   8   11.50    2.50
  17  -2  -8    8.20    4.00
 -17  -2   8    2.70    4.10
  17   2  -7   68.09    6.00
 -17   2   7   64.99    4.60
  17   2  -7   76.89    7.60
 -17  -2   7   74.09    6.40
  17  -2  -7   70.19    6.10
 -17   2   6    5.30    2.50
  17   2  -6    3.00    3.50
 -17  -2   6    2.20    3.80
  17  -2  -6    2.60    3.60
  17   2  -5    0.10    3.20
 -17   2   5    6.50    2.70
 -17  -2   5   -0.10    3.50
  17  -2  -5    0.90    3.40
  17   2  -4  126.39    8.10
 -17   2   4  131.39    6.30
  17  -2  -4  123.49    8.00
 -17  -2   4  137.89    8.50
  17   2  -3    2.20    3.40
 -17   2   3   -3.00    2.60
 -17  -2   3   -0.40    3.60
  17  -2  -3    0.50    3.40
  17   2  -2   21.10    4.20
 -17   2   2   16.00    3.20
 -17  -2   2   16.00    4.20
  17  -2  -2   24.00    4.40
  17   2  -1   14.30    3.80
 -17   2   1   18.30    3.40
 -17  -2   1   22.10    4.60
  17  -2  -1   15.20    4.20
 -17   2   0   48.80    4.20
  17   2   0   43.00    5.00
 -17  -2   0   48.70    5.60
  17  -2   0   42.90    5.10
  17   2   1   29.90    4.90
 -17   2  -1   28.20    4.00
 -17  -2  -1   32.40    5.10
  17  -2   1   24.90    4.60
  17   2   2  169.08    9.50
 -17   2  -2  167.68    8.00
  17  -2   2  152.28    9.30
 -17  -2  -2  151.38    9.60
 -17   2  -3   64.69    5.30
  17   2   3   53.39    5.80
 -17  -2  -3   55.39    6.30
  17  -2   3   74.39    6.90
  17   2   4   82.19    7.20
 -17   2  -4   93.59    7.00
  17  -2   4   83.89    7.40
 -17  -2  -4   75.39    7.20
  17   2   5   -3.00    4.20
 -17   2  -5   -0.10    3.70
  17  -2   5   -1.70    4.40
 -17  -2  -5   -5.30    4.70
  17   2   6    9.40    4.70
 -17   2  -6    9.70    4.20
 -17  -2  -6   11.60    5.30
  17  -2   6    8.20    5.10
  17   2   7   39.70    6.00
 -17   2  -7   44.10    5.40
 -17  -2  -7   41.50    6.70
  17  -2   7   37.20    6.20
  17   3 -13   13.00    4.90
  17  -3 -13   12.90    5.50
 -17  -3  13   12.00    5.40
  17   3 -12   10.40    4.70
  17   3 -12   10.60    4.80
 -17  -3  12   -0.50    4.70
  17  -3 -12    6.50    4.80
  17   3 -11   18.00    4.80
 -17  -3  11   18.70    5.60
  17  -3 -11   12.50    4.90
  17   3 -10   73.59    6.60
  17   3 -10   77.49    8.20
  17  -3 -10   82.29    7.30
 -17  -3  10   70.99    7.10
  17   3  -9   11.80    5.20
  17   3  -9   16.80    4.50
  17  -3  -9   12.10    4.40
 -17  -3   9   13.30    4.90
  17   3  -8  131.69    8.70
  17   3  -8  157.18   10.80
 -17  -3   8  165.98    9.80
  17  -3  -8  142.29    9.10
  17   3  -7  177.88    9.50
  17   3  -7  193.38   12.00
 -17  -3   7  196.88   10.40
  17  -3  -7  190.38    9.90
  17   3  -6    2.20    3.50
  17  -3  -6    3.90    3.70
 -17  -3   6   10.10    4.40
  17   3  -5   30.20    4.40
  17  -3  -5   22.20    4.40
 -17  -3   5   31.80    5.00
  17   3  -4  222.68   10.20
 -17  -3   4  240.38   10.90
  17  -3  -4  221.88   10.30
  17   3  -3   27.80    4.40
 -17  -3   3   35.80    5.20
  17  -3  -3   23.80    4.40
  17   3  -2   55.19    5.50
  17  -3  -2   80.39    6.40
 -17  -3   2   70.59    6.30
  17   3  -1    8.20    3.70
  17  -3  -1    6.20    3.80
 -17  -3   1   13.60    4.30
  17   3   0    9.40    4.00
 -17  -3   0    1.90    4.20
  17  -3   0    9.40    3.90
  17   3   1   25.80    4.70
 -17   3  -1   31.00    2.90
 -17  -3  -1   26.50    5.20
  17  -3   1   24.40    4.60
  17   3   2   67.09    6.20
 -17   3  -2   65.99    5.00
 -17  -3  -2   68.09    6.70
  17  -3   2   67.19    6.60
 -17   3  -3    7.40    2.90
  17   3   3    5.20    4.10
 -17  -3  -3    7.20    4.80
  17  -3   3    8.10    4.00
 -17   3  -4   85.39    5.70
  17   3   4   81.69    7.10
 -17  -3  -4   80.19    7.30
  17  -3   4   77.79    6.90
  17   3   5   62.19    6.40
 -17   3  -5   56.29    4.60
 -17  -3  -5   55.69    6.90
  17  -3   5   54.09    6.60
 -17   3  -6   10.00    3.60
  17   3   6    5.40    4.50
  17  -3   6    7.80    5.10
 -17  -3  -6   11.40    5.50
  17   3   7    1.70    4.30
 -17   3  -7    0.50    3.80
 -17  -3  -7   -2.80    5.30
  17  -3   7   -1.60    4.60
  17   4 -13   60.29   11.30
  17   4 -13   69.19    7.00
  17  -4 -13   72.09    7.80
 -17  -4  13   76.69    8.10
  17   4 -12   55.49    6.30
  17   4 -12   61.19    7.90
 -17  -4  12   55.49    7.00
  17  -4 -12   67.69    7.30
  17   4 -11   33.70    6.50
  17   4 -11   21.70    5.20
 -17  -4  11   41.10    6.40
  17  -4 -11   20.20    5.10
  17   4 -10    3.00    4.00
  17   4 -10    9.60    5.30
 -17  -4  10    7.50    4.70
  17  -4 -10    3.30    4.20
  17   4  -9   67.69    6.30
  17   4  -9   66.99    8.00
  17  -4  -9   71.19    6.70
 -17  -4   9   65.59    6.90
  17   4  -8    2.70    3.70
  17   4  -8    3.00    5.20
  17  -4  -8    2.40    3.80
 -17  -4   8    1.40    4.50
  17   4  -7    4.30    5.40
  17   4  -7    0.30    3.60
  17  -4  -7    5.40    3.90
 -17  -4   7    5.80    4.40
  17   4  -6   66.49    6.00
  17   4  -6   79.29    9.00
 -17  -4   6   55.39    6.10
  17  -4  -6   59.69    5.90
  17   4  -5   15.00    4.00
 -17  -4   5   17.60    4.80
  17  -4  -5   21.50    4.30
  17   4  -4    1.50    3.50
 -17  -4   4    7.50    4.30
  17  -4  -4   -1.20    3.20
  17   4  -3   61.69    5.60
 -17  -4   3   65.99    6.30
  17  -4  -3   58.99    5.50
  17   4  -2    4.70    3.60
 -17  -4   2    4.00    4.10
  17  -4  -2    4.70    3.70
  17   4  -1    7.40    3.70
 -17  -4   1   13.70    4.50
  17  -4  -1   10.10    4.00
  17   4   0   19.10    4.20
  17  -4   0    8.10    3.90
 -17  -4   0   20.10    5.00
  17   4   1  108.99    7.80
  17  -4   1  109.09    8.10
 -17  -4  -1   96.29    7.70
  17   4   2  100.99    7.90
  17  -4   2   98.69    8.10
 -17  -4  -2  110.39    9.20
  17   4   3   71.79    6.40
  17  -4   3   60.29    6.60
 -17  -4  -3   52.29    6.40
  17   4   4   23.90    4.70
  17  -4   4   22.40    5.10
 -17  -4  -4   19.80    5.50
  17   4   5    5.40    3.90
 -17  -4  -5    2.20    5.30
  17  -4   5   -3.50    4.10
  17   4   6    9.80    4.30
  17  -4   6   -3.50    4.80
 -17  -4  -6   10.20    5.60
  17   5 -12   56.29    7.90
  17   5 -12   71.19    6.80
  17  -5 -12   69.69    7.30
 -17  -5  12   55.59    7.30
  17   5 -11    6.40    5.70
  17   5 -11    6.80    4.10
 -17  -5  11   15.50    5.60
  17  -5 -11    1.60    4.40
  17   5 -10   64.19    8.60
  17   5 -10   47.80    5.60
 -17  -5  10   41.30    6.60
  17  -5 -10   50.79    6.20
  17   5  -9   93.19    7.60
  17   5  -9   80.39    9.10
  17  -5  -9  101.29    8.20
 -17  -5   9  100.09    8.40
  17   5  -8   41.50    5.00
  17   5  -8   44.00    7.80
 -17  -5   8   47.00    6.30
  17  -5  -8   31.40    5.00
  17   5  -7    5.50    6.00
  17   5  -7    0.80    3.50
 -17  -5   7   -3.70    4.40
  17  -5  -7   -4.70    3.50
  17   5  -6  129.69   11.70
  17   5  -6  152.88    8.50
  17  -5  -6  154.78    8.60
 -17  -5   6  149.59   10.00
  17   5  -5   -7.40    4.90
  17   5  -5   -1.40    3.30
  17  -5  -5    0.20    3.40
 -17  -5   5    1.40    4.40
  17   5  -4    0.20    3.20
  17  -5  -4   -3.80    3.10
 -17  -5   4   -1.30    4.20
  17   5  -3   62.19    5.50
  17  -5  -3   55.99    5.50
 -17  -5   3   57.89    6.30
  17   5  -2  104.79    7.30
  17  -5  -2  102.29    7.60
 -17  -5   2  120.49    9.00
  17   5  -1   96.89    7.30
  17  -5  -1   96.19    7.70
 -17  -5   1  111.89    8.30
  17   5   0   27.20    4.50
 -17  -5   0   19.30    5.20
  17  -5   0   26.50    4.60
  17   5   1   14.30    4.00
 -17  -5  -1   13.40    5.10
  17  -5   1   12.80    4.20
  17   5   2    7.40    3.90
 -17  -5  -2   10.20    5.20
  17  -5   2   10.00    4.00
  17   5   3   15.80    4.10
 -17  -5  -3   21.40    5.60
  17  -5   3   23.30    5.10
  17   5   4   57.79    5.60
  17  -5   4   51.19    6.30
 -17  -5  -4   65.19    7.50
  17   5   5  112.99    7.60
 -17  -5  -5  101.59    8.70
  17  -5   5   83.99    7.90
  17   5   6    3.70    3.60
  17  -5   6   -2.80    4.80
 -17  -5  -6   -2.40    5.20
  17   6 -12   12.90    4.40
  17   6 -12   12.70    6.50
  17  -6 -12    7.50    5.00
  17   6 -11   12.50    4.40
  17   6 -11    9.10    6.00
 -17  -6  11   10.50    5.60
  17  -6 -11   16.60    4.90
  17   6 -10    2.20    5.60
  17   6 -10   -1.90    3.70
 -17  -6  10    2.60    5.30
  17  -6 -10   -1.10    4.00
  17   6  -9   34.40    7.70
  17   6  -9   47.60    5.30
 -17  -6   9   44.50    6.80
  17  -6  -9   51.79    5.70
  17   6  -8    9.70    6.30
  17   6  -8    4.90    3.60
 -17  -6   8    1.90    4.90
  17  -6  -8    3.60    3.80
  17   6  -7    4.30    3.50
  17   6  -7    2.10    5.50
  17  -6  -7    1.50    3.70
 -17  -6   7   -0.60    4.60
  17   6  -6  111.59    7.20
  17   6  -6  119.99   11.70
  17  -6  -6  118.69    7.90
 -17  -6   6  128.49    9.70
  17   6  -5    3.90    6.10
  17   6  -5   -5.20    2.90
 -17  -6   5   -0.30    4.50
  17  -6  -5    3.10    3.40
  17   6  -4  162.88    8.30
 -17  -6   4  189.78   10.80
  17  -6  -4  175.88    8.90
  17   6  -3    5.00    3.30
 -17  -6   3    3.50    4.60
  17  -6  -3    1.20    3.30
  17   6  -2   87.19    6.50
 -17  -6   2   87.79    7.70
  17  -6  -2   98.49    7.20
  17   6  -1   55.29    4.90
 -17  -6   1   61.69    6.70
  17  -6  -1   53.19    5.40
  17   6   0   30.10    4.10
 -17  -6   0   19.70    5.40
  17  -6   0   28.90    4.70
  17   6   1   -6.30    2.90
 -17  -6  -1    2.30    4.70
  17  -6   1    2.40    3.60
  17   6   2   -2.10    3.00
 -17  -6  -2    0.10    4.80
  17  -6   2    6.40    4.00
  17   6   3   42.80    4.30
 -17  -6  -3   60.19    7.00
  17  -6   3   44.80    5.70
  17   6   4    1.60    3.20
  17  -6   4    6.50    4.40
 -17  -6  -4   -2.00    4.90
 -17  -6  -5    2.60    5.70
  17  -6   5    0.60    4.30
  17   7 -11    9.90    6.30
  17   7 -11   19.60    4.00
 -17  -7  11   26.00    6.60
  17  -7 -11   18.40    5.00
  17   7 -10    1.70    3.30
  17   7 -10    0.40    5.60
  17  -7 -10    2.20    4.20
 -17  -7  10    2.70    5.50
  17   7  -9   31.20    8.00
  17   7  -9   36.50    4.30
  17  -7  -9   33.30    5.30
 -17  -7   9   29.20    6.30
  17   7  -8    1.50    5.90
  17   7  -8   -1.90    2.90
 -17  -7   8    9.30    5.30
  17  -7  -8    1.30    3.70
  17   7  -7   66.09    5.60
  17   7  -7   86.49   10.60
 -17  -7   7   81.69    8.00
  17  -7  -7   73.69    6.30
  17   7  -6    6.50    2.90
  17   7  -6    7.80    6.80
  17  -7  -6   12.50    3.90
 -17  -7   6   13.40    5.30
  17   7  -5   64.99    5.30
  17   7  -5   75.19   10.50
  17  -7  -5   62.29    5.70
 -17  -7   5   72.79    7.40
  17   7  -4  157.18    6.90
  17   7  -4  139.79   13.20
  17  -7  -4  161.78    8.50
 -17  -7   4  167.68   10.60
  17   7  -3   40.10    3.50
 -17  -7   3   46.70    6.30
  17  -7  -3   43.80    5.00
  17  -7  -2   69.59    6.00
 -17  -7   2   70.09    7.30
  17  -7  -1   54.79    5.60
 -17  -7   1   63.19    6.80
  17  -7   0    2.40    3.60
 -17  -7   0   -2.20    4.60
 -17  -7  -1    5.40    5.00
  17  -7   1   -0.20    3.60
 -17  -7  -2    0.10    4.90
  17  -7   2    5.40    3.90
  17  -7   3   19.80    5.00
 -17  -7  -3   11.80    5.50
 -17  -7  -4    4.90    5.10
  17  -7   4   -0.30    4.30
  17   8 -10   -2.90    6.40
  17   8  -9   24.10    7.80
 -17  -8   9   30.40    6.50
  17   8  -8   -1.50    5.90
 -17  -8   8   -0.50    5.20
  17   8  -7   27.10    7.90
 -17  -8   7   23.00    6.00
  17   8  -6    0.80    6.00
 -17  -8   6   -5.40    4.80
  17   8  -5    9.50    7.30
 -17  -8   5    9.50    5.20
  17   8  -4   12.80    7.10
 -17  -8   4   14.60    5.50
  17   8  -3   63.79   10.60
 -17  -8   3   82.69    7.70
  17  -8  -3   69.49    6.30
  17  -8  -2   21.10    4.20
 -17  -8   2   21.10    5.60
 -17  -8   1    4.80    4.90
  17  -8  -1    4.30    3.70
 -17  -8   0    9.80    5.30
  17  -8   0    7.10    4.00
  17  -8   1   -0.90    3.60
 -17  -8  -1   -4.00    5.00
 -17  -8  -2   68.59    7.60
  17  -8   2   75.19    6.80
 -17  -8  -3   13.90    5.40
  17  -8   3    6.60    4.50
  17   9  -8   15.20    7.70
 -17  -9   8   31.40    6.60
  17   9  -7  143.19   14.00
 -17  -9   7  178.68   11.90
  17   9  -6    2.80    7.20
 -17  -9   6    7.10    5.60
  17   9  -5   -9.70    6.90
 -17  -9   5    3.80    5.10
  17   9  -4   59.89   10.00
 -17  -9   4   64.19    7.30
  17   9  -3   95.49   11.80
 -17  -9   3  102.99    8.60
  17   9  -2   40.10    9.40
 -17  -9   2   50.39    6.70
  17   9  -1   15.70    8.00
 -17  -9   1   17.90    5.70
 -17  -9   0   18.00    5.50
 -17  -9  -1   31.40    6.30
  17  10  -5    1.60    7.50
 -17 -10   5   13.20    5.70
  17  10  -4   31.70    8.90
 -17 -10   4   57.49    7.40
  17  10  -3   68.59   11.30
 -17 -10   3   77.69    8.10
  17  10  -2  -15.70    6.70
 -17 -10   2    3.00    5.00
  17  10  -1   -4.00    6.50
  18   0 -13   -4.70    4.80
 -18   0  13    0.00    3.90
 -18   0  12   36.90    4.90
  18   0 -12   28.00    6.00
 -18   0  11    5.50    3.90
  18   0 -11    0.80    4.60
  18   0 -10  101.39    7.40
  18   0 -10   88.39    7.40
 -18   0  10  108.99    7.80
  18   0  -9   -1.50    4.00
  18   0  -9   -1.30    3.80
 -18   0   9   -0.40    3.70
  18   0  -8   48.20    6.10
  18   0  -8   39.70    5.40
 -18   0   8   44.00    5.00
  18   0  -7    2.80    3.70
 -18   0   7   -0.70    3.50
 -18   0   6   29.20    4.50
  18   0  -6   14.50    4.30
 -18   0   5   -1.90    3.40
  18   0  -5   -3.40    3.40
 -18   0   4  338.57   12.80
  18   0  -4  365.06   13.80
  18   0  -3   -1.50    3.40
 -18   0   3   -1.00    3.50
 -18   0   2   22.40    4.50
  18   0  -2   21.90    4.50
 -18   0   1   -0.20    3.80
  18   0  -1    2.40    3.60
  18   0   0   12.00    4.10
 -18   0   0   15.10    4.30
 -18   0  -1   -0.90    4.00
  18   0   1   -0.80    3.60
 -18   0  -2   19.10    4.80
  18   0   2   25.20    5.00
 -18   0  -3    1.80    4.30
  18   0   3    1.90    4.00
 -18   0  -4   90.29    7.40
  18   0   4   95.79    8.10
 -18   0  -5    7.50    4.80
  18   0   5    2.70    4.50
 -18   0  -6   16.40    5.30
  18   0   6   16.70    5.30
  18   1 -13    5.60    5.00
  18  -1 -13   -4.40    4.80
 -18  -1  13    1.90    4.40
  18   1 -12   10.00    4.80
 -18   1  12   12.00    3.40
  18  -1 -12   -1.80    4.60
 -18  -1  12   12.70    4.70
 -18   1  11    8.60    3.40
  18   1 -11    3.80    4.40
  18  -1 -11   12.00    5.10
 -18  -1  11    6.40    4.40
 -18   1  10    6.00    3.30
  18   1 -10    9.40    4.30
  18   1 -10    3.10    4.10
  18  -1 -10   -2.60    4.30
 -18  -1  10    7.10    4.20
  18   1  -9    3.80    4.40
  18   1  -9   -2.90    3.90
 -18   1   9    3.50    3.20
  18  -1  -9    0.40    3.50
 -18  -1   9    1.50    3.90
  18  -1  -9   -0.40    4.00
 -18   1   8   23.80    3.80
  18   1  -8   19.30    4.70
  18   1  -8   17.30    5.20
  18  -1  -8   15.10    4.50
 -18  -1   8   31.60    5.10
  18   1  -7   27.60    4.90
 -18   1   7   27.70    3.90
 -18  -1   7   24.50    4.90
  18  -1  -7   23.20    4.90
 -18   1   6  622.74   19.10
  18   1  -6  620.84   20.70
 -18  -1   6  626.14   20.20
  18  -1  -6  638.54   20.80
  18   1  -5   33.80    5.20
 -18   1   5   29.80    4.20
 -18  -1   5   36.10    5.00
  18  -1  -5   37.20    5.30
  18   1  -4    8.00    3.90
 -18   1   4    5.90    3.40
 -18  -1   4    9.10    4.00
  18  -1  -4    9.80    3.90
 -18   1   3  364.26   12.70
  18   1  -3  351.96   13.90
 -18  -1   3  367.06   13.70
  18  -1  -3  363.56   14.00
 -18   1   2   13.60    3.90
  18   1  -2   15.90    4.10
  18  -1  -2   13.30    4.20
 -18  -1   2   18.60    4.40
  18   1  -1  194.18   10.10
 -18   1   1  197.68    9.30
  18  -1  -1  188.88   10.10
 -18  -1   1  219.18   10.10
  18   1   0   85.79    7.10
 -18   1   0  118.59    7.50
  18  -1   0  107.79    8.20
 -18  -1   0  115.09    8.20
  18   1   1   29.80    5.00
 -18   1  -1   42.40    5.00
  18  -1   1   42.70    5.40
 -18  -1  -1   46.50    5.80
 -18   1  -2   34.70    5.00
  18   1   2   40.30    5.60
  18  -1   2   31.00    5.20
 -18  -1  -2   37.00    5.70
  18   1   3    0.80    4.10
 -18   1  -3   -2.30    3.90
  18  -1   3   -2.00    4.00
 -18  -1  -3   -3.10    4.70
 -18   1  -4   51.69    5.60
  18   1   4   53.19    6.50
  18  -1   4   44.80    6.30
 -18  -1  -4   47.00    6.10
  18   1   5   22.00    5.40
 -18   1  -5   30.60    5.30
 -18  -1  -5    9.70    5.30
  18  -1   5   10.00    4.90
  18   1   6    0.10    4.70
 -18   1  -6   -1.70    4.50
 -18  -1  -6    4.20    5.00
  18  -1   6   -0.20    4.60
  18   2 -13   14.60    5.00
  18  -2 -13    4.70    5.30
 -18  -2  13   10.80    5.10
  18   2 -12   16.00    5.10
  18  -2 -12   15.70    5.40
 -18  -2  12   12.00    5.20
  18   2 -11   20.10    5.10
  18   2 -11    8.30    4.70
  18  -2 -11   11.90    5.20
 -18  -2  11   26.50    5.50
  18   2 -10  213.68   11.10
  18   2 -10  204.88   11.60
  18  -2 -10  220.78   11.40
 -18  -2  10  210.18   11.20
  18   2  -9   13.10    4.60
  18   2  -9    7.20    5.00
 -18  -2   9   11.70    4.80
  18  -2  -9   11.50    4.70
  18   2  -8   72.69    7.90
 -18   2   8   64.29    4.50
  18   2  -8   69.29    6.50
  18  -2  -8   66.89    6.60
 -18  -2   8   73.69    6.80
  18   2  -7   -1.00    3.60
 -18   2   7   -0.20    2.50
 -18  -2   7    2.90    4.10
  18  -2  -7    4.50    4.00
 -18   2   6  120.99    5.70
  18   2  -6  125.89    8.30
  18  -2  -6  110.19    8.30
 -18  -2   6  107.29    8.40
 -18   2   5  126.39    6.20
  18   2  -5  119.49    8.30
 -18  -2   5  133.09    9.00
  18  -2  -5  150.78    8.80
  18   2  -4   36.90    5.20
 -18   2   4   21.80    3.30
  18  -2  -4   24.20    4.70
 -18  -2   4   27.20    5.00
  18   2  -3   15.20    4.00
 -18   2   3   12.90    3.00
 -18  -2   3    9.50    4.40
  18  -2  -3    5.20    3.90
  18   2  -2   27.50    4.50
 -18   2   2   36.20    3.80
  18  -2  -2   30.50    4.70
 -18  -2   2   33.80    5.30
 -18   2   1  133.19    6.90
  18   2  -1  115.99    8.30
 -18  -2   1  134.69    9.00
  18  -2  -1  130.79    8.70
  18   2   0   62.89    6.00
 -18   2   0   73.49    6.00
 -18  -2   0   69.79    6.50
  18  -2   0   58.99    5.80
 -18   2  -1   13.80    3.70
  18   2   1    7.80    4.10
  18  -2   1    8.20    4.10
 -18  -2  -1   10.10    4.80
 -18   2  -2   -2.20    3.30
  18   2   2    2.90    4.30
  18  -2   2    1.60    3.80
 -18  -2  -2    0.50    4.40
  18   2   3    8.70    4.40
 -18   2  -3    9.70    3.80
 -18  -2  -3   15.20    5.20
  18  -2   3   11.20    4.50
  18   2   4  115.69    9.30
 -18   2  -4  119.19    7.60
 -18  -2  -4   95.69    8.10
  18  -2   4  119.59    9.50
 -18   2  -5   10.40    4.10
  18   2   5   11.20    4.90
 -18  -2  -5   12.40    5.70
  18  -2   5    9.90    5.10
 -18   2  -6   12.90    4.40
  18   2   6   18.40    5.40
  18  -2   6    8.30    5.20
 -18  -2  -6   11.40    5.70
  18   3 -12   30.20    6.80
  18   3 -12   18.50    5.10
  18  -3 -12   25.50    6.00
 -18  -3  12   32.30    6.30
  18   3 -11   -3.20    4.10
 -18  -3  11    1.70    4.70
  18  -3 -11   -6.70    4.30
  18   3 -10    0.90    4.20
  18   3 -10    4.40    5.00
  18  -3 -10   -9.20    4.00
 -18  -3  10    1.50    4.80
  18   3  -9    9.50    4.40
  18   3  -9    0.50    4.90
  18  -3  -9    3.30    4.30
 -18  -3   9    6.80    4.90
  18   3  -8   -4.80    4.80
  18   3  -8    0.10    3.80
  18  -3  -8   -2.80    3.80
 -18  -3   8    7.80    4.80
  18   3  -7   18.60    6.20
  18   3  -7   12.40    4.20
  18  -3  -7    3.00    3.90
 -18  -3   7    9.40    4.60
  18   3  -6    3.00    3.90
  18  -3  -6   -2.30    3.60
 -18  -3   6    4.80    4.50
  18   3  -5   50.79    5.50
  18  -3  -5   56.59    5.70
 -18  -3   5   58.09    6.10
  18   3  -4    1.30    3.40
 -18  -3   4    8.90    4.30
  18  -3  -4   -2.40    3.60
  18   3  -3   29.20    4.80
  18  -3  -3   30.30    4.80
 -18  -3   3   29.90    5.10
  18   3  -2  184.58    9.60
 -18  -3   2  185.38   10.30
  18  -3  -2  186.18    9.90
  18   3  -1    9.60    3.90
  18  -3  -1    2.80    3.70
 -18  -3   1    5.10    4.50
  18   3   0   20.70    4.70
 -18  -3   0   30.70    5.40
  18  -3   0   30.30    4.90
  18   3   1   37.60    5.30
 -18  -3  -1   35.30    5.70
  18  -3   1   31.80    5.00
 -18   3  -2   -2.90    2.40
  18   3   2    3.80    4.10
 -18  -3  -2   -0.50    4.70
  18  -3   2   -2.30    3.80
  18   3   3   42.60    5.80
 -18   3  -3   33.90    3.60
 -18  -3  -3   32.40    6.00
  18  -3   3   28.40    5.10
  18   3   4   18.30    5.00
 -18   3  -4   22.60    3.60
  18  -3   4    7.40    4.60
 -18  -3  -4   21.80    5.80
 -18   3  -5   85.89    6.90
  18   3   5   81.79    7.30
 -18  -3  -5   88.69    8.00
  18  -3   5   75.09    7.80
  18   3   6    4.00    4.60
 -18  -3  -6    3.00    5.50
  18  -3   6    6.80    5.10
  18   4 -12  123.79    9.50
  18   4 -12  123.99   10.40
 -18  -4  12  122.89    9.60
  18  -4 -12  121.69   10.20
  18   4 -11    2.90    4.40
  18   4 -11   -2.80    5.00
  18  -4 -11    4.40    4.70
 -18  -4  11   17.10    5.70
  18   4 -10  126.49    9.20
  18   4 -10  143.59   10.70
 -18  -4  10  154.48   10.70
  18  -4 -10  144.59   10.00
  18   4  -9    5.40    4.20
  18   4  -9    6.20    5.80
 -18  -4   9   11.60    5.30
  18  -4  -9    5.40    4.40
  18   4  -8    1.50    3.90
  18   4  -8    6.30    5.80
  18  -4  -8    1.40    4.20
 -18  -4   8    4.00    4.70
  18   4  -7    4.30    4.00
  18   4  -7   -8.00    5.40
 -18  -4   7    9.00    4.90
  18  -4  -7    7.40    4.20
  18   4  -6    5.70    3.90
  18   4  -6    3.90    5.90
 -18  -4   6    4.50    4.60
  18  -4  -6    5.70    4.00
  18   4  -5   -2.20    3.50
 -18  -4   5    4.40    4.30
  18  -4  -5   -4.90    3.40
  18   4  -4    6.60    3.90
 -18  -4   4    5.20    4.50
  18  -4  -4    2.60    3.60
  18   4  -3  132.59    8.50
  18  -4  -3  140.89    8.80
 -18  -4   3  144.89    9.60
  18   4  -2   71.59    6.20
 -18  -4   2   72.69    6.90
  18  -4  -2   69.89    6.50
  18   4  -1   25.60    4.70
 -18  -4   1   25.80    5.30
  18  -4  -1   19.20    4.40
  18   4   0   29.90    5.00
  18  -4   0   28.80    5.00
 -18  -4   0   32.00    5.70
  18   4   1    2.60    4.00
  18  -4   1    6.20    4.20
 -18  -4  -1    7.80    4.90
  18   4   2   42.40    5.50
  18  -4   2   51.49    6.20
 -18  -4  -2   55.49    6.70
  18   4   3   23.70    5.10
  18  -4   3   18.30    4.90
 -18  -4  -3   25.10    5.90
  18   4   4  188.58   10.20
 -18  -4  -4  172.88   11.50
  18  -4   4  169.98   10.70
  18   4   5    6.10    4.20
 -18  -4  -5    0.70    5.20
  18  -4   5    7.70    4.90
  18   5 -12    4.20    4.40
  18   5 -12    9.30    6.00
  18  -5 -12    5.30    4.90
  18   5 -11   33.20    7.20
  18   5 -11   37.50    5.60
 -18  -5  11   37.90    6.70
  18  -5 -11   26.50    5.50
  18   5 -10    1.40    5.60
  18   5 -10    3.80    4.10
  18  -5 -10   -2.50    4.20
 -18  -5  10    1.10    5.00
  18   5  -9    3.30    3.90
  18   5  -9   -0.50    5.60
  18  -5  -9   -1.90    4.10
 -18  -5   9   10.00    5.40
  18   5  -8   15.20    6.40
  18   5  -8   19.40    4.60
  18  -5  -8   15.50    4.80
 -18  -5   8   26.40    5.90
  18   5  -7   14.70    4.10
  18   5  -7   21.40    6.90
  18  -5  -7    8.40    4.20
 -18  -5   7   19.10    5.30
  18   5  -6    2.90    3.80
  18   5  -6    0.50    6.10
 -18  -5   6    6.40    4.80
  18  -5  -6   -2.10    3.60
  18   5  -5   -1.60    3.40
 -18  -5   5   -2.70    4.50
  18  -5  -5   -2.40    3.50
  18   5  -4   24.40    4.50
  18  -5  -4   22.70    4.40
 -18  -5   4   15.00    5.20
  18   5  -3   38.80    5.00
  18  -5  -3   35.00    5.00
 -18  -5   3   33.70    5.70
  18   5  -2   48.90    5.30
 -18  -5   2   58.59    6.70
  18  -5  -2   57.99    5.80
  18   5  -1    8.50    3.90
 -18  -5   1    7.40    4.80
  18  -5  -1   -0.50    3.70
  18   5   0   14.60    4.20
 -18  -5   0   16.30    5.30
  18  -5   0   15.80    4.30
  18   5   1   75.99    6.20
  18  -5   1   85.79    7.30
 -18  -5  -1   72.39    7.40
  18   5   2   41.30    5.20
  18  -5   2   30.10    5.40
 -18  -5  -2   34.60    6.10
  18   5   3   34.50    5.00
 -18  -5  -3   36.40    6.30
  18  -5   3   23.50    5.20
  18   5   4   27.70    4.60
  18  -5   4   19.90    5.00
 -18  -5  -4   28.40    6.50
  18   5   5   13.10    4.00
  18  -5   5    8.50    5.00
 -18  -5  -5    9.10    5.80
  18   6 -11    0.60    5.70
  18   6 -11   -6.40    3.80
 -18  -6  11   -0.80    5.40
  18  -6 -11   -8.60    4.20
  18   6 -10    2.50    5.80
  18   6 -10    2.30    3.90
 -18  -6  10    1.20    5.40
  18  -6 -10   -0.50    4.40
  18   6  -9   32.40    4.90
  18   6  -9   40.30    7.70
  18  -6  -9   27.10    5.40
 -18  -6   9   40.20    6.80
  18   6  -8    2.10    3.70
  18   6  -8    7.20    6.50
 -18  -6   8    1.10    4.90
  18  -6  -8   -1.00    4.00
  18   6  -7   13.50    6.80
  18   6  -7   -0.70    3.40
 -18  -6   7    3.80    5.10
  18  -6  -7    1.20    3.80
  18   6  -6   24.30    8.00
  18   6  -6   16.80    3.90
  18  -6  -6   15.60    4.40
 -18  -6   6    6.70    5.20
  18   6  -5    7.30    3.60
  18   6  -5    9.60    6.80
  18  -6  -5    4.40    3.80
 -18  -6   5    6.30    5.10
  18   6  -4    5.30    3.50
 -18  -6   4    8.10    5.00
  18  -6  -4    3.10    3.60
  18   6  -3   10.80    3.70
 -18  -6   3    5.70    4.80
  18  -6  -3    5.40    3.80
  18   6  -2   10.90    3.70
 -18  -6   2    3.50    4.80
  18  -6  -2   10.30    4.00
  18   6  -1   12.30    3.70
 -18  -6   1    5.90    4.90
  18  -6  -1   13.10    4.30
  18   6   0    2.60    3.40
  18  -6   0   10.00    4.10
 -18  -6   0   12.80    5.40
  18   6   1   10.00    3.60
  18  -6   1   12.70    4.60
 -18  -6  -1   20.20    5.50
  18   6   2    2.50    3.30
 -18  -6  -2   -1.10    5.20
  18  -6   2   -6.60    3.80
  18   6   3  107.39    6.80
 -18  -6  -3   94.89    8.50
  18  -6   3   92.29    8.10
  18   6   4    4.50    5.40
  18  -6   4   -1.40    4.20
 -18  -6  -4   -0.40    5.50
  18   7 -10   21.00    7.50
  18   7 -10    0.90    3.50
  18  -7 -10    4.10    4.60
 -18  -7  10   13.10    6.00
  18   7  -9   -3.20    3.10
  18   7  -9   -3.90    5.50
  18  -7  -9    2.90    4.20
 -18  -7   9   -1.60    5.30
  18   7  -8    4.50    7.00
  18   7  -8    2.60    3.30
  18  -7  -8   -3.10    3.90
 -18  -7   8    8.70    5.60
  18   7  -7    7.10    3.20
  18   7  -7    9.50    7.00
  18  -7  -7   10.90    4.30
 -18  -7   7   18.50    5.80
  18   7  -6   29.20    3.90
  18   7  -6   38.70    8.60
  18  -7  -6   30.30    5.00
 -18  -7   6   33.80    6.40
  18   7  -5    6.00    7.30
  18   7  -5    4.30    3.00
 -18  -7   5    4.70    5.10
  18  -7  -5   -4.20    3.30
  18   7  -4   26.80    3.60
  18   7  -4   17.40    7.00
 -18  -7   4   34.30    6.00
  18  -7  -4   22.40    4.40
  18   7  -3    5.50    2.80
 -18  -7   3   14.10    5.40
  18  -7  -3    3.00    3.80
  18   7  -2   23.70    3.50
  18  -7  -2   24.20    4.70
 -18  -7   2   16.40    5.50
 -18  -7   1   14.60    5.30
  18  -7  -1    4.20    4.00
  18  -7   0   13.90    4.40
 -18  -7   0   24.50    6.10
 -18  -7  -1   13.50    5.60
  18  -7   1    4.90    4.30
 -18  -7  -2   -1.50    5.10
  18  -7   2    0.50    4.10
 -18  -7  -3   -3.40    5.30
  18  -7   3   -4.80    4.00
  18   8  -8   11.90    7.50
 -18  -8   8   42.30    7.00
  18   8  -7    5.50    7.20
 -18  -8   7   10.00    5.60
  18   8  -6   41.50    8.90
 -18  -8   6   46.70    6.90
  18   8  -5   72.39   11.10
 -18  -8   5   70.79    8.00
  18   8  -4   34.80    9.10
 -18  -8   4   26.60    6.30
  18   8  -3   46.50    9.10
 -18  -8   3   35.80    6.50
  18  -8  -3   32.50    6.00
 -18  -8   2   37.00    6.50
  18  -8  -2   28.60    4.70
  18  -8  -1   32.50    5.00
 -18  -8   1   36.90    6.50
 -18  -8   0    2.40    5.10
  18  -8   0   -1.00    3.80
 -18  -8  -1   20.20    6.10
  18  -8   1   23.10    5.00
  18   9  -6    5.30    7.40
 -18  -9   6   15.30    5.80
  18   9  -5    7.70    7.80
 -18  -9   5    4.50    5.30
  18   9  -4   12.60    8.70
 -18  -9   4   31.80    6.50
  18   9  -3   16.90    8.90
 -18  -9   3   17.10    5.90
  18   9  -2   44.00   10.20
 -18  -9   2   41.60    6.90
  18   9  -1   11.80    7.60
 -18  -9   1   23.90    6.20
 -19   0  12    2.10    4.00
  19   0 -12    1.10    4.70
  19   0 -11   -5.10    4.40
 -19   0  11    5.50    3.90
  19   0 -10    5.20    4.70
 -19   0  10    2.90    3.90
 -19   0   9    4.50    3.90
  19   0  -9   -0.50    4.20
  19   0  -9    4.70    4.30
  19   0  -8   93.59    7.80
 -19   0   8  100.69    7.60
 -19   0   7    1.60    3.70
 -19   0   6  132.89    8.30
  19   0  -6  131.69    9.00
  19   0  -5    0.90    3.80
 -19   0   5   -0.30    3.70
  19   0  -4  230.68   11.10
 -19   0   4  220.38   10.20
  19   0  -3   -3.20    3.70
 -19   0   3    1.20    3.90
  19   0  -2   13.20    4.30
 -19   0   2   17.20    4.40
 -19   0   1    4.10    4.00
  19   0  -1   -0.90    3.80
 -19   0   0   43.70    5.50
  19   0   0   34.60    5.40
 -19   0  -1   -0.60    4.20
  19   0   1   -6.00    3.70
  19   0   2    6.70    4.50
 -19   0  -2    4.90    4.50
  19   0   3   -0.40    4.40
 -19   0  -3   -4.60    4.30
  19   0   4   41.90    6.40
 -19   0  -4   42.20    5.90
 -19   0  -5    1.00    4.80
  19   0   5    1.30    4.80
 -19   1  12    3.30    4.20
  19   1 -12    5.70    4.80
  19  -1 -12    1.70    4.90
 -19  -1  12   13.70    4.70
 -19   1  11   -0.60    3.10
  19   1 -11   -2.30    4.30
 -19  -1  11    3.80    4.30
  19  -1 -11    2.60    4.70
  19   1 -10   -2.70    4.30
  19   1 -10   -0.30    4.20
 -19   1  10    0.20    3.20
  19  -1 -10    5.80    4.80
 -19  -1  10    0.20    4.20
 -19   1   9  120.99    7.00
  19   1  -9  123.09    9.60
  19   1  -9  113.49    9.10
  19  -1  -9  121.39    8.30
 -19  -1   9  109.99    8.70
  19  -1  -9  116.69    9.40
  19   1  -8    3.10    4.10
  19   1  -8    8.70    5.20
 -19   1   8    9.80    3.40
 -19  -1   8    0.90    4.20
  19  -1  -8    1.80    4.10
 -19   1   7    7.80    3.50
  19   1  -7   11.20    4.40
 -19  -1   7   -0.20    4.10
  19  -1  -7   11.20    4.40
 -19   1   6    4.00    3.30
  19   1  -6    4.60    4.10
  19  -1  -6   10.70    4.20
 -19  -1   6    5.40    4.10
  19   1  -5   17.00    4.40
 -19   1   5   16.90    3.80
 -19  -1   5   18.40    4.70
  19  -1  -5   18.60    4.80
  19   1  -4   46.50    5.70
 -19   1   4   58.49    5.10
 -19  -1   4   56.89    5.80
  19  -1  -4   58.39    6.30
  19   1  -3    5.80    3.80
 -19   1   3    2.20    3.60
  19  -1  -3    6.50    4.20
 -19  -1   3    3.40    4.10
 -19   1   2    3.90    3.80
  19   1  -2    3.00    3.80
  19  -1  -2    3.10    4.00
 -19  -1   2    5.40    4.20
 -19   1   1  247.78   10.30
  19   1  -1  232.68   11.20
 -19  -1   1  236.28   11.20
  19  -1  -1  215.98   11.20
 -19   1   0   44.40    5.10
  19   1   0   51.89    5.90
  19  -1   0   45.70    5.80
 -19  -1   0   50.19    5.90
  19   1   1    5.50    4.30
 -19   1  -1    5.30    4.10
 -19  -1  -1    2.70    4.50
  19  -1   1    6.00    4.30
 -19   1  -2   -0.30    3.90
  19   1   2    0.40    4.20
  19  -1   2    3.60    4.30
 -19  -1  -2    3.70    4.80
 -19   1  -3    2.90    4.20
  19   1   3   -0.10    4.40
 -19  -1  -3   -2.50    4.70
  19  -1   3   -0.60    4.40
 -19   1  -4   -1.50    4.40
  19   1   4    3.30    4.70
 -19  -1  -4    0.70    5.00
  19  -1   4    8.70    5.10
  19   1   5    5.10    5.00
 -19   1  -5   10.80    4.80
 -19  -1  -5    6.40    5.30
  19  -1   5   14.90    5.40
  19   2 -12   36.70    6.40
  19  -2 -12   58.09    7.30
 -19  -2  12   59.19    6.80
  19   2 -11   14.40    5.30
  19   2 -11   12.20    5.10
  19  -2 -11    9.80    5.30
 -19  -2  11   17.80    5.30
  19   2 -10    2.70    4.50
  19   2 -10    5.50    4.70
  19  -2 -10   -4.00    4.40
 -19  -2  10   -2.40    4.40
  19   2  -9  109.29    9.50
  19   2  -9   80.09    7.40
  19  -2  -9   91.09    7.80
 -19  -2   9  106.49    8.80
  19   2  -8  229.98   11.70
  19   2  -8  256.97   13.70
  19  -2  -8  258.57   12.20
 -19  -2   8  258.07   12.10
  19   2  -7   19.60    4.80
 -19  -2   7   26.90    5.30
  19  -2  -7   21.10    4.90
  19   2  -6   44.80    5.80
 -19   2   6   56.39    4.70
 -19  -2   6   54.69    6.10
  19  -2  -6   49.10    6.00
  19   2  -5    6.80    3.90
 -19   2   5    5.10    2.70
  19  -2  -5   -2.00    3.80
 -19  -2   5   13.00    4.70
  19   2  -4    3.10    4.00
 -19   2   4    4.60    3.00
  19  -2  -4    7.70    4.10
 -19  -2   4   14.80    4.70
  19   2  -3    2.70    3.80
 -19   2   3    0.00    3.00
 -19  -2   3   -5.60    4.10
  19  -2  -3   -3.70    3.70
  19   2  -2   63.59    6.40
 -19   2   2   57.89    4.50
 -19  -2   2   61.89    6.30
  19  -2  -2   59.49    6.30
 -19   2   1   33.90    4.00
  19   2  -1   39.00    5.20
 -19  -2   1   39.30    5.60
  19  -2  -1   34.10    5.30
 -19   2   0   48.80    4.50
  19   2   0   41.60    5.50
 -19  -2   0   51.19    6.20
  19  -2   0   43.50    5.50
  19   2   1    3.10    4.20
 -19   2  -1   -0.20    3.40
  19  -2   1   -1.20    4.00
 -19  -2  -1    1.50    4.60
 -19   2  -2   43.00    4.70
  19   2   2   58.39    6.40
  19  -2   2   38.80    5.90
 -19  -2  -2   43.00    6.20
 -19   2  -3   -2.30    3.60
  19   2   3    0.80    4.50
 -19  -2  -3    7.00    5.20
  19  -2   3   -2.90    4.00
 -19   2  -4    4.20    3.80
  19   2   4    2.40    4.60
  19  -2   4    1.60    4.60
 -19  -2  -4    8.30    5.40
 -19   2  -5    1.90    3.80
  19   2   5    2.10    4.90
 -19  -2  -5   -7.10    5.00
  19  -2   5    0.90    5.00
  19   3 -12   33.80    6.10
 -19  -3  12   40.00    6.70
  19  -3 -12   21.50    5.90
  19   3 -11   42.70    7.10
  19   3 -11   42.90    6.30
  19  -3 -11   35.90    6.30
 -19  -3  11   40.60    6.50
  19   3 -10   10.90    4.90
  19   3 -10   12.60    5.40
  19  -3 -10    5.50    4.80
 -19  -3  10    7.70    5.30
  19   3  -9   36.80    5.70
  19   3  -9   43.00    7.30
  19  -3  -9   35.40    5.90
 -19  -3   9   33.10    6.20
  19   3  -8    6.60    4.30
  19   3  -8   13.10    6.10
 -19  -3   8    0.80    4.70
  19  -3  -8   -0.40    4.20
  19   3  -7   23.00    6.70
  19   3  -7   12.30    4.50
  19  -3  -7    9.80    4.60
 -19  -3   7   19.20    5.30
  19   3  -6   20.00    4.80
  19  -3  -6   14.30    4.60
 -19  -3   6   20.90    5.20
  19   3  -5    5.60    4.00
  19  -3  -5   -3.90    3.70
 -19  -3   5    4.30    4.40
  19   3  -4    4.80    3.80
 -19  -3   4    2.80    4.60
  19  -3  -4   -2.90    3.90
  19   3  -3   -4.30    3.50
  19  -3  -3    0.20    3.80
 -19  -3   3    2.00    4.50
  19   3  -2   11.10    4.10
  19  -3  -2    9.50    4.40
 -19  -3   2   14.20    4.90
  19   3  -1  102.49    8.40
  19  -3  -1  101.09    8.60
 -19  -3   1  112.89    9.20
  19   3   0   26.70    5.10
 -19  -3   0   30.50    5.70
  19  -3   0   29.20    5.20
  19   3   1    0.20    4.20
  19  -3   1   -0.10    4.10
 -19  -3  -1    1.70    4.60
  19   3   2    2.30    4.20
  19  -3   2   -2.20    4.10
 -19  -3  -2   -7.10    4.70
  19   3   3   34.80    5.80
  19  -3   3   37.30    6.10
 -19  -3  -3   40.20    6.50
  19   3   4   13.00    4.90
  19  -3   4   21.60    5.30
 -19  -3  -4   22.00    6.00
  19   4 -11   -3.10    5.20
  19   4 -11   -2.00    4.50
 -19  -4  11   -5.80    5.00
  19  -4 -11   -0.40    4.80
  19   4 -10    3.10    4.20
  19   4 -10    2.30    5.40
  19  -4 -10    7.60    4.90
 -19  -4  10   16.00    5.70
  19   4  -9   12.40    6.20
  19   4  -9   16.10    4.90
 -19  -4   9   30.20    6.20
  19  -4  -9   25.00    5.50
  19   4  -8    2.50    5.80
  19   4  -8   -5.10    3.90
  19  -4  -8    1.50    4.20
 -19  -4   8    5.70    5.10
  19   4  -7   44.30    5.70
  19   4  -7   51.89    8.50
  19  -4  -7   47.70    6.20
 -19  -4   7   57.29    6.90
  19   4  -6    4.60    4.00
 -19  -4   6    2.60    4.70
  19  -4  -6    3.70    4.10
  19   4  -5    5.30    4.10
 -19  -4   5   12.40    5.00
  19  -4  -5    5.10    4.10
  19   4  -4    3.70    4.00
 -19  -4   4    3.10    4.70
  19  -4  -4    5.10    4.10
  19   4  -3   30.80    5.00
 -19  -4   3   43.50    6.20
  19  -4  -3   27.30    4.90
  19   4  -2    2.50    3.80
 -19  -4   2   -1.50    4.50
  19  -4  -2   -2.90    4.00
  19   4  -1   12.80    4.40
 -19  -4   1   12.90    5.00
  19  -4  -1   16.90    4.80
  19   4   0    3.10    4.00
 -19  -4   0   -4.30    4.60
  19  -4   0    1.10    4.20
  19   4   1   27.30    5.20
  19  -4   1   13.50    4.80
 -19  -4  -1   13.70    5.60
  19   4   2   14.30    4.60
  19  -4   2    6.30    4.50
 -19  -4  -2    7.20    5.20
  19   4   3    8.00    4.60
 -19  -4  -3    3.50    5.40
  19  -4   3    6.80    4.60
  19   4   4   14.30    4.70
  19  -4   4   14.20    5.10
 -19  -4  -4   11.40    5.80
  19   5 -11   -4.90    4.20
  19   5 -11    9.90    6.10
 -19  -5  11   11.60    5.90
  19  -5 -11    0.50    4.90
  19   5 -10   15.60    4.80
  19   5 -10   30.60    7.20
 -19  -5  10   25.10    6.20
  19  -5 -10   19.90    5.50
  19   5  -9   12.80    4.60
  19   5  -9   14.20    6.50
  19  -5  -9   11.30    5.20
 -19  -5   9   19.20    5.90
  19   5  -8   18.30    4.60
  19   5  -8   10.80    6.50
 -19  -5   8    6.60    5.60
  19  -5  -8   11.00    4.60
  19   5  -7   13.50    6.50
  19   5  -7    2.00    3.90
 -19  -5   7    7.80    5.40
  19  -5  -7   -3.90    3.80
  19   5  -6  145.89    9.10
  19   5  -6  158.38   13.00
 -19  -5   6  174.78   11.10
  19  -5  -6  150.58    9.50
  19   5  -5    6.10    3.90
  19  -5  -5   12.10    4.60
 -19  -5   5   14.70    5.30
  19   5  -4   -2.30    3.60
 -19  -5   4    2.90    4.90
  19  -5  -4    0.10    3.80
  19   5  -3    6.80    4.10
  19  -5  -3   11.80    4.50
 -19  -5   3   12.60    5.20
  19   5  -2   14.00    4.30
 -19  -5   2   16.00    5.40
  19  -5  -2   15.10    4.50
  19   5  -1  107.99    8.10
  19  -5  -1  113.39    8.60
 -19  -5   1  102.49    8.50
  19   5   0   13.90    4.40
 -19  -5   0    8.30    5.20
  19  -5   0   19.00    4.90
  19   5   1   -0.70    4.00
  19  -5   1    1.40    4.20
 -19  -5  -1    9.70    5.30
  19   5   2    6.60    4.20
  19  -5   2   -1.50    4.30
 -19  -5  -2    8.50    5.50
  19   5   3   11.80    4.30
  19  -5   3   12.80    5.00
 -19  -5  -3    5.70    5.70
  19   6 -10   36.80    5.30
  19   6 -10   49.70    8.60
 -19  -6  10   45.40    7.20
  19  -6 -10   47.60    6.60
  19   6  -9   38.80    8.30
  19   6  -9   44.70    5.40
  19  -6  -9   47.60    6.40
 -19  -6   9   54.39    7.50
  19   6  -8   -0.90    3.80
  19   6  -8   -3.20    5.90
  19  -6  -8   -1.10    4.20
 -19  -6   8   -2.70    5.30
  19   6  -7  259.67   11.40
  19   6  -7  297.57   16.60
 -19  -6   7  293.47   14.10
  19  -6  -7  259.87   12.40
  19   6  -6   29.30    8.10
  19   6  -6   15.20    4.10
 -19  -6   6   21.50    6.00
  19  -6  -6   22.60    4.70
  19   6  -5   14.60    7.60
  19   6  -5   20.80    4.30
 -19  -6   5   20.70    5.90
  19  -6  -5   10.10    4.40
  19   6  -4    1.00    3.60
  19  -6  -4   -3.80    3.70
 -19  -6   4    7.40    5.20
  19   6  -3   17.10    4.10
 -19  -6   3   17.50    5.60
  19  -6  -3   22.30    4.80
  19   6  -2   38.30    4.90
  19  -6  -2   35.90    5.50
 -19  -6   2   46.10    6.80
  19   6  -1   -0.20    3.50
  19  -6  -1   -3.40    3.90
 -19  -6   1    2.60    5.20
  19   6   0    1.50    3.60
 -19  -6   0    0.60    5.10
  19  -6   0    1.40    4.30
  19   6   1   -1.50    3.40
 -19  -6  -1    3.70    5.60
  19  -6   1   -0.90    4.10
  19   6   2   -4.70    3.20
 -19  -6  -2    0.80    5.40
  19  -6   2    4.60    4.40
  19  -6   3   -2.10    4.10
  19   7  -9   -0.30    6.40
  19   7  -9    1.00    3.50
  19  -7  -9   -1.80    4.40
 -19  -7   9    1.20    5.50
  19   7  -8    8.50    7.40
  19   7  -8   13.40    3.80
 -19  -7   8   10.80    6.00
  19  -7  -8   11.90    4.70
  19   7  -7   -2.40    3.10
  19   7  -7   -4.00    6.60
  19  -7  -7    3.20    4.40
 -19  -7   7    0.70    5.50
  19   7  -6   77.69    6.30
  19   7  -6   84.09   11.50
 -19  -7   6   84.39    8.30
  19  -7  -6   73.39    6.70
  19   7  -5   44.60    4.50
  19   7  -5   60.39   10.30
 -19  -7   5   59.19    7.40
  19  -7  -5   50.29    5.70
  19   7  -4   14.80    3.30
  19   7  -4   12.50    7.80
  19  -7  -4   17.70    4.60
 -19  -7   4   27.60    6.30
  19   7  -3   95.79    6.20
 -19  -7   3  109.49    9.00
  19  -7  -3  103.89    8.20
  19   7  -2    9.10    4.50
  19  -7  -2   12.40    4.50
 -19  -7   2   16.40    5.60
 -19  -7   1    3.00    5.20
  19  -7  -1    0.20    4.00
 -19  -7   0   15.60    5.90
  19  -7   0   12.80    4.70
  19  -7   1   32.80    5.70
 -19  -7  -1   26.30    6.30
  19   8  -7   23.70    8.10
 -19  -8   7   26.30    6.50
  19   8  -6    6.40    7.20
 -19  -8   6    5.70    5.80
  19   8  -5   21.00    8.80
 -19  -8   5   26.40    6.40
  19   8  -4   56.29   10.60
 -19  -8   4   40.40    7.00
  19   8  -3    9.10    8.30
 -19  -8   3   18.10    5.90
  19  -8  -2   17.60    4.90
 -19  -8   2   22.70    6.10
  19  -8  -1   33.70    5.60
 -19  -8   1   36.30    6.60
  20   0 -12   44.20    6.80
 -20   0  12   57.49    5.60
  20   0 -11   -1.90    4.40
 -20   0  11    2.00    4.00
 -20   0  10   22.80    4.60
  20   0 -10   28.80    6.00
  20   0  -9   -4.00    4.40
 -20   0   9    0.10    3.90
  20   0  -9   -3.10    4.30
  20   0  -8    2.60    4.50
 -20   0   8    5.40    4.00
  20   0  -7   -3.50    4.10
 -20   0   7   -2.00    3.80
 -20   0   6   19.90    4.30
  20   0  -6   18.40    4.80
 -20   0   5    0.80    4.00
  20   0  -5   -4.70    3.90
 -20   0   4   12.20    4.20
  20   0  -4    0.40    4.00
  20   0  -3   -1.50    3.90
 -20   0   3   -0.70    3.90
 -20   0   2   50.19    5.60
  20   0  -2   44.90    5.60
  20   0  -1   -1.00    3.90
 -20   0   1   -3.80    4.30
 -20   0   0  123.39    8.90
  20   0   0  119.19    9.20
  20   0   1    3.10    4.50
 -20   0  -1    4.00    4.60
  20   0   2   61.89    6.80
 -20   0  -2   81.79    6.90
 -20   0  -3   -2.00    4.50
  20   0   3   -0.30    4.70
 -20   0  -4   -1.40    4.70
  20   0   4    2.80    4.80
 -20   1  11  185.88    8.70
  20   1 -11  177.78   11.40
 -20  -1  11  195.48   10.60
  20  -1 -11  193.48   11.80
  20   1 -10    0.00    5.00
  20   1 -10   -3.10    4.40
 -20   1  10   -1.40    3.10
  20  -1 -10    1.90    4.80
 -20  -1  10    0.30    4.40
 -20   1   9   75.59    6.30
  20   1  -9   89.99    8.60
  20   1  -9   76.89    7.60
 -20  -1   9   87.89    7.30
  20  -1  -9   73.09    7.50
 -20   1   8   15.70    3.80
  20   1  -8   13.90    5.60
  20   1  -8   15.00    5.10
  20  -1  -8   16.70    5.20
 -20  -1   8   12.00    4.70
  20   1  -7    7.20    4.50
 -20   1   7    1.00    3.30
  20  -1  -7   -4.40    4.10
 -20  -1   7    6.00    4.40
  20   1  -6   70.59    6.90
 -20   1   6   70.39    5.30
 -20  -1   6   75.99    6.60
  20  -1  -6   67.49    6.90
  20   1  -5   68.69    6.80
 -20   1   5   68.19    5.40
 -20  -1   5   67.89    6.40
  20  -1  -5   68.39    7.10
 -20   1   4    2.60    3.60
  20   1  -4    3.20    4.20
  20  -1  -4   -0.50    4.10
 -20  -1   4   -0.90    4.10
  20   1  -3   40.50    5.40
 -20   1   3   48.20    5.10
  20  -1  -3   44.30    5.80
 -20  -1   3   50.19    6.00
  20   1  -2    5.80    4.10
 -20   1   2    6.70    4.00
 -20  -1   2   -1.10    4.30
  20  -1  -2    4.40    4.20
 -20   1   1  115.49    7.90
  20   1  -1  104.59    8.70
 -20  -1   1  120.49    9.00
  20  -1  -1  119.69    9.00
  20   1   0   14.30    4.60
 -20   1   0    4.90    4.10
  20  -1   0    5.00    4.10
 -20  -1   0    5.50    4.80
  20   1   1    3.70    4.50
 -20   1  -1    5.50    4.20
  20  -1   1    2.00    4.50
 -20  -1  -1   -0.60    4.70
  20   1   2    5.80    4.90
 -20   1  -2    8.40    4.30
 -20  -1  -2   11.00    5.20
  20  -1   2    0.90    4.40
 -20   1  -3   18.60    4.90
  20   1   3    5.70    5.10
  20  -1   3   14.00    5.10
 -20  -1  -3   17.30    5.50
 -20   1  -4   17.10    4.90
  20   1   4   17.50    5.50
  20  -1   4   18.00    5.70
 -20  -1  -4   26.90    6.00
  20   2 -11   24.90    6.00
 -20  -2  11   25.60    5.60
  20  -2 -11   24.20    6.10
  20   2 -10    1.20    4.60
  20   2 -10    9.60    5.30
  20  -2 -10    2.90    4.70
 -20  -2  10    8.10    5.00
  20   2  -9   -1.60    4.80
  20   2  -9    0.30    4.40
 -20  -2   9    1.40    4.80
  20  -2  -9   -0.40    4.50
  20   2  -8    7.00    4.70
  20   2  -8   20.00    6.30
 -20  -2   8   17.50    5.10
  20  -2  -8   16.40    5.10
  20   2  -7   20.60    5.00
 -20  -2   7   56.19    6.50
  20  -2  -7   24.30    5.50
  20   2  -6   85.79    7.20
  20  -2  -6  106.89    8.80
 -20  -2   6  108.99    9.10
  20   2  -5  156.98    9.90
 -20   2   5  161.58    6.80
 -20  -2   5  161.28   10.00
  20  -2  -5  170.78   10.20
  20   2  -4    1.70    4.00
 -20   2   4   -4.20    2.70
 -20  -2   4    3.60    4.60
  20  -2  -4    1.60    4.20
 -20   2   3   82.79    5.70
  20   2  -3   94.99    7.60
 -20  -2   3   87.89    7.50
  20  -2  -3   83.99    7.20
 -20   2   2   11.40    3.20
  20   2  -2    9.90    4.50
 -20  -2   2    2.40    4.60
  20  -2  -2    7.20    4.50
  20   2  -1   41.00    5.80
 -20   2   1   47.60    4.40
  20  -2  -1   50.69    6.20
 -20  -2   1   56.79    6.50
  20   2   0    6.70    4.30
 -20   2   0    2.20    3.40
  20  -2   0    2.70    4.20
 -20  -2   0   -1.50    4.90
  20   2   1   17.50    5.30
 -20   2  -1   13.00    3.80
  20  -2   1   11.30    4.70
 -20  -2  -1   12.10    5.30
 -20   2  -2   -1.30    3.50
  20   2   2   -4.70    4.30
 -20  -2  -2    2.70    5.10
  20  -2   2    2.30    4.50
  20   2   3   -0.80    4.50
 -20   2  -3   -6.10    3.60
 -20  -2  -3   -7.30    5.00
  20  -2   3   -2.20    4.50
  20   2   4    6.20    4.90
 -20   2  -4    3.20    3.80
  20  -2   4    6.00    5.20
 -20  -2  -4    7.80    5.50
  20   3 -11    8.60    5.00
  20   3 -11    3.70    5.40
  20  -3 -11    4.60    5.20
 -20  -3  11   19.10    6.00
  20   3 -10    7.80    4.70
  20   3 -10    4.70    5.20
 -20  -3  10    9.00    5.60
  20  -3 -10    0.90    5.00
  20   3  -9   28.50    5.50
  20   3  -9   26.90    6.70
 -20  -3   9   37.80    6.50
  20  -3  -9   33.20    6.20
  20   3  -8   17.30    6.70
  20   3  -8    7.40    4.50
 -20  -3   8   18.70    5.70
  20  -3  -8   18.30    5.20
  20   3  -7   42.80    5.70
  20   3  -7   49.30    8.10
  20  -3  -7   44.10    6.20
 -20  -3   7   59.19    6.90
  20   3  -6   -3.70    3.80
  20  -3  -6   -1.00    4.30
 -20  -3   6   -1.00    4.90
  20   3  -5   48.90    5.90
 -20  -3   5   51.59    6.50
  20  -3  -5   47.80    6.00
  20   3  -4   13.20    4.50
 -20  -3   4   13.80    5.10
  20  -3  -4   10.30    4.60
  20   3  -3   14.20    4.60
 -20  -3   3   10.00    5.00
  20  -3  -3    8.00    4.40
  20   3  -2   12.30    4.60
  20  -3  -2    8.50    4.70
 -20  -3   2    8.90    5.00
  20   3  -1   29.10    5.30
  20  -3  -1   31.80    5.50
 -20  -3   1   30.90    5.80
  20   3   0   20.60    5.10
  20  -3   0   12.20    4.60
 -20  -3   0   10.70    5.30
  20   3   1    9.80    4.80
 -20  -3  -1   15.60    5.60
  20  -3   1    9.40    4.70
  20   3   2   50.09    6.50
  20  -3   2   38.50    6.10
 -20  -3  -2   57.79    7.10
  20   3   3    4.40    4.80
  20  -3   3    2.50    4.60
 -20  -3  -3    0.10    5.50
  20   4 -10  102.89   10.30
  20   4 -10   82.89    7.60
 -20  -4  10   91.49    8.70
  20  -4 -10  105.49    8.80
  20   4  -9    7.20    6.10
  20   4  -9    1.40    4.30
 -20  -4   9    8.50    5.60
  20  -4  -9    1.90    4.70
  20   4  -8   -5.90    4.00
  20   4  -8   -3.80    5.90
  20  -4  -8    1.00    4.60
 -20  -4   8    3.50    5.20
  20   4  -7  180.98   13.30
  20   4  -7  171.98   10.30
  20  -4  -7  172.38   10.70
 -20  -4   7  199.28   11.50
  20   4  -6   -3.80    4.10
  20  -4  -6   -2.90    4.20
 -20  -4   6    5.00    5.00
  20   4  -5   40.40    5.60
  20  -4  -5   53.99    6.20
 -20  -4   5   57.09    6.90
  20   4  -4   31.10    5.20
 -20  -4   4   31.70    6.20
  20  -4  -4   32.50    5.50
  20   4  -3   -0.30    3.90
 -20  -4   3    3.60    5.00
  20  -4  -3    7.60    4.70
  20   4  -2   15.70    4.70
 -20  -4   2   17.60    5.60
  20  -4  -2   10.50    4.80
  20   4  -1   25.10    5.00
  20  -4  -1   24.10    5.30
 -20  -4   1   28.90    6.00
  20   4   0    6.10    4.30
  20  -4   0   -4.50    3.90
 -20  -4   0    1.70    5.10
  20   4   1    0.10    4.30
  20  -4   1   -1.20    4.30
 -20  -4  -1    1.30    5.30
  20   4   2   13.30    4.90
 -20  -4  -2    8.90    5.80
  20  -4   2    3.80    4.60
  20   4   3   63.89    6.70
 -20  -4  -3   65.79    7.60
  20  -4   3   67.29    7.50
  20   5 -10    1.60    6.00
  20   5 -10    3.60    4.50
  20  -5 -10    8.80    5.30
 -20  -5  10   -0.70    5.80
  20   5  -9   13.90    4.80
  20   5  -9    7.70    6.60
 -20  -5   9   10.80    6.10
  20  -5  -9    6.30    5.00
  20   5  -8   17.10    4.80
  20   5  -8   13.70    6.80
  20  -5  -8   11.40    5.00
 -20  -5   8   24.50    6.30
  20   5  -7   13.50    7.40
  20   5  -7   12.20    4.50
  20  -5  -7   19.50    5.20
 -20  -5   7   28.30    6.40
  20   5  -6   -2.70    6.00
  20   5  -6   -5.10    3.80
 -20  -5   6   -1.00    5.20
  20  -5  -6   -1.10    4.10
  20   5  -5    2.90    4.10
 -20  -5   5    4.60    5.40
  20  -5  -5   -3.30    4.10
  20   5  -4   37.30    5.20
  20  -5  -4   29.70    5.40
 -20  -5   4   32.50    6.20
  20   5  -3   36.50    5.30
 -20  -5   3   38.80    6.60
  20  -5  -3   41.30    5.90
  20   5  -2    2.00    4.00
 -20  -5   2    0.10    5.00
  20  -5  -2    3.00    4.50
  20   5  -1   51.19    5.60
 -20  -5   1   52.89    7.00
  20  -5  -1   40.70    5.90
  20   5   0    5.00    4.10
 -20  -5   0    3.30    5.30
  20  -5   0   -4.80    4.00
  20   5   1   -1.60    4.10
 -20  -5  -1   16.30    6.10
  20  -5   1    7.50    4.80
  20   5   2   20.40    4.90
 -20  -5  -2   24.30    6.50
  20  -5   2   16.70    5.40
  20   6  -9    4.30    6.60
  20   6  -9    4.00    4.20
  20   6  -8   33.20    8.40
  20   6  -8   39.60    5.40
 -20  -6   8   30.00    6.70
  20  -6  -8   29.40    5.80
  20   6  -7   11.50    4.30
  20   6  -7   11.00    6.90
  20  -6  -7   10.40    4.80
 -20  -6   7   21.70    6.50
  20   6  -6   46.20    5.50
  20   6  -6   60.89    9.50
  20  -6  -6   55.79    6.50
 -20  -6   6   57.99    7.60
  20   6  -5   63.99   10.00
  20   6  -5   58.39    5.80
 -20  -6   5   68.19    7.80
  20  -6  -5   67.79    6.70
  20   6  -4    3.30    4.00
  20  -6  -4   11.00    4.60
 -20  -6   4    7.50    5.70
  20   6  -3    3.00    3.70
  20  -6  -3    4.60    4.50
 -20  -6   3    0.80    5.20
  20   6  -2    6.50    4.00
  20  -6  -2    4.60    4.40
 -20  -6   2    6.00    5.50
  20   6  -1    8.50    4.00
 -20  -6   1    6.70    5.50
  20  -6  -1    5.70    4.40
  20   6   0   18.70    4.30
 -20  -6   0   20.70    6.10
  20  -6   0   29.80    5.50
  20   6   1   27.00    4.40
 -20  -6  -1   19.70    6.40
  20  -6   1   23.90    5.30
  20   7  -7   -1.60    6.80
  20   7  -7    1.10    3.40
 -20  -7   7   -0.20    5.70
  20  -7  -7   -8.10    3.90
  20   7  -6   26.10    8.90
  20   7  -6   16.50    3.90
  20  -7  -6   17.20    5.00
 -20  -7   6   27.00    6.70
  20   7  -5   -3.30    3.10
  20   7  -5    4.90    7.50
 -20  -7   5    2.70    5.80
  20  -7  -5    4.00    4.30
  20   7  -4    2.30    3.40
  20   7  -4   -4.00    6.50
  20  -7  -4    2.80    4.30
 -20  -7   4    0.10    5.40
  20   7  -3   34.90    5.80
 -20  -7   3   35.10    6.70
  20  -7  -3   30.20    5.50
 -20  -7   2   18.20    6.10
  20  -7  -2    3.30    4.30
 -20  -7   1   32.60    6.60
  20  -7  -1   22.80    5.20
  21   0 -11   -3.90    4.90
  21   0 -10    7.40    5.20
 -21   0  10   16.20    4.50
  21   0  -9   -3.70    7.10
 -21   0   9   -5.10    3.80
  21   0  -9   -3.10    4.60
  21   0  -8   45.30    6.70
 -21   0   8   30.50    4.90
 -21   0   7    2.10    4.00
  21   0  -7   -0.50    4.40
  21   0  -6   90.39    7.90
 -21   0   6  114.89    8.10
  21   0  -5   -2.80    4.10
 -21   0   5    2.20    4.00
 -21   0   4  318.27   12.50
  21   0  -4  301.17   13.70
  21   0  -3   -0.90    4.20
 -21   0   3    5.00    4.30
  21   0  -2   72.99    6.90
 -21   0   2   74.99    6.50
  21   0  -1    2.30    4.30
 -21   0   1   -2.60    4.50
  21   0   0    9.30    4.70
 -21   0   0   21.30    5.20
  21   0   1   -9.50    4.10
 -21   0  -1    5.50    4.80
 -21   0  -2   13.40    5.10
  21   0   2   10.90    5.20
  21   1 -10   -0.30    4.90
 -21   1  10    1.30    5.70
 -21  -1  10    4.00    4.60
  21  -1 -10    5.80    5.30
  21   1  -9   20.20    5.70
 -21   1   9   17.30    3.70
  21   1  -9   17.70    5.90
 -21  -1   9   21.20    5.30
  21  -1  -9   12.80    5.40
 -21   1   8   -0.80    3.40
  21   1  -8    6.00    5.30
  21   1  -8   -2.70    4.50
  21  -1  -8    3.20    4.70
 -21  -1   8    0.90    4.40
 -21   1   7   13.40    3.80
  21   1  -7    7.60    4.70
  21  -1  -7   13.70    5.10
 -21  -1   7   18.10    4.90
 -21   1   6   58.09    5.00
  21   1  -6   39.20    6.00
 -21  -1   6   50.79    6.10
  21  -1  -6   41.60    6.20
 -21   1   5    2.50    3.60
  21   1  -5    8.20    4.60
 -21  -1   5    5.40    4.50
  21  -1  -5   12.10    5.00
  21   1  -4   25.70    5.40
 -21   1   4   25.30    4.50
 -21  -1   4   28.50    5.40
  21  -1  -4   34.00    5.50
  21   1  -3   20.50    5.10
 -21   1   3   32.10    4.60
 -21  -1   3   27.40    5.30
  21  -1  -3   23.70    5.50
 -21   1   2   25.90    4.60
  21   1  -2   15.30    4.90
  21  -1  -2   26.80    5.50
 -21  -1   2   30.70    5.50
  21   1  -1    1.00    4.30
 -21   1   1    4.00    4.00
 -21  -1   1   -2.30    4.60
  21  -1  -1    1.30    4.40
  21   1   0   16.80    5.20
 -21   1   0   24.30    4.70
 -21  -1   0   25.30    5.50
  21  -1   0   22.50    5.30
 -21   1  -1    4.40    4.20
  21   1   1    2.10    4.70
  21  -1   1   -1.50    4.40
 -21  -1  -1   -2.00    5.20
 -21   1  -2   -1.60    4.20
  21   1   2    6.70    5.00
 -21  -1  -2   -0.80    5.00
  21  -1   2    6.80    4.90
  21   2 -10   36.00    7.10
  21   2 -10   43.50    6.70
 -21  -2  10   40.10    6.30
  21  -2 -10   41.60    6.80
  21   2  -9    3.30    4.90
  21   2  -9    4.30    5.60
  21  -2  -9    3.70    4.90
 -21  -2   9    2.50    4.90
  21   2  -8   -6.50    4.20
  21   2  -8    7.90    5.80
  21  -2  -8   -7.50    4.60
 -21  -2   8   11.30    5.20
  21   2  -7   38.70    6.20
 -21  -2   7   36.10    6.00
  21  -2  -7   30.90    5.80
  21   2  -6    1.50    4.50
  21  -2  -6   -4.60    4.20
 -21  -2   6    5.00    4.80
  21   2  -5    4.90    4.50
 -21  -2   5   -1.80    4.60
  21  -2  -5   -0.20    4.30
 -21   2   4    2.60    3.10
  21   2  -4    9.30    4.50
 -21  -2   4    4.40    4.90
  21  -2  -4   10.00    4.90
 -21   2   3   13.20    3.20
  21   2  -3   23.40    5.30
  21  -2  -3   21.30    5.30
 -21  -2   3   17.00    5.30
 -21   2   2   19.20    3.50
  21   2  -2   21.20    5.20
 -21  -2   2   24.20    5.70
  21  -2  -2   18.80    5.30
  21   2  -1   18.60    5.10
 -21   2   1   25.70    3.80
  21  -2  -1   27.80    5.70
 -21  -2   1   26.50    5.80
 -21   2   0    3.90    3.50
  21   2   0   -2.70    4.20
 -21  -2   0    4.30    5.10
  21  -2   0   -2.90    4.30
 -21   2  -1   -1.20    3.40
  21   2   1   -0.30    4.50
  21  -2   1    1.80    4.60
 -21  -2  -1    1.10    5.10
 -21   2  -2   10.60    3.90
  21   2   2   18.70    5.30
 -21  -2  -2   12.60    5.80
  21  -2   2    9.00    5.20
  21   3 -10    5.80    5.10
  21   3 -10   -3.00    5.60
 -21  -3  10    6.10    5.40
  21  -3 -10    4.30    5.20
  21   3  -9   19.30    6.80
  21   3  -9   11.80    5.20
 -21  -3   9   19.40    5.90
  21  -3  -9   10.80    5.30
  21   3  -8   30.20    5.90
  21   3  -8   50.19    8.30
 -21  -3   8   33.00    6.50
  21  -3  -8   31.60    6.10
  21   3  -7   -4.40    5.80
  21   3  -7   -5.10    4.10
  21  -3  -7   -5.00    4.50
 -21  -3   7   -2.00    5.10
  21   3  -6   41.70    6.10
 -21  -3   6   73.89    7.50
  21  -3  -6   62.59    7.00
  21   3  -5    2.90    4.50
  21  -3  -5    1.40    4.50
 -21  -3   5    7.50    5.40
  21   3  -4    5.70    4.80
 -21  -3   4    3.30    5.00
  21  -3  -4    1.80    4.60
  21   3  -3   37.30    5.80
  21  -3  -3   38.60    6.20
 -21  -3   3   36.30    6.30
  21   3  -2   19.10    5.00
  21  -3  -2   21.60    5.50
 -21  -3   2   26.00    5.80
  21   3  -1   45.80    6.20
  21  -3  -1   47.80    6.30
 -21  -3   1   60.59    7.10
  21   3   0   -1.40    4.60
  21  -3   0    3.80    4.50
 -21  -3   0    5.80    5.40
  21   3   1    3.60    4.70
 -21  -3  -1    2.90    5.40
  21  -3   1    1.60    4.90
  21   3   2   13.20    5.20
  21  -3   2   17.30    5.30
 -21  -3  -2   24.80    6.30
  21   4  -9   31.50    7.60
  21   4  -9   19.30    5.30
 -21  -4   9   21.70    6.40
  21  -4  -9   23.50    5.80
  21   4  -8   26.70    7.90
  21   4  -8   28.20    5.50
  21  -4  -8   24.70    5.80
 -21  -4   8   22.00    6.20
  21   4  -7   -1.80    4.20
  21   4  -7   -0.50    5.90
  21  -4  -7   -2.50    4.50
 -21  -4   7    6.60    5.50
  21   4  -6    6.30    4.60
  21  -4  -6   -0.10    4.60
 -21  -4   6    4.70    5.30
  21   4  -5    3.00    4.40
  21  -4  -5    0.00    4.60
 -21  -4   5    0.80    5.30
  21   4  -4   -4.20    4.20
  21  -4  -4   -1.90    4.50
 -21  -4   4   -2.00    5.20
  21   4  -3   -1.10    4.20
  21  -4  -3   -0.20    4.60
 -21  -4   3    2.00    5.10
  21   4  -2    4.70    4.60
  21  -4  -2    2.70    4.70
 -21  -4   2    3.40    5.30
  21   4  -1   20.50    5.10
 -21  -4   1   29.50    6.20
  21  -4  -1   23.00    5.50
  21   4   0    2.90    4.30
  21  -4   0    1.60    4.50
 -21  -4   0    7.40    5.70
  21   4   1    0.50    4.60
  21  -4   1   13.90    5.20
 -21  -4  -1   -0.50    5.50
  21   5  -8   23.60    7.20
  21   5  -8   18.90    5.00
 -21  -5   8   28.80    6.90
  21  -5  -8   22.40    5.60
  21   5  -7   16.20    7.70
  21   5  -7    7.60    4.60
  21  -5  -7    6.20    4.80
 -21  -5   7    7.50    5.70
  21   5  -6   15.90    7.60
  21   5  -6    5.60    4.40
 -21  -5   6    8.20    5.90
  21  -5  -6    3.80    4.80
  21   5  -5   -6.50    3.80
  21  -5  -5   -6.30    4.30
 -21  -5   5    3.50    5.60
  21   5  -4    1.60    4.40
 -21  -5   4    2.80    5.40
  21  -5  -4   -5.50    4.20
  21   5  -3   17.10    4.70
  21  -5  -3    7.10    4.80
 -21  -5   3   23.50    6.20
  21   5  -2   -1.70    4.10
 -21  -5   2    1.30    5.40
  21  -5  -2   -3.10    4.30
  21   5  -1    0.80    4.20
 -21  -5   1    6.60    5.50
  21  -5  -1    1.70    4.60
  21   5   0   39.00    5.70
  21  -5   0   36.80    6.10
 -21  -5   0   43.90    7.00
  21   6  -7    8.30    7.50
  21   6  -7    3.90    4.00
  21   6  -6    0.00    3.90
  21   6  -6   -0.60    7.00
 -21  -6   6   12.20    6.20
  21  -6  -6    5.70    4.80
  21   6  -5   41.80    9.30
  21   6  -5   37.00    5.30
  21  -6  -5   31.10    5.70
 -21  -6   5   34.80    6.80
  21   6  -4    1.30    3.90
  21  -6  -4   -5.90    4.10
 -21  -6   4    2.10    5.50
  21   6  -3   42.50    5.20
  21  -6  -3   38.00    6.10
 -21  -6   3   43.50    7.30
  21   6  -2   -2.00    3.80
  21  -6  -2   -1.50    4.50
 -21  -6   2    4.60    5.70
 -22   0   9   -1.10    3.90
  22   0  -9   -2.20    5.00
 -22   0   8   80.39    6.40
  22   0  -8   82.29    8.20
  22   0  -7   -3.00    4.70
 -22   0   7   -4.40    4.00
  22   0  -6   67.89    7.50
 -22   0   6   62.99    6.10
  22   0  -5    1.50    4.60
 -22   0   5    2.10    4.30
  22   0  -4    9.40    4.80
 -22   0   4   17.40    4.80
  22   0  -3   -2.20    4.40
 -22   0   3    1.10    4.40
 -22   0   2   62.89    6.40
  22   0  -2   39.00    6.30
  22   0  -1   -4.00    4.30
 -22   0   1    6.20    4.90
  22   0   0  140.49   10.40
 -22   0   0  151.88    9.80
 -22   0  -1   -3.50    4.80
  22   0   1   -2.10    4.80
  22   1  -9   10.40    6.00
  22   1  -9    2.60    4.90
 -22  -1   9   16.70    5.20
  22  -1  -9    3.00    5.30
  22   1  -8    8.10    5.30
 -22   1   8    4.10    3.60
  22  -1  -8    1.70    5.10
 -22  -1   8    0.00    4.60
 -22   1   7   78.79    6.70
  22   1  -7  105.79    8.90
  22  -1  -7   99.79    8.70
 -22  -1   7  103.29    8.70
  22   1  -6   50.99    6.80
 -22   1   6   44.30    4.80
  22  -1  -6   28.60    6.00
 -22  -1   6   42.50    5.80
 -22   1   5   29.80    4.60
  22   1  -5   35.50    6.00
  22  -1  -5   50.49    6.80
 -22  -1   5   36.90    5.70
  22   1  -4    1.40    4.50
 -22   1   4   -1.50    3.90
 -22  -1   4   -4.20    4.30
  22  -1  -4    3.60    4.80
  22   1  -3   54.39    6.70
 -22   1   3   63.79    5.60
 -22  -1   3   54.69    6.40
  22  -1  -3   46.90    6.50
  22   1  -2   89.39    8.10
 -22   1   2  121.59    7.90
 -22  -1   2  123.69    9.50
  22  -1  -2  118.89    9.70
  22   1  -1   14.80    5.10
 -22   1   1    9.10    4.30
  22  -1  -1    2.30    4.80
 -22  -1   1    5.00    5.20
 -22   1   0   32.40    4.90
  22   1   0   27.90    5.90
 -22  -1   0   26.00    5.90
  22  -1   0   34.90    6.40
  22   1   1   -4.40    4.70
 -22   1  -1   -5.80    4.10
 -22  -1  -1   -0.10    5.20
  22  -1   1   -1.40    4.80
  22   2  -9    1.60    4.90
  22   2  -9   -7.90    5.40
  22  -2  -9   -4.50    5.00
 -22  -2   9    4.90    5.20
  22   2  -8   -5.50    5.30
  22   2  -8   -1.30    4.70
 -22  -2   8   -2.80    4.70
  22  -2  -8    2.00    5.00
  22   2  -7   24.20    5.50
  22  -2  -7   19.60    5.60
 -22  -2   7   18.30    5.50
  22   2  -6    4.90    4.80
 -22  -2   6    5.00    4.90
  22  -2  -6   17.10    5.30
  22   2  -5   13.20    5.10
  22  -2  -5    8.80    5.10
 -22  -2   5   14.70    5.40
  22   2  -4   23.80    5.40
  22  -2  -4   36.10    6.50
 -22  -2   4   32.40    6.00
  22   2  -3   -1.80    4.60
 -22  -2   3   -2.70    5.10
  22  -2  -3    6.70    4.90
  22   2  -2    3.90    4.60
  22  -2  -2    8.80    5.00
 -22  -2   2   10.50    5.30
  22   2  -1   28.80    5.90
  22  -2  -1   20.30    5.50
 -22  -2   1   15.30    5.50
  22   2   0   31.00    6.00
 -22  -2   0   27.40    6.20
  22  -2   0   35.60    6.20
  22   3  -8   -5.00    4.60
  22   3  -8   -2.50    6.00
 -22  -3   8   -0.50    5.40
  22  -3  -8   -1.50    4.90
  22   3  -7  146.59   10.50
  22  -3  -7  146.69   10.80
 -22  -3   7  177.38   11.40
  22   3  -6   -1.30    4.50
 -22  -3   6    5.70    5.40
  22  -3  -6    5.50    5.00
  22   3  -5   14.10    4.90
 -22  -3   5   25.00    6.10
  22  -3  -5    7.00    5.20
  22   3  -4   42.20    6.30
  22  -3  -4   40.70    6.60
 -22  -3   4   36.50    6.40
  22   3  -3   -0.70    4.50
  22  -3  -3   -2.90    4.50
 -22  -3   3    9.40    5.50
  22   3  -2   -3.40    4.50
 -22  -3   2   -0.50    5.20
  22  -3  -2   -0.80    4.60
  22   3  -1    4.50    4.80
 -22  -3   1    3.10    5.40
  22  -3  -1    2.10    4.80
  22   3   0   13.20    5.40
 -22  -3   0   18.60    6.20
  22  -3   0   16.40    5.60
  22   4  -7   20.50    7.90
  22   4  -7    8.20    4.70
  22  -4  -7   10.50    5.30
 -22  -4   7    8.90    5.70
  22   4  -6   42.80    6.40
 -22  -4   6   44.80    7.10
  22  -4  -6   37.60    6.40
  22   4  -5    4.40    4.80
 -22  -4   5   12.00    6.10
  22  -4  -5    4.60    4.90
  22   4  -4   67.19    6.90
  22  -4  -4   53.99    7.20
 -22  -4   4   70.49    7.80
  22   4  -3   18.80    5.20
  22  -4  -3   25.80    5.70
 -22  -4   3   23.20    6.40
  22   4  -2    3.40    4.70
  22  -4  -2   -4.30    4.50
 -22  -4   2   10.00    6.00
  22   4  -1   55.39    6.80
 -22  -4   1   53.79    7.30
  22  -4  -1   55.59    7.00
  22   5  -5   16.20    5.00
  22  -5  -5   13.70    5.50
 -22  -5   5   11.50    6.00
  22   5  -4    3.40    4.30
 -22  -5   4   -2.90    5.50
  22  -5  -4    4.20    4.90
  22  -5  -3   -1.60    4.50
 -23   0   7   -0.10    4.10
  23   0  -7    0.60    5.10
  23   0  -6   -5.10    4.60
 -23   0   6    5.60    4.50
  23   0  -5    1.70    4.90
 -23   0   5    2.90    4.50
 -23   0   4   31.90    5.40
  23   0  -4   27.80    6.00
 -23   0   3   -3.10    4.50
  23   0  -3   -9.00    4.40
  23   0  -2   49.00    6.80
 -23   0   2   49.50    6.10
  23   1  -7   76.79    8.00
  23  -1  -7   84.19    8.40
 -23  -1   7   94.49    7.50
 -23   1   6   20.50    4.60
  23   1  -6   19.00    5.50
 -23  -1   6   29.40    5.70
  23  -1  -6   25.70    6.10
 -23   1   5  208.28    9.50
  23   1  -5  186.78   11.80
 -23  -1   5  227.08   11.20
  23  -1  -5  216.08   12.30
 -23   1   4    8.90    4.10
  23   1  -4    9.40    5.00
  23  -1  -4    8.80    5.10
 -23  -1   4    6.70    5.00
 -23   1   3   18.10    4.30
  23   1  -3   19.20    5.50
  23  -1  -3   26.90    6.00
 -23  -1   3   24.00    5.60
  23   1  -2    8.90    5.00
 -23   1   2    7.40    4.20
 -23  -1   2   10.60    5.30
  23  -1  -2    5.30    5.00
  23   2  -6   81.79    7.90
 -23  -2   6  124.49    9.90
  23  -2  -6   95.59    8.80
  23   2  -5   -0.70    4.60
 -23  -2   5    5.10    5.20
  23  -2  -5    0.20    4.80
  23   2  -4   10.90    5.20
  23  -2  -4   13.70    5.40
 -23  -2   4   16.40    5.80
  23   2  -3   66.69    7.30
  23  -2  -3   83.39    8.30
 -23  -2   3   70.89    7.60

_computing_structure_solution     'SHELXT 2014/4 (Sheldrick, 2014)'
;
_shelx_hkl_checksum              59668
loop_
_space_group_symop_operation_xyz
'x, y, z'
'-x, y+1/2, -z+1/2'
'-x, -y, -z'
'x, -y-1/2, z-1/2'
loop_
_atom_site_label
_atom_site_type_symbol
_atom_site_fract_x
_atom_site_fract_y
_atom_site_fract_z
_atom_site_U_iso_or_equiv
_atom_site_adp_type
_atom_site_occupancy
_atom_site_site_symmetry_order
_atom_site_calc_flag
_atom_site_refinement_flags_posn
_atom_site_refinement_flags_adp
P1 P 0.24948(4) 0.52310(7) 0.64946(6) 0.0179(2) Uani 1 1 d . .
Cl2 Cl 0.06414(5) 0.44416(9) 0.21110(7) 0.0427(3) Uani 1 1 d . .
Cl3 Cl 0.03161(6) 0.44093(10) 0.40568(8) 0.0514(3) Uani 1 1 d . .
F1 F 0.45276(10) 0.80528(18) 0.83194(13) 0.0316(5) Uani 1 1 d . .
F2 F 0.06616(10) 0.77333(18) 0.79499(13) 0.0328(5) Uani 1 1 d . .
F3 F 0.24902(11) 0.43285(18) 0.26959(14) 0.0387(5) Uani 1 1 d . .
F4 F 0.34085(11) 0.87166(17) 0.48817(14) 0.0337(5) Uani 1 1 d . .
F5 F 0.21340(11) 0.53330(19) 1.02319(15) 0.0393(6) Uani 1 1 d . .
F6 F 0.42489(11) 0.24771(18) 0.51173(13) 0.0367(5) Uani 1 1 d . .
O1 O 0.19035(11) 0.57739(19) 0.55078(15) 0.0228(5) Uani 1 1 d . .
H1 H 0.1572 0.6209 0.5671 0.027 Uiso 1 1 d R U
O2 O 0.31232(11) 0.47461(19) 0.74640(16) 0.0245(5) Uani 1 1 d . .
H2 H 0.3213 0.4022 0.7410 0.029 Uiso 1 1 d R U
N1 N 0.31736(13) 0.5568(2) 0.58444(18) 0.0174(6) Uani 1 1 d . .
N2 N 0.23424(13) 0.3934(2) 0.58536(19) 0.0208(6) Uani 1 1 d . .
N3 N 0.18126(13) 0.4748(2) 0.70526(19) 0.0204(6) Uani 1 1 d . .
N4 N 0.25635(12) 0.6494(2) 0.72040(17) 0.0173(6) Uani 1 1 d . .
C1 C 0.30033(15) 0.7343(3) 0.7151(2) 0.0175(7) Uani 1 1 d . .
C2 C 0.22067(15) 0.6778(3) 0.7929(2) 0.0197(7) Uani 1 1 d . .
C3 C 0.35662(15) 0.6502(3) 0.5969(2) 0.0163(6) Uani 1 1 d . .
C4 C 0.34835(15) 0.7367(3) 0.6572(2) 0.0178(7) Uani 1 1 d . .
C5 C 0.40536(16) 0.6436(3) 0.5369(2) 0.0182(7) Uani 1 1 d . .
H5 H 0.4391 0.6966 0.5324 0.022 Uiso 1 1 calc R U
C6 C 0.33657(16) 0.3440(3) 0.3944(2) 0.0199(7) Uani 1 1 d . .
C7 C 0.33939(16) 0.4930(3) 0.5146(2) 0.0176(7) Uani 1 1 d . .
C8 C 0.15396(15) 0.5130(3) 0.7809(2) 0.0208(7) Uani 1 1 d . .
C9 C 0.29034(16) 0.8173(3) 0.7817(2) 0.0197(7) Uani 1 1 d . .
H9 H 0.3131 0.8854 0.7909 0.024 Uiso 1 1 calc R U
C10 C 0.39281(16) 0.8342(3) 0.6606(2) 0.0195(7) Uani 1 1 d . .
C11 C 0.25834(16) 0.3457(3) 0.5104(2) 0.0213(7) Uani 1 1 d . .
C12 C 0.15374(16) 0.3751(3) 0.6772(2) 0.0218(7) Uani 1 1 d . .
C13 C 0.18286(16) 0.3280(3) 0.6044(2) 0.0228(7) Uani 1 1 d . .
C14 C 0.39478(16) 0.5481(3) 0.4876(2) 0.0189(7) Uani 1 1 d . .
H14 H 0.4201 0.5223 0.4425 0.023 Uiso 1 1 calc R U
C15 C 0.31091(16) 0.3949(3) 0.4766(2) 0.0200(7) Uani 1 1 d . .
C16 C 0.30616(17) 0.3678(3) 0.2924(2) 0.0255(8) Uani 1 1 d . .
C17 C 0.39344(17) 0.2742(3) 0.4135(2) 0.0233(7) Uani 1 1 d . .
C18 C 0.10665(16) 0.4336(3) 0.7978(2) 0.0242(8) Uani 1 1 d . .
H18 H 0.0794 0.4386 0.8451 0.029 Uiso 1 1 calc R U
C19 C 0.24283(16) 0.7820(3) 0.8293(2) 0.0205(7) Uani 1 1 d . .
H19 H 0.2271 0.8205 0.8787 0.025 Uiso 1 1 calc R U
C20 C 0.17291(16) 0.6136(3) 0.8234(2) 0.0201(7) Uani 1 1 d . .
C21 C 0.14137(16) 0.6512(3) 0.9048(2) 0.0212(7) Uani 1 1 d . .
C22 C 0.44305(17) 0.8678(3) 0.7480(2) 0.0240(8) Uani 1 1 d . .
C23 C 0.10687(16) 0.3487(3) 0.7347(2) 0.0253(8) Uani 1 1 d . .
H23 H 0.0804 0.2841 0.7304 0.030 Uiso 1 1 calc R U
C24 C 0.16230(17) 0.6090(3) 1.0029(2) 0.0269(8) Uani 1 1 d . .
C25 C 0.08842(17) 0.7282(3) 0.8889(2) 0.0237(7) Uani 1 1 d . .
C26 C 0.38826(18) 0.8993(3) 0.5765(3) 0.0266(8) Uani 1 1 d . .
C27 C 0.22062(17) 0.2477(3) 0.4835(2) 0.0262(8) Uani 1 1 d . .
H27 H 0.2263 0.1981 0.4337 0.031 Uiso 1 1 calc R U
C28 C 0.17450(18) 0.2374(3) 0.5420(2) 0.0273(8) Uani 1 1 d . .
H28 H 0.1428 0.1795 0.5403 0.033 Uiso 1 1 calc R U
C29 C 0.42087(18) 0.2322(3) 0.3402(2) 0.0292(8) Uani 1 1 d . .
H29 H 0.4602 0.1847 0.3574 0.035 Uiso 1 1 calc R U
C30 C 0.05651(18) 0.7615(3) 0.9615(2) 0.0287(8) Uani 1 1 d . .
H30 H 0.0199 0.8138 0.9464 0.034 Uiso 1 1 calc R U
C31 C 0.48495(18) 0.9579(3) 0.7536(3) 0.0341(9) Uani 1 1 d . .
H31 H 0.5182 0.9779 0.8155 0.041 Uiso 1 1 calc R U
C32 C 0.33204(19) 0.3296(3) 0.2158(2) 0.0315(9) Uani 1 1 d . .
H32 H 0.3109 0.3500 0.1473 0.038 Uiso 1 1 calc R U
C33 C 0.38952(19) 0.2608(3) 0.2402(3) 0.0299(8) Uani 1 1 d . .
H33 H 0.4076 0.2330 0.1879 0.036 Uiso 1 1 calc R U
C34 C 0.07969(19) 0.7160(3) 1.0575(2) 0.0329(9) Uani 1 1 d . .
H34 H 0.0587 0.7373 1.1091 0.040 Uiso 1 1 calc R U
C35 C 0.4289(2) 0.9896(3) 0.5769(3) 0.0334(9) Uani 1 1 d . .
H35 H 0.4236 1.0310 0.5170 0.040 Uiso 1 1 calc R U
C36 C 0.13302(19) 0.6400(3) 1.0789(2) 0.0331(9) Uani 1 1 d . .
H36 H 0.1492 0.6097 1.1449 0.040 Uiso 1 1 calc R U
C37 C 0.4772(2) 1.0183(3) 0.6664(3) 0.0407(10) Uani 1 1 d . .
H37 H 0.5056 1.0804 0.6685 0.049 Uiso 1 1 calc R U
C38 C 0.0984(2) 0.4511(4) 0.3439(3) 0.0485(11) Uani 1 1 d . .
H38A H 0.1329 0.3922 0.3672 0.058 Uiso 1 1 calc R U
H38B H 0.1237 0.5200 0.3624 0.058 Uiso 1 1 calc R U
loop_
_atom_site_aniso_label
_atom_site_aniso_U_11
_atom_site_aniso_U_22
_atom_site_aniso_U_33
_atom_site_aniso_U_23
_atom_site_aniso_U_13
_atom_site_aniso_U_12
P1 0.0202(4) 0.0148(5) 0.0205(4) -0.0012(3) 0.0085(3) -0.0006(3)
Cl2 0.0455(5) 0.0417(7) 0.0422(5) 0.0056(4) 0.0145(4) 0.0059(5)
Cl3 0.0539(6) 0.0615(8) 0.0406(6) 0.0123(5) 0.0159(5) -0.0049(6)
F1 0.0305(10) 0.0433(14) 0.0213(9) -0.0084(9) 0.0075(8) -0.0005(9)
F2 0.0406(11) 0.0414(14) 0.0186(9) 0.0066(9) 0.0120(8) 0.0190(10)
F3 0.0479(12) 0.0365(14) 0.0275(10) 0.0034(9) 0.0034(9) 0.0121(11)
F4 0.0458(12) 0.0297(13) 0.0246(10) 0.0052(9) 0.0080(9) -0.0009(10)
F5 0.0401(12) 0.0464(15) 0.0311(11) 0.0176(10) 0.0095(9) 0.0125(11)
F6 0.0449(12) 0.0428(15) 0.0199(10) -0.0037(9) 0.0050(8) 0.0180(10)
O1 0.0255(11) 0.0207(14) 0.0213(11) -0.0016(9) 0.0052(9) 0.0018(10)
O2 0.0277(12) 0.0141(13) 0.0305(12) 0.0031(10) 0.0059(10) 0.0028(10)
N1 0.0204(13) 0.0141(15) 0.0185(12) -0.0031(11) 0.0071(10) -0.0011(11)
N2 0.0229(13) 0.0195(16) 0.0225(13) -0.0026(11) 0.0105(11) -0.0012(12)
N3 0.0213(13) 0.0176(16) 0.0235(13) -0.0005(12) 0.0085(11) -0.0002(12)
N4 0.0199(12) 0.0165(16) 0.0163(12) 0.0006(11) 0.0064(10) 0.0023(11)
C1 0.0216(15) 0.0155(18) 0.0148(14) 0.0012(12) 0.0040(12) 0.0016(13)
C2 0.0214(15) 0.022(2) 0.0154(14) 0.0012(13) 0.0050(12) 0.0043(14)
C3 0.0214(15) 0.0128(17) 0.0148(14) 0.0011(12) 0.0052(11) 0.0003(13)
C4 0.0217(15) 0.0161(18) 0.0152(14) -0.0007(12) 0.0043(12) 0.0000(13)
C5 0.0231(15) 0.0153(18) 0.0169(14) 0.0009(13) 0.0069(12) -0.0022(13)
C6 0.0286(16) 0.0144(18) 0.0178(15) -0.0041(13) 0.0081(13) -0.0047(14)
C7 0.0221(15) 0.0154(19) 0.0148(14) 0.0004(12) 0.0043(12) 0.0029(13)
C8 0.0184(15) 0.025(2) 0.0194(15) 0.0043(14) 0.0049(12) 0.0072(14)
C9 0.0237(16) 0.0176(19) 0.0169(14) -0.0045(13) 0.0044(12) 0.0001(14)
C10 0.0223(15) 0.0164(18) 0.0236(16) -0.0066(13) 0.0125(12) -0.0022(13)
C11 0.0248(16) 0.0167(19) 0.0216(15) -0.0002(13) 0.0048(13) 0.0002(14)
C12 0.0210(15) 0.0165(19) 0.0272(16) 0.0006(14) 0.0054(13) -0.0004(14)
C13 0.0228(16) 0.0172(19) 0.0280(17) 0.0024(14) 0.0060(13) -0.0035(14)
C14 0.0224(15) 0.0187(19) 0.0167(14) -0.0005(13) 0.0073(12) 0.0023(13)
C15 0.0234(16) 0.0178(19) 0.0181(15) -0.0010(13) 0.0049(12) 0.0011(14)
C16 0.0307(18) 0.020(2) 0.0248(17) -0.0014(14) 0.0060(14) -0.0044(15)
C17 0.0281(17) 0.023(2) 0.0185(15) -0.0050(14) 0.0052(13) -0.0052(15)
C18 0.0193(15) 0.028(2) 0.0259(16) 0.0077(15) 0.0082(13) 0.0031(14)
C19 0.0256(16) 0.022(2) 0.0150(14) -0.0017(13) 0.0076(12) 0.0045(14)
C20 0.0206(15) 0.023(2) 0.0166(14) 0.0039(13) 0.0051(12) 0.0067(14)
C21 0.0223(15) 0.025(2) 0.0170(14) -0.0013(14) 0.0071(12) -0.0016(14)
C22 0.0270(17) 0.025(2) 0.0241(16) -0.0094(15) 0.0134(13) 0.0011(15)
C23 0.0212(16) 0.022(2) 0.0315(17) 0.0034(15) 0.0061(13) -0.0024(14)
C24 0.0248(17) 0.033(2) 0.0242(17) 0.0060(15) 0.0080(13) -0.0010(15)
C25 0.0280(16) 0.030(2) 0.0136(14) 0.0009(14) 0.0063(12) -0.0002(15)
C26 0.0339(18) 0.018(2) 0.0324(18) -0.0036(15) 0.0164(15) 0.0018(15)
C27 0.0310(17) 0.020(2) 0.0269(17) -0.0042(14) 0.0069(14) -0.0003(15)
C28 0.0297(17) 0.019(2) 0.0335(18) -0.0003(15) 0.0100(14) -0.0054(15)
C29 0.0301(18) 0.030(2) 0.0301(18) -0.0114(16) 0.0122(14) -0.0037(16)
C30 0.0282(17) 0.033(2) 0.0262(17) -0.0077(16) 0.0104(14) 0.0012(16)
C31 0.0288(18) 0.033(2) 0.044(2) -0.0286(18) 0.0168(16) -0.0090(17)
C32 0.046(2) 0.033(2) 0.0172(16) -0.0002(15) 0.0103(14) -0.0126(18)
C33 0.039(2) 0.031(2) 0.0269(17) -0.0139(16) 0.0213(15) -0.0161(17)
C34 0.039(2) 0.046(3) 0.0190(16) -0.0088(16) 0.0163(15) -0.0074(18)
C35 0.046(2) 0.016(2) 0.048(2) -0.0026(17) 0.0283(18) -0.0021(17)
C36 0.039(2) 0.043(3) 0.0147(15) 0.0035(16) 0.0045(14) -0.0097(18)
C37 0.048(2) 0.017(2) 0.070(3) -0.015(2) 0.036(2) -0.0105(18)
C38 0.043(2) 0.056(3) 0.045(2) -0.002(2) 0.0076(19) -0.005(2)
loop_
_atom_type_symbol
_atom_type_description
_atom_type_scat_dispersion_real
_atom_type_scat_dispersion_imag
_atom_type_scat_source
C C 0.0033 0.0016 'International Tables Vol C Tables 4.2.6.8 and 6.1.1.4'
H H 0.0000 0.0000 'International Tables Vol C Tables 4.2.6.8 and 6.1.1.4'
N N 0.0061 0.0033 'International Tables Vol C Tables 4.2.6.8 and 6.1.1.4'
P P 0.1023 0.0942 'International Tables Vol C Tables 4.2.6.8 and 6.1.1.4'
Cl Cl 0.1484 0.1585 'International Tables Vol C Tables 4.2.6.8 and 6.1.1.4'
F F 0.0171 0.0103 'International Tables Vol C Tables 4.2.6.8 and 6.1.1.4'
O O 0.0106 0.0060 'International Tables Vol C Tables 4.2.6.8 and 6.1.1.4'
loop_
_geom_angle_atom_site_label_1
_geom_angle_atom_site_label_2
_geom_angle_atom_site_label_3
_geom_angle
O2 P1 O1 176.22(12)
O2 P1 N3 90.88(12)
O1 P1 N3 92.60(11)
O2 P1 N2 92.88(12)
O1 P1 N2 89.06(12)
N3 P1 N2 82.40(12)
O2 P1 N4 87.60(12)
O1 P1 N4 90.86(12)
N3 P1 N4 90.88(12)
N2 P1 N4 173.26(12)
O2 P1 N1 89.50(11)
O1 P1 N1 87.22(11)
N3 P1 N1 173.13(13)
N2 P1 N1 90.74(11)
N4 P1 N1 95.99(12)
P1 O1 H1 115.1
P1 O2 H2 114.0
C3 N1 C7 107.1(2)
C3 N1 P1 125.9(2)
C7 N1 P1 127.1(2)
C13 N2 C11 108.0(3)
C13 N2 P1 117.6(2)
C11 N2 P1 134.1(2)
C12 N3 C8 108.6(3)
C12 N3 P1 117.5(2)
C8 N3 P1 133.5(2)
C1 N4 C2 106.6(3)
C1 N4 P1 125.72(19)
C2 N4 P1 127.6(2)
N4 C1 C4 125.5(3)
N4 C1 C9 108.7(2)
C4 C1 C9 125.8(3)
C20 C2 N4 125.4(3)
C20 C2 C19 126.3(3)
N4 C2 C19 108.3(3)
N1 C3 C4 124.8(3)
N1 C3 C5 108.8(3)
C4 C3 C5 126.4(3)
C1 C4 C3 122.0(3)
C1 C4 C10 119.0(3)
C3 C4 C10 119.0(3)
C14 C5 C3 107.6(3)
C14 C5 H5 126.2
C3 C5 H5 126.2
C17 C6 C16 115.1(3)
C17 C6 C15 123.1(3)
C16 C6 C15 121.7(3)
C15 C7 N1 126.0(3)
C15 C7 C14 126.0(3)
N1 C7 C14 108.0(3)
N3 C8 C20 120.8(3)
N3 C8 C18 107.0(3)
C20 C8 C18 132.2(3)
C19 C9 C1 108.0(3)
C19 C9 H9 126.0
C1 C9 H9 126.0
C22 C10 C26 114.0(3)
C22 C10 C4 122.9(3)
C26 C10 C4 123.1(3)
N2 C11 C15 120.0(3)
N2 C11 C27 107.5(3)
C15 C11 C27 132.5(3)
N3 C12 C13 111.8(3)
N3 C12 C23 108.9(3)
C13 C12 C23 139.2(3)
N2 C13 C28 109.2(3)
N2 C13 C12 110.6(3)
C28 C13 C12 140.2(3)
C5 C14 C7 108.4(3)
C5 C14 H14 125.8
C7 C14 H14 125.8
C7 C15 C11 121.7(3)
C7 C15 C6 118.1(3)
C11 C15 C6 120.1(3)
F3 C16 C32 119.5(3)
F3 C16 C6 117.3(3)
C32 C16 C6 123.2(3)
F6 C17 C29 118.1(3)
F6 C17 C6 117.6(3)
C29 C17 C6 124.3(3)
C23 C18 C8 108.5(3)
C23 C18 H18 125.7
C8 C18 H18 125.7
C9 C19 C2 108.3(3)
C9 C19 H19 125.8
C2 C19 H19 125.8
C2 C20 C8 121.4(3)
C2 C20 C21 120.1(3)
C8 C20 C21 118.6(3)
C25 C21 C24 114.9(3)
C25 C21 C20 123.2(3)
C24 C21 C20 121.9(3)
F1 C22 C31 118.5(3)
F1 C22 C10 117.2(3)
C31 C22 C10 124.3(3)
C18 C23 C12 106.9(3)
C18 C23 H23 126.5
C12 C23 H23 126.5
F5 C24 C36 119.0(3)
F5 C24 C21 117.7(3)
C36 C24 C21 123.3(3)
F2 C25 C30 117.8(3)
F2 C25 C21 117.7(3)
C30 C25 C21 124.4(3)
F4 C26 C35 117.8(3)
F4 C26 C10 117.6(3)
C35 C26 C10 124.5(3)
C28 C27 C11 108.1(3)
C28 C27 H27 126.0
C11 C27 H27 126.0
C27 C28 C13 107.3(3)
C27 C28 H28 126.3
C13 C28 H28 126.3
C17 C29 C33 118.0(3)
C17 C29 H29 121.0
C33 C29 H29 121.0
C25 C30 C34 117.7(3)
C25 C30 H30 121.1
C34 C30 H30 121.1
C22 C31 C37 118.1(3)
C22 C31 H31 120.9
C37 C31 H31 120.9
C16 C32 C33 118.7(3)
C16 C32 H32 120.6
C33 C32 H32 120.6
C32 C33 C29 120.6(3)
C32 C33 H33 119.7
C29 C33 H33 119.7
C36 C34 C30 120.7(3)
C36 C34 H34 119.6
C30 C34 H34 119.6
C37 C35 C26 118.2(4)
C37 C35 H35 120.9
C26 C35 H35 120.9
C24 C36 C34 118.9(3)
C24 C36 H36 120.5
C34 C36 H36 120.5
C35 C37 C31 120.9(4)
C35 C37 H37 119.6
C31 C37 H37 119.6
Cl3 C38 Cl2 111.9(2)
Cl3 C38 H38A 109.2
Cl2 C38 H38A 109.2
Cl3 C38 H38B 109.2
Cl2 C38 H38B 109.2
H38A C38 H38B 107.9
loop_
_geom_bond_atom_site_label_1
_geom_bond_atom_site_label_2
_geom_bond_distance
P1 O2 1.658(2)
P1 O1 1.664(2)
P1 N3 1.821(3)
P1 N2 1.823(3)
P1 N4 1.834(3)
P1 N1 1.847(3)
Cl2 C38 1.759(4)
Cl3 C38 1.754(4)
F1 C22 1.359(4)
F2 C25 1.361(4)
F3 C16 1.350(4)
F4 C26 1.352(4)
F5 C24 1.349(4)
F6 C17 1.357(4)
O1 H1 0.9220
O2 H2 0.9256
N1 C3 1.380(4)
N1 C7 1.401(4)
N2 C13 1.378(4)
N2 C11 1.379(4)
N3 C12 1.365(4)
N3 C8 1.377(4)
N4 C1 1.381(4)
N4 C2 1.411(4)
C1 C4 1.392(4)
C1 C9 1.428(4)
C2 C20 1.384(4)
C2 C19 1.415(5)
C3 C4 1.395(4)
C3 C5 1.428(4)
C4 C10 1.489(5)
C5 C14 1.355(4)
C5 H5 0.9500
C6 C17 1.383(5)
C6 C16 1.392(4)
C6 C15 1.497(4)
C7 C15 1.384(5)
C7 C14 1.421(4)
C8 C20 1.388(5)
C8 C18 1.420(5)
C9 C19 1.353(4)
C9 H9 0.9500
C10 C22 1.390(4)
C10 C26 1.391(5)
C11 C15 1.387(4)
C11 C27 1.423(5)
C12 C13 1.408(5)
C12 C23 1.408(4)
C13 C28 1.397(5)
C14 H14 0.9500
C16 C32 1.372(5)
C17 C29 1.370(5)
C18 C23 1.367(5)
C18 H18 0.9500
C19 H19 0.9500
C20 C21 1.495(4)
C21 C25 1.387(5)
C21 C24 1.396(4)
C22 C31 1.382(5)
C23 H23 0.9500
C24 C36 1.377(5)
C25 C30 1.380(4)
C26 C35 1.378(5)
C27 C28 1.373(5)
C27 H27 0.9500
C28 H28 0.9500
C29 C33 1.384(5)
C29 H29 0.9500
C30 C34 1.388(5)
C30 H30 0.9500
C31 C37 1.383(6)
C31 H31 0.9500
C32 C33 1.383(5)
C32 H32 0.9500
C33 H33 0.9500
C34 C36 1.382(5)
C34 H34 0.9500
C35 C37 1.375(6)
C35 H35 0.9500
C36 H36 0.9500
C37 H37 0.9500
C38 H38A 0.9900
C38 H38B 0.9900
