#------------------------------------------------------------------------------
#$Date: 2019-11-23 16:20:33 +0200 (Sat, 23 Nov 2019) $
#$Revision: 233982 $
#$URL: file:///home/coder/svn-repositories/cod/cif/4/34/94/4349427.cif $
#------------------------------------------------------------------------------
#
# This file is available in the Crystallography Open Database (COD),
# http://www.crystallography.net/
#
# All data on this site have been placed in the public domain by the
# contributors.
#
data_4349427
loop_
_publ_author_name
'Alemayehu, Abraham B.'
'Vazquez-Lima, Hugo'
'Gagnon, Kevin J.'
'Ghosh, Abhik'
_publ_section_title
;
 Stepwise Deoxygenation of Nitrite as a Route to Two Families of Ruthenium
 Corroles: Group 8 Periodic Trends and Relativistic Effects.
;
_journal_issue                   9
_journal_name_full               'Inorganic chemistry'
_journal_page_first              5285
_journal_page_last               5294
_journal_paper_doi               10.1021/acs.inorgchem.7b00377
_journal_volume                  56
_journal_year                    2017
_chemical_formula_sum            'C40 H20 F9 N5 Ru'
_chemical_formula_weight         842.68
_space_group_crystal_system      monoclinic
_space_group_IT_number           14
_space_group_name_Hall           '-P 2ybc'
_space_group_name_H-M_alt        'P 1 21/c 1'
_atom_sites_solution_hydrogens   geom
_audit_creation_method           SHELXL-2014/7
_cell_angle_alpha                90
_cell_angle_beta                 93.640(9)
_cell_angle_gamma                90
_cell_formula_units_Z            4
_cell_length_a                   16.390(12)
_cell_length_b                   14.048(11)
_cell_length_c                   14.056(11)
_cell_measurement_reflns_used    3543
_cell_measurement_temperature    100(2)
_cell_measurement_theta_max      21.112
_cell_measurement_theta_min      2.564
_cell_volume                     3230(4)
_computing_cell_refinement       'SAINT V8.34A Bruker-AXS, Madison WI'
_computing_data_collection       'Bruker APEX2 Bruker-AXS, Madison WI'
_computing_data_reduction        'SAINT V8.34A Bruker-AXS, Madison WI'
_computing_molecular_graphics
;
Bruker SHELXTL Bruker-AXS, Madison WI
O. V. Dolomanov, L. J. Bourhis, R. J. Gildea, J. A. K. Howard and H. Puschmann,
OLEX2: a complete structure solution, refinement and analysis program.
J. Appl. Cryst. (2009). 42, 339-341.
and local programs
;
_computing_publication_material  'Bruker SHELXTL Bruker-AXS, Madison WI'
_computing_structure_refinement  'SHELXL-2014/7 (Sheldrick, 2013)'
_computing_structure_solution    'SHELXT 2014/4 Bruker-AXS, Madison WI'
_diffrn_ambient_temperature      100(2)
_diffrn_detector_area_resol_mean 10.42
_diffrn_measured_fraction_theta_full 0.988
_diffrn_measured_fraction_theta_max 0.988
_diffrn_measurement_device_type  'Bruker D8 with PHOTON 100 detector'
_diffrn_measurement_method       '\f and \w shutterless scans'
_diffrn_radiation_monochromator  'silicon 111'
_diffrn_radiation_type           synchrotron
_diffrn_radiation_wavelength     0.7749
_diffrn_reflns_av_R_equivalents  0.0949
_diffrn_reflns_av_unetI/netI     0.0721
_diffrn_reflns_Laue_measured_fraction_full 0.988
_diffrn_reflns_Laue_measured_fraction_max 0.988
_diffrn_reflns_limit_h_max       15
_diffrn_reflns_limit_h_min       -15
_diffrn_reflns_limit_k_max       13
_diffrn_reflns_limit_k_min       -13
_diffrn_reflns_limit_l_max       13
_diffrn_reflns_limit_l_min       -13
_diffrn_reflns_number            13834
_diffrn_reflns_point_group_measured_fraction_full 0.988
_diffrn_reflns_point_group_measured_fraction_max 0.988
_diffrn_reflns_theta_full        21.225
_diffrn_reflns_theta_max         21.225
_diffrn_reflns_theta_min         2.237
_diffrn_source
;
Advanced Light Source, station 11.3.1
;
_exptl_absorpt_coefficient_mu    0.718
_exptl_absorpt_correction_T_max  0.993
_exptl_absorpt_correction_T_min  0.655
_exptl_absorpt_correction_type   multi-scan
_exptl_absorpt_process_details   'SADABS-2014/5 - Bruker AXS, Madison WI'
_exptl_crystal_colour            purple
_exptl_crystal_density_diffrn    1.733
_exptl_crystal_description       shard
_exptl_crystal_F_000             1680
_exptl_crystal_size_max          0.150
_exptl_crystal_size_mid          0.050
_exptl_crystal_size_min          0.010
_refine_diff_density_max         2.037
_refine_diff_density_min         -0.703
_refine_diff_density_rms         0.122
_refine_ls_extinction_method     none
_refine_ls_goodness_of_fit_ref   1.086
_refine_ls_hydrogen_treatment    constr
_refine_ls_matrix_type           full
_refine_ls_number_parameters     496
_refine_ls_number_reflns         2734
_refine_ls_number_restraints     92
_refine_ls_restrained_S_all      1.088
_refine_ls_R_factor_all          0.1090
_refine_ls_R_factor_gt           0.0739
_refine_ls_shift/su_max          0.000
_refine_ls_shift/su_mean         0.000
_refine_ls_structure_factor_coef Fsqd
_refine_ls_weighting_details
'w=1/[\s^2^(Fo^2^)+74.2290P] where P=(Fo^2^+2Fc^2^)/3'
_refine_ls_weighting_scheme      calc
_refine_ls_wR_factor_gt          0.1556
_refine_ls_wR_factor_ref         0.1775
_reflns_Friedel_coverage         0.000
_reflns_number_gt                1973
_reflns_number_total             2734
_reflns_threshold_expression     'I > 2\s(I)'
_cod_data_source_file            ic7b00377_si_002.cif
_cod_data_source_block           RuNCF3
_cod_original_sg_symbol_H-M      'P 21/c'
_cod_database_code               4349427
_shelx_shelxl_version_number     2014/7
_shelx_space_group_comment
;
The symmetry employed for this shelxl refinement is uniquely defined
by the following loop, which should always be used as a source of
symmetry information in preference to the above space-group names.
They are only intended as comments.
;
_shelx_estimated_absorpt_t_min   0.900
_shelx_estimated_absorpt_t_max   0.993
_shelx_res_file
;

    RuNCF3.res created by SHELXL-2014/7

TITL RuNCF3 in P2(1)/c

CELL  0.7749  16.3905  14.0477  14.0561   90.000   93.640   90.000
ZERR    4.000   0.0124   0.0105   0.0106    0.000    0.009    0.000
LATT  1
SYMM -X, 1/2+Y, 1/2-Z
SFAC C H N F RU
DISP    Ru   -1.00178    0.98253      4539.94
DISP    F     0.02109    0.01246        64.36
DISP    N     0.00762    0.00403        23.92
DISP    C     0.00399    0.00197        13.60
DISP    H     0.00000    0.00000         0.67
UNIT 160 80 20 36 4
TEMP -173.150
L.S. 24 0    3
BOND $H
CONF
ACTA
SADI 0.01 C5 C20 C10 C26 C15 C32
SADI 0.01 C20 C21 C20 C25 C26 C27 C26 C31 C32 C33 C32 C37
SADI 0.02 C21 C25 C27 C31 C33 C37
SADI 0.02 C21 C5 C25 C5 C27 C10 C31 C10 C33 C15 C37 C15
ISOR 0.01 C32
SADI 0.01 Ru1 N1 Ru1 N3
SADI 0.01 N1 C1 N1 C4 N3 C11 N3 C14 N2 C9 N2 C6 N4 C16 N4 C19
SADI 0.02 C1 C4 C11 C14 C6 C9 C11 C14
SADI 0.02 C1 Ru1 C4 Ru1 C11 Ru1 C14 Ru1
ISOR 0.001 N1 N3
SIZE 0.15 0.05 0.01
FMAP 2
PLAN 20
ABIN
WGHT    0.000000   74.228996
FVAR       0.22043
RU1   5    0.585525    0.670288    0.600387    11.00000    0.06591    0.02231 =
         0.02042    0.00161    0.00468   -0.00202
N1    3    0.474383    0.650372    0.553691    11.00000    0.03468    0.03362 =
         0.03443    0.00123    0.00274    0.00078
N2    3    0.596027    0.753468    0.487109    11.00000    0.03472    0.02421 =
         0.02501   -0.01207    0.01634   -0.00798
N3    3    0.696881    0.628794    0.596069    11.00000    0.03810    0.03801 =
         0.03695    0.00128    0.00191   -0.00146
N4    3    0.562030    0.541156    0.645100    11.00000    0.04863    0.02287 =
         0.03124   -0.00773    0.00181   -0.00640
N5    3    0.582039    0.742550    0.689396    11.00000    0.05842    0.02396 =
         0.01800   -0.00270    0.01337    0.01005
C1    1    0.429135    0.572407    0.581421    11.00000    0.04700    0.02443 =
         0.02599   -0.00771    0.01137   -0.00743
C2    1    0.349401    0.583187    0.548884    11.00000    0.03993    0.03374 =
         0.02687    0.00028    0.00901    0.00075
AFIX  43
H2A   2    0.305969    0.540925    0.560811    11.00000   -1.20000
AFIX   0
C3    1    0.342490    0.665305    0.496055    11.00000    0.05140    0.02167 =
         0.02644   -0.00339   -0.00556    0.01580
AFIX  43
H3A   2    0.293626    0.690985    0.466443    11.00000   -1.20000
AFIX   0
C4    1    0.422818    0.704933    0.494012    11.00000    0.03467    0.04730 =
         0.02620   -0.00531    0.01728   -0.00823
C5    1    0.450629    0.785636    0.445446    11.00000    0.03122    0.03550 =
         0.01445   -0.00475    0.01268   -0.00698
C6    1    0.532454    0.802417    0.440537    11.00000    0.05194    0.01568 =
         0.02129   -0.00131   -0.00134    0.00595
C7    1    0.570164    0.865587    0.377210    11.00000    0.04740    0.02934 =
         0.01344   -0.00330    0.00086   -0.00019
AFIX  43
H7A   2    0.541561    0.908592    0.334935    11.00000   -1.20000
AFIX   0
C8    1    0.651056    0.855866    0.385619    11.00000    0.04103    0.02636 =
         0.02338    0.00371    0.00117   -0.01118
AFIX  43
H8A   2    0.689417    0.889181    0.350165    11.00000   -1.20000
AFIX   0
C9    1    0.669691    0.785897    0.457993    11.00000    0.03573    0.03208 =
         0.03054   -0.01411   -0.00523    0.00661
C10   1    0.747448    0.752856    0.488205    11.00000    0.06725    0.02959 =
         0.00484   -0.00280    0.00582    0.00458
C11   1    0.759930    0.677404    0.555817    11.00000    0.02368    0.03547 =
         0.04234   -0.01599   -0.01040   -0.00159
C12   1    0.836224    0.644541    0.594855    11.00000    0.04908    0.04547 =
         0.03926   -0.00713   -0.00181   -0.01275
AFIX  43
H12A  2    0.888402    0.669462    0.582576    11.00000   -1.20000
AFIX   0
C13   1    0.820761    0.569616    0.654037    11.00000    0.06477    0.02763 =
         0.02341    0.00276    0.00020    0.00227
AFIX  43
H13A  2    0.860493    0.532726    0.689702    11.00000   -1.20000
AFIX   0
C14   1    0.734991    0.557383    0.652223    11.00000    0.04915    0.01859 =
         0.02215   -0.01250    0.01037   -0.00955
C15   1    0.695419    0.486313    0.704027    11.00000    0.04699    0.01703 =
         0.01643   -0.00435    0.01393    0.00871
C16   1    0.610827    0.477084    0.696685    11.00000    0.04758    0.02429 =
         0.01305   -0.00803    0.01115    0.00571
C17   1    0.555970    0.405773    0.724876    11.00000    0.05689    0.01871 =
         0.02231    0.00362    0.00244    0.00556
AFIX  43
H17A  2    0.571493    0.352047    0.762884    11.00000   -1.20000
AFIX   0
C18   1    0.477555    0.424667    0.689990    11.00000    0.04708    0.00873 =
         0.03559    0.00716    0.01092   -0.00404
AFIX  43
H18A  2    0.430083    0.387578    0.698393    11.00000   -1.20000
AFIX   0
C19   1    0.482249    0.509884    0.639546    11.00000    0.05417    0.02606 =
         0.00880   -0.00923    0.00514   -0.00566
C20   1    0.392995    0.853894    0.398036    11.00000    0.04259    0.04274 =
         0.02344    0.00589    0.00013    0.00995
C21   1    0.334351    0.825877    0.327425    11.00000    0.06939    0.01414 =
         0.02104    0.00647    0.00671   -0.00906
AFIX  43
H21A  2    0.329306    0.760601    0.310390    11.00000   -1.20000
AFIX   0
C22   1    0.284206    0.891576    0.282681    11.00000    0.06578    0.03550 =
         0.01213    0.00521   -0.00602   -0.01481
AFIX  43
H22A  2    0.245332    0.870894    0.234042    11.00000   -1.20000
AFIX   0
C23   1    0.287920    0.987586    0.305647    11.00000    0.04009    0.02859 =
         0.02854   -0.00146    0.00606   -0.00442
C24   1    0.343920    1.014738    0.377601    11.00000    0.05836    0.03895 =
         0.03061    0.00503    0.00201   -0.00350
AFIX  43
H24A  2    0.347059    1.079723    0.396180    11.00000   -1.20000
AFIX   0
C25   1    0.394938    0.950238    0.422700    11.00000    0.07061    0.03421 =
         0.03291   -0.02465    0.00938   -0.00901
AFIX  43
H25A  2    0.432822    0.971305    0.472206    11.00000   -1.20000
AFIX   0
C26   1    0.819466    0.798595    0.450233    11.00000    0.05557    0.02856 =
         0.02351    0.00473    0.00094   -0.00308
C27   1    0.835388    0.895016    0.464796    11.00000    0.04542    0.04435 =
         0.02802   -0.00312    0.00624   -0.00678
AFIX  43
H27A  2    0.800876    0.931251    0.502781    11.00000   -1.20000
AFIX   0
C28   1    0.900198    0.938733    0.425158    11.00000    0.06028    0.02684 =
         0.02249    0.00724    0.00866   -0.00408
AFIX  43
H28A  2    0.910444    1.004450    0.436513    11.00000   -1.20000
AFIX   0
C29   1    0.949524    0.888264    0.369898    11.00000    0.03626    0.03906 =
         0.03485    0.00314    0.01229   -0.00492
C30   1    0.937214    0.793008    0.355962    11.00000    0.04679    0.04278 =
         0.04717   -0.00446    0.00260   -0.00248
AFIX  43
H30A  2    0.972776    0.757968    0.318235    11.00000   -1.20000
AFIX   0
C31   1    0.873064    0.747172    0.396605    11.00000    0.04126    0.03390 =
         0.04742   -0.00573   -0.00063    0.00276
AFIX  43
H31A  2    0.865599    0.680603    0.387908    11.00000   -1.20000
AFIX   0
C32   1    0.743541    0.420510    0.766547    11.00000    0.04800    0.01879 =
         0.02682    0.00247   -0.00091   -0.01338
C33   1    0.807591    0.367633    0.732801    11.00000    0.04956    0.04365 =
         0.01922    0.01574    0.01337    0.00154
AFIX  43
H33A  2    0.820527    0.373613    0.668142    11.00000   -1.20000
AFIX   0
C34   1    0.853437    0.305125    0.794266    11.00000    0.05839    0.04167 =
         0.04936    0.00074    0.01467   -0.00747
AFIX  43
H34A  2    0.897608    0.269442    0.771964    11.00000   -1.20000
AFIX   0
C35   1    0.832532    0.297311    0.886872    11.00000    0.05486    0.01647 =
         0.05212    0.00306    0.00912    0.00435
C36   1    0.769734    0.347565    0.921580    11.00000    0.05986    0.03449 =
         0.03075    0.00624    0.00180   -0.00471
AFIX  43
H36A  2    0.756675    0.340589    0.986099    11.00000   -1.20000
AFIX   0
C37   1    0.725700    0.408458    0.861564    11.00000    0.05895    0.02555 =
         0.03400    0.00075    0.00841    0.01893
AFIX  43
H37A  2    0.681791    0.443410    0.885455    11.00000   -1.20000
AFIX   0
C38   1    0.238802    1.058679    0.253653    11.00000    0.04624    0.02939 =
         0.04241   -0.00459    0.00392    0.00607
F1    4    0.174330    1.023394    0.203168    11.00000    0.06239    0.04934 =
         0.10262    0.01940   -0.01762   -0.00253
F2    4    0.205299    1.122027    0.311110    11.00000    0.13572    0.06872 =
         0.04478   -0.00210   -0.00194    0.05703
F3    4    0.278551    1.108986    0.193995    11.00000    0.06053    0.06671 =
         0.08500    0.05402    0.00431    0.00398
C39   1    1.017395    0.934739    0.326839    11.00000    0.05282    0.03871 =
         0.03665   -0.00736   -0.00842    0.01061
F4    4    1.034707    0.898629    0.240901    11.00000    0.08903    0.07727 =
         0.06989   -0.00916    0.02684   -0.03392
F5    4    1.008516    1.026477    0.310474    11.00000    0.07640    0.05507 =
         0.10969    0.01686    0.03257    0.00461
F6    4    1.089998    0.927807    0.375565    11.00000    0.06141    0.07931 =
         0.07687    0.01655    0.00530   -0.01316
C40   1    0.881023    0.229954    0.950507    11.00000    0.04852    0.03640 =
         0.05979    0.00370    0.01792    0.00571
F7    4    0.961246    0.232882    0.939941    11.00000    0.05779    0.07426 =
         0.05182    0.01892    0.00204    0.01303
F8    4    0.872448    0.242433    1.044029    11.00000    0.07731    0.06262 =
         0.03654    0.01201    0.00112    0.01423
F9    4    0.860265    0.139146    0.935422    11.00000    0.08694    0.04429 =
         0.05791    0.01000   -0.00745    0.01091

HKLF 4

REM  RuNCF3 in P2(1)/c
REM R1 =  0.0739 for    1973 Fo > 4sig(Fo)  and  0.1090 for all    2734 data
REM    496 parameters refined using     92 restraints

END

WGHT      0.0000     74.2190

REM Highest difference peak  2.037,  deepest hole -0.703,  1-sigma level  0.122
Q1    1   0.6649  0.6726  0.6100  11.00000  0.05    2.04
Q2    1   0.5043  0.6751  0.5985  11.00000  0.05    1.97
Q3    1   0.7129  0.5998  0.5800  11.00000  0.05    0.75
Q4    1   0.4220  1.0148  0.3948  11.00000  0.05    0.70
Q5    1   0.7551  0.3191  0.8088  11.00000  0.05    0.65
Q6    1   0.4381  0.6349  0.5372  11.00000  0.05    0.60
Q7    1   0.4199  0.6683  0.5738  11.00000  0.05    0.60
Q8    1   0.4923  0.6436  0.5088  11.00000  0.05    0.50
Q9    1   0.6509  0.5628  0.6583  11.00000  0.05    0.49
Q10   1   0.2451  1.0151  0.1742  11.00000  0.05    0.45
Q11   1   0.4962  0.6642  0.7082  11.00000  0.05    0.43
Q12   1   0.6520  0.7800  0.5932  11.00000  0.05    0.43
Q13   1   0.6620  0.4100  0.7562  11.00000  0.05    0.41
Q14   1   0.6657  0.7276  0.6976  11.00000  0.05    0.40
Q15   1   0.2820  1.1432  0.2847  11.00000  0.05    0.40
Q16   1   0.2601  0.6606  0.4597  11.00000  0.05    0.39
Q17   1   0.2587  0.4982  0.5796  11.00000  0.05    0.39
Q18   1   0.3980  0.7052  0.4780  11.00000  0.05    0.39
Q19   1   1.0124  0.7956  0.3829  11.00000  0.05    0.38
Q20   1   0.5376  0.2557  0.8400  11.00000  0.05    0.38
;
_shelx_res_checksum              19609
_shelx_hkl_file
;
   0   0   2  193.08   19.40
   0   0  -2  202.38   19.10
   0   0   2  208.18   21.80
   0   0  -2  201.38   15.90
   0   0  -3    1.90    8.50
   0   0   3  -14.80   10.30
   0   0   3   -5.40    9.00
   0   0  -3   -2.00    5.20
   0   0   4  980.70   68.19
   0   0  -4  937.91   65.29
   0   0   4  940.61   68.09
   0   0  -4  821.82   67.09
   0   0   5   -9.80   10.80
   0   0  -5    5.40    6.70
   0   0  -5  -13.10    9.60
   0   0   5    0.20   11.10
   0   0   6  865.01   62.89
   0   0  -6  836.32   58.99
   0   0  -6  764.02   61.59
   0   0  -7    0.20    7.80
   0   0   7   -3.30   12.40
   0   0  -7    8.90   11.20
   0   0  -8  216.38   19.70
   0   0   8  146.69   28.60
   0   0  -9    0.50    8.70
   0   0   9   29.00   13.60
   0   0  10  473.35   47.30
   0   0 -10  612.34   42.90
   0   0 -11   -9.00    9.90
   0   0  11   -1.00   14.80
   0   0 -12   18.70   11.60
   0   0  12    8.60   15.60
   0   0 -13   -1.40   13.20
   0   0  13   -6.00   15.60
   0   1   1  191.18   14.10
   0  -1  -1  153.78   12.10
   0  -1  -1  178.18   13.90
   0  -1   1  137.19   15.60
   0   1  -2  592.94   38.90
   0   1  -2  514.05   40.10
   0   1   2  514.95   39.20
   0   1   2  555.34   39.30
   0   1  -2  546.35   38.20
   0  -1  -2  514.05   39.60
   0  -1   2  516.65   40.00
   0  -1  -2  527.55   38.40
   0  -1  -2  519.05   37.90
   0   1  -3   -3.50    5.50
   0   1  -3    5.30    8.70
   0   1   3    3.80    8.80
   0   1   3   14.90    8.20
   0  -1  -3   -4.40    7.10
   0  -1  -3    4.80    8.10
   0  -1   3   -4.50    9.00
   0  -1  -3    0.30    5.40
   0   1   4  370.46   33.30
   0   1  -4  355.56   28.10
   0   1   4  388.76   31.70
   0  -1  -4  335.97   32.00
   0  -1  -4  380.06   28.10
   0  -1  -4  330.07   27.60
   0  -1   4  357.56   33.70
   0   1  -5    4.50    7.00
   0   1  -5   -9.30   10.20
   0   1   5    1.10   10.90
   0   1   5    6.80   10.30
   0  -1   5   -4.00   11.10
   0  -1  -5   -0.80    6.80
   0  -1  -5    7.80    8.30
   0  -1  -5   11.80   10.00
   0  -1   5  -38.20   16.10
   0   1   6  257.57   30.00
   0   1  -6  279.47   28.00
   0   1  -6  258.07   22.80
   0   1   6  211.48   39.20
   0  -1   6  174.58   37.70
   0  -1  -6  283.87   22.60
   0  -1   6  268.67   31.10
   0  -1  -6  250.17   27.90
   0   1   7  155.88   24.20
   0   1   7  102.29   21.80
   0   1  -7  134.99   23.80
   0   1  -7  153.18   17.10
   0  -1   7  110.09   19.20
   0  -1  -7  159.48   16.90
   0  -1  -7  141.49   24.70
   0  -1   7  161.08   27.40
   0   1   8  789.22   62.99
   0   1  -8  827.02   60.29
   0  -1  -8  815.32   60.09
   0  -1   8  908.21   65.69
   0   1   9   16.20   12.40
   0   1  -9    3.70    8.90
   0  -1  -9    6.40    9.10
   0  -1   9   25.40   15.00
   0   1 -10  209.28   22.30
   0   1  10  191.98   28.40
   0  -1 -10  208.18   21.70
   0  -1  10  170.18   32.10
   0   1 -11   31.10   11.20
   0   1  11   30.80   14.30
   0  -1  11   29.30   17.10
   0  -1 -11   35.50   10.90
   0   1 -12  153.58   21.10
   0   1  12   83.59   17.60
   0  -1 -12  124.79   22.80
   0  -1  12   89.69   19.30
   0   1  13   10.70   16.70
   0   1 -13   31.90   13.20
   0  -1  13   -6.10   17.70
   0   2   0  329.97   23.60
   0  -2   0  284.87   24.90
   0   2  -1 1458.95   91.79
   0   2  -1 1207.28   91.79
   0   2  -1 1281.37   91.19
   0   2   1 1444.66   91.89
   0  -2  -1 1241.38   91.99
   0  -2   1 1233.38   91.69
   0   2   2 5971.10  404.96
   0   2  -2 5670.43  404.76
   0   2  -2 5519.85  405.26
   0   2   2 6205.98  405.16
   0   2  -2 6597.04  405.06
   0  -2  -2 5683.83  404.66
   0  -2   2 5238.38  405.16
   0  -2  -2 5823.22  405.06
   0   2  -3 8951.90  649.54
   0   2   3 9170.68  649.83
   0   2  -3 8802.62  650.03
   0   2   3 9999.00  649.93
   0   2  -3 9785.22  649.83
   0  -2  -3 8876.61  649.43
   0  -2  -3 9513.75  649.74
   0  -2   3 9504.65  650.23
   0  -2  -3 9745.12  650.03
   0   2   4   65.39   11.00
   0   2  -4   44.10   10.30
   0   2  -4   40.70   10.70
   0   2   4   74.69   10.70
   0   2  -4   49.60    8.10
   0  -2  -4   68.19   10.30
   0  -2  -4   56.49   10.40
   0  -2   4   43.30   12.30
   0  -2  -4   56.99    7.70
   0   2   5  120.59   23.40
   0   2   5  123.99   21.70
   0   2  -5   91.49   14.40
   0   2  -5   75.29   13.20
   0  -2   5  142.79   25.70
   0  -2  -5  107.29   21.60
   0  -2  -5   98.99   13.60
   0  -2  -5  103.79   15.70
   0   2   6  263.77   28.40
   0   2  -6  258.67   29.60
   0   2  -6  261.67   23.20
   0   2   6  277.27   30.00
   0  -2  -6  249.08   23.50
   0  -2   6  287.37   32.20
   0  -2  -6  267.37   28.70
   0   2  -7  537.25   46.40
   0   2   7  657.13   48.70
   0   2  -7  592.24   47.70
   0   2   7  571.94   47.90
   0  -2  -7  603.64   43.40
   0  -2  -7  581.24   43.90
   0  -2   7  550.74   56.09
   0  -2  -7  577.64   48.80
   0  -2   7  592.94   49.10
   0   2   8    7.00   12.20
   0   2  -8   20.80    8.50
   0  -2  -8   10.90    9.60
   0  -2   8  -20.30   17.70
   0  -2  -8    8.00    8.00
   0   2  -9   13.40    8.90
   0   2   9   25.80   13.30
   0  -2  -9   11.10    8.40
   0  -2   9   18.20   18.00
   0   2 -10  150.08   19.50
   0  -2 -10  117.39   19.10
   0   2 -11  146.79   21.50
   0  -2 -11  146.59   21.70
   0   2 -12    3.50   11.60
   0   2  12    3.00   14.00
   0  -2  12   -7.30   18.90
   0  -2 -12    0.50   11.30
   0   3   0  -12.70    5.70
   0  -3   0   -4.10   10.70
   0   3  -1  671.23   47.10
   0   3  -1  666.93   48.90
   0   3   1  722.73   49.00
   0  -3  -1  680.43   49.80
   0  -3   1  595.14   50.29
   0   3  -2   11.10    7.50
   0   3  -2   10.60    5.50
   0   3  -2   -4.60    8.40
   0   3   2    5.00    7.60
   0  -3  -2   11.00    9.80
   0   3  -3  483.35   40.70
   0   3   3  535.85   39.10
   0   3  -3  509.75   39.10
   0   3   3  516.65   38.60
   0   3  -3  457.55   36.90
   0  -3  -3  513.45   38.30
   0  -3  -3  506.75   36.40
   0   3   4  509.55   39.90
   0   3   4  553.64   39.60
   0   3  -4  453.05   40.20
   0   3  -4  475.75   39.40
   0   3  -4  452.45   36.60
   0  -3  -4  517.25   36.30
   0  -3   4  457.25   41.10
   0  -3  -4  526.15   38.60
   0   3  -5  869.71   67.79
   0   3   5  905.91   70.39
   0   3  -5  914.71   70.29
   0   3   5 1066.79   70.39
   0  -3  -5  931.31   67.59
   0  -3  -5  957.30   68.79
   0  -3  -5 1028.70   70.39
   0  -3   5  975.30   70.89
   0   3   6   -0.60   10.70
   0   3  -6  -12.40   10.90
   0   3  -6   -4.70    7.30
   0   3   6    0.20   11.00
   0   3  -6    0.30   11.90
   0  -3   6   -7.00   11.70
   0  -3  -6   -2.90    7.60
   0  -3  -6   -1.00   10.40
   0  -3  -6   -0.90    9.50
   0   3   7  250.57   29.90
   0   3   7  207.48   32.50
   0   3  -7  225.28   29.20
   0  -3  -7  253.07   29.40
   0  -3  -7  199.58   23.40
   0  -3   7  241.68   31.60
   0  -3  -7  261.57   21.60
   0   3  -8  240.28   23.10
   0   3   8  240.28   30.80
   0  -3  -8  248.68   23.90
   0  -3  -8  245.88   22.90
   0   3   9  366.36   37.90
   0   3  -9  370.46   32.60
   0  -3  -9  466.05   32.40
   0  -3   9  334.17   50.19
   0  -3  -9  367.06   32.60
   0   3  10  -22.90   13.80
   0   3 -10   -6.20    9.90
   0  -3 -10   -1.30   10.00
   0  -3  10  -15.80   20.50
   0   3  11  347.77   37.10
   0   3 -11  332.87   30.00
   0  -3  11  275.37   44.70
   0  -3 -11  338.97   29.70
   0  -3 -11  279.67   30.80
   0   3  12   11.60   15.70
   0   3 -12   41.30   11.70
   0  -3  12   21.00   19.70
   0  -3 -12   41.60   12.30
   0   4   0  293.97   25.10
   0  -4   0  286.27   28.80
   0   4  -1  695.63   50.69
   0   4   1  702.83   50.79
   0  -4   1  654.13   52.49
   0  -4  -1  691.53   52.19
   0   4   2  148.39   18.60
   0   4  -2  126.49   13.20
   0   4  -2  108.39   18.10
   0   4  -2  128.49   19.00
   0  -4   2   99.79   16.70
   0  -4  -2  130.99   20.30
   0   4  -3  398.86   29.20
   0   4  -3  362.66   32.40
   0   4   3  407.56   32.70
   0   4  -3  387.96   33.30
   0  -4  -3  373.56   28.70
   0  -4  -3  371.96   32.30
   0   4  -4  300.57   29.60
   0   4   4  352.16   28.70
   0   4   4  297.07   29.30
   0   4  -4  303.27   25.40
   0  -4  -4  329.37   25.00
   0  -4  -4  325.47   28.10
   0   4   5  234.78   24.50
   0   4   5  185.58   25.30
   0   4  -5  191.38   24.70
   0   4  -5  196.08   24.60
   0  -4   5  206.08   26.70
   0  -4  -5  193.38   18.20
   0  -4  -5  165.88   22.30
   0   4  -6  675.93   60.79
   0   4  -6  698.53   60.99
   0   4  -6  852.71   57.79
   0   4   6  798.82   60.59
   0   4   6  921.21   60.79
   0  -4  -6  809.42   57.59
   0  -4  -6  822.82   58.99
   0  -4   6  813.22   61.49
   0   4   7  204.68   30.70
   0   4  -7  309.17   30.70
   0  -4  -7  219.88   26.40
   0   4   8  141.39   17.60
   0   4  -8  141.69   18.10
   0  -4  -8  128.59   20.60
   0  -4  -8  138.09   18.00
   0   4   9  147.89   29.80
   0   4  -9  206.38   21.10
   0  -4  -9  161.78   22.40
   0  -4  -9  172.68   21.00
   0   4  10   55.89   15.20
   0   4 -10   41.40   10.60
   0  -4  10   35.30   26.80
   0  -4 -10   36.40   12.90
   0  -4 -10   43.10   11.00
   0   4  11  164.98   30.40
   0  -4  11   83.99   26.00
   0  -4 -11  143.09   22.80
   0   4 -12   55.69   12.60
   0   4  12   39.20   16.40
   0  -4  12   23.60   23.80
   0  -4 -12   30.40   17.90
   0  -4 -12   51.29   12.60
   0   5   0   -1.50    7.30
   0  -5   0   -0.30   13.00
   0   5  -1  138.69   19.50
   0   5   1  123.59   19.40
   0  -5   1  133.09   24.10
   0  -5  -1  171.18   23.70
   0   5  -2  708.93   54.79
   0   5  -2  774.02   52.59
   0   5   2  787.82   54.79
   0  -5  -2  734.13   55.89
   0  -5   2  682.73   56.29
   0   5  -3   13.30    9.20
   0   5   3   10.30   12.30
   0   5  -3   12.30    6.10
   0   5  -3   11.90    9.00
   0  -5  -3    1.20   13.40
   0  -5   3  -30.60   13.50
   0   5  -4 1160.88   80.59
   0   5  -4 1241.08   78.79
   0   5  -4 1028.20   80.49
   0   5   4 1137.19   80.59
   0  -5   4  974.50   80.89
   0  -5  -4 1097.99   78.49
   0  -5  -4 1156.88   80.39
   0   5  -5  203.88   23.10
   0   5   5  139.49   22.60
   0   5  -5  133.89   22.60
   0   5   5  163.28   22.90
   0  -5   5   99.09   17.20
   0  -5  -5  186.28   23.10
   0  -5  -5  122.19   16.50
   0   5  -6   50.39   12.00
   0   5  -6   57.29   12.80
   0   5   6   43.00   13.30
   0  -5  -6   54.39   12.80
   0  -5  -6   44.60    8.80
   0   5   7   48.70   12.60
   0   5  -7   62.79    9.40
   0   5  -7   34.40   13.90
   0  -5  -7   51.69    9.60
   0  -5  -7   71.89   13.50
   0   5  -8  340.57   30.30
   0   5  -8  320.47   38.40
   0   5   8  370.16   35.50
   0  -5  -8  411.76   32.30
   0  -5  -8  396.96   32.90
   0   5  -9  342.07   28.30
   0   5   9  255.47   34.50
   0  -5  -9  262.77   37.60
   0  -5  -9  348.57   28.20
   0   5  10   32.30   15.30
   0   5 -10   31.60   10.60
   0  -5 -10   32.50   11.00
   0  -5 -10   43.60   13.30
   0   5 -11   40.40   11.20
   0   5  11   32.20   16.20
   0  -5 -11   33.50   12.10
   0  -5 -11   15.20   13.80
   0   5 -12  253.77   28.10
   0   5  12  265.27   37.70
   0  -5  12  256.97   53.19
   0  -5 -12  246.28   30.30
   0  -5 -12  290.07   28.50
   0   6   0  113.19   19.00
   0   6   1   -2.30    8.20
   0   6  -1   -6.80    8.80
   0  -6  -1    2.70   13.00
   0   6  -2   91.39   18.00
   0   6   2   61.79   10.90
   0  -6  -2   72.69   14.90
   0   6   3  101.69   20.50
   0   6  -3  117.09   13.50
   0   6  -3   98.89   20.20
   0  -6  -3  149.79   23.30
   0  -6   3  147.29   23.20
   0   6   4  785.12   61.89
   0   6  -4  874.61   61.69
   0   6  -4  817.42   64.09
   0   6  -4  859.51   59.59
   0  -6   4  821.12   63.19
   0  -6  -4  863.61   62.59
   0   6  -5   10.20    6.90
   0   6  -5   -2.00   10.70
   0   6   5    3.70   10.10
   0   6  -5    3.10   10.00
   0  -6  -5   17.10   12.60
   0  -6  -5    8.10    7.40
   0   6   6  346.87   32.00
   0   6  -6  346.47   32.80
   0  -6  -6  362.16   34.30
   0  -6  -6  307.17   27.20
   0  -6   6  280.27   31.20
   0   6  -7  108.09   17.40
   0   6  -7  151.68   18.10
   0   6   7  130.69   25.70
   0  -6   7  128.09   24.70
   0  -6  -7  160.38   22.90
   0  -6  -7  158.68   18.40
   0   6  -8  125.69   28.00
   0   6   8   35.30   12.90
   0  -6  -8   57.79   14.00
   0   6   9   -6.80   13.40
   0   6  -9   -1.40   10.10
   0   6  -9  -16.90   15.30
   0  -6  -9   -9.30   10.60
   0  -6  -9   16.90   14.20
   0   6 -10  517.75   44.30
   0   6  10  556.04   49.90
   0  -6 -10  588.14   46.40
   0  -6 -10  621.84   45.60
   0   6  11   87.29   17.70
   0   6 -11   98.19   14.50
   0  -6 -11  137.29   22.60
   0  -6 -11  120.99   24.00
   0   7   0   -5.20    8.60
   0  -7   0   -4.20   14.70
   0   7   1  278.47   25.90
   0   7  -1  249.18   26.30
   0  -7   1  274.87   30.30
   0  -7  -1  268.37   29.80
   0   7   2  799.12   58.69
   0  -7   2  776.02   60.59
   0   7  -3    7.40    9.30
   0   7   3   -6.00   12.30
   0   7  -3   16.50    6.10
   0  -7  -3   18.10   14.90
   0  -7   3   32.90   15.80
   0   7   4  126.49   22.60
   0   7  -4  120.79   22.60
   0   7  -4  166.28   15.90
   0  -7  -4  151.08   24.40
   0  -7   4  209.48   26.30
   0   7  -5   69.49   12.00
   0   7  -5   95.39   13.30
   0   7   5   56.29   11.40
   0  -7   5   52.69   16.70
   0  -7  -5  121.49   22.00
   0   7   6  375.06   30.60
   0  -7  -6  289.97   26.00
   0  -7   6  209.98   30.80
   0   7  -7   90.29   15.30
   0   7  -7  121.39   16.50
   0   7   7   55.69   13.30
   0  -7  -7   93.79   17.60
   0  -7  -7   94.49   17.10
   0  -7   7   49.40   19.80
   0   7  -8  150.08   30.20
   0   7  -8  165.48   19.10
   0   7   8  136.69   27.40
   0  -7  -8   95.39   20.30
   0  -7  -8  141.79   25.20
   0   7  -9   21.50   16.50
   0   7   9    9.00   13.90
   0   7  -9   29.10   10.40
   0  -7  -9   12.70   11.00
   0  -7  -9   28.60   15.00
   0   7 -10   86.19   19.80
   0   7 -10   73.09   13.60
   0   7  10   84.99   17.60
   0  -7 -10  121.79   21.70
   0  -7 -10   97.09   18.30
   0   7  11  -13.90   15.90
   0   7 -11    4.30   11.50
   0  -7 -11   27.00   15.40
   0  -8   0   44.80   16.20
   0   8   1  118.89   19.30
   0   8  -2   38.30    9.80
   0   8   2   40.10    9.80
   0  -8  -2   52.59   16.50
   0   8  -3  432.36   30.70
   0   8  -3  379.16   35.30
   0   8   3  407.26   35.60
   0  -8  -3  438.96   38.00
   0  -8   3  391.16   44.50
   0   8  -4  229.18   27.10
   0   8  -4  252.77   22.00
   0   8   4  259.67   27.30
   0  -8  -4  274.47   29.60
   0  -8   4  310.37   43.80
   0   8  -5  130.69   16.20
   0   8   5  116.99   22.80
   0   8  -5  131.29   23.70
   0  -8  -5  148.59   24.50
   0  -8   5   80.99   20.20
   0   8   6  125.09   25.80
   0   8  -6  185.78   19.00
   0   8  -6  159.28   26.00
   0  -8  -6  175.18   27.60
   0  -8   6  219.58   28.30
   0   8  -7  400.76   33.60
   0   8  -7  409.86   38.90
   0   8   7  441.96   37.40
   0  -8  -7  356.56   33.80
   0  -8   7  347.37   38.80
   0  -8  -7  455.65   38.90
   0   8  -8   22.50   10.00
   0   8  -8    1.40   14.70
   0   8   8    0.10   12.40
   0  -8  -8   16.40   11.50
   0  -8  -8   20.70   16.40
   0   8   9   15.70   14.20
   0   8  -9   37.30   11.00
   0   8  -9   40.90   18.20
   0  -8  -9   63.69   17.30
   0  -8  -9   45.40   13.00
   0   8 -10   14.30   19.50
   0   8 -10    8.60   11.50
   0   8  10  -13.10   14.70
   0  -8 -10    7.70   17.80
   0  -8 -10   20.00   13.80
   0   9   0  -22.20    9.10
   0  -9   0   33.80   17.70
   0   9   1  466.35   39.10
   0   9  -1  449.86   39.30
   0  -9   1  543.05   42.60
   0  -9  -1  500.75   43.60
   0   9   2   10.40    9.10
   0   9  -2    5.90    9.70
   0  -9   2    9.40   18.00
   0  -9  -2   -1.60   17.00
   0   9   3   17.60   10.20
   0   9  -3   16.40   10.70
   0  -9  -3   37.10   17.20
   0  -9   3   20.20   19.20
   0   9  -4    6.30   10.20
   0   9   4    0.30   10.40
   0  -9  -4   24.10   17.10
   0  -9   4   -0.50   18.80
   0   9  -5  306.37   33.60
   0   9  -5  371.86   29.00
   0   9   5  351.86   33.90
   0  -9  -5  354.36   36.40
   0  -9   5  414.06   37.90
   0   9  -6   22.30   12.50
   0   9   6   15.40   11.80
   0   9  -6   25.50    9.00
   0  -9   6   25.70   20.40
   0  -9  -6   37.00   17.60
   0   9  -7    6.20   13.90
   0   9   7   12.50   12.80
   0   9  -7   25.30    9.80
   0  -9  -7   37.60   17.90
   0  -9   7   24.50   19.70
   0   9  -8  167.58   29.50
   0   9  -8  140.29   19.00
   0   9   8  128.09   27.80
   0  -9  -8   99.69   16.10
   0  -9  -8  156.68   28.40
   0  -9   8   58.79   21.30
   0   9   9  162.28   30.10
   0   9  -9  149.49   20.40
   0   9  -9  158.78   34.00
   0  -9  -9  164.78   25.80
   0  -9  -9  166.58   29.90
   0  10   0   93.79   20.70
   0 -10   0  121.49   21.30
   0  10   1  221.18   26.90
   0  10  -1  215.28   26.60
   0 -10  -1  300.47   33.40
   0 -10   1  260.57   31.80
   0  10  -2  139.59   22.70
   0  10   2  160.28   22.10
   0 -10   2  178.18   29.40
   0 -10  -2  236.78   28.70
   0  10  -3  155.88   24.50
   0  10   3  152.48   22.90
   0 -10  -3  199.38   28.80
   0 -10   3  215.48   29.90
   0  10   4   44.30   12.00
   0  10  -4   41.80   12.10
   0 -10   4   68.19   21.00
   0 -10  -4   93.59   20.50
   0  10   5   17.50   11.90
   0  10  -5   22.90    8.90
   0  10  -5    5.40   11.20
   0 -10   5   58.39   20.70
   0 -10  -5   59.89   19.20
   0  10   6   25.80   12.50
   0  10  -6   28.70    9.70
   0  10  -6   28.20   13.00
   0 -10  -6   65.09   20.70
   0 -10   6   26.20   20.60
   0  10  -7  175.48   20.50
   0  10   7  147.49   27.30
   0  10  -7  121.69   28.50
   0 -10   7  122.79   24.50
   0 -10  -7  110.29   23.10
   0  10  -8   10.70   16.00
   0  10  -8    7.50   10.40
   0  10   8    6.80   14.20
   0 -10  -8   23.00   19.70
   0 -10   8   13.30   22.50
   0  11   0  -14.40   10.40
   0 -11   0   -2.50   20.80
   0  11  -1   68.29   12.90
   0  11   1   71.19   12.20
   0 -11   1  187.78   30.30
   0 -11  -1   92.39   21.00
   0  11  -2  196.78   26.50
   0  11   2  246.88   26.20
   0 -11   2  273.07   34.40
   0 -11  -2  216.08   33.10
   0  11   3   -1.30   10.10
   0  11  -3    9.30   11.40
   0 -11   3   18.50   21.90
   0 -11  -3   23.50   20.60
   0  11  -4   32.20   12.70
   0  11   4   32.40   11.50
   0 -11   4   89.69   22.80
   0 -11  -4   67.09   21.20
   0  11  -5  175.48   20.50
   0  11  -5  196.68   27.30
   0  11   5  157.48   27.00
   0 -11   5  179.88   34.00
   0 -11  -5  240.88   34.50
   0  11  -6   19.50   10.30
   0  11  -6   10.80   13.00
   0  11   6   11.70   13.00
   0 -11   6   69.69   23.30
   0 -11  -6   51.49   20.20
   0  11   7   -1.00   13.40
   0  11  -7   32.00   11.10
   0 -11  -7    5.10   22.10
   0  12   0  336.37   32.50
   0 -12   0  318.77   37.60
   0  12   1   40.70   11.40
   0  12  -1   30.10   11.60
   0 -12  -1   45.70   22.20
   0 -12   1   48.80   22.70
   0  12   2   24.10   11.80
   0  12  -2   34.20   12.80
   0 -12   2   65.39   23.10
   0 -12  -2   19.50   20.80
   0  12  -3   11.30   11.90
   0  12   3    4.50   10.70
   0 -12   3   25.30   24.00
   0 -12  -3   22.10   21.30
   0  12  -4   55.59   13.50
   0  12   4   53.39   12.30
   0 -12  -4   91.79   24.30
   0 -12   4  104.69   25.10
   0  12   5   -3.40   12.60
   0  12  -5    5.90   10.30
   0  12  -5  -15.10   11.80
   0 -12   5   29.80   24.40
   0 -12  -5   57.59   24.70
   0  13   0   -3.80   11.30
   0 -13   0   25.70   23.00
   0  13   1   37.30   11.90
   0 -13  -1   73.59   23.80
   1   0 -13   -5.30   12.10
  -1   0  13   17.70   15.40
  -1   0  12  191.58   31.60
   1   0 -12  209.58   24.50
  -1   0  11    7.50   13.80
   1   0 -11  -22.50   10.40
  -1   0  10  451.25   42.40
   1   0 -10  477.95   37.60
   1   0  -9   -2.40    8.50
  -1   0   9  -10.00   13.70
  -1   0   8   25.30   13.30
   1   0  -8   43.50    8.60
  -1   0   7   -6.30   12.90
   1   0  -7    6.20   11.70
   1   0  -7    6.00    7.90
   1   0  -6  500.85   37.70
   1   0  -6  529.45   41.90
  -1   0   6  426.56   42.70
  -1   0   6  536.15   43.10
   1   0  -5   -3.90   11.30
  -1   0   5    1.00   11.10
  -1   0   5   -3.20   11.10
   1   0  -5  -13.90    7.30
   1   0  -4 1785.02  120.49
   1   0  -4 1656.43  122.29
  -1   0   4 1654.43  122.09
  -1   0   4 1787.92  121.89
   1   0  -3   -3.40    5.60
  -1   0   3   -9.40    9.20
  -1   0   3   -9.00    9.30
   1   0  -3    1.00    9.10
   1   0  -2 1676.73  115.39
  -1   0   2 1828.02  116.29
  -1   0   2 1620.24  116.19
   1   0  -2 1510.65  116.29
   1   0   2    5.30    6.40
  -1   0  -2   -0.20    4.10
  -1   0  -2    7.70    5.80
   1   0   3    3.50    8.40
  -1   0  -3    7.40    9.40
  -1   0  -3   -5.20    5.50
  -1   0  -3   -0.10    7.20
  -1   0  -4   13.40   10.10
  -1   0  -4    3.90    6.30
  -1   0  -4    6.40    7.90
   1   0   4   -8.80    9.80
   1   0   4   -3.50   10.70
  -1   0  -5    4.00   10.30
   1   0   5    8.50   11.20
  -1   0  -5   -0.60    6.90
  -1   0  -5   -6.30    8.20
   1   0   5   -4.40   10.40
  -1   0  -6   34.20   11.50
   1   0   6   37.00   12.50
  -1   0  -6   24.00    7.80
   1   0   6   31.90   12.60
   1   0   7   -7.30   12.40
  -1   0  -7   -4.90    7.40
   1   0   7   -0.90   12.10
  -1   0  -7  -12.20   11.50
  -1   0  -8  599.54   44.40
   1   0   8  581.24   51.99
  -1   0  -9   -2.60    8.20
   1   0   9    9.10   13.90
   1   0  10  858.91   62.59
  -1   0 -10  731.53   58.79
  -1   0 -11   -5.50   11.50
   1   0  11   -6.80   15.20
  -1   0 -12   58.39   13.00
   1   0  12   42.90   17.10
   1   1 -13   -4.30   12.30
  -1   1  13   -3.90   16.00
   1  -1 -13   -2.20   11.10
  -1  -1  13   -3.70   16.50
  -1   1  12  132.79   27.90
   1   1 -12  124.09   21.10
   1  -1 -12  143.59   21.00
  -1  -1  12   90.49   19.50
  -1   1  11   51.19   14.30
   1   1 -11   41.50   11.60
  -1  -1  11   42.10   17.60
   1  -1 -11   43.50   11.00
   1   1 -10  185.58   20.50
  -1   1  10  138.39   26.60
   1  -1 -10  180.18   20.70
  -1  -1  10  134.49   31.20
  -1   1   9   91.29   14.10
   1   1  -9   80.69   11.40
  -1  -1   9   82.09   16.10
   1  -1  -9  105.29   16.80
   1   1  -8  447.86   35.30
   1  -1  -8  455.45   34.90
   1   1  -7  152.08   17.30
  -1   1   7  129.09   23.90
   1   1  -7   84.09   15.50
  -1   1   7  181.18   27.50
  -1  -1   7  108.79   17.80
  -1  -1   7  153.08   26.70
   1  -1  -7  122.39   16.20
   1  -1  -7  143.79   24.50
  -1   1   6  619.64   49.20
   1   1  -6  650.13   46.30
  -1   1   6  650.33   50.09
   1   1  -6  597.94   49.80
   1  -1  -6  643.14   49.40
  -1  -1   6  647.94   54.09
  -1  -1   6  673.43   50.89
   1  -1  -6  552.24   46.70
   1   1  -5   14.40    7.50
  -1   1   5    8.50   10.40
   1   1  -5   10.40   11.60
  -1   1   5   25.80   10.20
  -1  -1   5    8.40   11.50
   1  -1  -5    8.70    6.90
   1  -1  -5   16.60   10.20
  -1  -1   5   15.00   15.50
   1   1  -4  657.03   49.60
  -1   1   4  688.53   51.89
  -1   1   4  684.53   52.59
   1   1  -4  662.63   52.89
  -1  -1   4  723.33   53.49
   1  -1  -4  685.03   52.39
   1  -1  -4  714.03   49.60
  -1   1   3    3.50    8.90
  -1   1   3   30.40    8.60
   1   1  -3    5.10    5.90
   1   1  -3    0.80    9.50
   1  -1  -3    4.10    8.90
  -1  -1   3    3.70    9.30
   1  -1  -3    0.00    6.60
   1  -1  -3    0.10    5.90
   1   1  -2   57.59    9.20
   1   1  -2   46.30    8.50
   1   1  -2   68.59   13.40
  -1   1   2   51.09    7.40
  -1  -1   2   46.50    8.50
   1  -1  -2   42.50    7.40
   1  -1  -2   51.19    8.60
   1   1  -1 1123.39   73.19
  -1   1   1 1113.69   73.29
   1   1  -1  990.10   72.99
   1   1  -1 1020.40   73.69
  -1   1   1 1116.69   73.39
  -1   1   1 1102.49   73.39
   1  -1  -1 1022.40   72.89
  -1  -1   1  948.31   73.09
   1  -1  -1 1013.50   73.29
  -1  -1   1 1033.00   73.69
  -1   1  -1  581.84   48.20
   1   1   1  696.53   50.49
  -1   1  -1  751.02   48.50
  -1   1  -1  720.63   48.50
   1   1   1  634.74   48.40
  -1  -1  -1  686.03   48.70
  -1  -1  -1  737.73   50.99
  -1  -1  -1  729.33   48.90
  -1   1  -2  695.53   53.19
  -1   1  -2  780.72   51.59
   1   1   2  731.33   57.79
  -1   1  -2  655.13   51.29
   1   1   2  821.52   52.09
  -1   1  -2  766.82   51.89
  -1  -1  -2  801.92   52.19
   1  -1   2  625.54   52.79
  -1  -1  -2  679.43   51.49
  -1   1  -3 1870.11  143.69
  -1   1  -3 1862.01  144.89
  -1   1  -3 2198.28  144.39
  -1   1  -3 2274.87  143.79
   1   1   3 1997.90  144.69
   1   1   3 2221.68  144.39
  -1  -1  -3 2146.89  143.99
  -1  -1  -3 2010.60  143.69
   1  -1   3 1990.50  144.89
  -1   1  -4  266.67   27.80
  -1   1  -4  274.87   21.00
   1   1   4  263.97   26.20
  -1   1  -4  231.98   22.00
  -1  -1  -4  239.28   21.90
   1  -1   4  265.87   27.80
  -1  -1  -4  272.17   23.10
  -1   1  -5    5.30   10.50
  -1   1  -5   14.40    7.10
   1   1   5   15.70   10.40
  -1  -1  -5   28.80    9.00
  -1  -1  -5   19.90   11.40
   1  -1   5   11.90   11.30
  -1  -1  -5   19.90    6.90
   1   1   6  597.34   47.00
  -1   1  -6  532.85   47.00
   1   1   6  598.24   46.20
  -1   1  -6  586.94   42.90
  -1  -1  -6  573.14   42.80
  -1  -1  -6  580.04   48.20
  -1  -1  -6  580.94   43.20
   1  -1   6  572.74   47.60
  -1   1  -7  142.59   18.10
   1   1   7  178.38   24.80
  -1   1  -7  152.48   25.50
   1   1   7  176.58   34.30
  -1  -1  -7  124.89   17.30
   1  -1   7  157.48   27.90
  -1  -1  -7  120.29   18.10
   1  -1   7  130.19   20.20
  -1  -1  -7  140.39   28.10
  -1   1  -8   90.09   15.50
   1   1   8   53.49   14.70
  -1  -1  -8   57.89   11.60
   1  -1   8   53.99   16.30
  -1  -1  -8   48.40    9.70
   1   1   9    4.60   12.20
  -1   1  -9    6.00    9.10
  -1  -1  -9   12.10    8.90
   1  -1   9    8.00   14.50
  -1   1 -10  208.48   22.50
   1   1  10  221.28   29.90
  -1  -1 -10  204.18   22.90
   1  -1  10  172.78   34.10
  -1   1 -11   26.30   11.10
   1   1  11   38.50   15.10
   1  -1  11   26.00   17.50
  -1  -1 -11   35.80   11.00
   1   1  12  179.98   32.10
  -1   1 -12  196.28   25.50
   1  -1  12  202.18   35.40
  -1  -1 -12  184.08   25.20
  -1   2  12   69.49   15.00
   1   2 -12   64.99   13.20
  -1  -2  12   59.79   19.50
   1  -2 -12   62.29   12.20
   1   2 -11    9.30   11.20
  -1   2  11    9.40   13.60
  -1  -2  11   -7.90   17.50
   1  -2 -11    3.60   10.10
   1   2 -10  106.99   18.80
  -1   2  10   86.99   16.00
   1  -2 -10  113.59   17.70
  -1  -2  10   84.39   18.90
  -1   2   9  474.45   42.40
   1   2  -9  448.36   37.20
  -1  -2   9  555.64   48.30
   1  -2  -9  466.65   37.10
   1   2  -8   -6.60    8.40
  -1   2   8  -10.40   11.70
  -1  -2   8  -18.90   17.20
   1  -2  -8   -1.80    8.00
   1   2  -7  266.47   25.30
   1   2  -7  192.58   28.30
  -1   2   7  166.58   26.70
  -1   2   7  230.18   27.10
   1  -2  -7  190.08   26.50
   1  -2  -7  139.89   19.90
   1  -2  -7  223.38   18.80
  -1  -2   7  204.98   30.10
  -1  -2   7  150.78   27.70
   1   2  -6   17.10    8.10
   1   2  -6   26.90   11.70
  -1   2   6   27.30   10.90
  -1   2   6   32.00   10.50
  -1  -2   6   18.00   12.40
   1  -2  -6   14.80    8.70
   1  -2  -6   16.50   10.00
   1  -2  -6   18.60    8.80
   1   2  -5  382.76   36.70
  -1   2   5  380.86   34.30
  -1   2   5  429.46   34.90
   1   2  -5  337.37   30.40
   1  -2  -5  409.86   30.60
   1  -2  -5  387.96   29.80
   1  -2  -5  387.66   34.10
  -1  -2   5  416.06   36.30
   1   2  -4   95.49   14.60
  -1   2   4  125.69   19.90
   1   2  -4  124.69   21.50
   1   2  -4   83.99   13.10
  -1   2   4  158.88   21.90
   1  -2  -4   95.59   13.00
   1  -2  -4  102.79   19.20
  -1  -2   4   81.49   13.20
   1  -2  -4  109.99   14.80
   1   2  -3 4403.26  340.77
   1   2  -3 4902.11  340.17
  -1   2   3 4881.21  340.57
  -1   2   3 4970.90  340.77
   1   2  -3 5261.77  340.57
   1  -2  -3 4946.71  340.07
   1  -2  -3 5062.99  340.57
  -1  -2   3 4750.12  340.97
   1  -2  -3 4946.51  340.47
  -1   2   2   38.00    7.30
   1   2  -2   45.70    7.10
   1   2  -2   40.70    6.20
   1   2  -2   25.50    8.90
  -1  -2   2   28.30    8.70
   1  -2  -2   39.70    7.60
   1  -2  -2   45.50    8.50
   1  -2  -2   45.10   10.90
  -1   2   1    3.70    5.70
   1   2  -1    2.30    5.20
   1   2  -1   -0.40    6.30
   1   2  -1    1.10    4.40
  -1  -2   1   -5.90    7.30
  -1  -2   1    5.10    6.20
  -1   2   0   92.59   13.20
   1   2   0  117.39   12.80
   1   2   0  143.59   10.80
  -1   2   0  117.79   15.70
  -1  -2   0  115.59   14.70
  -1   2  -1  469.25   35.30
  -1   2  -1  503.95   35.10
   1   2   1  496.75   35.00
   1   2   1  506.45   37.70
  -1   2  -1  399.16   33.60
   1  -2   1  513.55   35.00
  -1  -2  -1  435.56   35.80
  -1  -2  -1  482.75   38.00
  -1  -2  -1  484.85   35.10
  -1   2  -2  292.47   22.50
  -1   2  -2  205.48   24.20
   1   2   2  199.88   30.80
   1   2   2  311.27   22.10
  -1   2  -2  199.28   19.80
  -1   2  -2  250.47   21.30
  -1  -2  -2  269.97   20.60
  -1  -2  -2  290.77   23.10
  -1   2  -3   15.80    6.40
  -1   2  -3   29.70    7.70
  -1   2  -3   34.30    7.60
   1   2   3    3.40   16.00
  -1   2  -3   31.70    9.20
   1   2   3   14.70    8.40
   1  -2   3    8.40    9.60
  -1  -2  -3   24.30    6.50
  -1  -2  -3   30.30    9.60
  -1   2  -4    9.50    6.90
  -1   2  -4    3.60    6.40
   1   2   4   34.80    9.80
   1   2   4   10.00    8.80
  -1   2  -4   -1.60    9.60
  -1   2  -4  -10.00    9.00
  -1  -2  -4   -1.90    9.20
   1  -2   4   10.40   11.10
  -1  -2  -4   10.60    6.60
   1   2   5  380.76   32.80
  -1   2  -5  304.17   32.70
   1   2   5  347.47   31.80
  -1   2  -5  336.67   32.70
  -1   2  -5  337.87   28.00
  -1  -2  -5  352.26   28.00
  -1  -2  -5  375.36   29.20
   1  -2   5  385.06   34.70
   1   2   6    2.60   10.50
   1   2   6   33.70   19.80
  -1   2  -6    2.80    7.10
  -1   2  -6   -2.50   10.70
   1  -2   6   -5.20   11.70
  -1  -2  -6   -8.40    7.10
  -1  -2  -6   -5.60    9.70
   1   2   7  405.26   36.70
  -1   2  -7  476.85   38.30
   1  -2   7  364.06   38.40
  -1  -2  -7  387.46   31.30
  -1  -2  -7  359.86   32.10
  -1   2  -8   81.49   16.20
   1   2   8   74.09   14.50
  -1  -2  -8   80.79   11.90
  -1  -2  -8   67.89   10.40
   1  -2   8   63.19   19.70
  -1   2  -9  -13.80    9.50
   1   2   9    6.30   13.70
  -1  -2  -9    7.00    9.20
  -1  -2  -9  -11.40   10.90
   1  -2   9   -6.50   18.40
   1   2  10  266.57   33.20
  -1   2 -10  258.17   26.40
   1  -2  10  370.06   40.40
  -1  -2 -10  245.18   27.70
  -1  -2 -10  303.77   26.90
  -1   2 -11  327.87   32.50
   1   2  11  373.36   37.00
   1  -2  11  334.47   42.60
  -1  -2 -11  403.66   32.40
   1   2  12    3.00   14.70
  -1   2 -12   23.90   12.80
  -1  -2 -12   23.20   11.40
   1  -2  12   -9.60   19.60
   1   3 -12   27.00   11.40
  -1   3  12    5.90   15.00
  -1  -3  12   -3.10   19.00
   1  -3 -12   20.10   11.60
   1   3 -11  574.84   42.90
  -1   3  11  472.95   46.80
   1  -3 -11  561.54   41.80
  -1  -3  11  487.95   54.19
   1   3 -10    8.80   10.70
  -1   3  10   -6.50   13.40
   1  -3 -10   -1.70   10.60
  -1  -3  10  -13.30   20.10
   1  -3 -10   -4.70    9.20
  -1   3   9  251.57   32.90
   1   3  -9  291.17   26.90
   1  -3  -9  341.27   26.10
   1  -3  -9  278.87   26.50
  -1  -3   9  227.98   45.20
  -1   3   8  250.87   32.00
   1   3  -8  317.37   25.40
   1  -3  -8  238.98   25.80
   1  -3  -8  298.57   23.90
  -1   3   7  555.14   41.20
   1   3  -7  466.65   35.90
  -1   3   7  458.05   44.10
   1   3  -7  392.76   41.90
   1  -3  -7  450.35   36.80
  -1  -3   7  479.75   42.10
   1  -3  -7  460.45   35.40
   1  -3  -7  474.35   40.10
   1   3  -6  114.89   25.40
   1   3  -6  126.09   17.20
  -1   3   6  158.98   23.80
   1   3  -6  114.89   26.20
  -1   3   6  137.69   24.50
   1  -3  -6  138.19   15.80
  -1  -3   6  120.59   25.20
   1  -3  -6  118.59   21.80
   1  -3  -6  140.69   17.70
  -1   3   5  116.29   22.20
  -1  -3   5  148.99   24.20
  -1   3   4 1338.97   88.69
  -1   3   4 1251.27   89.29
   1   3  -4 1193.68   88.99
   1   3  -4 1289.87   87.59
   1   3  -4 1190.68   89.59
  -1  -3   4 1241.08   89.79
   1  -3  -4 1234.78   88.39
   1  -3  -4 1213.88   88.39
   1  -3  -4 1235.08   87.09
  -1   3   3 1591.94  110.09
   1   3  -3 1400.16  110.89
  -1   3   3 1602.14  110.39
   1   3  -3 1646.64  110.39
   1   3  -3 1575.64  109.49
   1  -3  -3 1556.04  109.09
   1  -3  -3 1620.64  110.59
  -1  -3   3 1502.55  110.99
   1  -3  -3 1594.04  109.99
   1   3  -2  140.19   21.10
   1   3  -2  162.58   15.80
  -1   3   2  205.18   21.40
   1   3  -2  175.08   20.00
   1  -3  -2  184.58   22.90
   1   3  -1 1192.78   80.59
   1   3  -1 1152.78   81.79
   1   3  -1 1207.08   81.39
  -1   3   1 1277.37   81.89
  -1  -3   1 1015.20   82.29
   1  -3  -1 1182.78   82.79
  -1  -3   1 1036.20   81.89
   1   3   0    0.80    4.50
  -1   3   0  -15.30    6.10
  -1  -3   0   -2.10    8.70
  -1   3  -1   67.29   15.20
  -1   3  -1   91.49   18.20
  -1   3  -1   81.39    8.30
   1   3   1   70.89    9.00
  -1  -3  -1   73.59   10.50
  -1   3  -2   -1.70    7.60
  -1   3  -2    6.80    5.10
   1   3   2   -9.40    6.90
  -1   3  -2    0.70    7.30
  -1   3  -2    9.60    9.90
   1   3   2   -0.70   10.60
  -1  -3  -2   -2.00    6.70
  -1  -3  -2   -1.50    9.80
   1   3   3  828.02   58.89
  -1   3  -3  758.52   59.49
  -1   3  -3  702.73   57.19
  -1   3  -3  786.02   58.19
   1   3   3  824.62   63.89
   1   3   3  846.22   58.59
  -1   3  -3  875.01   58.79
  -1  -3  -3  811.82   58.89
  -1  -3  -3  831.82   57.29
   1   3   4  236.88   24.20
  -1   3  -4  232.88   24.00
  -1   3  -4  205.08   20.10
   1   3   4  294.97   37.60
  -1   3  -4  206.38   21.10
   1   3   4  225.88   24.20
  -1   3  -4  192.78   25.10
  -1  -3  -4  257.37   20.80
  -1  -3  -4  226.18   23.10
  -1   3  -5  509.55   42.10
  -1   3  -5  571.94   46.00
  -1   3  -5  522.25   42.40
   1   3   5  531.85   45.90
   1   3   5  615.84   45.20
  -1  -3  -5  618.24   44.10
  -1  -3  -5  613.34   42.50
   1  -3   5  644.44   47.40
  -1   3  -6   27.10   11.10
   1   3   6   31.40   10.80
  -1   3  -6   31.50    8.10
  -1   3  -6   22.40   12.00
   1   3   6   51.99   11.80
   1  -3   6   32.30   12.30
  -1  -3  -6   34.30    8.10
  -1  -3  -6   36.60   10.40
  -1   3  -7  333.87   33.50
   1   3   7  322.77   40.90
   1   3   7  314.47   33.30
  -1   3  -7  329.37   27.00
   1  -3   7  344.27   34.80
  -1  -3  -7  335.77   27.50
  -1  -3  -7  311.67   29.00
  -1   3  -8    8.80    8.70
   1   3   8   -1.90   12.80
  -1  -3  -8    6.30    8.60
  -1  -3  -8   -0.30   12.30
  -1   3  -9  375.26   32.70
   1   3   9  401.16   39.30
  -1  -3  -9  365.26   33.50
   1  -3   9  413.66   50.99
  -1  -3  -9  429.76   32.80
  -1   3 -10   12.20    9.30
   1   3  10   -3.00   14.50
  -1  -3 -10    0.20   10.20
   1  -3  10  -22.10   21.60
  -1  -3 -10   -5.50   11.70
   1   3  11   15.00   15.50
  -1   3 -11   27.80   11.10
  -1  -3 -11   25.60   11.10
   1  -3  11   25.50   21.90
  -1  -3 -11  -10.60   13.50
  -1   3 -12   24.70   11.70
   1   3  12    7.80   16.50
  -1  -3 -12   13.70   12.00
  -1  -3 -12   14.90   14.90
   1  -3  12    5.30   21.10
   1   4 -12   31.60   11.90
  -1   4  12    8.10   15.00
   1  -4 -12    8.30   13.40
  -1  -4  12   -2.90   22.90
   1  -4 -12   18.10   11.80
   1   4 -11   47.10   11.80
  -1   4  11    5.00   14.00
   1  -4 -11   23.60   11.30
   1  -4 -11   18.70   12.50
  -1  -4  11  -12.00   24.00
   1   4 -10   62.59   12.10
  -1   4  10   56.39   14.80
  -1  -4  10   64.29   25.00
   1  -4 -10   70.29   11.20
   1  -4 -10   64.29   13.40
   1   4  -9  356.36   29.20
  -1   4   9  345.67   35.60
   1  -4  -9  354.86   29.00
   1  -4  -9  320.37   31.20
  -1   4   8  166.48   28.70
   1   4  -8  171.58   20.30
   1  -4  -8  206.58   26.10
   1  -4  -8  175.68   21.40
  -1   4   7   37.00   12.50
   1   4  -7   33.10    8.80
   1   4  -7   39.90   12.90
   1  -4  -7   38.80    8.10
   1  -4  -7   45.50   11.80
  -1   4   6  435.96   39.70
  -1   4   6  458.25   40.70
   1   4  -6  492.25   41.10
   1   4  -6  502.45   36.20
   1   4  -6  519.55   45.40
   1  -4  -6  426.56   37.50
   1  -4  -6  464.05   39.50
  -1  -4   6  487.65   42.30
   1  -4  -6  482.45   35.40
  -1   4   5  476.85   35.50
   1   4  -5  423.16   38.40
   1   4  -5  400.96   36.30
  -1   4   5  393.06   36.10
   1   4  -5  395.36   37.00
  -1  -4   5  427.06   37.50
   1  -4  -5  412.96   34.30
   1  -4  -5  433.26   31.70
   1  -4  -5  430.06   35.30
   1   4  -4   21.50   10.40
  -1   4   4   16.00   11.00
   1   4  -4   15.60    7.10
  -1   4   4   18.40    8.00
  -1  -4   4   29.10   11.00
   1  -4  -4   16.60    8.60
   1  -4  -4   21.90    6.00
   1  -4  -4   18.40   11.70
   1   4  -3  329.97   29.50
  -1   4   3  346.17   29.90
   1   4  -3  295.87   29.80
   1   4  -3  327.97   25.70
   1  -4  -3  331.87   30.10
  -1   4   2  111.39   18.80
   1   4  -2  105.19   19.20
   1   4  -2  110.29   12.80
   1   4  -2  138.09   18.40
   1  -4  -2  131.59   21.70
  -1  -4   2  114.49   19.10
   1   4  -1  683.23   49.20
  -1   4   1  750.02   50.09
   1   4  -1  655.13   47.30
  -1  -4   1  562.34   50.19
   1  -4  -1  680.63   51.99
  -1   4   0  199.78   21.30
   1   4   0  227.08   21.50
  -1  -4   0  208.58   23.80
   1   4   1 1259.47   82.69
  -1   4  -1 1183.18   82.79
  -1  -4  -1 1048.30   83.19
  -1   4  -2   39.00    8.20
  -1   4  -2   52.29   10.00
   1   4   2   44.50    8.40
  -1   4  -2   34.70    8.30
  -1  -4  -2   58.49   11.50
  -1  -4  -2   83.09   14.50
  -1   4  -3  351.56   29.30
  -1   4  -3  318.47   29.60
  -1   4  -3  321.67   29.80
  -1   4  -3  333.87   25.80
   1   4   3  328.77   35.30
   1   4   3  360.96   28.90
  -1  -4  -3  348.37   26.60
  -1  -4  -3  353.26   29.90
   1  -4   3  260.87   30.00
  -1   4  -4  242.68   24.60
   1   4   4  277.77   24.80
   1   4   4  269.07   27.60
   1   4   4  208.58   35.50
  -1   4  -4  207.58   27.40
  -1   4  -4  287.07   26.50
  -1   4  -4  248.98   21.50
  -1  -4  -4  265.17   21.60
  -1  -4  -4  269.57   25.90
   1   4   5  424.36   33.30
  -1   4  -5  353.46   31.10
  -1   4  -5  350.16   33.30
   1   4   5  361.66   32.60
   1   4   5  400.86   43.40
  -1   4  -5  362.46   33.60
  -1  -4  -5  390.16   32.10
   1  -4   5  346.97   36.00
  -1  -4  -5  401.16   30.00
  -1   4  -6   96.39   16.50
   1   4   6   99.59   22.00
   1   4   6   94.69   19.00
  -1   4  -6   64.99   12.90
  -1   4  -6  114.09   21.90
   1   4   6   54.39   11.80
  -1  -4  -6   89.19   14.50
   1  -4   6   72.39   14.30
  -1  -4  -6   54.39   11.20
   1   4   7  887.61   74.49
  -1   4  -7  751.62   65.99
  -1   4  -7  870.71   62.29
  -1  -4  -7  933.71   62.79
  -1  -4  -7  878.01   63.49
   1   4   8    6.80   13.20
  -1   4  -8   26.90    8.60
  -1  -4  -8   21.20    9.40
  -1  -4  -8   45.20   11.70
  -1   4  -9   17.80    9.70
   1   4   9  -24.20   13.60
  -1  -4  -9   -0.40    9.80
  -1  -4  -9   -7.10   11.20
  -1   4 -10   23.30   10.40
   1   4  10   15.10   15.00
  -1  -4 -10   46.80   13.10
  -1  -4 -10   29.00   11.60
  -1   4 -11  453.95   36.40
   1   4  11  440.16   43.60
  -1  -4 -11  382.56   39.90
  -1  -4 -11  446.06   37.90
   1  -4  11  451.85   56.39
  -1   4 -12   49.20   12.50
   1   4  12    8.80   16.50
  -1  -4 -12   34.60   13.10
  -1  -4 -12   28.40   14.70
   1  -4  12   23.30   24.90
   1   5 -12  333.97   27.80
  -1   5  12  229.98   36.00
   1  -5 -12  245.18   28.80
   1  -5 -12  285.07   27.20
  -1  -5  12  165.78   32.40
  -1   5  11  184.48   32.30
   1   5 -11  171.98   23.10
   1  -5 -11  159.68   22.30
  -1  -5  11  159.38   32.60
   1  -5 -11  158.28   24.30
   1   5 -10  108.39   19.00
  -1   5  10   49.60   15.20
   1  -5 -10   50.49   17.80
   1  -5 -10   70.09   11.80
   1   5  -9  119.49   17.70
  -1   5   9   56.79   14.30
   1  -5  -9   80.69   14.10
   1   5  -8  158.88   18.90
   1   5  -8  159.28   29.40
   1  -5  -8  129.79   21.30
   1  -5  -8  132.89   24.80
  -1   5   7   40.90   11.90
   1   5  -7   50.49   13.50
   1   5  -7   39.00    9.30
   1  -5  -7   53.49    8.90
   1  -5  -7   61.59   12.80
  -1   5   6  355.76   35.80
   1   5  -6  441.76   31.50
   1   5  -6  372.56   36.60
   1   5  -6  370.76   38.30
   1  -5  -6  405.16   33.70
   1  -5  -6  410.76   30.90
   1   5  -5    5.40    7.60
   1   5  -5   -8.80    9.90
  -1   5   5    5.40    9.80
  -1   5   5   -5.10    8.40
   1   5  -5   10.10   10.90
   1  -5  -5    2.30    6.10
   1  -5  -5    1.60   11.40
  -1  -5   5    9.70   11.60
  -1   5   4  704.13   57.19
   1   5  -4  785.92   54.39
   1   5  -4  823.52   57.19
   1   5  -4  794.42   56.99
  -1  -5   4  697.93   57.29
   1  -5  -4  736.53   57.69
  -1   5   3   23.60    9.50
   1   5  -3   30.60    6.50
   1   5  -3   13.90    9.40
   1   5  -3   25.10    9.70
   1  -5  -3   29.30   13.40
  -1  -5   3    7.20   12.00
   1   5  -2   24.30    5.70
  -1   5   2   16.50    8.90
   1   5  -2   19.80    8.90
   1   5  -2   19.10    8.50
  -1  -5   2   27.00   12.50
   1  -5  -2   20.60   13.60
   1   5  -1  171.78   14.60
  -1   5   1  157.68   21.10
   1   5  -1  153.48   20.40
  -1  -5   1  164.58   23.10
   1  -5  -1  181.58   25.10
   1   5   0   -3.00    7.70
  -1   5   0   -1.80    7.50
   1  -5   0    4.30   15.10
  -1  -5   0    1.70   12.80
   1   5   1   64.49    9.10
  -1   5  -1   53.39    9.40
  -1  -5  -1   81.79   13.70
   1  -5   1   72.89   15.30
   1   5   2   37.70    9.30
  -1   5  -2   59.49    9.60
  -1   5  -2   46.10    8.90
  -1  -5  -2   65.29   12.90
   1   5   3  430.56   34.00
  -1   5  -3  333.87   31.30
  -1   5  -3  365.06   28.00
  -1   5  -3  385.86   32.20
   1  -5   3  440.06   31.50
  -1  -5  -3  310.77   29.50
  -1  -5  -3  299.97   43.60
  -1   5  -4   34.50    7.00
   1   5   4   16.30   13.70
  -1   5  -4   38.90   10.00
   1   5   4   19.10    8.30
   1   5   4   23.00    8.90
  -1  -5  -4   35.60   12.40
  -1  -5  -4   19.90    7.80
  -1   5  -5  299.67   30.80
   1   5   5  339.27   39.80
   1   5   5  350.26   29.70
  -1   5  -5  306.97   31.30
   1   5   5  336.87   30.30
  -1   5  -5  331.37   26.00
  -1  -5  -5  295.87   26.80
  -1  -5  -5  325.47   30.40
   1   5   6  109.09   25.10
  -1  -5  -6  169.88   21.60
   1   5   7   -0.70   10.50
  -1   5  -7    6.30   12.80
  -1   5  -7   13.60    8.30
  -1  -5  -7    7.20    8.90
  -1  -5  -7   22.50   12.40
  -1   5  -8  165.48   31.00
  -1   5  -8  198.18   19.30
   1   5   8  143.09   26.50
  -1  -5  -8  151.18   23.60
  -1  -5  -8  175.38   21.20
   1   5   9  423.96   43.80
  -1   5  -9  461.95   38.60
  -1  -5  -9  560.74   39.80
  -1  -5  -9  494.15   40.10
   1   5  10   72.89   16.00
  -1  -5 -10   69.99   14.70
  -1  -5 -10  119.49   21.20
  -1   5 -11   -2.70   11.00
   1   5  11   -2.50   15.80
  -1  -5 -11   13.30   12.50
  -1  -5 -11   -9.00   13.90
   1   6 -11   51.89   12.00
  -1   6  11   27.50   14.90
   1  -6 -11   13.80   15.10
   1  -6 -11   47.60   12.10
   1   6 -10  384.86   30.60
  -1   6  10  248.08   37.40
   1  -6 -10  340.07   29.70
   1   6  -9   -4.10   10.10
  -1   6   9   -3.20   12.70
   1   6  -9  -13.00   15.50
   1  -6  -9   -4.70    9.50
   1  -6  -9    9.60   13.80
  -1   6   8   -5.10   12.10
   1   6  -8   -8.80   14.10
   1   6  -8    3.90    8.90
   1  -6  -8   16.00    8.80
   1  -6  -8   21.60   13.70
   1   6  -7   42.80   13.70
  -1   6   7   26.10   11.80
   1  -6  -7   37.40   13.70
   1  -6  -7   36.20    8.50
   1   6  -6  429.76   32.70
  -1   6   6  405.36   37.30
   1   6  -6  410.36   37.60
   1  -6  -6  415.96   32.20
  -1   6   5    7.80   10.20
   1   6  -5    6.30    7.50
   1   6  -5   -2.10   11.10
   1   6  -5    8.40   10.30
  -1  -6   5  -17.50   11.00
   1  -6  -5    8.60    6.70
   1  -6  -5   10.20   12.70
  -1   6   4  270.27   28.80
   1   6  -4  318.67   24.20
   1   6  -4  364.86   36.90
   1   6  -4  308.87   29.50
   1  -6  -4  334.77   30.50
  -1  -6   4  217.98   29.60
  -1  -6   4  280.27   29.50
   1   6  -3  173.58   23.60
   1   6  -3  176.58   23.10
  -1   6   3  207.48   23.80
   1   6  -3  192.98   17.30
   1  -6  -3  207.08   26.80
  -1  -6   3  208.28   24.30
   1   6  -2 1132.59   81.99
   1   6  -2 1159.88   83.89
  -1   6   2 1235.08   84.29
   1  -6  -2 1180.68   85.69
  -1  -6   2 1151.08   84.89
   1   6  -1   65.89   10.20
  -1   6   1   76.79   10.90
   1  -6  -1   86.59   16.70
  -1   6   0 1370.36  100.99
   1   6   0 1428.86  101.39
   1  -6   0 1449.15  102.99
  -1  -6   0 1462.35  102.49
  -1   6  -1   81.29   11.20
   1   6   1   79.39   18.20
   1  -6   1   82.59   17.40
  -1  -6  -1  123.49   21.80
  -1   6  -2   23.90    8.50
   1   6   2   24.40    8.70
  -1  -6  -2   24.40   12.80
   1  -6   2   13.70   24.00
  -1   6  -3  169.68   22.80
  -1   6  -3  193.58   21.70
  -1   6  -3  190.38   16.90
   1   6   3  174.78   22.30
  -1  -6  -3  193.58   24.80
  -1   6  -4 1142.29   82.99
  -1   6  -4 1200.98   81.49
   1   6   4 1130.69   80.99
  -1   6  -4 1213.08   79.29
  -1  -6  -4 1030.00   79.79
  -1  -6  -4 1126.29   81.89
   1  -6   4 1018.60   81.29
  -1   6  -5   42.30    8.00
  -1   6  -5   36.50   11.10
  -1  -6  -5   38.80   24.90
  -1  -6  -5   47.10    9.10
  -1   6  -6  195.68   26.60
   1   6   6  184.18   26.30
  -1   6  -6  235.08   20.40
  -1  -6  -6  225.68   26.00
  -1   6  -7    2.90   12.90
   1   6   7   -0.20   11.00
  -1   6  -7   17.70    8.50
  -1  -6  -7    8.30   12.90
  -1  -6  -7    6.10    9.60
  -1   6  -8  391.26   32.90
   1   6   8  394.06   39.00
  -1   6  -8  436.36   40.50
  -1  -6  -8  385.26   36.50
  -1  -6  -8  403.76   33.30
  -1   6  -9   10.90   10.10
  -1   6  -9    4.40   16.50
   1   6   9  -26.70   13.10
  -1  -6  -9  -11.50   13.10
  -1  -6  -9    2.60   10.50
   1   6  10   15.70   15.00
  -1  -6 -10   53.79   12.90
  -1  -6 -10   55.59   15.10
  -1   6 -11   17.60   11.50
   1   6  11   -8.30   15.80
  -1  -6 -11  -11.10   14.50
  -1  -6 -11   31.50   12.70
  -1   7  11  -11.50   15.90
   1   7 -11   -4.20   11.70
   1  -7 -11  -10.30   12.40
   1  -7 -11   -3.60   16.20
   1   7 -10  175.98   36.90
  -1   7  10  100.49   18.60
   1   7 -10  137.89   20.40
   1  -7 -10  130.69   25.10
   1  -7 -10  147.09   22.50
  -1   7   9   43.60   14.90
   1   7  -9   65.59   11.70
   1   7  -9   54.19   17.80
   1  -7  -9   50.69   16.40
   1  -7  -9  108.19   19.40
  -1   7   8  322.37   36.40
   1   7  -8  357.66   30.00
   1   7  -8  365.86   38.50
   1  -7  -8  387.56   34.80
   1  -7  -8  334.97   30.70
  -1   7   7  285.57   31.10
   1   7  -7  258.87   31.60
   1   7  -7  258.47   23.90
   1  -7  -7  271.67   24.30
  -1  -7   7  169.08   29.90
   1  -7  -7  298.97   30.60
  -1   7   6   37.30   11.30
   1   7  -6   70.69   13.00
   1   7  -6   94.59   16.90
   1  -7  -6   53.29   14.80
  -1  -7   6   29.30   22.80
   1  -7  -6   51.59    8.80
  -1   7   5   -5.90    9.40
   1   7  -5    8.00    7.30
   1   7  -5    0.40   10.60
   1  -7  -5   16.00   13.70
  -1  -7   5  -18.10   14.90
  -1   7   4  412.06   35.40
   1   7  -4  345.57   35.20
   1   7  -4  415.46   31.20
  -1  -7   4  444.06   36.10
   1  -7  -4  422.86   37.60
   1   7  -3  230.88   26.30
   1   7  -3  256.07   20.40
   1   7  -3  207.48   25.70
  -1   7   3  254.47   26.50
  -1  -7   3  288.17   28.60
   1  -7  -3  266.77   29.20
   1   7  -2  280.47   22.00
   1   7  -2  269.97   33.00
  -1  -7   2  290.47   30.40
   1   7  -1    3.10    8.60
  -1   7   1   12.20    8.70
   1  -7  -1    5.30   15.90
  -1  -7   1   32.90   15.50
   1   7   0   25.00    9.20
  -1   7   0   33.70    9.20
   1  -7   0   41.50   15.60
  -1  -7   0   59.39   15.30
  -1   7  -1   38.50    9.40
   1   7   1   23.20    8.50
  -1  -7  -1   48.80   14.60
   1  -7   1   52.49   16.30
   1   7   2  303.17   28.70
   1  -7   2  333.07   33.30
  -1  -7  -2  274.27   42.00
  -1   7  -3    6.00    9.30
  -1   7  -3   12.80    6.00
   1   7   3    6.50   12.90
  -1  -7  -3   16.80   13.20
   1  -7   3    3.70   16.40
   1   7   4   17.30    9.20
   1  -7   4  -30.80   16.50
  -1   7  -5   32.30   11.30
  -1   7  -5   45.80    8.00
   1   7   5   24.90   10.20
   1  -7   5  -19.20   17.20
  -1  -7  -5   58.09   14.50
  -1  -7  -5   42.10   10.10
   1   7   6  876.01   61.29
  -1   7  -6  884.31   61.89
  -1   7  -6  807.72   59.49
   1  -7   6  690.83   62.69
  -1  -7  -6  902.11   62.29
  -1  -7  -6  703.53   59.79
   1   7   7   31.70   11.80
  -1   7  -7   41.60    9.40
  -1   7  -7   35.50   14.10
  -1  -7  -7   56.49   15.60
  -1  -7  -7   39.00   10.70
   1   7   8   32.50   13.30
  -1   7  -8   56.19   10.80
  -1   7  -8   49.00   16.20
   1  -7   8   93.69   20.90
  -1  -7  -8   42.70   12.30
  -1  -7  -8   87.39   16.60
  -1   7  -9   -6.90   16.60
   1   7   9   -7.70   13.80
  -1   7  -9   -2.50    9.90
   1  -7   9   58.49   19.90
  -1  -7  -9   19.90   15.80
  -1  -7  -9    7.70   12.20
  -1   7 -10   41.00   11.20
  -1   7 -10   21.80   18.30
   1   7  10   19.70   15.50
  -1  -7 -10   28.50   13.50
  -1  -7 -10   10.60   15.00
   1   8 -10   48.20   11.60
   1   8 -10   39.20   19.10
  -1   8  10    7.60   15.80
   1  -8 -10   10.70   12.20
   1  -8 -10   28.20   16.80
   1   8  -9   16.00   10.70
  -1   8   9    1.00   13.70
   1   8  -9   30.90   17.80
   1  -8  -9   12.20   11.50
   1  -8  -9   17.40   16.60
  -1  -8   9   40.20   19.40
  -1   8   8    8.10   12.80
   1   8  -8    3.30    9.90
   1   8  -8   13.20   15.10
   1  -8  -8    5.50    9.70
   1  -8  -8   14.30   16.00
  -1  -8   8  -14.30   16.40
  -1   8   7  156.78   26.50
   1   8  -7  177.88   29.00
   1   8  -7  170.78   20.10
  -1  -8   7  115.69   22.40
   1  -8  -7  184.88   28.40
   1   8  -6  475.35   44.20
   1   8  -6  544.45   39.80
  -1   8   6  526.35   43.80
  -1  -8   6  498.95   45.40
   1  -8  -6  550.14   44.70
  -1   8   5   29.40   11.40
   1   8  -5   88.69   14.20
   1   8  -5   45.30   12.20
   1  -8  -5   54.59   15.80
  -1   8   4   35.90   11.00
   1   8  -4   40.50   10.70
   1  -8  -4   37.10   17.20
  -1  -8   4   69.79   18.00
   1   8  -3   89.79   20.30
   1   8  -3   74.99   12.20
  -1   8   3   57.89   11.70
   1  -8  -3   67.49   16.90
  -1   8   2  325.37   29.30
   1   8  -2  263.57   28.80
  -1  -8   2  334.57   32.60
   1  -8  -2  294.97   33.80
   1   8  -1   74.09   11.60
  -1   8   1   69.89   11.20
   1  -8  -1   80.59   17.70
  -1  -8   1   96.09   18.50
   1   8   0  190.38   23.60
  -1   8   0  202.58   24.20
   1  -8   0  211.88   30.00
  -1  -8   0  257.67   27.70
   1   8   1 1442.06   99.99
  -1   8  -1 1368.76  100.19
  -1  -8  -1 1401.26  101.39
   1  -8   1 1413.16  101.89
   1   8   2   11.00    8.90
  -1   8  -2    1.40    9.10
  -1  -8  -2   22.70   14.70
   1  -8   2   12.50   17.40
  -1   8  -3  385.86   28.60
  -1   8  -3  340.47   33.40
   1   8   3  382.46   33.10
   1  -8   3  433.56   37.70
  -1  -8  -3  351.16   35.20
   1   8   4  125.79   22.50
  -1   8  -4  112.49   21.90
  -1   8  -4  159.18   15.20
  -1  -8  -4  117.19   20.60
   1  -8   4  157.58   28.00
  -1   8  -5  182.98   18.40
  -1   8  -5  160.78   24.20
   1   8   5  172.28   24.30
   1  -8   5  115.99   27.00
  -1  -8  -5  222.88   27.30
  -1   8  -6   39.40   10.20
   1   8   6   20.20   11.40
  -1   8  -6   23.80   12.10
  -1  -8  -6   32.10   16.50
  -1  -8  -6   16.10   10.90
  -1   8  -7  316.17   33.80
  -1   8  -7  360.26   27.20
   1   8   7  286.97   32.30
  -1  -8  -7  330.47   34.00
  -1  -8  -7  265.87   30.50
   1  -8   7  248.48   42.10
   1   8   8   15.50   12.60
  -1   8  -8   11.60   10.10
  -1   8  -8   13.70   14.60
  -1  -8  -8   16.90   14.40
   1  -8   8  -47.70   19.70
  -1  -8  -8   39.30   17.10
  -1   8  -9    2.50   17.10
  -1   8  -9   10.60   10.30
   1   8   9    1.10   13.40
  -1  -8  -9    4.40   13.00
   1  -8   9  -14.70   19.20
  -1  -8  -9   11.50   17.60
   1   8  10    0.80   15.00
  -1   8 -10   35.70   11.30
  -1   8 -10   38.30   19.40
  -1  -8 -10   32.50   14.50
   1  -8  10    8.30   20.50
  -1  -8 -10   23.60   17.20
   1   9  -9   42.40   17.80
  -1   9   9   18.10   13.60
   1   9  -9   21.60   11.20
   1  -9  -9   46.10   19.80
   1  -9  -9   28.40   12.80
  -1  -9   9   37.90   19.30
   1   9  -8   27.90   15.20
  -1   9   8   31.20   13.30
   1   9  -8   37.60   10.80
   1  -9  -8   38.20   18.50
   1  -9  -8   33.00   11.90
   1   9  -7  186.48   20.70
  -1   9   7  158.88   29.10
   1   9  -7  142.39   29.40
  -1  -9   7  234.08   29.70
   1  -9  -7  229.18   31.50
   1   9  -6   17.00   12.90
   1   9  -6    7.60    9.00
  -1   9   6   -1.90   11.70
   1  -9  -6   21.90   18.10
  -1  -9   6   23.40   18.30
   1   9  -5  429.36   39.40
   1   9  -5  478.05   35.10
  -1   9   5  411.46   39.00
  -1  -9   5  497.95   43.30
   1  -9  -5  446.56   41.50
  -1   9   4    2.30   10.60
   1   9  -4   28.70   10.90
  -1  -9   4   81.79   19.90
   1  -9  -4   14.80   17.50
   1   9  -3   80.59   12.30
  -1   9   3   42.80   11.40
   1   9  -3   39.90   11.10
  -1  -9   3   76.79   19.90
   1  -9  -3   65.89   18.50
   1   9  -2  -12.90    9.40
  -1   9   2   -9.00    9.60
  -1  -9   2   -0.80   17.70
   1  -9  -2   13.80   16.20
   1   9  -1  837.82   65.29
  -1   9   1  895.21   65.09
   1  -9  -1  942.81   68.39
  -1  -9   1  878.51   67.89
   1   9   0   -1.60    9.40
  -1   9   0   10.20    9.40
  -1  -9   0   53.19   16.50
   1  -9   0   58.69   17.40
   1   9   1  139.19   20.80
  -1   9  -1   93.49   20.60
  -1  -9  -1   91.59   19.30
   1  -9   1  138.19   28.10
   1   9   2  150.38   20.70
  -1   9  -2  134.89   21.40
  -1  -9  -2  181.48   27.80
   1  -9   2  126.69   22.10
   1   9   3   52.89   10.80
  -1   9  -3   50.99   11.20
  -1  -9  -3   67.49   18.50
   1  -9   3   68.19   19.20
  -1   9  -4   54.09    9.10
   1   9   4   45.40   11.60
  -1   9  -4   41.20   11.50
   1  -9   4   72.79   20.20
  -1  -9  -4   81.49   19.70
  -1   9  -5  230.18   20.50
  -1   9  -5  175.28   26.30
   1   9   5  175.18   26.20
  -1  -9  -5  200.38   29.40
   1  -9   5  215.48   31.00
   1   9   6   67.99   12.90
  -1   9  -6   52.59   13.40
  -1   9  -6   96.59   16.00
  -1  -9  -6   79.29   19.70
   1  -9   6   59.99   20.90
   1   9   7    6.80   12.50
  -1   9  -7   12.00   13.70
  -1   9  -7   13.90    9.70
   1  -9   7  -14.20   20.50
  -1  -9  -7    0.80   12.90
  -1  -9  -7   42.40   19.30
  -1   9  -8  133.79   20.30
   1   9   8  165.88   28.50
  -1   9  -8  160.08   30.00
   1  -9   8   99.19   24.80
  -1  -9  -8  202.78   28.80
  -1   9  -9  187.98   34.70
  -1   9  -9  205.58   22.50
   1   9   9  202.08   30.50
  -1  -9  -9  145.09   28.90
   1  -9   9  123.29   26.30
  -1  -9  -9  182.78   31.40
   1  10  -8   51.29   11.60
  -1  10   8   43.50   15.60
   1  10  -8   55.79   16.90
   1 -10  -8   92.59   20.80
  -1 -10   8   64.89   21.10
   1  10  -7  223.18   22.80
   1  10  -7  220.78   31.90
  -1  10   7  217.68   31.00
  -1 -10   7  211.48   32.40
   1 -10  -7  253.17   34.80
   1  10  -6    3.90    9.70
  -1  10   6    3.00   12.00
   1  10  -6   14.00   13.30
  -1 -10   6   32.50   20.00
   1 -10  -6   40.20   19.00
  -1  10   5  140.59   25.50
   1  10  -5  173.38   18.80
   1  10  -5  106.49   25.00
   1 -10  -5  158.08   29.00
  -1 -10   5  183.78   29.60
   1  10  -4   26.50   11.30
  -1  10   4   29.30   12.00
   1  10  -4   38.50    8.50
  -1 -10   4   42.00   20.10
   1 -10  -4   24.70   18.40
   1  10  -3  505.75   44.90
  -1  10   3  562.44   44.80
   1 -10  -3  572.84   49.10
  -1 -10   3  611.94   48.50
   1  10  -2   47.50   12.00
  -1  10   2   52.79   10.70
   1 -10  -2   70.79   19.80
  -1 -10   2   51.29   19.50
   1  10  -1  113.49   21.70
  -1  10   1  141.29   22.00
   1 -10  -1  132.79   27.80
  -1 -10   1  135.69   27.10
   1  10   0   17.70   10.40
  -1  10   0   13.40   10.10
  -1 -10   0   25.80   18.20
   1 -10   0   49.20   19.80
  -1  10  -1  226.48   26.80
   1  10   1  262.97   27.00
   1 -10   1  273.17   33.40
  -1 -10  -1  267.57   31.80
  -1  10  -2   54.19   11.60
   1  10   2   83.59   19.40
   1 -10   2   97.59   20.90
  -1 -10  -2   87.69   19.00
   1  10   3   97.89   20.00
  -1  10  -3   62.09   12.60
  -1 -10  -3  105.69   19.90
   1 -10   3   75.59   21.00
   1  10   4   10.00   10.80
  -1  10  -4    8.30   11.50
  -1 -10  -4   55.59   19.20
   1 -10   4   26.50   21.10
   1  10   5   23.80   11.80
  -1  10  -5    6.20    8.90
  -1  10  -5    8.50   11.70
  -1 -10  -5    2.70   18.40
   1 -10   5   16.80   21.60
  -1  10  -6    4.60    9.40
  -1  10  -6   -2.60   12.30
   1  10   6   -4.90   12.30
   1 -10   6   -1.80   21.80
  -1 -10  -6   10.20   20.20
  -1  10  -7  209.08   22.80
  -1  10  -7  195.18   30.10
   1  10   7  190.88   28.80
   1 -10   7  173.88   34.50
  -1 -10  -7  237.68   32.70
  -1  10  -8   13.30   11.70
   1  10   8   11.40   14.00
  -1  10  -8    7.60   16.10
   1 -10   8  -24.50   22.10
  -1 -10  -8   17.60   19.20
  -1 -10  -8   -8.30   15.60
   1  11  -7  133.79   19.80
   1 -11  -7  170.78   34.40
  -1  11   6    1.70   12.30
   1  11  -6    3.10   14.30
   1  11  -6   22.30   10.30
   1 -11  -6   14.80   20.40
  -1 -11   6   52.79   22.20
   1  11  -5   42.20   13.10
  -1  11   5   45.30   13.00
  -1 -11   5   66.59   21.70
   1 -11  -5   74.69   21.80
  -1  11   4  103.09   24.40
   1  11  -4  122.09   16.70
  -1 -11   4  124.29   23.40
   1 -11  -4   98.59   22.70
   1  11  -3    0.00   11.30
  -1  11   3    3.70   10.90
  -1 -11   3   23.90   20.60
   1 -11  -3   13.70   20.00
  -1  11   2  275.47   28.70
   1  11  -2  255.67   29.60
  -1 -11   2  296.27   35.00
   1 -11  -2  330.97   36.30
  -1  11   1  361.46   32.00
   1  11  -1  294.87   31.70
  -1 -11   1  352.56   37.00
   1 -11  -1  307.77   37.10
  -1  11   0   10.60   11.10
   1  11   0    7.00   10.60
  -1 -11   0   50.59   20.60
   1 -11   0   14.40   19.90
   1  11   1  150.18   22.60
  -1  11  -1  102.79   23.30
   1 -11   1  154.08   30.80
  -1 -11  -1  174.58   29.60
   1  11   2  105.79   22.10
  -1  11  -2  120.89   22.10
  -1 -11  -2  168.48   29.80
   1 -11   2   93.79   23.90
   1  11   3   20.80   10.10
  -1  11  -3   19.80   12.30
  -1 -11  -3   49.70   21.80
   1 -11   3   29.60   22.80
   1  11   4   -5.00   10.40
  -1  11  -4    9.90   12.20
   1 -11   4    0.20   22.60
  -1 -11  -4   14.10   20.90
   1  11   5  287.57   31.80
  -1  11  -5  237.48   32.20
  -1  11  -5  346.57   27.60
   1 -11   5  338.37   40.00
  -1 -11  -5  286.87   37.30
  -1  11  -6   -2.40   12.70
  -1  11  -6   -3.40   11.10
   1  11   6  -10.50   12.30
  -1 -11  -6    3.30   20.10
   1 -11   6  -14.30   23.60
  -1  12   5   -6.80   13.20
   1  12  -5   10.30   12.70
   1 -12  -5   19.80   21.80
  -1 -12   5   42.00   22.20
   1  12  -4   33.30   12.30
   1  12  -4   34.40    9.80
  -1  12   4    5.50   11.50
   1 -12  -4   47.70   21.30
  -1 -12   4   30.30   22.30
  -1  12   3   13.90   11.10
   1  12  -3    2.00   12.20
  -1 -12   3    9.20   21.40
   1 -12  -3   16.60   20.10
   1  12  -2   30.50   12.20
  -1  12   2   36.40   12.30
  -1 -12   2   63.69   22.10
   1 -12  -2   46.40   21.80
   1  12  -1  -19.10   10.70
  -1  12   1  -17.90   10.40
  -1 -12   1    3.80   20.50
   1 -12  -1    6.80   22.60
  -1  12   0  282.37   30.30
   1  12   0  285.27   30.10
   1 -12   0  290.07   37.20
  -1 -12   0  292.37   36.90
   1  12   1   21.60   11.40
  -1  12  -1   11.60   11.40
  -1 -12  -1   34.50   21.30
   1 -12   1   30.60   21.90
  -1  12  -2   53.29   12.50
   1  12   2   52.29   12.10
   1 -12   2   82.69   23.20
  -1 -12  -2   71.39   22.90
   1  12   3   11.40   11.00
  -1  12  -3    0.10   11.60
   1 -12   3   11.00   21.90
  -1 -12  -3   33.60   23.60
  -1  12  -4  131.59   25.70
   1  12   4  151.38   23.20
  -1 -12  -4  106.09   24.50
   1 -12   4  107.89   25.00
  -1 -12  -5   27.90   22.80
  -1  13   0   12.30   11.50
  -1 -13   0   61.49   23.70
   1 -13   0   43.70   25.10
  -2   0  13    2.30   15.20
   2   0 -13   -0.40   11.50
   2   0 -12  301.57   28.60
  -2   0  12  249.68   34.00
   2   0 -11  -12.20   10.10
  -2   0  11   -0.90   13.80
  -2   0  10   47.50   14.20
  -2   0   9    3.50   12.90
   2   0  -9  -10.70    8.40
   2   0  -8  724.13   54.29
  -2   0   8  767.22   58.49
   2   0  -7   -2.20    8.20
  -2   0   7    6.70   12.90
   2   0  -7   10.70   12.60
  -2   0   7    5.70   15.10
  -2   0   6  245.88   28.40
   2   0  -6  224.68   21.30
   2   0  -6  182.88   29.40
  -2   0   6  199.58   28.70
  -2   0   5   -9.20   11.00
  -2   0   5    0.80   10.70
   2   0  -5   -4.10    7.30
   2   0  -5   -0.20   11.30
  -2   0   4  157.88   23.50
  -2   0   4  141.79   24.30
   2   0  -4  163.18   24.20
   2   0  -4  131.09   16.20
  -2   0   3  -12.00    9.00
   2   0  -3  -13.70    9.80
  -2   0   3   -6.50    8.90
   2   0  -3   -7.30    6.20
  -2   0   2 5695.13  390.96
  -2   0   2 5706.63  391.06
   2   0  -2 5393.26  391.06
   2   0  -2 5736.93  390.56
  -2   0   1   -0.50    5.00
   2   0  -1    0.00    4.50
  -2   0   1    0.10    4.80
   2   0  -1   -2.50    7.30
  -2   0   1    4.50    7.10
   2   0   0   15.80    4.90
   2   0   0    6.50    7.60
  -2   0   0   13.60    7.10
  -2   0   0   13.00    5.80
  -2   0  -1   -7.30    9.30
  -2   0  -1   -4.60    6.50
   2   0   1    5.80    9.70
  -2   0  -1   -0.40    6.30
  -2   0  -2 1525.05  100.49
  -2   0  -2 1437.46  104.09
   2   0   2 1415.76  104.09
  -2   0  -2 1360.06  100.39
   2   0   3  -20.50   16.80
  -2   0  -3   -7.00    6.40
  -2   0  -3   -0.90    8.20
   2   0   4 1199.18   96.09
   2   0   4 1380.36   95.99
  -2   0  -4 1326.67   94.29
  -2   0  -4 1448.85   94.39
  -2   0  -5   -0.80    7.10
   2   0   5  -19.70   10.40
  -2   0  -5   -3.40    9.10
   2   0   5   -4.30    9.70
   2   0   6   30.30   11.70
  -2   0  -6   38.50    8.70
  -2   0  -6   48.10   10.20
   2   0   7   32.10   12.40
   2   0   7    2.30   11.40
  -2   0  -7   -5.60    9.40
  -2   0  -8 1117.39   77.49
  -2   0  -8 1049.09   77.39
  -2   0  -9  -15.90    9.50
  -2   0  -9    3.40   10.00
   2   0   9   13.00   14.20
  -2   0 -10    5.70   10.00
   2   0  10   38.20   15.50
   2   0  11   -6.20   15.30
  -2   0 -11   -3.60   10.90
  -2   0 -12  225.78   26.10
   2   0  12  201.48   33.60
  -2   1  13   15.50   15.70
  -2  -1  13   35.30   16.40
  -2   1  12   91.19   16.80
   2   1 -12  123.99   21.90
   2  -1 -12  130.29   20.60
  -2  -1  12  136.19   31.50
   2   1 -11   37.50   11.40
  -2   1  11   46.30   13.90
  -2  -1  11   53.19   16.50
   2  -1 -11   41.20   11.30
   2   1 -10  128.99   20.10
  -2   1  10  126.59   26.10
  -2  -1  10  151.48   29.60
   2  -1 -10  136.39   20.00
  -2   1   9   36.00   12.00
   2   1  -9   22.10   10.10
   2  -1  -9   39.80    9.40
  -2  -1   9   18.50   14.20
   2   1  -8  124.59   17.00
  -2   1   8   75.09   13.20
  -2  -1   8   83.09   15.10
  -2   1   7  213.58   26.90
   2   1  -7  226.58   21.70
  -2   1   7  203.68   34.10
   2   1  -7  175.78   28.70
   2  -1  -7  206.58   20.80
  -2  -1   7  223.38   30.00
  -2  -1   7  231.48   32.90
   2  -1  -7  209.08   27.70
  -2   1   6  755.72   60.69
   2   1  -6  768.32   61.69
  -2   1   6  868.51   61.39
   2   1  -6  792.12   58.59
  -2  -1   6  916.41   62.59
   2  -1  -6  770.02   58.19
   2  -1  -6  822.82   61.49
  -2  -1   6  791.02   63.99
  -2   1   5  173.48   25.60
   2   1  -5  166.18   27.30
  -2   1   5  187.18   23.40
   2   1  -5  163.78   18.40
  -2  -1   5  154.88   25.80
   2  -1  -5  164.88   24.60
  -2  -1   5  157.58   32.20
   2  -1  -5  172.78   17.80
   2   1  -4  407.76   31.00
  -2   1   4  409.26   34.30
  -2   1   4  402.86   34.90
   2   1  -4  362.66   36.30
  -2  -1   4  404.66   41.80
   2  -1  -4  377.26   35.10
   2  -1  -4  424.56   30.70
  -2  -1   4  381.76   35.70
  -2   1   3    3.50    8.30
   2   1  -3   -2.00   10.50
   2   1  -3    6.50    6.20
  -2  -1   3    4.90    9.90
   2  -1  -3    8.70    5.70
   2  -1  -3    5.50    9.70
  -2   1   2  120.29   18.30
  -2   1   2  156.58   14.60
   2   1  -2  131.79   20.80
   2   1  -2  134.79   14.10
   2  -1  -2  120.19   13.10
   2  -1  -2  136.59   19.00
  -2  -1   2  128.79   21.10
   2   1  -1  401.76   27.80
  -2   1   1  397.26   30.00
   2   1  -1  368.76   31.10
   2   1  -1  366.46   27.80
  -2   1   1  355.46   28.50
  -2   1   1  378.96   27.90
   2  -1  -1  378.26   30.10
   2  -1  -1  343.97   27.50
  -2  -1   1  388.96   28.10
  -2  -1   1  397.46   31.20
  -2   1   0 1284.07   90.59
  -2   1   0 1347.37   89.59
   2   1   0 1259.07   89.49
   2   1   0 1339.57   90.89
  -2  -1   0 1290.87   89.69
  -2  -1   0 1195.38   90.59
   2  -1   0 1327.37   90.59
   2  -1   0 1215.78   89.49
  -2   1  -1   64.19   11.90
   2   1   1   58.69   11.10
  -2   1  -1   84.99   11.50
  -2   1  -1   43.40   11.00
  -2   1  -1   48.20    8.70
   2  -1   1   59.49   10.70
  -2  -1  -1   72.59   12.60
  -2  -1  -1  104.29   15.60
  -2  -1  -1   71.79   11.70
   2   1   2   17.70   12.80
  -2   1  -2   34.30    7.50
  -2   1  -2   13.30    5.30
  -2   1  -2   24.50    6.10
  -2  -1  -2   16.70    7.20
  -2  -1  -2    9.50   13.40
   2  -1   2    4.80   14.30
  -2  -1  -2   44.80    9.00
  -2   1  -3   81.09   15.80
  -2   1  -3   52.99    7.80
   2   1   3   62.19   17.00
  -2   1  -3   81.49   13.20
  -2  -1  -3   58.99    8.40
   2  -1   3   48.80   10.30
  -2  -1  -3   86.59   15.70
   2   1   4  104.19   20.60
  -2   1  -4   79.99   13.90
   2   1   4  100.79   20.80
  -2   1  -4   92.59   14.30
  -2  -1  -4   87.09   16.90
   2  -1   4   97.69   21.00
  -2  -1  -4   82.69   15.30
   2   1   5   -3.70    9.80
  -2   1  -5    5.80    7.30
  -2   1  -5    4.40    8.10
   2  -1   5   14.80   10.20
  -2  -1  -5    4.40    7.40
  -2  -1  -5   20.10   10.30
   2   1   6  179.98   25.20
  -2   1  -6  165.78   17.90
  -2   1  -6  167.38   18.90
   2  -1   6  217.08   26.60
   2  -1   6  121.39   21.00
  -2  -1  -6  190.68   18.90
  -2  -1  -6  179.28   20.00
   2   1   7   61.39   12.80
  -2   1  -7   62.99   11.30
  -2   1  -7   59.99    9.60
   2  -1   7   35.70   16.90
   2  -1   7   50.39   13.00
  -2  -1  -7   59.49   11.20
  -2  -1  -7   64.89   11.60
   2   1   8   37.70   15.20
  -2   1  -8    6.60    9.10
   2  -1   8    6.50   19.50
  -2  -1  -8    2.80   10.70
  -2  -1  -8    0.20    8.40
   2   1   9  145.09   26.00
  -2   1  -9  108.89   18.10
   2  -1   9  172.38   30.40
  -2  -1  -9   87.49   13.20
  -2  -1  -9  102.19   18.70
  -2   1 -10  176.88   22.10
   2   1  10  219.38   29.20
   2  -1  10  201.38   33.80
  -2  -1 -10  113.29   21.20
  -2  -1 -10  158.48   21.50
   2   1  11   96.49   17.00
  -2   1 -11   73.29   13.60
  -2  -1 -11   74.49   13.50
   2  -1  11   65.89   19.20
  -2   1 -12   15.90   12.60
   2   1  12   49.70   17.20
   2  -1  12   24.20   18.80
  -2  -1 -12   31.00   13.00
   2   2 -12   56.69   12.60
  -2   2  12   49.20   14.10
   2  -2 -12   63.79   12.00
  -2  -2  12   33.70   19.00
   2   2 -11   52.89   12.50
  -2   2  11   69.19   14.10
   2  -2 -11   61.79   11.90
  -2  -2  11   61.89   17.90
  -2   2  10   25.30   13.30
   2   2 -10   21.70   10.50
   2  -2 -10   15.80    9.70
  -2  -2  10   -3.40   15.80
  -2   2   9   62.89   13.20
  -2  -2   9   41.70   17.10
   2   2  -8  134.59   18.00
  -2   2   8  113.09   24.90
   2  -2  -8  127.49   16.10
  -2  -2   8  101.29   20.30
   2   2  -7   -3.70   12.70
  -2   2   7   23.60   11.10
   2   2  -7    3.90   12.70
   2  -2  -7    2.70    7.70
   2  -2  -7    7.10   11.30
  -2  -2   7  -26.80   25.90
  -2  -2   7   13.20   13.20
   2   2  -6  484.85   44.10
  -2   2   6  531.95   42.90
  -2   2   6  554.34   43.50
   2   2  -6  545.45   39.90
   2  -2  -6  480.55   38.90
  -2  -2   6  575.84   44.80
   2  -2  -6  539.75   43.10
  -2   2   5  363.56   33.30
   2   2  -5  344.67   35.30
   2   2  -5  357.66   29.10
  -2   2   5  373.26   34.40
  -2  -2   5  411.26   34.90
   2  -2  -5  371.86   28.50
   2  -2  -5  337.17   28.90
   2  -2  -5  342.47   33.40
  -2   2   4   38.10    9.90
  -2   2   4   50.69   10.80
   2   2  -4   70.69   13.50
   2   2  -4   38.60   11.20
   2   2  -4   46.80   11.90
   2  -2  -4   71.99   11.30
   2  -2  -4   43.10   10.40
   2  -2  -4   46.10    7.40
  -2  -2   4   32.20   11.50
   2   2  -3  389.16   31.50
  -2   2   3  503.85   35.70
   2   2  -3  394.86   36.40
  -2   2   3  404.06   33.40
   2   2  -3  448.26   33.90
   2  -2  -3  415.86   34.40
  -2  -2   3  369.46   35.90
   2  -2  -3  402.76   30.70
  -2   2   2  390.66   30.00
   2   2  -2  397.76   28.70
   2   2  -2  337.97   31.70
   2   2  -2  375.76   27.50
  -2   2   2  327.07   29.30
   2  -2  -2  354.96   29.30
   2  -2  -2  335.57   26.30
  -2  -2   2  330.07   28.20
  -2  -2   2  363.86   32.10
   2   2  -1  154.88   16.60
  -2   2   1  209.38   19.20
   2   2  -1  160.78   22.70
   2   2  -1  196.18   17.50
  -2   2   1  202.98   19.70
   2  -2  -1  202.18   15.30
  -2  -2   1  161.88   19.20
  -2  -2   1  224.78   23.60
  -2   2   0  120.89   15.50
   2   2   0  134.99   13.30
  -2  -2   0   97.59   16.50
  -2  -2   0  177.78   21.10
  -2   2  -1 2895.51  205.48
  -2   2  -1 2755.42  205.38
   2   2   1 2746.63  205.48
  -2   2  -1 3051.99  205.78
   2   2   1 3243.48  206.88
  -2  -2  -1 3303.77  207.08
   2  -2   1 2691.53  206.58
  -2  -2  -1 2994.90  205.88
  -2   2  -2  720.83   50.09
  -2   2  -2  622.74   49.40
   2   2   2  708.73   54.99
   2   2   2  673.73   49.80
  -2   2  -2  744.43   50.09
   2  -2   2  660.03   51.19
  -2  -2  -2  715.03   50.79
  -2  -2  -2  680.03   56.79
  -2  -2  -2  712.43   50.69
   2   2   3    9.10   14.60
  -2   2  -3  -12.40    7.20
  -2   2  -3    2.00    7.80
  -2   2  -3    3.00    5.90
  -2  -2  -3    6.90   10.20
  -2  -2  -3   -0.50    7.30
   2  -2   3  -13.70    8.80
  -2   2  -4   61.49    8.70
   2   2   4   65.19   17.80
  -2   2  -4   26.40    7.20
   2   2   4   39.40   10.50
  -2   2  -4   34.10    9.20
  -2  -2  -4   43.10   11.10
   2  -2   4   25.80   10.10
  -2  -2  -4   37.60    8.00
  -2   2  -5  220.38   20.90
  -2   2  -5  222.88   25.90
  -2   2  -5  199.18   20.60
   2   2   5  211.68   25.60
   2   2   5  267.87   41.50
  -2  -2  -5  241.28   22.60
  -2  -2  -5  228.88   22.00
  -2   2  -6   60.39    9.20
  -2   2  -6   65.59    9.50
   2   2   6   88.19   20.50
  -2   2  -6   31.80   13.50
   2   2   6   45.70   10.90
  -2  -2  -6   71.19   11.50
  -2  -2  -6   55.39    9.80
   2  -2   6   59.09   12.80
  -2   2  -7  614.34   52.09
   2   2   7  751.72   55.19
   2   2   7  777.42   56.99
  -2   2  -7  695.23   59.59
  -2   2  -7  648.54   52.59
   2  -2   7  737.83   57.89
  -2  -2  -7  764.82   53.09
  -2  -2  -7  783.82   53.29
  -2   2  -8   36.10    9.50
   2   2   8   57.09   23.10
   2  -2   8    7.80   18.80
  -2  -2  -8   35.70   10.00
  -2  -2  -8   43.60   11.70
  -2   2  -9    5.30    9.20
   2   2   9   -0.10   13.70
   2  -2   9    6.20   19.50
  -2  -2  -9    7.40   22.10
  -2  -2  -9   12.50   10.20
   2   2  10   41.50   14.20
  -2   2 -10   20.80   11.30
  -2  -2 -10   24.20   13.30
  -2  -2 -10   32.40   11.00
   2  -2  10   19.40   18.90
  -2   2 -11  175.98   23.80
   2   2  11  201.38   29.00
   2  -2  11  165.98   36.80
  -2  -2 -11  133.59   24.20
  -2  -2 -11  172.58   23.80
   2   2  12   70.49   16.60
  -2   2 -12   54.09   13.20
   2  -2  12   44.70   21.30
  -2  -2 -12   53.69   14.00
   2   3 -12    7.30   11.50
  -2   3  12   12.30   14.70
  -2  -3  12   -1.00   18.30
   2  -3 -12    7.80   11.20
   2   3 -11  410.46   33.50
  -2   3  11  318.57   38.00
  -2  -3  11  320.97   45.80
   2  -3 -11  405.56   32.00
  -2   3  10   -3.20   13.50
   2   3 -10   -5.90    9.80
  -2  -3  10   -5.50   19.90
   2  -3 -10    4.50    9.10
  -2   3   9   40.00   13.20
   2   3  -9   37.10    9.70
   2  -3  -9   21.10   10.30
  -2  -3   9   10.00   20.50
   2   3  -8  274.67   25.50
  -2   3   8  283.47   31.90
   2  -3  -8  270.77   25.30
  -2  -3   8  238.68   45.40
   2  -3  -8  302.37   24.40
   2   3  -7 1305.47   84.49
  -2   3   7 1273.77   86.69
   2   3  -7 1119.19   88.09
  -2   3   7 1126.99   86.59
   2  -3  -7 1084.19   84.39
   2  -3  -7 1212.18   86.59
   2  -3  -7 1162.58   83.79
  -2  -3   7 1203.48   87.79
   2   3  -6    7.80    7.90
  -2   3   6   -4.60   10.00
   2   3  -6   10.50   11.80
  -2   3   6   18.00   11.30
   2  -3  -6   10.20   10.20
  -2  -3   6   26.90   12.50
   2  -3  -6    8.20    6.80
   2  -3  -6   11.50    9.20
   2   3  -5   18.20   11.80
   2   3  -5    6.70   13.40
  -2   3   5   28.50   10.80
   2   3  -5   26.00   11.20
  -2   3   5   10.80    9.50
   2  -3  -5   16.00    6.70
  -2  -3   5   18.90   11.70
   2  -3  -5   31.40   10.70
   2  -3  -5    8.00    9.80
   2   3  -4  169.48   26.30
   2   3  -4  195.28   23.40
   2   3  -4  158.88   18.40
  -2   3   4  192.58   21.80
  -2   3   4  193.48   25.00
   2  -3  -4  181.18   17.10
   2  -3  -4  220.78   22.80
  -2  -3   4  226.18   25.60
   2  -3  -4  185.58   23.20
   2   3  -3 1114.49   78.39
  -2   3   3 1076.49   79.59
   2   3  -3 1166.38   79.49
  -2   3   3 1060.79   78.89
   2   3  -3 1068.99   80.49
  -2  -3   3  999.10   78.79
   2  -3  -3 1111.29   77.79
   2  -3  -3 1186.98   79.39
  -2  -3   3 1098.49   80.59
   2  -3  -3 1240.08   80.39
  -2   3   2   29.90    8.90
   2   3  -2   31.20    6.60
   2   3  -2   28.10    8.10
   2   3  -2   25.70    9.80
  -2  -3   2   24.40   11.00
  -2  -3   2   38.50   10.60
  -2   3   1  269.37   25.00
  -2   3   1  212.98   22.90
   2   3  -1  259.27   22.00
   2   3  -1  207.88   25.20
   2   3  -1  228.48   19.80
  -2  -3   1  226.98   23.70
  -2  -3   1  274.27   26.10
  -2   3   0 1070.89   76.49
   2   3   0 1091.99   74.99
   2   3   0 1093.79   75.39
   2   3   0 1103.29   76.69
  -2   3   0  988.40   75.79
  -2  -3   0 1102.99   77.19
  -2  -3   0 1018.80   76.39
   2   3   1   57.69    9.50
  -2   3  -1   60.69    8.30
  -2   3  -1   68.99   10.80
  -2   3  -1   88.79   16.30
   2   3   1   54.59    7.80
   2   3   1   70.99   12.30
  -2  -3  -1   74.49   12.20
  -2  -3  -1   68.69   13.00
  -2   3  -2 1068.59   80.39
  -2   3  -2 1096.09   81.39
   2   3   2 1136.39   80.99
  -2   3  -2 1252.17   81.39
   2   3   2 1121.49   84.19
  -2  -3  -2 1147.79   82.09
  -2  -3  -2 1128.59   85.19
   2  -3   2 1228.48   81.59
  -2  -3  -2 1136.49   81.69
  -2   3  -3 2210.18  142.19
  -2   3  -3 1962.10  141.89
  -2   3  -3 1876.21  141.39
   2   3   3 1986.60  141.89
   2   3   3 2020.50  144.59
   2  -3   3 1918.61  142.39
  -2  -3  -3 2138.99  142.49
  -2  -3  -3 2128.19  141.89
  -2   3  -4  273.67   25.00
   2   3   4  361.16   39.20
  -2   3  -4  306.47   26.40
  -2   3  -4  315.37   28.10
   2   3   4  333.07   27.60
  -2  -3  -4  322.77   26.30
  -2  -3  -4  307.77   27.40
  -2   3  -5   16.60    9.00
  -2   3  -5   16.20   11.80
   2   3   5   15.70   17.40
  -2   3  -5   -1.80   11.00
   2   3   5   14.50    9.60
   2   3   5   24.50   10.30
   2  -3   5    3.80   11.00
  -2  -3  -5   11.60    7.90
  -2  -3  -5   12.90   10.60
   2   3   6   48.00   12.00
  -2   3  -6   41.60    9.40
  -2   3  -6   26.00   12.60
  -2   3  -6   12.50   11.80
  -2   3  -6   30.10    8.10
   2   3   6   46.80   19.00
   2   3   6   32.00   10.30
  -2  -3  -6   24.40    9.10
   2  -3   6   36.30   13.70
  -2  -3  -6   43.00   11.10
  -2   3  -7  178.98   19.00
   2   3   7  205.08   26.60
  -2   3  -7  142.89   18.80
  -2  -3  -7  182.98   20.50
  -2  -3  -7  181.38   27.30
  -2   3  -8  118.59   18.10
   2   3   8  113.49   15.80
  -2  -3  -8  113.19   19.30
  -2  -3  -8   95.49   19.40
   2   3   9  134.89   18.30
  -2   3  -9  175.68   20.00
  -2  -3  -9  133.19   21.20
  -2  -3  -9  171.98   21.40
   2  -3   9   91.09   25.90
  -2   3 -10    5.00   10.40
   2   3  10   -5.80   15.10
  -2  -3 -10    8.30   11.40
  -2  -3 -10   -7.80   12.80
   2  -3  10   14.70   22.20
  -2   3 -11   14.40   11.20
   2   3  11   10.00   16.30
  -2  -3 -11    0.70   14.90
  -2  -3 -11   20.10   12.50
   2  -3  11    1.90   22.40
   2   3  12  -12.30   16.60
  -2   3 -12    4.70   12.50
   2  -3  12   -8.60   21.60
  -2  -3 -12    5.70   12.90
   2   4 -12    6.60   11.40
  -2   4  12   -6.30   13.80
  -2  -4  12   -9.80   22.80
   2  -4 -12    1.00   11.00
   2   4 -11   14.00   11.60
  -2   4  11   -3.80   13.40
  -2  -4  11   -5.90   23.50
   2  -4 -11   -0.90   12.10
   2  -4 -11    1.10   10.20
   2   4 -10   32.00   10.70
  -2   4  10   15.80   13.40
   2  -4 -10   37.40   12.50
  -2  -4  10    7.10   22.90
   2  -4 -10   44.30    9.90
   2   4  -9  340.07   27.60
  -2   4   9  274.97   34.50
   2  -4  -9  321.17   26.80
   2  -4  -9  284.17   28.90
  -2   4   8   55.39   13.60
   2   4  -8  105.39   16.20
  -2   4   7   24.20   12.30
   2   4  -7   24.20    9.30
   2   4  -7   28.20   14.30
   2  -4  -7   37.70    7.60
   2  -4  -7   38.30   10.60
  -2   4   6  133.39   21.10
   2   4  -6  104.19   16.20
   2   4  -6  115.89   24.50
   2  -4  -6   89.89   14.20
   2  -4  -6  104.59   20.90
   2  -4  -6  116.59   13.90
   2   4  -5  411.06   38.10
   2   4  -5  449.06   39.80
   2   4  -5  404.86   33.80
  -2   4   5  478.75   36.40
  -2   4   5  421.86   37.70
  -2  -4   5  503.45   38.90
   2  -4  -5  446.46   36.80
   2  -4  -5  440.36   36.40
   2  -4  -5  439.16   32.90
   2   4  -4  674.73   44.90
   2   4  -4  528.45   50.79
  -2   4   4  635.64   47.50
   2   4  -4  588.74   48.20
   2  -4  -4  686.83   47.90
  -2  -4   4  630.34   48.40
   2  -4  -4  629.54   44.00
  -2  -4   4  513.95   46.10
   2   4  -3 1112.89   82.19
  -2   4   3 1122.19   81.69
   2   4  -3 1138.29   81.39
   2   4  -3 1117.89   79.89
   2  -4  -3 1267.07   82.79
  -2  -4   3 1065.99   80.99
   2   4  -2  111.09   19.40
   2   4  -2   92.29   13.10
  -2   4   2  106.59   19.90
   2   4  -2  109.19   18.00
  -2  -4   2  117.99   23.70
  -2  -4   2   97.79   14.60
   2   4  -1  222.58   18.90
   2   4  -1  211.38   21.50
  -2   4   1  229.18   23.40
   2   4  -1  201.78   23.70
  -2  -4   1  225.58   24.30
  -2  -4   1  222.88   26.40
  -2   4   0  389.26   33.40
  -2   4   0  358.66   30.60
   2   4   0  373.76   28.30
   2   4   0  409.96   32.50
   2   4   0  379.46   30.30
  -2  -4   0  367.06   33.60
  -2  -4   0  347.37   32.40
   2   4   1  403.46   30.30
   2   4   1  378.36   29.50
  -2   4  -1  375.96   31.00
   2   4   1  373.56   34.50
  -2   4  -1  379.46   33.00
  -2  -4  -1  357.06   33.00
  -2  -4  -1  379.96   36.40
   2   4   2  163.18   27.70
  -2   4  -2  175.08   21.10
   2   4   2  166.38   18.70
  -2   4  -2  164.98   19.10
  -2   4  -2  158.68   15.10
  -2  -4  -2  150.68   30.70
  -2  -4  -2  149.49   22.50
  -2   4  -3   -5.80    8.20
   2   4   3   -7.90   12.60
  -2   4  -3    1.00   10.10
  -2   4  -3    1.80    6.00
   2   4   3   -5.30    7.30
   2  -4   3   29.10    8.50
  -2  -4  -3    4.80   11.70
  -2  -4  -3   -0.30    8.80
   2   4   4  566.14   42.10
  -2   4  -4  532.65   40.10
  -2   4  -4  473.85   43.20
   2   4   4  592.04   49.70
  -2   4  -4  539.25   41.70
  -2  -4  -4  573.44   41.10
   2  -4   4  516.15   44.00
  -2  -4  -4  586.74   43.10
  -2   4  -5  393.86   34.60
  -2   4  -5  398.06   32.70
   2   4   5  421.06   34.90
  -2   4  -5  366.36   31.30
  -2   4  -5  404.26   37.00
   2   4   5  415.16   43.90
   2   4   5  364.86   36.90
  -2  -4  -5  441.76   32.40
  -2  -4  -5  423.46   34.30
   2   4   6   -4.70    9.70
   2   4   6    4.80    9.50
  -2   4  -6   -1.00    7.40
  -2   4  -6    4.90    9.60
  -2   4  -6   -0.30   12.80
  -2   4  -6   -9.40   11.10
   2   4   6    4.20   17.50
  -2  -4  -6   -7.50    8.20
   2  -4   6    2.80   14.40
  -2  -4  -6    0.10   11.00
  -2   4  -7  116.39   25.40
   2   4   7   67.09   13.20
  -2   4  -7   77.59   16.00
  -2  -4  -7   61.89   13.40
  -2  -4  -7   63.19   10.70
  -2   4  -8   95.49   16.80
  -2   4  -8   45.90   16.20
   2   4   8   96.89   15.90
  -2   4  -8   86.29   16.80
  -2  -4  -8  120.19   19.30
  -2  -4  -8  106.19   19.50
   2   4   9   -8.60   14.20
  -2   4  -9    1.70   10.30
  -2  -4  -9    3.20   10.70
  -2  -4  -9    5.00   16.80
  -2   4 -10   13.20   11.30
   2   4  10    5.20   15.70
  -2  -4 -10    5.00   12.60
  -2  -4 -10   13.00   11.40
   2   4  11  101.59   20.60
  -2   4 -11  186.08   23.20
  -2  -4 -11  118.79   24.90
   2  -4  11  122.19   28.30
  -2  -4 -11  186.68   24.40
  -2   4 -12    4.10   12.10
   2   4  12  -12.50   17.90
  -2  -4 -12    3.90   15.90
  -2  -4 -12   15.60   13.20
   2  -4  12  -25.10   25.50
  -2   5  12   45.60   16.60
   2   5 -12  119.99   21.10
  -2  -5  12   47.00   25.70
   2  -5 -12   34.60   14.50
   2  -5 -12   68.69   12.90
  -2   5  11  190.88   32.30
   2   5 -11  203.58   23.50
   2  -5 -11  164.08   29.30
  -2  -5  11  120.09   31.30
   2  -5 -11  187.38   22.50
  -2   5  10   93.69   16.80
   2   5 -10   97.19   19.60
   2  -5 -10  114.99   17.90
   2  -5 -10  105.29   18.50
   2   5  -9   28.20   10.40
  -2   5   9   28.00   13.40
   2  -5  -9   47.40   12.90
   2  -5  -9   46.40    9.70
   2   5  -8   16.40    9.10
   2   5  -8    5.80   14.20
  -2   5   8    4.00   12.20
   2  -5  -8   21.50    8.70
   2  -5  -8   42.00   12.90
  -2   5   7   30.40   12.10
   2   5  -7   22.80    9.30
   2   5  -7   51.89   14.00
   2  -5  -7   31.00    7.70
   2  -5  -7   54.99   12.10
   2   5  -6  392.76   30.80
   2   5  -6  409.36   36.30
  -2   5   6  376.26   35.70
   2  -5  -6  389.06   29.90
   2  -5  -6  380.06   34.50
   2   5  -5   54.39   12.90
   2   5  -5   46.40   12.40
  -2   5   5   82.29   16.70
  -2   5   5   62.39   12.70
   2   5  -5   73.79   14.10
  -2  -5   5   69.59   13.10
   2  -5  -5   84.99   14.50
  -2  -5   5   57.79   12.10
   2  -5  -5   80.29   11.20
   2   5  -4  416.26   36.80
   2   5  -4  407.26   32.00
   2   5  -4  447.86   35.90
  -2   5   4  408.46   36.40
  -2  -5   4  410.26   34.20
   2  -5  -4  422.46   36.80
  -2  -5   4  420.46   37.00
   2   5  -3   51.79   10.90
  -2   5   3   51.09   10.70
   2   5  -3   72.09   12.40
   2   5  -3   45.60   10.30
  -2  -5   3  103.79   17.70
  -2  -5   3   56.99   11.90
   2   5  -2   36.30    8.90
   2   5  -2   37.00    9.50
   2   5  -2   29.60    6.80
  -2   5   2   12.20   16.10
  -2  -5   2   30.30   11.70
   2  -5  -2   76.59   17.00
  -2  -5   2   46.60   11.70
   2   5  -1  164.88   20.80
   2   5  -1  179.78   15.40
  -2   5   1  151.08   21.20
   2   5  -1  171.38   19.60
  -2  -5   1  166.38   23.80
  -2  -5   1  110.49   23.50
   2   5   0  399.06   32.30
  -2   5   0  389.36   32.50
   2   5   0  408.76   30.00
  -2  -5   0  395.36   35.70
   2   5   1   31.30    7.60
  -2   5  -1   25.90    8.20
  -2   5  -1   42.20   14.60
   2   5   1   28.40    6.90
  -2  -5  -1   37.30   13.00
  -2   5  -2   -2.10   12.70
  -2   5  -2   -9.50    7.90
  -2   5  -2    0.20    5.50
   2   5   2   -0.40    7.60
   2   5   2   -2.50    8.80
  -2   5  -3  229.38   24.30
  -2   5  -3  214.98   18.60
   2   5   3  214.18   29.20
  -2   5  -3  218.58   23.00
   2   5   3  228.78   22.80
  -2  -5  -3  182.78   22.90
  -2  -5  -3  189.08   24.70
  -2   5  -4  295.57   28.10
   2   5   4  312.37   34.70
  -2   5  -4  305.67   24.10
  -2   5  -4  295.07   27.90
  -2  -5  -4  286.77   26.40
   2  -5   4  282.17   29.10
  -2  -5  -4  277.07   28.90
   2   5   5  566.44   51.29
  -2   5  -5  547.95   44.30
  -2   5  -5  589.14   42.10
   2   5   5  571.04   44.60
   2   5   5  581.04   44.80
  -2   5  -5  580.34   46.20
  -2   5  -5  555.04   44.90
  -2  -5  -5  569.34   43.00
  -2  -5  -5  545.35   45.20
   2   5   6  970.50   71.89
  -2   5  -6  942.41   71.09
  -2   5  -6 1014.80   69.79
  -2   5  -6  941.21   72.19
  -2  -5  -6  994.80   71.69
  -2  -5  -6  993.00   70.69
  -2   5  -7   92.19   13.50
   2   5   7   54.49   12.40
  -2   5  -7  109.19   15.50
  -2   5  -7   53.89   14.20
  -2  -5  -7   90.09   19.40
  -2  -5  -7   67.19   11.80
   2   5   8  -11.40   12.20
  -2   5  -8   -9.40   14.30
  -2   5  -8    5.10    8.80
  -2   5  -8    0.10   11.80
  -2  -5  -8  -11.50    9.70
  -2  -5  -8   -6.50   12.20
   2   5   9  105.59   16.30
  -2   5  -9  107.19   19.20
  -2   5  -9  133.99   19.60
  -2  -5  -9  104.99   16.10
  -2  -5  -9  125.89   20.60
  -2   5 -10  289.87   28.00
   2   5  10  277.87   35.20
  -2  -5 -10  279.17   29.00
  -2  -5 -10  266.17   29.60
  -2   5 -11    3.50   12.00
   2   5  11  -18.30   15.70
  -2  -5 -11   -1.90   12.30
  -2  -5 -11   12.50   14.40
   2   6 -11   -3.00   11.20
  -2   6  11   -4.00   13.70
   2  -6 -11   12.90   11.00
   2  -6 -11   -2.40   14.50
  -2   6  10   13.30   13.80
   2   6 -10   29.30   11.10
   2  -6 -10   22.60   14.80
   2  -6 -10   16.70   10.10
  -2   6   9   20.00   13.70
   2   6  -9   13.70   10.30
   2   6  -9   10.40   17.00
   2  -6  -9   41.60   14.10
   2  -6  -9    7.10    9.40
   2   6  -8   23.60   15.40
   2   6  -8    4.40    9.50
  -2   6   8   -5.90   12.10
   2  -6  -8   -1.10    8.10
   2  -6  -8   19.10   13.80
  -2   6   7  131.99   26.70
   2   6  -7  155.68   18.20
   2   6  -7  115.19   17.50
   2  -6  -7  141.89   22.40
   2  -6  -7  144.39   16.50
   2   6  -6  117.99   23.80
  -2   6   6  125.59   24.70
   2   6  -6  185.88   25.10
   2  -6  -6  136.39   15.40
   2  -6  -6  134.99   28.10
  -2  -6   6  137.69   20.90
  -2   6   5  184.58   26.20
   2   6  -5  214.18   19.20
   2   6  -5  184.28   25.30
  -2  -6   5  180.18   23.00
   2  -6  -5  206.78   25.80
   2   6  -4   22.30   16.90
   2   6  -4    2.50    8.30
   2   6  -4    1.60    9.90
  -2  -6   4   16.90   12.40
   2  -6  -4   -5.10   13.80
  -2  -6   4    8.70   11.40
   2   6  -3   17.80    6.50
  -2   6   3   16.90    9.90
   2   6  -3   12.80    9.60
   2   6  -3   17.70    9.80
  -2  -6   3    3.90   11.80
  -2  -6   3   45.60   12.90
   2  -6  -3    4.30   14.60
   2   6  -2 1387.76  102.29
   2   6  -2 1450.55  102.39
   2   6  -2 1487.75  100.89
  -2   6   2 1580.14  102.89
  -2  -6   2 1364.16  103.39
  -2  -6   2 1312.47  102.79
   2  -6  -2 1513.25  104.29
  -2   6   1  -15.60    8.60
   2   6  -1    2.10    6.10
   2   6  -1   -9.90    8.00
   2  -6  -1    8.30   16.10
  -2  -6   1    6.50   13.70
   2   6   0   -3.00   15.80
   2   6   0    7.50    5.90
  -2   6   0   -9.60    7.70
  -2  -6   0    9.10   13.50
  -2   6  -1   -0.80    8.20
  -2  -6  -1   20.80   13.70
   2   6   2  622.94   48.70
  -2   6  -2  662.53   50.19
   2   6   2  716.63   50.49
  -2  -6  -2  690.03   52.29
  -2   6  -3  229.58   19.00
   2   6   3  245.18   23.60
  -2   6  -3  169.98   24.00
  -2  -6  -3  212.88   27.50
   2   6   4  248.68   33.00
   2   6   4  256.17   27.10
  -2   6  -4  227.88   29.10
  -2   6  -4  320.97   34.80
  -2   6  -4  334.67   23.50
   2  -6   4  362.06   29.30
  -2  -6  -4  201.28   26.50
  -2  -6  -4  269.37   31.50
  -2   6  -5   30.20   10.60
  -2   6  -5   41.30    8.20
   2   6   5   32.70    9.60
  -2   6  -5   42.40   13.60
  -2  -6  -5   54.99   13.80
  -2  -6  -5   40.50   10.40
   2   6   6    9.10    9.80
  -2   6  -6   12.60   11.10
  -2   6  -6   17.70   12.90
  -2   6  -6    6.80    7.90
  -2  -6  -6    4.60   10.00
  -2  -6  -6   -6.90   13.60
  -2   6  -7   24.00    9.10
   2   6   7   18.10   11.30
  -2   6  -7    6.50   12.80
  -2  -6  -7   17.60   13.70
  -2  -6  -7   19.40   10.50
   2   6   8  384.06   39.60
  -2   6  -8  440.76   33.90
  -2   6  -8  469.25   41.40
  -2  -6  -8  413.76   36.40
  -2  -6  -8  386.46   36.70
   2   6   9   27.70   14.20
  -2   6  -9   27.10   11.10
  -2   6  -9   45.50   17.40
  -2  -6  -9   36.80   12.60
  -2  -6  -9   42.30   14.60
   2   6  10   -4.00   15.10
  -2   6 -10   14.00   11.60
  -2  -6 -10    6.20   13.40
  -2  -6 -10  -16.60   13.90
   2   6  11  -18.90   16.20
  -2   6 -11   11.90   12.10
  -2  -6 -11  -13.60   14.80
  -2  -6 -11    1.40   14.10
  -2   7  11    0.10   14.90
   2   7 -10  119.19   21.00
  -2   7  10  134.79   31.40
   2  -7 -10  106.79   19.60
   2  -7 -10  128.89   25.50
   2   7  -9  247.08   26.10
   2   7  -9  237.18   37.40
  -2   7   9  264.27   34.30
   2  -7  -9  265.27   24.90
   2  -7  -9  271.37   30.10
   2   7  -8  389.36   32.90
   2   7  -8  427.16   40.90
  -2   7   8  410.86   39.20
   2  -7  -8  385.56   37.40
   2  -7  -8  390.86   32.50
  -2   7   7   28.30   12.60
   2   7  -7   71.09   15.50
   2   7  -7   40.00    9.90
  -2  -7   7   56.79   15.60
   2  -7  -7   39.60   15.10
  -2   7   6    6.80   11.20
   2   7  -6   25.60   12.80
   2   7  -6   18.30    8.90
   2  -7  -6   22.60   15.90
  -2  -7   6   11.30   15.80
   2   7  -5   15.70   10.90
  -2   7   5    7.20   10.40
   2   7  -5   13.80    7.70
  -2  -7   5   41.90   14.80
   2  -7  -5   31.60   14.90
   2   7  -4  415.36   36.90
  -2   7   4  410.36   37.30
   2   7  -4  420.86   32.70
   2  -7  -4  458.65   39.30
  -2  -7   4  473.45   37.50
  -2   7   3   51.89   11.40
   2   7  -3  108.79   20.00
   2   7  -3   89.89   12.30
   2   7  -3   95.59   19.60
  -2  -7   3   79.09   15.40
   2  -7  -3   94.19   17.80
  -2  -7   3   67.29   13.60
   2   7  -2  153.48   22.90
  -2   7   2   97.79   14.20
   2   7  -2  133.19   20.10
   2   7  -2  117.19   13.60
   2  -7  -2  115.09   19.80
  -2  -7   2  163.08   22.70
   2   7  -1  170.08   15.10
  -2   7   1  117.09   19.90
   2   7  -1  159.88   21.00
  -2  -7   1  197.98   24.40
  -2   7   0   -1.40    9.40
   2   7   0   -1.60    8.40
   2  -7   0  -13.70   17.10
  -2  -7   0   -4.40   14.10
   2   7   1   18.40    8.40
  -2   7  -1    5.90   14.10
  -2  -7  -1   45.70   21.80
   2  -7   1   26.90   17.00
   2   7   2  221.58   24.00
  -2   7  -2  236.28   25.90
  -2  -7  -2  288.77   28.90
   2   7   3  207.68   23.50
  -2   7  -3  184.48   23.70
  -2   7  -3  203.48   18.10
  -2  -7  -3  207.68   27.70
   2   7   4  765.52   57.99
  -2   7  -4  797.42   53.89
  -2   7  -4  657.13   55.99
  -2  -7  -4  761.52   57.49
  -2   7  -5   40.70   11.40
   2   7   5   40.60   10.40
  -2   7  -5   53.19    9.30
  -2  -7  -5   71.39   16.00
  -2  -7  -5   54.29   11.50
  -2   7  -6  707.23   53.29
   2   7   6  672.73   52.19
  -2  -7  -6  638.44   51.89
  -2  -7  -6  694.13   53.09
  -2   7  -7   57.09   14.20
  -2   7  -7   46.40   10.40
   2   7   7   39.30   11.70
  -2  -7  -7   74.59   16.90
  -2  -7  -7   47.90   12.60
  -2   7  -8    8.80   15.30
  -2   7  -8   12.70   10.30
   2   7   8    8.10   12.30
  -2  -7  -8   17.20   12.30
  -2  -7  -8   15.10   15.40
  -2   7  -9  -18.70   10.70
  -2   7  -9  -12.90   16.70
   2   7   9  -24.50   13.70
  -2  -7  -9  -16.50   12.50
  -2  -7  -9   -9.50   14.80
   2   7  10  130.39   19.60
  -2   7 -10  143.69   21.20
  -2   7 -10   99.59   21.10
  -2  -7 -10  153.28   26.30
  -2  -7 -10  141.59   25.80
  -2   8  10  277.37   35.60
   2   8 -10  237.98   27.50
   2   8 -10  229.48   39.70
   2  -8 -10  276.87   28.70
   2  -8 -10  326.97   33.30
   2   8  -9   66.59   18.90
   2   8  -9  107.99   19.10
  -2   8   9   69.19   16.40
   2  -8  -9   87.29   18.80
   2  -8  -9  104.99   19.90
   2   8  -8   65.29   17.90
  -2   8   8   81.89   15.50
   2   8  -8  100.59   18.50
  -2  -8   8  109.59   19.40
   2  -8  -8  107.09   19.00
   2  -8  -8  130.79   18.80
   2   8  -7   26.60   13.60
  -2   8   7    9.20   12.10
   2   8  -7   21.60    9.60
   2  -8  -7   20.80   16.10
  -2  -8   7   18.90   17.40
   2  -8  -7   10.30    9.10
  -2   8   6  235.08   28.00
   2   8  -6  262.27   28.50
   2   8  -6  185.08   21.40
  -2  -8   6  188.68   28.10
   2  -8  -6  175.78   29.50
   2   8  -5  407.16   38.30
   2   8  -5  415.86   33.40
  -2   8   5  443.76   38.40
   2  -8  -5  410.46   40.00
  -2  -8   5  489.45   39.30
  -2   8   4    2.10   10.40
   2   8  -4   11.40    7.20
   2   8  -4   -7.10   10.00
  -2  -8   4   14.10   14.90
   2  -8  -4    1.70   16.90
   2   8  -3   75.39   12.40
   2   8  -3   63.99   11.70
  -2   8   3   96.99   20.90
   2  -8  -3  112.79   18.90
   2   8  -2   70.79   10.40
   2   8  -2   61.39   11.10
  -2   8   2   39.60   10.80
   2  -8  -2   80.49   18.30
  -2  -8   2   61.69   16.20
  -2   8   1   72.09   11.40
   2   8  -1   84.79   19.10
  -2  -8   1  124.99   23.70
   2  -8  -1  108.19   18.70
   2   8   0  135.49   20.50
  -2   8   0  109.39   21.50
   2  -8   0  147.99   27.30
  -2  -8   0  173.18   25.50
  -2   8  -1  144.29   21.30
  -2   8  -2   39.90   10.70
   2   8   2   81.89   17.30
   2  -8   2   59.29   20.30
  -2  -8  -2   55.39   16.70
   2   8   3   20.70    9.50
  -2   8  -3   27.90    7.10
  -2   8  -3   11.40    9.90
  -2  -8  -3   24.80   15.90
   2  -8   3   35.70   18.40
   2   8   4  139.59   22.20
  -2   8  -4  152.98   17.10
  -2   8  -4  125.29   22.20
   2  -8   4  114.99   21.50
  -2  -8  -4  150.88   26.40
  -2   8  -5  217.98   20.40
  -2   8  -5  158.48   24.90
   2   8   5  174.68   23.80
  -2  -8  -5  185.68   28.00
  -2   8  -6   -8.10    9.20
  -2   8  -6   -2.20   11.70
   2   8   6  -18.60   10.70
  -2  -8  -6    1.10   12.00
  -2  -8  -6   14.90   15.20
   2   8   7   39.10   12.50
  -2   8  -7   57.39   10.90
  -2   8  -7   41.90   14.10
  -2  -8  -7   47.00   13.80
  -2  -8  -7   64.39   17.40
   2   8   8   -2.90   12.40
  -2   8  -8    5.20   10.30
  -2   8  -8    7.30   15.10
  -2  -8  -8   12.90   17.10
  -2  -8  -8    3.60   13.60
  -2   8  -9   49.50   11.80
  -2   8  -9   28.20   17.20
   2   8   9   30.80   14.40
  -2  -8  -9   41.60   15.40
  -2  -8  -9   55.69   17.20
   2  -8   9   53.69   24.00
   2   8  10   92.29   18.00
  -2   8 -10  111.49   20.90
  -2   8 -10  107.29   22.40
   2  -8  10  208.88   38.30
  -2  -8 -10  136.99   26.90
  -2  -8 -10  148.59   28.10
   2   9  -9    8.80   18.40
   2   9  -9   28.00   11.40
  -2   9   9   23.20   14.20
   2  -9  -9   58.49   19.40
  -2  -9   9   77.29   21.90
   2   9  -8    6.30   16.70
   2   9  -8   12.00   10.70
  -2   9   8   -1.40   13.70
   2  -9  -8   25.10   18.10
  -2  -9   8   69.79   19.70
   2   9  -7  446.46   42.10
  -2   9   7  434.96   41.70
   2   9  -7  431.06   35.90
  -2  -9   7  547.25   45.50
   2  -9  -7  398.36   42.00
   2   9  -6    4.90   12.70
  -2   9   6   13.10   12.30
   2   9  -6   20.20    9.30
  -2  -9   6   52.99   17.70
   2  -9  -6   18.90   17.50
   2   9  -5  319.87   29.20
   2   9  -5  319.57   31.90
  -2   9   5  299.27   31.90
   2  -9  -5  266.27   35.10
  -2  -9   5  309.17   33.50
  -2   9   4  193.18   27.00
   2   9  -4  197.28   19.20
   2   9  -4  173.98   26.00
  -2  -9   4  214.18   28.40
   2  -9  -4  252.77   29.80
   2   9  -3  139.99   15.40
   2   9  -3  137.49   22.20
   2  -9  -3  117.79   22.20
  -2  -9   3  151.88   26.90
  -2   9   2   -7.50    9.60
   2   9  -2    1.40    9.90
   2   9  -2    0.70    6.40
  -2  -9   2   16.60   16.60
   2  -9  -2    3.50   17.10
   2   9  -1  193.58   23.20
  -2   9   1  179.98   22.00
  -2  -9   1  180.08   28.20
   2  -9  -1  161.98   29.20
  -2   9   0   30.30    9.90
   2   9   0    9.40    9.60
   2  -9   0   28.40   17.60
  -2  -9   0   22.30   17.20
   2   9   1   -0.20    9.20
  -2   9  -1    9.60    9.60
   2  -9   1   17.30   18.40
  -2  -9  -1    9.70   17.10
   2   9   2  314.17   28.90
  -2   9  -2  310.57   29.80
  -2  -9  -2  347.27   35.10
   2  -9   2  326.67   35.80
   2   9   3  332.67   28.40
  -2   9  -3  307.47   29.70
   2  -9   3  264.17   37.10
  -2  -9  -3  269.87   33.80
   2   9   4    5.90   10.30
  -2   9  -4   16.70   10.50
  -2   9  -4   23.70    8.60
   2  -9   4   -2.20   20.70
  -2  -9  -4   13.50   18.20
   2   9   5   32.80   10.90
  -2   9  -5   27.90   12.00
  -2   9  -5   40.00    9.80
   2  -9   5   22.10   21.80
  -2  -9  -5   59.89   17.70
   2   9   6   64.29   12.80
  -2   9  -6  109.59   17.30
  -2   9  -6   56.39   13.40
  -2  -9  -6   93.29   19.40
   2  -9   6   59.49   23.90
  -2   9  -7  129.49   27.50
   2   9   7  138.39   26.20
  -2   9  -7  144.99   19.10
  -2  -9  -7  138.19   27.70
  -2  -9  -7   73.69   16.80
   2  -9   7   74.69   25.30
   2   9   8   27.00   13.80
  -2   9  -8   31.30   15.90
  -2   9  -8   26.30   11.20
  -2  -9  -8   -4.30   19.30
  -2  -9  -8   16.70   15.20
   2  -9   8  -57.59   22.10
   2   9   9   33.70   14.80
  -2   9  -9   27.40   17.50
  -2   9  -9   55.19   12.70
  -2  -9  -9   25.50   16.80
  -2  -9  -9   74.49   20.10
   2  -9   9  -23.50   22.70
   2  10  -8   86.69   18.90
  -2  10   8  131.19   30.00
   2  10  -8  118.19   21.20
  -2 -10   8  166.38   29.40
   2 -10  -8  124.39   23.60
  -2  10   7  149.49   29.20
   2  10  -7  135.49   19.50
   2  10  -7  161.78   28.90
   2 -10  -7   76.99   22.30
  -2 -10   7  199.88   31.10
  -2  10   6    0.60   12.10
   2  10  -6   18.90    9.80
   2  10  -6    2.10   13.00
   2 -10  -6   16.20   19.10
  -2 -10   6   13.40   19.80
   2  10  -5  270.87   25.00
   2  10  -5  263.37   31.10
  -2  10   5  239.08   31.20
  -2 -10   5  309.27   33.80
   2 -10  -5  260.47   35.60
   2  10  -4    1.70   11.20
   2  10  -4   -5.50    8.30
  -2  10   4   -8.60   11.80
   2 -10  -4   14.50   18.90
  -2 -10   4   27.80   18.90
   2  10  -3  295.67   29.50
  -2  10   3  277.97   29.70
  -2 -10   3  272.87   34.00
   2 -10  -3  265.87   34.20
  -2  10   2    0.30    9.90
   2  10  -2    3.80   10.70
   2 -10  -2   20.10   19.40
  -2 -10   2   31.70   18.40
   2  10  -1   16.80    9.90
  -2  10   1   22.40   10.20
   2 -10  -1   10.10   19.10
  -2 -10   1   41.80   19.40
  -2  10   0   -4.20   10.00
   2  10   0   14.70   10.60
   2 -10   0    2.70   20.20
  -2 -10   0   21.40   19.80
  -2  10  -1   36.30   10.80
   2  10   1   53.79   10.60
  -2 -10  -1   97.59   21.50
   2 -10   1   49.80   19.70
  -2  10  -2    1.60   10.20
   2  10   2    8.20    9.80
  -2 -10  -2   25.50   17.60
   2 -10   2   -1.70   19.40
  -2  10  -3   -5.00   10.50
   2  10   3    3.40    9.40
  -2 -10  -3   12.10   18.50
   2 -10   3   19.10   20.80
  -2  10  -4   45.00   12.30
   2  10   4   48.30   11.40
   2 -10   4   51.29   22.90
  -2 -10  -4   66.39   20.90
  -2  10  -5  117.59   17.90
   2  10   5  104.79   23.00
   2 -10   5  117.99   25.60
  -2 -10  -5   88.19   21.40
  -2  10  -6    8.00   12.50
  -2  10  -6   28.10   10.70
   2  10   6   14.80   12.50
   2 -10   6   25.70   23.40
  -2 -10  -6    2.30   18.90
  -2  10  -7  176.88   21.50
   2  10   7  150.58   27.20
  -2  10  -7  126.79   28.10
   2 -10   7   96.49   26.50
  -2 -10  -7  173.38   29.90
  -2  10  -8  -10.80   14.80
   2  10   8  -16.30   13.30
  -2  10  -8   22.60   11.20
  -2 -10  -8   12.20   20.60
   2 -10   8   16.70   23.10
   2  11  -6   34.60   10.90
   2  11  -6   31.80   13.90
  -2  11   6   22.60   13.30
   2 -11  -6   63.39   21.40
  -2 -11   6   83.09   22.80
   2  11  -5    1.70    9.40
  -2  11   5   -5.40   12.50
   2  11  -5    2.60   12.30
  -2 -11   5   17.30   21.10
   2 -11  -5   20.00   20.00
  -2  11   4  196.38   27.60
   2  11  -4  161.88   27.50
   2  11  -4  229.68   21.00
   2 -11  -4  194.28   33.30
  -2 -11   4  240.08   33.50
  -2  11   3   -0.70   10.50
   2  11  -3   -7.90   11.60
  -2 -11   3   19.80   21.20
   2 -11  -3   -4.10   19.70
   2  11  -2   19.90   11.50
  -2  11   2   12.90   10.10
  -2 -11   2   45.30   20.30
   2 -11  -2   -5.10   20.10
   2  11  -1   54.29   11.40
  -2  11   1   43.10   12.30
   2 -11  -1   78.79   22.50
  -2 -11   1   55.19   22.20
  -2  11   0  156.18   23.70
   2  11   0  168.98   23.40
  -2 -11   0  184.48   32.30
   2 -11   0  128.29   24.20
  -2  11  -1    6.90   11.00
   2  11   1    2.20   10.40
  -2 -11  -1   28.90   20.10
   2 -11   1    3.40   20.40
  -2  11  -2    2.70   11.00
   2  11   2    9.10   11.10
   2 -11   2   21.20   21.00
  -2 -11  -2   52.39   20.70
   2  11   3  179.88   23.20
  -2  11  -3  177.38   25.80
   2 -11   3  139.89   26.30
  -2 -11  -3  176.38   32.70
   2  11   4   47.40   11.60
  -2  11  -4   44.30   13.00
  -2 -11  -4   83.09   22.10
   2 -11   4   79.59   23.50
  -2  11  -5   36.40   13.10
  -2  11  -5   41.00   11.50
   2  11   5   25.00   12.00
  -2 -11  -5   59.69   21.40
   2 -11   5   52.39   23.70
  -2  11  -6   31.60   13.60
   2  11   6   35.80   13.00
  -2  11  -6   59.99   12.70
  -2 -11  -6   27.90   20.90
   2 -11   6   42.10   24.60
   2  12  -4   -7.70   12.40
  -2  12   4  -10.70   11.10
   2 -12  -4   10.40   21.00
  -2 -12   4   49.20   23.90
   2  12  -3    1.20   11.80
  -2  12   3   -3.50   10.70
  -2 -12   3   23.60   22.90
   2 -12  -3   14.90   21.50
  -2  12   2   38.40   12.00
   2  12  -2   37.30   13.00
  -2 -12   2   87.79   23.90
   2 -12  -2   56.19   22.50
  -2  12   1  -10.00   10.60
   2  12  -1   -5.30   10.70
   2 -12  -1   -2.90   20.30
  -2 -12   1   16.40   23.00
  -2  12   0   22.60   11.50
   2  12   0   27.60   11.60
   2 -12   0   24.80   23.50
  -2 -12   0   46.60   21.90
   2  12   1  -13.10   11.00
  -2  12  -1  -13.20   11.00
  -2 -12  -1    3.00   20.70
   2 -12   1  -10.70   22.90
   2  12   2  101.29   21.60
  -2  12  -2   56.59   13.00
  -2 -12  -2   77.09   22.70
   2 -12   2   69.99   24.40
  -2  12  -3    2.80   11.90
   2  12   3  -10.40   11.10
   2 -12   3  -17.70   22.10
  -2 -12  -3    0.80   22.90
   2  12   4   31.10   11.00
  -2  12  -4   15.90   12.10
   2 -12   4   59.19   24.50
  -2 -12  -4   45.70   23.20
  -3   0  12  291.27   35.00
   3   0 -12  305.27   29.50
   3   0 -11   -8.20   10.10
  -3   0  11   -0.80   13.30
   3   0 -10    8.20    9.90
  -3   0  10   39.80   13.90
  -3   0   9    5.20   12.40
   3   0  -9  -11.10    8.90
   3   0  -8  815.12   59.59
  -3   0   8  810.72   62.69
  -3   0   7   12.40   11.80
   3   0  -7  -16.30   12.40
   3   0  -7  -10.50    8.50
   3   0  -6  777.42   60.59
  -3   0   6  801.02   59.99
  -3   0   6  755.42   59.69
   3   0  -6  772.72   56.39
  -3   0   5   -9.60   10.50
  -3   0   5   -1.60   11.00
   3   0  -5   -8.00    7.00
   3   0  -5   11.30   11.80
   3   0  -4   63.89   12.80
  -3   0   4   61.79   11.80
   3   0  -4   76.09   13.90
  -3   0   4   57.09   11.80
  -3   0   3    0.60    5.70
  -3   0   3  -14.80    9.70
   3   0  -3   -8.40   10.10
  -3   0   3   -7.90   10.30
   3   0  -3  -19.10    6.60
  -3   0   2 1138.99   77.29
   3   0  -2 1073.39   77.29
  -3   0   2 1056.49   78.49
   3   0  -2 1109.49   79.39
  -3   0   2 1117.59   79.69
  -3   0   1    8.30    7.10
   3   0  -1    9.20    6.30
  -3   0   1   27.60    9.40
   3   0  -1   13.30    9.80
  -3   0   1   10.30    5.70
  -3   0   0   42.30    8.40
   3   0   0  112.39   22.80
  -3   0   0   40.00   11.20
   3   0   0   36.20    7.40
  -3   0  -1    5.40   12.50
  -3   0  -1    3.70    8.40
   3   0   1    7.30   12.20
  -3   0  -2   46.70   15.10
  -3   0  -2   73.09   10.80
  -3   0  -2   45.50    9.90
   3   0   2   31.20   14.40
  -3   0  -3  -12.00   17.00
  -3   0  -3    0.80    9.90
   3   0   3   -4.00   16.20
  -3   0  -3   -5.10    8.30
  -3   0  -4   -1.50    7.80
  -3   0  -4    2.60    9.90
   3   0   4   16.10   18.20
   3   0   5    3.90   19.10
  -3   0  -5    2.90    9.00
  -3   0  -5    2.90    9.90
   3   0   5   -3.30   10.30
   3   0   6   88.99   22.70
  -3   0  -6  107.19   17.10
  -3   0  -6   79.59   12.30
   3   0   6   73.29   13.30
   3   0   6   66.29   12.50
   3   0   7   22.90   21.10
  -3   0  -7   -3.50    9.30
   3   0   7  -10.80   10.80
  -3   0  -7   -3.90    9.70
  -3   0  -8   86.59   13.00
  -3   0  -8   91.09   18.30
  -3   0  -9   -1.90   10.50
  -3   0  -9   -1.60   10.30
   3   0   9   12.80   14.50
   3   0  10  190.58   29.30
  -3   0 -10   67.29   16.70
  -3   0 -10  122.89   21.80
  -3   0 -11   -0.50   12.00
   3   0  11   14.00   16.20
   3   0  12  549.25   48.50
  -3   0 -12  489.95   43.90
  -3   1  12   17.20   14.40
   3   1 -12    5.70   11.70
  -3  -1  12    8.30   15.50
   3  -1 -12    9.20   11.10
  -3   1  11   64.79   14.20
   3   1 -11   61.39   12.10
  -3  -1  11   57.19   16.80
   3  -1 -11   55.59   12.40
   3   1 -10  422.96   37.70
  -3   1  10  448.46   41.00
  -3  -1  10  538.05   44.00
   3  -1 -10  483.45   37.90
  -3   1   9   69.39   13.20
   3   1  -9   46.20   11.20
  -3  -1   9   58.59   15.00
   3  -1  -9   53.69   10.80
   3   1  -8  243.98   23.20
  -3   1   8  237.28   27.80
   3  -1  -8  213.48   22.40
  -3  -1   8  230.08   30.20
  -3   1   7   -0.90   15.90
   3   1  -7   12.40   13.00
  -3   1   7   12.60   17.30
  -3  -1   7   14.60   12.30
   3  -1  -7   -3.00    8.00
   3  -1  -7   16.80   12.40
  -3  -1   7   -2.10   20.30
   3   1  -6   40.90    9.10
   3   1  -6   51.59   12.90
  -3   1   6   50.59   11.10
   3  -1  -6   48.60    8.80
   3  -1  -6   31.70   12.30
  -3  -1   6   27.90   14.00
  -3   1   5   43.50   10.80
   3   1  -5   31.50   12.50
  -3   1   5   22.10   10.10
   3   1  -5   28.80    8.40
  -3  -1   5    8.30   14.40
   3  -1  -5   36.20    7.50
  -3  -1   5   33.70   11.60
   3  -1  -5   33.90   11.50
  -3   1   4  469.75   36.80
   3   1  -4  465.25   36.70
  -3   1   4  494.85   39.70
   3   1  -4  491.45   41.60
  -3   1   4  461.75   39.70
   3  -1  -4  505.45   40.90
  -3  -1   4  496.55   41.20
  -3  -1   4  526.25   44.50
   3  -1  -4  493.35   36.50
  -3   1   3 1491.35  107.59
   3   1  -3 1524.55  107.99
  -3   1   3 1509.65  107.39
   3   1  -3 1469.05  106.09
  -3   1   3 1536.45  106.09
   3  -1  -3 1547.15  107.59
  -3  -1   3 1536.75  109.39
   3  -1  -3 1487.95  105.89
  -3  -1   3 1533.45  108.09
  -3   1   2  425.26   36.30
   3   1  -2  403.86   36.70
  -3   1   2  512.25   34.40
  -3   1   2  416.26   31.90
   3   1  -2  403.06   32.00
  -3  -1   2  379.26   31.80
  -3  -1   2  444.86   37.70
   3  -1  -2  424.26   31.70
   3  -1  -2  425.96   36.20
  -3   1   1  427.46   34.70
   3   1  -1  498.75   38.90
  -3   1   1  437.96   34.30
  -3   1   1  483.75   37.50
   3   1  -1  415.66   34.10
   3  -1  -1  513.55   37.70
  -3  -1   1  470.95   34.60
   3  -1  -1  454.05   34.20
  -3  -1   1  482.05   37.50
   3   1   0   82.39   13.80
  -3   1   0   46.10    8.40
  -3   1   0   50.39   11.30
   3  -1   0   45.40    7.80
  -3  -1   0   54.19    9.60
  -3  -1   0   49.90   11.40
  -3   1  -1   10.80    9.50
   3   1   1    2.20   12.30
  -3   1  -1   -3.40   12.10
  -3   1  -1    3.60    8.40
  -3  -1  -1   10.70    9.10
  -3  -1  -1    2.70   12.70
   3  -1   1   17.00   12.30
  -3   1  -2   -2.70    5.10
  -3   1  -2   -2.50    7.80
   3   1   2    5.60   13.80
  -3   1  -2    8.70    8.30
  -3   1  -2  -31.50   14.60
  -3  -1  -2    0.10   10.30
  -3  -1  -2   -4.10    9.90
   3  -1   2   -2.50   13.90
  -3  -1  -2   -6.90   14.90
  -3   1  -3  462.45   33.20
   3   1   3  441.86   44.70
  -3   1  -3  363.96   33.30
  -3  -1  -3  461.35   34.40
  -3  -1  -3  401.66   45.20
  -3  -1  -3  400.96   34.00
   3  -1   3  454.35   46.80
   3   1   4 2208.48  161.48
  -3   1  -4 2432.46  161.48
   3   1   4 2388.16  165.78
  -3   1  -4 2021.60  161.28
   3  -1   4 2608.74  166.38
  -3  -1  -4 2445.46  161.78
   3  -1   4 2277.27  162.58
  -3  -1  -4 2160.48  161.58
   3   1   5   25.40   19.10
  -3   1  -5   23.50    8.90
  -3   1  -5   22.80    9.20
   3   1   5   14.30   10.50
  -3  -1  -5   20.40   11.90
  -3  -1  -5   30.00   10.80
   3  -1   5   19.60   10.70
   3  -1   5   42.80   20.60
  -3   1  -6  180.88   21.60
  -3   1  -6  227.28   22.80
   3   1   6  223.08   27.30
   3   1   6  308.77   44.30
   3  -1   6  234.88   27.60
  -3  -1  -6  233.38   23.30
  -3  -1  -6  222.78   23.30
   3  -1   6  314.97   45.40
   3   1   7   39.90   11.50
   3   1   7   69.79   21.60
  -3   1  -7   52.19   10.10
  -3   1  -7   49.80   10.10
   3  -1   7   51.19   12.90
  -3  -1  -7   37.20   10.20
  -3  -1  -7   64.59   11.90
  -3   1  -8  161.28   20.90
  -3   1  -8  144.29   18.80
   3  -1   8  268.67   44.10
  -3  -1  -8  168.48   21.20
  -3  -1  -8  149.49   21.40
  -3   1  -9   28.70   10.70
  -3   1  -9   32.50   10.40
  -3  -1  -9   32.40   14.20
   3  -1   9   54.79   16.10
  -3  -1  -9   38.40   11.60
  -3   1 -10  298.07   29.90
   3   1  10  346.27   35.10
  -3  -1 -10  280.27   30.40
  -3  -1 -10  265.57   30.10
   3  -1  10  417.16   39.30
  -3   1 -11  127.49   23.30
   3   1  11  183.98   30.00
  -3  -1 -11  116.59   23.70
   3  -1  11  104.89   21.10
  -3  -1 -11  100.59   21.40
   3   1  12   74.39   18.80
  -3   1 -12   62.69   14.10
  -3  -1 -12   58.89   14.80
  -3  -1 -12   47.90   14.10
   3  -1  12   57.89   20.20
   3   2 -12   29.10   12.00
  -3   2  12   30.20   13.50
   3  -2 -12   27.10   11.20
  -3  -2  12   40.70   18.30
  -3   2  11  312.87   34.30
   3   2 -11  350.56   31.50
   3  -2 -11  355.06   30.70
  -3  -2  11  323.17   39.50
  -3   2  10   -1.20   11.60
   3   2 -10   -2.80   10.00
  -3  -2  10   -7.10   15.10
   3  -2 -10  -14.70    9.40
   3   2  -9   93.89   17.60
  -3   2   9   73.69   13.80
  -3  -2   9   77.99   17.90
   3  -2  -9   89.39   17.00
   3   2  -8  307.57   28.70
  -3   2   8  341.97   33.20
   3  -2  -8  347.07   27.70
  -3  -2   8  319.67   40.90
  -3   2   7   57.49   13.40
  -3   2   7   73.19   12.00
   3   2  -7   61.09   10.30
   3   2  -7   62.09   14.20
   3  -2  -7   88.29   15.10
   3  -2  -7   66.19   13.90
  -3  -2   7   52.89   13.70
  -3  -2   7   37.00   17.70
  -3   2   6  139.29   22.60
   3   2  -6   79.39   14.90
  -3   2   6  154.08   22.80
   3   2  -6   88.29   17.20
  -3  -2   6   89.09   20.00
   3  -2  -6  134.99   23.80
   3  -2  -6  134.99   16.70
  -3  -2   6  154.88   24.30
   3  -2  -6  115.19   15.20
  -3   2   5  629.94   49.00
   3   2  -5  640.44   51.29
  -3   2   5  627.14   49.70
   3   2  -5  629.24   46.70
   3  -2  -5  663.63   50.29
   3  -2  -5  644.04   46.40
   3  -2  -5  651.13   48.20
  -3  -2   5  598.14   50.89
  -3   2   4   44.70   10.00
  -3   2   4   51.89   11.00
   3   2  -4   36.60    7.70
   3   2  -4   33.00   12.20
  -3  -2   4   29.70   11.40
   3  -2  -4   44.90   11.30
   3  -2  -4   51.39    7.30
   3   2  -3  687.73   53.29
   3   2  -3  650.03   49.90
  -3   2   3  743.53   52.19
  -3   2   3  652.63   51.89
   3   2  -3  736.53   51.79
  -3   2   3  705.93   50.89
  -3  -2   3  656.03   49.70
   3  -2  -3  713.73   52.39
   3  -2  -3  678.13   49.50
  -3  -2   3  693.43   53.89
   3   2  -2   44.70    8.50
   3   2  -2   42.00    7.80
   3   2  -2   52.69   11.40
  -3   2   2   55.09   10.10
  -3   2   2  100.19   17.20
  -3   2   2   66.29   10.20
  -3  -2   2   60.69   12.60
   3  -2  -2   54.39    7.10
  -3  -2   2   61.49   10.00
   3  -2  -2   52.59   10.20
  -3   2   1  385.46   30.60
  -3   2   1  310.57   28.10
   3   2  -1  312.57   26.50
  -3   2   1  309.37   27.50
   3   2  -1  352.16   32.50
  -3  -2   1  367.66   31.00
   3  -2  -1  329.07   25.80
  -3  -2   1  330.37   27.90
  -3   2   0  396.26   34.90
  -3   2   0  372.56   29.30
  -3   2   0  320.17   29.10
   3   2   0  329.77   27.70
   3   2   0  367.66   28.70
  -3  -2   0  396.36   30.40
  -3  -2   0  471.25   35.00
  -3   2  -1  540.85   40.50
  -3   2  -1  476.45   39.70
   3   2   1  540.85   41.90
  -3   2  -1  555.74   41.50
   3   2   1  652.43   46.90
  -3   2  -1  532.45   46.90
  -3  -2  -1  552.74   41.50
   3  -2   1  465.75   45.00
  -3  -2  -1  617.74   47.30
  -3   2  -2    8.90    7.30
  -3   2  -2   -7.90   15.30
  -3   2  -2    6.80    8.60
  -3   2  -2    2.00    6.30
   3   2   2   13.40   13.50
  -3  -2  -2    3.50   14.70
  -3  -2  -2    9.70   10.80
  -3  -2  -2    4.00   11.10
   3   2   3  107.59   17.80
  -3   2  -3  126.99   17.00
  -3   2  -3  137.69   15.90
  -3   2  -3  137.39   17.20
   3  -2   3   97.39   19.90
  -3  -2  -3  130.89   19.10
  -3  -2  -3  152.58   33.90
  -3  -2  -3  150.08   19.60
   3   2   4   57.89   17.50
  -3   2  -4   34.20    8.40
  -3   2  -4   45.40    9.70
  -3   2  -4   29.70    9.30
   3  -2   4   29.40   10.70
  -3  -2  -4   44.80   11.20
  -3  -2  -4   33.80    9.10
   3  -2   4   64.89   19.60
  -3   2  -5  243.48   26.70
   3   2   5  222.18   28.30
  -3   2  -5  239.48   22.60
  -3   2  -5  216.08   22.00
   3   2   5  271.77   41.00
  -3  -2  -5  209.48   29.70
  -3  -2  -5  255.47   23.90
   3  -2   5  231.38   27.50
   3  -2   5  302.87   45.10
  -3   2  -6   39.30    9.10
   3   2   6   30.80   11.10
  -3   2  -6   41.80    9.70
   3   2   6   61.19   19.80
  -3  -2  -6   39.70    9.80
   3  -2   6   50.19   18.60
  -3  -2  -6   54.39   11.70
  -3   2  -7   49.80    9.80
  -3   2  -7   55.39   10.20
  -3  -2  -7   61.49   11.10
  -3   2  -8   -0.30    9.10
  -3   2  -8   13.20    9.00
  -3  -2  -8    5.00   10.40
  -3  -2  -8    6.40   12.10
   3   2   9  295.17   29.30
  -3   2  -9  237.28   24.00
  -3   2  -9  177.08   21.70
  -3  -2  -9  263.47   25.20
  -3  -2  -9  214.68   25.40
   3  -2   9  176.88   26.50
  -3   2 -10    6.50   10.90
   3   2  10   10.20   13.50
  -3  -2 -10   12.60   13.80
   3  -2  10   -4.40   19.30
  -3  -2 -10   -1.20   11.50
  -3   2 -11  116.49   22.60
   3   2  11  168.38   28.50
  -3  -2 -11  131.79   23.20
   3  -2  11   89.89   21.80
  -3  -2 -11  108.79   22.30
   3   2  12  288.07   34.90
  -3   2 -12  235.38   28.50
  -3  -2 -12  180.28   32.10
   3  -2  12  234.28   42.00
  -3  -2 -12  245.78   30.00
   3   3 -12   11.60   12.20
  -3   3  12   17.00   14.30
  -3  -3  12   -3.80   18.10
   3  -3 -12    8.90   11.20
  -3   3  11  252.47   31.30
   3   3 -11  216.58   25.70
   3  -3 -11  226.68   24.00
  -3  -3  11  159.78   38.80
   3   3 -10    0.20   10.80
  -3   3  10    7.50   13.00
  -3  -3  10  -21.20   19.00
   3  -3 -10    2.20    9.60
   3   3  -9  118.49   19.90
  -3   3   9  131.19   25.10
   3  -3  -9  103.49   16.60
  -3  -3   9   86.99   21.30
   3   3  -8   -0.70    8.90
  -3   3   8   21.00   12.20
  -3  -3   8   -4.40   19.70
   3  -3  -8   18.20    8.80
   3  -3  -8    7.30    8.00
   3   3  -7  549.95   42.30
   3   3  -7  630.44   48.70
  -3   3   7  600.94   46.50
   3  -3  -7  506.85   42.60
   3  -3  -7  544.95   41.70
  -3   3   6   -2.80   10.60
   3   3  -6  -10.10    8.20
  -3   3   6    3.30    9.60
   3   3  -6    6.80   11.90
   3  -3  -6   -5.40   11.20
   3  -3  -6    4.70   10.70
   3  -3  -6   -2.90   13.70
  -3   3   5  470.55   39.00
   3   3  -5  492.85   42.20
   3   3  -5  513.65   36.90
  -3   3   5  500.35   41.30
   3   3  -5  421.76   41.10
  -3  -3   5  494.55   41.70
   3  -3  -5  491.05   39.10
   3  -3  -5  506.65   40.00
   3  -3  -5  470.65   36.00
   3   3  -4   -1.90   11.40
   3   3  -4   -6.90    6.90
  -3   3   4    5.20    9.80
  -3   3   4    1.10    8.30
   3   3  -4   -7.90    9.80
  -3  -3   4   -6.10   10.90
   3  -3  -4    5.50    5.90
   3  -3  -4    4.10    9.30
  -3   3   3  782.72   60.89
  -3   3   3  839.42   61.39
   3   3  -3  806.72   61.89
   3   3  -3  873.31   59.49
  -3   3   3  813.62   60.99
   3   3  -3  848.72   60.79
   3  -3  -3  906.61   61.09
   3  -3  -3  817.72   58.79
  -3  -3   3  876.11   63.29
  -3  -3   3  752.12   59.99
  -3   3   2   53.39   12.20
  -3   3   2   41.10    9.60
   3   3  -2   49.00    7.70
   3   3  -2   40.80    8.60
   3   3  -2   56.19   11.50
  -3  -3   2   49.30   11.40
  -3  -3   2   44.10   12.70
   3  -3  -2   68.29   10.20
  -3   3   1  119.09   18.10
  -3   3   1  125.59   19.00
   3   3  -1  139.79   16.80
   3   3  -1  126.79   24.20
   3   3  -1  119.59   15.90
  -3  -3   1  175.88   23.30
  -3  -3   1  107.89   19.20
   3   3   0  113.79   14.90
   3   3   0  188.88   24.60
  -3   3   0   73.99   17.10
  -3   3   0  117.99   18.30
  -3  -3   0  107.59   19.30
  -3  -3   0  170.78   25.10
   3   3   1  711.33   52.99
   3   3   1  680.63   48.30
   3   3   1  602.74   47.30
  -3   3  -1  647.14   48.10
  -3   3  -1  664.63   48.90
  -3   3  -1  676.83   48.60
  -3   3  -1  550.64   52.99
  -3  -3  -1  673.93   49.70
  -3  -3  -1  741.83   54.49
  -3   3  -2  456.25   35.80
  -3   3  -2  475.95   37.00
   3   3   2  503.85   43.90
  -3   3  -2  499.55   36.50
   3   3   2  424.16   35.70
  -3  -3  -2  477.15   37.80
  -3  -3  -2  533.35   45.40
  -3   3  -3   29.20    7.60
   3   3   3   23.50    7.10
   3   3   3   18.50   14.30
  -3   3  -3   18.40    8.10
  -3   3  -3   27.30    9.80
  -3  -3  -3   43.00   16.20
  -3  -3  -3   27.90   10.40
  -3  -3  -3   38.80   11.80
   3  -3   3    6.10    8.50
   3   3   4  213.48   35.20
  -3   3  -4  187.38   20.00
   3   3   4  213.48   21.00
  -3   3  -4  218.28   22.50
  -3   3  -4  201.88   20.80
  -3  -3  -4  201.58   22.50
  -3  -3  -4  201.78   22.70
   3   3   5   26.10   11.30
  -3   3  -5   26.90    8.50
  -3   3  -5   29.30    9.70
  -3   3  -5   25.10   10.70
   3   3   5   36.90   17.30
   3   3   5   54.29    9.40
  -3  -3  -5   37.00   12.60
  -3  -3  -5   29.70   11.50
   3  -3   5   17.90   11.00
  -3   3  -6  -13.40   11.20
  -3   3  -6    1.20    7.90
   3   3   6    1.80   12.50
  -3   3  -6  -21.20    8.50
   3   3   6   -2.50   10.10
   3   3   6    9.50   18.30
  -3  -3  -6    5.20   11.30
  -3  -3  -6    1.30    9.30
   3   3   7  380.16   36.10
  -3   3  -7  337.57   30.80
  -3   3  -7  386.46   31.30
  -3  -3  -7  422.96   32.30
  -3  -3  -7  383.76   32.10
  -3   3  -8    4.60    9.30
   3   3   8    4.40   18.90
  -3   3  -8    6.90    9.00
  -3  -3  -8   -0.40    9.80
  -3  -3  -8   -2.20   11.40
  -3   3  -9   24.90   10.00
  -3   3  -9   17.90   10.40
   3   3   9    9.50   14.00
  -3  -3  -9   22.30   12.80
  -3  -3  -9   11.80   11.00
  -3   3 -10  121.09   21.30
   3   3  10  155.08   29.90
  -3  -3 -10  147.69   30.20
  -3  -3 -10  165.28   23.00
   3  -3  10  101.39   25.50
  -3   3 -11  240.38   27.20
   3   3  11  236.38   34.60
   3  -3  11  236.28   45.40
  -3  -3 -11  300.97   28.60
  -3  -3 -11  231.88   29.70
   3   3  12   31.80   17.30
  -3   3 -12   24.00   13.90
   3  -3  12   23.60   22.80
  -3  -3 -12   57.19   14.10
  -3  -3 -12   26.50   15.90
   3   4 -12   17.40   12.30
  -3   4  12   10.80   14.00
   3  -4 -12   12.50   11.10
  -3  -4  12   -0.50   21.70
  -3   4  11  236.68   31.20
   3   4 -11  218.78   26.20
   3  -4 -11  223.98   24.40
   3  -4 -11  258.47   26.20
  -3  -4  11  245.28   46.30
   3   4 -10   -2.10   11.00
  -3   4  10   -2.20   13.00
   3  -4 -10    9.00    9.40
  -3  -4  10  -37.80   23.10
   3  -4 -10   20.90   11.70
  -3   4   9  316.37   32.90
   3   4  -9  326.87   28.60
  -3  -4   9  299.57   50.09
   3  -4  -9  323.37   26.40
   3  -4  -9  240.48   28.30
  -3   4   8  426.76   38.70
   3   4  -8  416.66   33.30
   3  -4  -8  389.46   33.30
   3   4  -7  278.47   25.50
  -3   4   7  279.27   32.50
   3  -4  -7  284.97   24.50
   3  -4  -7  311.57   27.10
   3   4  -6   27.80   13.30
  -3   4   6   63.69   12.40
   3   4  -6   39.00    9.30
  -3   4   6   55.79    9.80
   3   4  -6   41.20   12.50
   3  -4  -6   42.70    7.90
   3  -4  -6   40.30   10.60
  -3  -4   6   45.10   13.10
   3  -4  -6   59.69   12.80
   3   4  -5 1195.98   87.29
  -3   4   5 1134.29   86.19
   3   4  -5 1057.19   86.29
  -3   4   5 1150.28   85.29
   3   4  -5 1168.58   84.19
  -3  -4   5 1192.98   87.19
   3  -4  -5 1244.28   83.79
   3  -4  -5 1283.07   86.09
   3  -4  -5 1300.07   86.49
   3   4  -4  189.68   25.60
  -3   4   4  150.58   23.90
   3   4  -4  179.68   18.30
   3   4  -4  156.88   23.50
  -3   4   4  152.18   20.10
  -3  -4   4  173.18   21.50
   3  -4  -4  218.48   25.80
   3  -4  -4  175.08   16.00
  -3  -4   4  224.78   27.50
  -3   4   3  190.68   24.40
   3   4  -3  207.68   24.80
   3   4  -3  214.48   18.60
   3   4  -3  182.28   22.70
  -3  -4   3  208.78   28.60
  -3  -4   3  190.08   22.80
   3  -4  -3  185.68   16.30
   3   4  -2   19.20    8.40
   3   4  -2   23.00    9.90
  -3   4   2   28.20    9.00
  -3   4   2   28.90   12.80
   3   4  -2   22.40    6.90
  -3  -4   2    4.50   12.00
  -3  -4   2   41.20   12.20
   3   4  -1  389.16   30.30
  -3   4   1  361.16   32.40
   3   4  -1  369.96   33.80
   3   4  -1  379.46   28.70
  -3   4   1  372.46   31.30
  -3  -4   1  376.36   34.80
  -3  -4   1  331.17   32.30
   3   4   0   17.10    6.90
   3   4   0   13.70    6.90
   3   4   0   -1.50   10.80
  -3   4   0    0.80    7.70
  -3   4   0   16.10   11.70
  -3  -4   0    8.80   11.60
  -3  -4   0   20.70   12.90
   3   4   1   26.90    6.40
  -3   4  -1   25.50    8.30
  -3   4  -1   19.80    7.80
   3   4   1   29.40    8.50
   3   4   1   21.40   12.20
  -3   4  -1   41.60   11.40
  -3  -4  -1   38.30   13.50
  -3  -4  -1   28.30   13.20
   3   4   2   15.00   13.00
  -3   4  -2    9.90    7.40
  -3   4  -2   23.10   10.90
   3   4   2   19.30    6.80
  -3   4  -2   14.10    7.10
   3  -4   2   28.40    8.40
  -3  -4  -2   18.50   14.00
  -3  -4  -2   16.10   12.90
  -3   4  -3  487.35   39.10
   3   4   3  500.15   45.00
   3   4   3  499.25   38.10
  -3   4  -3  491.85   37.40
  -3   4  -3  503.65   39.00
   3  -4   3  489.75   47.40
  -3  -4  -3  484.85   48.10
  -3  -4  -3  499.15   40.70
  -3  -4  -3  524.25   40.20
  -3   4  -4   -0.70    7.70
  -3   4  -4   -3.10    9.00
   3   4   4    1.90   14.10
  -3   4  -4   -0.50    9.70
   3   4   4    6.20    7.50
  -3  -4  -4    2.40   10.20
   3  -4   4  -22.70    9.00
  -3  -4  -4   -0.80   11.40
  -3   4  -5    8.10    9.80
  -3   4  -5   -7.00    9.50
   3   4   5   -2.30   15.50
   3   4   5   12.70    8.70
  -3   4  -5  -13.20    7.50
  -3  -4  -5   -6.70   11.60
  -3  -4  -5   -0.70   11.00
  -3   4  -6  100.49   23.60
   3   4   6  140.09   22.20
   3   4   6  103.09   22.90
   3   4   6  116.89   20.40
  -3   4  -6   96.39   16.40
  -3   4  -6   87.89   17.30
  -3  -4  -6  100.49   19.10
   3  -4   6   82.89   15.00
  -3  -4  -6  111.99   19.30
  -3   4  -7    7.20   12.90
  -3   4  -7   20.80    9.00
   3   4   7   32.90   11.40
  -3   4  -7   38.30   10.70
  -3  -4  -7   30.30   10.50
  -3  -4  -7   45.40   12.40
  -3   4  -8   -5.20   10.20
   3   4   8   -3.50   13.20
  -3   4  -8   -3.80    9.20
  -3   4  -8  -15.40   14.30
  -3  -4  -8    7.50   13.30
  -3  -4  -8   -3.60   11.20
  -3   4  -9  161.58   21.90
  -3   4  -9  186.98   22.50
   3   4   9  167.48   32.20
  -3  -4  -9  189.38   23.50
  -3  -4  -9  237.08   24.70
   3   4  10  -17.50   16.30
  -3   4 -10   -5.70   11.10
  -3  -4 -10   -4.30   11.60
  -3  -4 -10   -1.10   14.10
  -3   4 -11   35.50   12.00
   3   4  11   24.60   18.10
  -3  -4 -11   42.40   16.50
  -3  -4 -11   45.10   13.50
   3  -4  11   22.50   26.40
  -3  -4 -12    7.20   16.70
  -3   5  11   46.70   15.20
   3   5 -11   40.00   12.40
  -3  -5  11   -2.20   25.80
   3  -5 -11   25.80   10.70
   3   5 -10  109.69   20.40
  -3   5  10   70.99   16.00
   3  -5 -10  113.69   21.00
   3  -5 -10   88.69   17.00
  -3   5   9   29.00   13.50
   3   5  -9   38.20   11.50
   3  -5  -9   58.39   13.70
   3  -5  -9   37.80    9.30
  -3   5   8   68.69   14.20
   3   5  -8   90.79   17.50
   3  -5  -8  106.99   19.40
   3  -5  -8   96.09   17.80
  -3   5   7  128.89   24.70
   3   5  -7  105.99   17.60
   3   5  -7  139.89   17.70
   3  -5  -7  160.78   22.00
   3  -5  -7  116.09   15.20
   3   5  -6  708.83   58.09
  -3   5   6  727.63   57.59
   3   5  -6  786.82   54.99
   3  -5  -6  737.23   53.49
   3  -5  -6  777.32   56.99
   3   5  -5   -0.40    7.60
   3   5  -5  -16.40   21.30
   3   5  -5    8.30   11.50
  -3   5   5    1.00   11.30
  -3   5   5    6.60    7.80
   3  -5  -5   11.60   13.50
  -3  -5   5    0.80   11.70
  -3  -5   5    5.60   11.90
   3  -5  -5    0.30    5.90
  -3   5   4  609.34   48.00
   3   5  -4  557.14   47.80
   3   5  -4  625.94   46.10
   3   5  -4  592.94   46.80
  -3  -5   4  580.44   46.50
  -3  -5   4  595.74   49.20
   3  -5  -4  643.14   48.90
   3   5  -3   99.29   21.40
  -3   5   3   67.99   11.30
   3   5  -3   75.19   13.20
   3   5  -3   87.09   19.10
  -3  -5   3   92.09   14.60
  -3  -5   3   74.69   14.00
   3   5  -2   10.00    9.70
  -3   5   2   -5.60    9.00
   3   5  -2    2.70   11.00
   3   5  -2    7.50    7.00
  -3  -5   2   12.50   12.80
  -3  -5   2  -15.00   12.00
   3   5  -1  199.58   18.70
  -3   5   1  235.58   23.90
   3   5  -1  192.48   25.20
   3   5  -1  206.68   21.70
  -3  -5   1  157.08   27.30
   3   5   0  676.83   52.69
  -3   5   0  672.73   54.69
  -3   5   0  672.03   50.69
   3   5   0  719.03   49.40
   3   5   0  749.62   50.49
  -3  -5   0  635.64   53.89
  -3  -5   0  635.64   52.39
   3   5   1  121.39   25.10
   3   5   1  153.88   17.20
   3   5   1  138.09   16.40
  -3   5  -1  149.49   23.10
  -3   5  -1  137.19   19.00
  -3  -5  -1  104.59   16.60
  -3   5  -2  816.62   64.39
   3   5   2  845.22   66.79
   3   5   2  909.71   63.19
  -3   5  -2  869.41   64.99
  -3   5  -2  879.81   62.59
   3   5   2  921.01   63.29
  -3  -5  -2  906.41   65.19
  -3  -5  -2  853.81   67.89
   3   5   3  290.97   34.40
   3   5   3  315.47   26.70
  -3   5  -3  288.57   24.90
  -3   5  -3  281.87   29.10
  -3   5  -3  308.57   27.50
  -3  -5  -3  291.77   30.10
  -3  -5  -3  320.97   37.40
  -3   5  -4   43.70   13.60
  -3   5  -4   31.30   10.00
   3   5   4   24.90   14.10
  -3   5  -4   29.50    8.30
   3   5   4   30.40    8.60
  -3  -5  -4   45.90   13.40
   3  -5   4   41.00   10.30
  -3  -5  -4   36.00   11.40
  -3   5  -5   74.09   14.60
   3   5   5   77.29   16.00
   3   5   5  105.39   18.40
  -3   5  -5   69.99   11.80
   3  -5   5   52.69   13.00
  -3  -5  -5   73.69   12.90
  -3  -5  -5   97.29   14.50
  -3   5  -6   87.59   23.30
   3   5   6   54.69   11.10
  -3   5  -6   63.79   12.70
  -3   5  -6   98.59   15.10
  -3  -5  -6   68.29   13.90
  -3  -5  -6   73.39   12.10
   3   5   7  267.07   30.40
  -3   5  -7  280.37   28.80
  -3   5  -7  263.07   32.90
  -3   5  -7  263.67   26.10
  -3  -5  -7  322.67   28.20
  -3  -5  -7  293.07   28.40
   3   5   8   25.30   12.40
  -3   5  -8   28.10   15.20
  -3   5  -8   19.40   10.20
  -3   5  -8   23.50   12.90
  -3  -5  -8    3.40   11.70
  -3  -5  -8   31.80   13.60
  -3   5  -9    5.00   10.20
  -3   5  -9    0.00   16.80
  -3   5  -9   -5.20   12.50
   3   5   9  -10.30   13.60
  -3  -5  -9   -1.20   12.00
  -3  -5  -9  -18.00   13.40
   3   5  10   31.80   15.00
  -3   5 -10   46.10   11.90
  -3  -5 -10   36.90   14.30
  -3  -5 -10   34.80   14.00
  -3   5 -11   14.10   11.60
   3   5  11  -14.20   16.10
  -3  -5 -11   10.30   15.10
  -3  -5 -11   -5.40   14.30
  -3   6  11  -11.30   13.30
   3   6 -11    9.40   11.50
   3  -6 -11   19.90   14.40
   3  -6 -11    3.60   10.40
   3   6 -10   86.09   13.60
  -3   6  10   67.59   15.50
   3  -6 -10  124.09   23.70
   3  -6 -10   94.19   17.30
   3   6  -9   20.10   10.60
  -3   6   9    6.30   13.30
   3  -6  -9    9.40    9.00
   3  -6  -9   43.30   14.00
   3   6  -8  453.05   35.50
   3   6  -8  433.36   43.10
  -3   6   8  462.25   40.40
   3  -6  -8  412.06   33.80
   3  -6  -8  426.06   37.70
   3   6  -7   24.30   14.30
  -3   6   7   -7.20   12.20
   3   6  -7   -2.50    8.70
   3  -6  -7    3.50   13.80
   3  -6  -7   14.30    7.00
   3   6  -6  485.05   44.10
   3   6  -6  531.05   38.60
  -3   6   6  516.85   43.30
  -3  -6   6  539.65   41.30
   3  -6  -6  481.65   37.60
   3   6  -5   23.80    8.20
  -3   6   5   20.20   11.00
   3   6  -5   20.40   11.50
  -3  -6   5   54.19   13.70
   3  -6  -5   19.10   15.10
  -3   6   4  501.35   41.30
   3   6  -4  527.05   37.20
   3   6  -4  469.55   41.40
   3  -6  -4  489.05   43.20
  -3  -6   4  522.55   41.50
  -3  -6   4  457.25   43.90
  -3   6   3    2.10   10.00
   3   6  -3    0.50    9.30
   3   6  -3   18.50   10.50
   3   6  -3   -9.80    6.80
   3  -6  -3   -1.30   16.50
  -3  -6   3   15.00   14.20
  -3  -6   3   -2.50   11.80
   3   6  -2  508.45   40.30
   3   6  -2  492.45   38.80
   3   6  -2  523.05   36.30
  -3   6   2  495.45   40.00
  -3  -6   2  398.96   51.69
  -3  -6   2  423.36   42.20
   3   6  -1  -10.60    8.20
   3   6  -1  -14.10    7.00
  -3   6   1  -12.80    8.70
   3   6  -1   -8.70    9.90
  -3  -6   1   12.90   13.90
  -3  -6   1  -14.00   11.50
   3   6   0  -18.30    7.20
  -3   6   0   -7.70    8.10
   3   6   0    5.10   11.00
  -3  -6   0  -11.40   11.90
  -3  -6   0  -18.70   13.40
  -3   6  -1   87.39   18.10
   3   6   1   78.19   12.40
   3   6   1  111.59   14.70
  -3   6  -1  113.09   21.90
   3   6   1   92.39   19.20
  -3  -6  -1   87.39   16.40
  -3  -6  -1   63.19   14.60
   3   6   2  280.17   24.10
  -3   6  -2  271.87   26.30
  -3   6  -2  291.57   29.00
   3   6   2  227.38   31.30
  -3  -6  -2  297.07   30.00
  -3  -6  -2  257.87   34.10
   3   6   3   33.60   13.10
  -3   6  -3   55.09   13.90
   3   6   3   90.59   17.30
   3   6   3   39.90    9.10
  -3   6  -3   46.40    8.40
  -3   6  -3   42.10    9.70
  -3  -6  -3   54.39   16.10
  -3  -6  -3   59.79   15.70
   3   6   4  298.97   34.70
  -3   6  -4  281.97   25.00
  -3   6  -4  299.97   29.30
   3   6   4  301.27   27.50
  -3   6  -4  277.37   37.80
  -3  -6  -4  281.07   30.50
  -3   6  -5   85.49   13.10
   3   6   5  107.79   19.60
  -3   6  -5  105.29   20.90
  -3   6  -5  114.29   15.80
  -3  -6  -5  134.09   22.70
  -3  -6  -5   93.89   14.00
  -3   6  -6   77.79   14.30
   3   6   6   45.70   12.20
  -3   6  -6   52.89   12.50
  -3  -6  -6   71.69   14.30
  -3  -6  -6   60.89   12.80
  -3   6  -7   54.99   13.90
  -3   6  -7   39.40   10.20
   3   6   7   39.80   11.60
  -3   6  -7   30.40   13.40
  -3  -6  -7   41.00   14.10
  -3  -6  -7   56.59   12.70
  -3   6  -8  257.07   26.50
  -3   6  -8  252.27   35.30
   3   6   8  292.97   32.30
  -3   6  -8  278.37   29.70
  -3  -6  -8  284.27   29.70
  -3  -6  -8  302.27   30.20
  -3   6  -9   12.30   18.00
  -3   6  -9   14.90   14.30
   3   6   9   20.10   14.70
  -3   6  -9   36.00   10.90
  -3  -6  -9   21.10   14.80
  -3  -6  -9   11.10   13.10
  -3   6 -10   36.50   14.60
  -3   6 -10   28.20   11.90
   3   6  10  -15.60   15.30
  -3  -6 -10    3.50   14.00
  -3  -6 -10   29.80   15.40
  -3   6 -11    8.50   12.60
   3   6  11  -10.10   17.10
  -3  -6 -11    7.40   14.60
  -3  -6 -11  -25.20   14.80
  -3   7  10   78.39   16.50
   3   7 -10  120.49   19.80
   3  -7 -10  102.69   18.50
   3  -7 -10   97.39   19.00
  -3   7   9   44.30   15.20
   3   7  -9   33.10   10.90
   3   7  -9   49.99   17.40
   3  -7  -9   49.50   15.60
   3  -7  -9   31.80   10.20
  -3   7   8    6.80   13.10
   3   7  -8    9.40   10.00
   3  -7  -8   21.40   15.00
   3   7  -7   93.49   16.50
  -3   7   7   77.29   14.80
  -3  -7   7  152.48   23.80
   3  -7  -7  107.39   18.30
   3   7  -6  290.47   25.00
   3   7  -6  265.57   31.90
  -3   7   6  263.27   31.60
  -3  -7   6  290.97   33.30
   3  -7  -6  332.27   32.50
   3   7  -5  123.39   15.30
  -3   7   5   93.19   14.10
   3   7  -5  101.39   23.30
  -3  -7   5  129.99   23.90
   3  -7  -5  146.99   25.20
   3   7  -4  490.55   35.80
  -3   7   4  464.25   40.70
   3   7  -4  467.95   39.70
  -3  -7   4  481.05   41.00
   3  -7  -4  494.65   42.20
   3   7  -3   82.29   12.90
   3   7  -3   48.90   10.90
  -3   7   3   49.80   11.60
   3  -7  -3   67.29   17.50
  -3  -7   3  136.19   22.60
   3   7  -2   -0.50    6.60
   3   7  -2   10.20    9.30
   3   7  -2    8.60    9.70
  -3   7   2  -16.10   10.00
   3  -7  -2    4.70   17.90
  -3  -7   2  -32.90   12.00
  -3  -7   2   12.80   14.80
   3   7  -1  421.86   31.30
  -3   7   1  449.06   35.90
   3   7  -1  392.96   34.90
   3   7  -1  395.96   33.80
  -3  -7   1  403.26   37.60
   3   7   0  422.06   36.50
   3   7   0  486.35   34.00
  -3  -7   0  436.86   42.30
   3   7   1  -14.80    7.50
  -3  -7  -1    9.80   14.30
   3   7   2  124.49   16.70
  -3   7  -2  128.49   20.10
   3   7   2  139.89   18.60
  -3  -7  -2  154.98   25.60
   3   7   3   35.50    9.50
  -3   7  -3   49.10    8.40
  -3   7  -3   76.09   20.10
   3   7   3   31.90    9.10
  -3   7  -3   36.10    9.80
  -3  -7  -3   54.69   15.90
   3   7   4   47.90   14.00
  -3   7  -4   39.40   10.60
  -3   7  -4   68.59   19.50
  -3   7  -4   81.69   14.90
  -3  -7  -4   56.39   15.60
  -3   7  -5    2.60   10.30
  -3   7  -5    4.00    8.90
   3   7   5    4.90    9.50
  -3   7  -5  -18.90   22.40
  -3  -7  -5    9.50   14.80
  -3   7  -6  233.48   38.70
   3   7   6  213.28   25.00
  -3   7  -6  181.38   26.90
  -3   7  -6  155.78   21.80
  -3  -7  -6  204.98   25.60
  -3  -7  -6  177.98   27.20
  -3   7  -7   -6.00   23.10
  -3   7  -7    6.40   13.00
  -3   7  -7   -9.80    9.60
   3   7   7  -18.80   10.60
  -3  -7  -7   17.30   13.10
  -3  -7  -7  -18.20   14.30
  -3   7  -8    9.60   15.90
  -3   7  -8   14.80   10.60
   3   7   8  -14.70   11.90
  -3  -7  -8   -5.40   14.80
  -3  -7  -8    9.20   13.80
  -3   7  -9   -4.00   17.20
   3   7   9   -3.00   13.70
  -3   7  -9   -3.80   11.10
  -3  -7  -9   18.60   14.80
  -3  -7  -9  -10.20   15.60
  -3   7 -10   94.49   21.70
  -3   7 -10  151.78   22.90
   3   7  10  114.99   19.20
  -3  -7 -10  154.48   28.10
  -3  -7 -10  148.79   26.20
   3   8 -10  167.08   23.80
  -3   8  10  179.38   32.90
   3   8 -10  222.08   38.60
   3  -8 -10  132.29   21.70
   3  -8 -10  165.58   28.80
  -3   8   9  166.18   31.80
   3   8  -9  160.38   22.00
   3   8  -9  172.48   35.10
   3  -8  -9  148.89   20.80
   3  -8  -9  188.78   28.40
   3   8  -8  109.39   19.60
  -3   8   8   81.89   16.10
   3   8  -8   88.59   18.10
   3  -8  -8  128.59   17.70
  -3  -8   8  149.19   28.80
   3  -8  -8  103.79   19.10
   3   8  -7   23.90   10.30
   3   8  -7    2.90   15.00
  -3   8   7   14.90   12.00
  -3  -8   7   55.99   17.80
   3  -8  -7   34.00   18.10
   3   8  -6  153.28   19.60
   3   8  -6  156.78   26.80
  -3   8   6  141.19   26.90
   3  -8  -6  176.08   28.00
  -3  -8   6  186.08   28.00
   3   8  -5  260.27   28.70
  -3   8   5  273.97   32.30
   3   8  -5  342.37   31.60
  -3  -8   5  350.86   33.00
   3  -8  -5  294.77   34.40
   3   8  -4   23.20   10.90
  -3   8   4   27.70   11.10
   3   8  -4   43.60    8.20
   3  -8  -4   46.50   18.20
  -3  -8   4   34.20   17.10
   3   8  -3   39.50    8.20
  -3   8   3   32.10   11.20
   3   8  -3   88.19   19.60
  -3  -8   3   54.09   19.90
   3  -8  -3   48.00   18.50
  -3   8   2  127.59   22.90
   3   8  -2  152.98   15.50
   3   8  -2  151.28   22.30
   3  -8  -2  168.48   29.00
  -3  -8   2  177.08   25.70
   3   8  -1  102.69   13.20
   3   8  -1   63.79   10.70
  -3   8   1   73.69   11.40
  -3  -8   1  134.69   24.40
   3  -8  -1   65.19   19.30
   3   8   0    1.20    8.90
  -3   8   0  -10.90    8.70
   3   8   0  -11.90    7.00
  -3  -8   0   24.00   15.90
   3  -8   0  -36.80   17.10
  -3   8  -1  533.65   43.90
   3   8   1  599.84   43.70
  -3  -8  -1  548.55   47.30
   3   8   2  437.06   32.40
  -3   8  -2  400.96   33.80
   3   8   2  345.07   30.90
  -3  -8  -2  389.46   37.20
   3   8   3   24.50    8.90
  -3   8  -3   27.20    8.00
   3   8   3   24.20    9.00
  -3   8  -3   15.10    9.70
  -3  -8  -3   33.30   16.30
  -3   8  -4   85.09   15.70
   3   8   4   62.89   11.30
  -3   8  -4   44.30   11.20
   3   8   4   46.60   10.70
  -3  -8  -4   74.29   16.80
  -3   8  -5   53.49   11.80
   3   8   5   52.09   11.40
  -3  -8  -5   88.39   18.10
   3   8   6   59.39   12.30
  -3   8  -6   49.99   13.20
  -3   8  -6   70.19   11.60
  -3  -8  -6   87.39   18.20
   3   8   7    8.80   11.70
  -3   8  -7   -2.70   10.30
  -3   8  -7   -2.70   13.20
  -3  -8  -7   -0.40   14.20
  -3  -8  -7    8.80   17.40
  -3   8  -8  145.69   20.80
   3   8   8  148.89   27.80
  -3   8  -8  104.29   18.80
  -3  -8  -8  159.08   27.90
  -3  -8  -8  170.58   26.30
  -3   8  -9  290.27   36.40
  -3   8  -9  187.68   24.50
   3   8   9  228.58   31.60
  -3  -8  -9  185.38   30.00
  -3  -8  -9  225.58   33.30
   3   9  -9   83.49   19.30
   3   9  -9  112.09   20.00
  -3   9   9   53.69   15.50
   3  -9  -9  116.19   21.20
   3   9  -8    3.90   16.30
  -3   9   8   -9.60   13.00
   3   9  -8   -0.80   10.60
  -3  -9   8   52.29   19.70
   3  -9  -8    9.90   18.00
  -3   9   7  598.44   48.70
   3   9  -7  593.74   48.80
   3   9  -7  509.35   43.10
  -3  -9   7  558.64   57.39
   3  -9  -7  514.75   49.20
   3   9  -6   -9.40   13.00
   3   9  -6   -3.50    9.60
  -3   9   6    6.10   13.50
   3  -9  -6    6.70   17.90
  -3  -9   6   10.60   18.90
   3   9  -5   20.70    8.80
  -3   9   5   25.40   12.00
   3   9  -5   18.20   12.10
   3  -9  -5   48.20   19.70
  -3  -9   5   53.69   18.10
   3   9  -4   31.40   11.60
  -3   9   4   19.00   11.60
   3   9  -4   25.30    8.30
   3  -9  -4   39.50   19.10
  -3  -9   4   50.39   18.00
   3   9  -3  174.68   23.60
  -3   9   3  147.79   24.70
   3   9  -3  152.18   16.80
  -3  -9   3  178.88   27.90
   3  -9  -3  171.08   29.10
   3   9  -2   19.20    7.10
   3   9  -2   22.70   10.50
  -3   9   2   17.50   10.70
   3  -9  -2   42.90   19.30
  -3  -9   2   18.70   16.80
   3   9  -1   33.20    7.00
   3   9  -1   29.20    9.80
  -3   9   1   19.50    9.40
   3  -9  -1   33.80   18.40
  -3  -9   1   48.10   17.90
   3   9   0   -9.30    9.20
  -3   9   0   -1.40    9.60
   3  -9   0  -21.10   18.80
  -3  -9   0   16.30   18.20
   3   9   1   -6.10    9.00
  -3   9  -1  -14.70    9.20
   3  -9   1  -23.40   20.50
  -3  -9  -1    9.60   17.80
   3   9   2   -7.60    9.00
  -3   9  -2   -7.70    9.40
  -3  -9  -2   -8.90   16.00
   3  -9   2   19.90   19.00
  -3   9  -3  376.66   35.50
   3   9   3  447.06   34.40
  -3  -9  -3  388.16   39.40
  -3   9  -4   63.79   11.40
   3   9   4   66.99   11.70
  -3   9  -4   58.99   12.10
  -3  -9  -4   92.99   19.60
   3   9   5   64.39   18.60
  -3   9  -5    8.20   11.00
  -3   9  -5    5.40   10.90
   3   9   5    4.10   10.80
  -3  -9  -5   16.00   17.80
  -3   9  -6   54.09   12.00
  -3   9  -6   47.60   13.60
   3   9   6   40.80   12.60
  -3  -9  -6   61.99   19.50
   3   9   7  191.88   27.70
  -3   9  -7  178.18   23.60
  -3   9  -7  176.48   29.00
  -3  -9  -7  193.48   30.90
  -3   9  -8   19.40   11.90
  -3   9  -8   11.60   15.50
   3   9   8   -3.40   13.40
  -3  -9  -8   -2.90   18.20
  -3  -9  -8  -28.00   15.80
  -3  10   8   37.50   15.40
   3  10  -8   31.30   11.80
   3  10  -8   33.40   16.70
   3 -10  -8   44.30   20.70
  -3 -10   8   68.39   22.80
  -3  10   7   -1.00   13.90
   3  10  -7    8.50   10.70
   3  10  -7    8.60   14.80
   3 -10  -7   13.60   19.60
  -3 -10   7   53.59   21.00
   3  10  -6   22.40   10.50
   3  10  -6   29.40   14.50
  -3  10   6   25.70   13.40
   3 -10  -6   37.20   20.70
  -3 -10   6   40.70   21.40
  -3  10   5  293.57   33.30
   3  10  -5  320.17   33.40
   3  10  -5  300.97   26.90
  -3 -10   5  309.57   35.80
   3 -10  -5  307.47   36.00
  -3  10   4    6.30   11.90
   3  10  -4    4.20    8.40
   3  10  -4   -2.70   11.40
   3 -10  -4   -6.70   20.30
  -3 -10   4    9.10   19.50
   3  10  -3   96.19   21.60
   3  10  -3   46.50    8.70
  -3  10   3   37.30   12.00
  -3 -10   3   39.60   19.10
   3 -10  -3   55.99   19.90
   3  10  -2   12.10   10.80
   3  10  -2   -5.60    7.50
  -3  10   2   10.60   10.90
   3 -10  -2   10.00   18.80
  -3 -10   2   -8.00   18.80
  -3  10   1  306.07   29.30
   3  10  -1  314.37   28.60
  -3 -10   1  279.27   34.60
   3 -10  -1  241.88   35.60
  -3  10   0   -5.20    9.80
   3  10   0   -5.40   10.00
   3 -10   0    6.10   19.80
  -3 -10   0    9.40   19.30
  -3  10  -1  144.69   23.70
   3  10   1  201.68   23.30
  -3 -10  -1  161.68   30.10
   3 -10   1  186.38   32.50
   3  10   2   58.79   11.40
  -3  10  -2   45.40   11.10
   3 -10   2   55.39   22.80
  -3 -10  -2   55.69   19.10
  -3  10  -3   18.60   11.30
   3  10   3   39.40   10.00
   3 -10   3   50.59   23.30
  -3 -10  -3   39.70   19.90
  -3  10  -4   -7.50   10.80
   3  10   4   -3.30    9.90
   3 -10   4   -4.20   22.90
  -3 -10  -4    1.70   18.00
  -3  10  -5  131.09   25.60
  -3  10  -5  187.98   23.00
   3  10   5  173.48   24.90
   3 -10   5  133.79   29.20
  -3 -10  -5  172.18   30.30
  -3  10  -6    9.40   12.10
   3  10   6   -5.50   11.90
  -3  10  -6   -6.70   12.80
   3 -10   6  -19.50   25.40
  -3 -10  -6  -16.90   19.10
  -3  10  -7   39.80   13.30
   3  10   7   24.50   13.20
  -3  10  -7   29.60   14.30
  -3 -10  -7   27.90   22.00
   3 -10   7    3.70   25.70
  -3  11   6   51.99   15.20
   3  11  -6   46.30   11.70
   3  11  -6   54.59   15.30
   3 -11  -6   66.29   23.00
  -3 -11   6   82.39   23.00
  -3  11   5   -9.70   12.90
   3  11  -5   14.90   13.20
   3  11  -5    3.20   10.20
   3 -11  -5    9.60   20.50
  -3 -11   5   24.90   22.10
  -3  11   4   38.90   12.90
   3  11  -4   49.50   12.60
  -3 -11   4  101.49   22.30
   3 -11  -4   51.59   21.30
   3  11  -3   84.39   14.50
  -3  11   3   50.69   12.10
   3  11  -3   61.29   13.50
  -3 -11   3   71.29   21.80
   3 -11  -3   74.59   22.90
   3  11  -2  -13.00   11.20
  -3  11   2   -5.90   10.00
   3 -11  -2  -16.90   20.70
  -3 -11   2   10.60   19.70
   3  11  -1   -6.10   10.50
  -3  11   1   -8.50   10.60
  -3 -11   1   13.70   20.20
   3 -11  -1   -0.60   21.10
  -3  11   0  108.89   22.50
   3  11   0  165.78   22.60
   3 -11   0  101.99   22.90
  -3 -11   0   83.19   22.30
  -3  11  -1  101.39   22.20
   3  11   1  100.99   21.20
   3 -11   1   72.99   23.10
  -3 -11  -1   86.59   22.40
   3  11   2   11.80   10.70
  -3  11  -2   -8.30   10.70
  -3 -11  -2    3.00   19.10
   3 -11   2   14.10   22.40
   3  11   3  332.37   29.80
  -3  11  -3  297.77   31.10
   3 -11   3  234.88   38.60
  -3 -11  -3  276.77   36.20
  -3  11  -4   -6.20   11.30
   3 -11   4   10.20   24.40
  -3 -11  -4   13.00   19.90
  -3  11  -5   -7.70   11.60
  -3  11  -5   17.80   12.10
   3  11   5   -1.40   11.00
  -3 -11  -5   16.40   20.20
   3 -11   5   30.60   24.90
  -3  11  -6   13.20   12.80
  -3  11  -6   51.59   13.50
   3  11   6   31.30   12.80
   3 -11   6   27.10   25.70
  -3 -11  -6   33.70   21.80
   3  12  -4   -1.30   12.80
  -3  12   4    1.90   11.90
   3 -12  -4   19.60   22.20
  -3 -12   4   59.59   22.80
   3  12  -3   -8.90   12.40
  -3  12   3   -6.20   10.90
   3  12  -3   14.90    9.30
  -3 -12   3   -0.30   22.80
   3 -12  -3   13.90   21.90
   3  12  -2  225.38   27.80
  -3  12   2  202.78   27.20
  -3 -12   2  230.18   35.10
   3 -12  -2  185.68   35.10
  -3  12   1    2.10   11.20
   3  12  -1  -13.00   11.70
   3 -12  -1    9.70   21.60
  -3 -12   1   37.10   21.80
  -3  12   0    8.80   11.60
   3  12   0    4.80   11.40
  -3 -12   0   39.30   23.30
   3 -12   0    2.50   22.20
  -3  12  -1   -0.80   11.20
   3  12   1    7.50   11.30
   3 -12   1    6.60   23.40
  -3 -12  -1    8.20   22.50
   3  12   2  289.27   28.20
  -3  12  -2  215.98   28.00
  -3 -12  -2  233.08   35.20
   3 -12   2  231.18   37.50
  -3  12  -3    6.80   13.00
   3  12   3   25.00   12.10
   3 -12   3   24.30   23.50
  -3 -12  -3   44.90   23.60
   3  12   4   24.30   11.70
  -3  12  -4   25.60   12.40
  -3 -12  -4   51.99   21.80
   3 -12   4   10.20   24.20
  -4   0  12   43.50   14.20
   4   0 -11  -20.90   10.50
  -4   0  11   -1.40   13.50
  -4   0  10  325.37   34.20
   4   0 -10  303.47   28.70
   4   0  -9   -8.60    9.60
  -4   0   9    1.40   12.30
  -4   0   8  285.97   31.80
   4   0  -8  283.67   25.90
  -4   0   7   -8.70   11.60
   4   0  -7   -5.60   12.60
   4   0  -7   -8.10    8.90
  -4   0   7   -6.10   11.50
  -4   0   6   45.40   11.90
  -4   0   6   38.10   12.50
   4   0  -6   38.50    8.90
   4   0  -6   58.19   13.50
   4   0  -5  -13.80   11.70
  -4   0   5    3.10   10.50
   4   0  -4 1378.06   93.19
  -4   0   4 1267.37   94.89
   4   0  -4 1294.87   95.39
  -4   0   4 1352.36   95.59
  -4   0   3   -2.30   11.50
  -4   0   3   -0.20    9.50
   4   0  -3   -0.50   10.40
   4   0  -3   -2.80    6.80
  -4   0   3   -7.80    7.10
  -4   0   2  340.97   32.80
   4   0  -2  328.77   26.20
  -4   0   2  330.07   25.70
   4   0  -2  299.47   32.80
  -4   0   2  301.47   27.90
   4   0  -1   17.10   11.70
   4   0  -1   12.80    7.30
  -4   0   1   19.70   11.10
  -4   0   1   13.10    8.50
  -4   0   1    8.30    6.70
  -4   0   0  324.97   34.90
  -4   0   0  315.97   27.20
   4   0   0  372.76   35.30
   4   0   0  291.17   27.00
  -4   0  -1   -1.20    9.50
  -4   0  -1    5.00   13.90
   4   0   1    5.30   13.70
   4   0   2 3929.71  276.27
  -4   0  -2 4035.70  276.67
  -4   0  -2 3699.23  274.77
  -4   0  -2 4123.09  274.57
  -4   0  -3   13.50   16.90
  -4   0  -3  -15.40    9.80
  -4   0  -3   -8.30   10.30
   4   0   3   -2.90   15.60
  -4   0  -4  170.48   21.40
  -4   0  -4  178.48   21.80
   4   0   4  199.38   39.80
  -4   0  -5   -9.10    9.50
   4   0   5    3.20   18.30
  -4   0  -5    8.40   10.70
  -4   0  -6  759.32   57.49
  -4   0  -6  748.43   57.49
   4   0   6  937.01   70.59
   4   0   6  757.82   59.99
  -4   0  -7   -3.40    9.70
  -4   0  -7    0.70   11.80
   4   0   7  -19.70   12.30
  -4   0  -8   16.10   11.10
  -4   0  -8    7.30   11.50
  -4   0  -9  -19.40   10.80
   4   0   9   51.19   14.50
  -4   0  -9    9.30   11.10
  -4   0 -10  221.28   26.10
  -4   0 -10  186.98   23.90
  -4   0 -11   -4.80   11.80
  -4   0 -11   -0.60   13.00
   4   0  12   44.30   18.00
  -4   0 -12   20.40   12.50
  -4   0 -12   -4.80   12.90
  -4   1  12   84.39   15.90
   4   1 -12   75.29   14.00
   4  -1 -12   61.69   13.80
  -4  -1  12  144.39   29.30
  -4   1  11    2.40   12.90
   4   1 -11   -0.60   11.00
  -4  -1  11   -0.30   14.70
   4  -1 -11   -1.60   11.40
   4   1 -10  127.29   21.50
  -4  -1  10  133.49   28.40
   4  -1 -10  123.19   20.30
   4   1  -9  -11.00    9.30
  -4   1   9   14.30   11.60
   4  -1  -9   -9.20    9.70
  -4  -1   9  -13.40   14.30
  -4   1   8  147.69   25.10
   4   1  -8  175.58   20.10
  -4  -1   8  165.48   29.30
   4  -1  -8  157.88   19.50
  -4   1   7   -1.70   11.40
   4   1  -7    5.40   12.80
   4   1  -7  -15.50    8.70
  -4   1   7   15.90   10.50
   4  -1  -7    0.70    9.40
   4  -1  -7  -16.30   13.10
  -4  -1   7   12.10   12.40
  -4  -1   7   10.60   12.50
   4   1  -6   76.79   16.00
  -4   1   6  135.69   21.80
  -4   1   6  121.59   23.10
   4   1  -6   87.99   15.20
  -4  -1   6   73.89   14.20
  -4  -1   6   74.89   14.40
   4  -1  -6   91.29   15.80
   4  -1  -6  116.59   24.50
   4   1  -5  121.89   26.00
  -4   1   5  101.99   15.40
  -4   1   5  125.39   21.80
   4   1  -5  102.29   15.50
  -4   1   5  119.19   25.60
   4  -1  -5  114.59   24.70
   4  -1  -5  111.69   15.30
  -4  -1   5   79.29   14.00
  -4   1   4  242.28   28.60
   4   1  -4  256.17   23.00
  -4   1   4  248.58   22.60
  -4   1   4  308.87   28.30
   4   1  -4  265.77   29.20
  -4  -1   4  302.67   30.50
  -4  -1   4  239.88   32.10
   4  -1  -4  246.28   22.50
   4  -1  -4  284.37   29.60
   4   1  -3   36.60   11.50
   4   1  -3   31.70    8.00
  -4   1   3   21.50   11.30
  -4   1   3   36.20    9.00
  -4   1   3   37.00    8.40
   4  -1  -3   33.30    7.60
  -4  -1   3   14.70   12.50
  -4  -1   3   44.20    8.40
   4  -1  -3   18.20   10.80
  -4  -1   3   31.60   12.80
  -4   1   2   38.30    8.70
  -4   1   2   34.20   10.90
   4   1  -2   14.40    7.80
  -4   1   2   21.20    8.10
   4   1  -2   10.80   12.20
  -4  -1   2   -0.70   11.40
  -4  -1   2   26.80   12.00
   4  -1  -2   11.90    7.10
   4  -1  -2   12.90   11.60
  -4  -1   2   33.30    9.00
   4   1  -1  304.07   30.80
  -4   1   1  289.27   23.50
  -4   1   1  254.07   29.60
   4   1  -1  250.87   23.20
  -4   1   1  259.27   23.30
   4  -1  -1  227.08   22.50
  -4  -1   1  266.17   29.90
  -4  -1   1  259.37   23.60
   4  -1  -1  301.97   29.60
  -4   1   0  774.22   62.89
   4   1   0  781.92   58.79
   4   1   0  872.81   63.49
  -4   1   0  837.12   58.79
  -4  -1   0  820.82   58.89
  -4  -1   0  792.52   63.09
   4  -1   0  835.72   62.89
   4  -1   0  790.32   58.69
  -4   1  -1  311.87   25.30
  -4   1  -1  269.67   36.20
   4   1   1  233.08   28.20
   4   1   1  316.77   36.00
   4  -1   1  294.17   35.30
  -4  -1  -1  279.97   26.20
  -4  -1  -1  314.87   36.30
  -4   1  -2    6.00   10.40
   4   1   2   -9.30   14.30
  -4   1  -2    8.20   16.00
  -4   1  -2   -0.80    9.60
   4  -1   2    3.70   14.90
  -4  -1  -2   -1.60   15.30
  -4  -1  -2   12.50   12.20
  -4  -1  -2  -13.80   10.90
   4   1   3   -2.80   15.10
  -4   1  -3    1.40    6.70
  -4   1  -3    0.00   16.30
  -4   1  -3    9.60    9.10
  -4   1  -3   -1.30    9.30
  -4  -1  -3  -31.60   17.30
   4  -1   3   -4.00   15.80
  -4  -1  -3   13.20   11.10
  -4  -1  -3    0.70   10.70
  -4   1  -4   16.40    9.60
   4   1   4    6.80   16.60
  -4   1  -4    2.00    8.90
  -4  -1  -4   10.00   10.60
   4  -1   4    6.30   17.20
  -4  -1  -4    4.30   18.50
  -4  -1  -4   15.70   10.10
   4   1   5    5.10    9.60
   4   1   5   35.50   18.80
  -4   1  -5   43.80   10.30
  -4   1  -5   21.30    8.90
   4  -1   5   42.50   20.10
  -4  -1  -5   26.20    9.70
   4  -1   5   18.70   11.60
  -4  -1  -5   54.09   11.70
  -4   1  -6   -2.90    9.30
   4   1   6    0.00   19.30
  -4   1  -6   -4.40    9.60
   4   1   6   10.40   11.00
   4  -1   6   -1.80   10.90
   4  -1   6    8.30   20.80
  -4  -1  -6    0.30    9.50
  -4  -1  -6  -18.20   11.50
  -4   1  -7  208.98   23.50
  -4   1  -7  204.38   21.90
  -4  -1  -7  220.58   23.40
  -4  -1  -7  202.08   23.40
  -4   1  -8  132.99   20.30
  -4  -1  -8  118.49   20.40
   4  -1   8  117.29   18.20
  -4  -1  -8  133.19   20.90
  -4   1  -9   24.40   10.80
  -4   1  -9   22.50   11.60
  -4  -1  -9   26.10   13.00
  -4  -1  -9   21.90   11.70
   4  -1   9   66.19   16.60
  -4   1 -10  147.99   21.20
  -4   1 -10  194.58   24.00
  -4  -1 -10  136.39   23.00
  -4  -1 -10  169.98   24.40
  -4   1 -11   62.09   14.10
  -4   1 -11   37.30   12.70
  -4  -1 -11   42.00   13.60
   4  -1  11   81.39   19.50
  -4  -1 -11   65.69   22.40
  -4   1 -12   12.20   13.20
   4   1  12   39.20   18.60
  -4  -1 -12    9.20   14.20
  -4  -1 -12    9.00   14.10
   4  -1  12   28.90   19.70
   4   2 -12   43.70   13.40
  -4   2  12   31.40   13.50
   4  -2 -12   32.10   12.10
  -4  -2  12   77.69   18.70
  -4   2  11  235.48   29.10
   4   2 -11  207.98   26.40
  -4  -2  11  228.98   35.90
   4  -2 -11  246.18   25.20
   4   2 -10   26.70   11.10
  -4   2  10   30.00   12.20
   4  -2 -10   26.80   10.20
  -4  -2  10   20.20   15.60
   4   2  -9    4.00   10.20
  -4   2   9   -0.20   11.40
   4  -2  -9  -11.90    9.30
  -4  -2   9   -6.90   14.70
   4   2  -8  253.97   24.50
  -4   2   8  245.98   28.60
  -4  -2   8  288.27   35.60
   4  -2  -8  228.98   23.80
   4   2  -7   73.99   15.40
  -4   2   7  100.89   21.80
   4   2  -7   62.39   10.00
   4  -2  -7   91.59   15.10
  -4  -2   7   45.20   17.30
  -4  -2   7   60.59   13.90
  -4   2   6    7.60   10.10
   4   2  -6   18.20   12.90
   4   2  -6    0.70    8.00
  -4   2   6   20.10   10.80
  -4  -2   6   15.00   13.20
   4  -2  -6    7.90   11.60
   4  -2  -6   11.40    7.60
  -4  -2   6  -16.90   16.10
  -4   2   5  722.33   53.59
   4   2  -5  690.43   50.89
   4   2  -5  661.83   54.79
  -4   2   5  655.93   52.89
  -4  -2   5  669.83   59.39
   4  -2  -5  684.63   50.29
  -4  -2   5  723.83   55.29
   4  -2  -5  753.02   54.19
  -4   2   4   12.50    9.60
   4   2  -4   -0.80    7.10
  -4   2   4    1.00    9.70
  -4   2   4   -3.60    9.90
   4   2  -4   -2.20   11.10
  -4  -2   4   -2.30   12.10
   4  -2  -4   -9.60    6.80
   4  -2  -4   -6.30   11.10
   4   2  -3  593.44   41.20
  -4   2   3  562.74   43.80
  -4   2   3  526.15   44.70
  -4   2   3  559.34   41.70
   4   2  -3  542.65   45.00
   4  -2  -3  569.54   44.40
  -4  -2   3  531.35   41.00
  -4  -2   3  567.54   46.80
   4  -2  -3  542.95   40.80
   4   2  -2 1207.98   82.99
  -4   2   2 1233.88   83.89
   4   2  -2 1244.98   83.49
  -4   2   2 1185.88   83.49
   4   2  -2 1165.28   85.89
  -4   2   2 1025.80   84.39
   4  -2  -2 1136.79   82.69
   4  -2  -2 1251.87   85.29
  -4  -2   2 1180.68   83.39
  -4  -2   2 1106.59   85.99
  -4   2   1 1191.88   86.69
  -4   2   1 1205.68   86.39
   4   2  -1 1165.38   86.19
   4   2  -1 1272.97   88.79
  -4   2   1 1182.98   88.49
   4  -2  -1 1106.69   85.79
  -4  -2   1 1260.77   88.99
   4  -2  -1 1339.77   87.89
  -4  -2   1 1285.47   86.69
  -4   2   0 1023.60   84.09
  -4   2   0 1203.98   87.69
   4   2   0 1167.38   84.39
   4   2   0 1349.86   87.89
  -4   2   0 1186.08   84.59
   4  -2   0 1199.08   84.29
  -4  -2   0 1230.98   87.69
  -4  -2   0 1222.38   84.99
  -4   2  -1   63.59    8.20
  -4   2  -1   77.99   15.30
  -4   2  -1  127.99   17.30
   4   2   1   79.99   12.20
   4   2   1   80.19   15.60
  -4  -2  -1  105.19   18.60
  -4  -2  -1  143.09   31.20
   4   2   2  109.09   17.00
  -4   2  -2   91.69   13.10
  -4   2  -2  132.19   17.50
  -4   2  -2   74.89   17.60
  -4   2  -2  108.29   14.70
  -4  -2  -2  131.19   18.80
  -4  -2  -2   94.99   17.50
  -4   2  -3  632.54   46.30
   4   2   3  593.54   53.59
  -4   2  -3  622.64   45.80
  -4  -2  -3  610.84   46.80
   4  -2   3  622.84   55.39
  -4  -2  -3  575.54   47.90
  -4  -2  -3  634.64   56.49
  -4   2  -4  -11.40    8.60
   4   2   4    0.50   15.60
  -4   2  -4    1.70    8.60
  -4   2  -4    0.30    9.80
  -4  -2  -4   14.40   11.00
   4  -2   4    5.30   17.50
  -4  -2  -4    0.50   10.10
  -4  -2  -4    2.70   17.50
  -4   2  -5  669.73   51.09
  -4   2  -5  655.13   52.49
  -4   2  -5  639.34   51.09
   4   2   5  698.83   61.29
   4   2   5  788.82   51.69
  -4  -2  -5  634.94   51.89
   4  -2   5  783.32   64.89
   4  -2   5  684.63   53.59
  -4   2  -6   10.50    9.90
   4   2   6   10.20   18.50
   4   2   6  -14.40   11.20
  -4   2  -6    3.50    9.60
   4  -2   6   29.80   20.80
   4  -2   6   -4.20   10.90
  -4  -2  -6   10.50   10.20
  -4  -2  -6   13.40   11.50
  -4   2  -7  150.18   21.10
  -4   2  -7  129.49   19.20
  -4  -2  -7  183.58   22.70
  -4  -2  -7  179.78   21.90
  -4   2  -8   18.70   11.10
  -4  -2  -8   22.30   10.80
  -4  -2  -8   18.90   12.40
  -4   2  -9  333.47   30.70
  -4   2  -9  284.77   28.00
  -4  -2  -9  348.17   30.50
   4  -2   9  288.87   43.40
  -4  -2  -9  321.67   30.80
  -4   2 -10   15.20   10.60
  -4   2 -10   13.20   11.90
  -4  -2 -10   -2.40   14.60
  -4  -2 -10    1.90   11.60
   4  -2  10   14.60   19.70
  -4   2 -11    6.10   13.20
  -4   2 -11   19.80   10.80
   4   2  11   50.19   16.10
   4  -2  11   13.10   20.00
  -4  -2 -11    4.00   12.20
  -4  -2 -11    5.60   14.20
  -4   2 -12   71.29   14.80
   4   2  12  138.39   30.00
  -4  -2 -12   73.59   16.90
   4  -2  12   56.99   22.50
  -4  -2 -12   57.29   15.10
  -4   3  12    4.70   14.50
   4   3 -12    2.60   12.00
   4  -3 -12  -12.90   10.90
  -4  -3  12  -11.20   18.40
   4   3 -11   -1.10   11.30
  -4   3  11    7.40   13.50
   4  -3 -11    6.00   10.70
  -4  -3  11    5.40   17.40
  -4   3  10   40.10   13.50
   4   3 -10   44.40   12.50
  -4  -3  10   24.80   18.80
   4  -3 -10   44.60   10.90
  -4   3   9  384.16   36.80
   4   3  -9  363.76   31.40
   4  -3  -9  351.86   30.20
  -4  -3   9  375.06   45.80
   4  -3  -9  366.76   31.00
  -4   3   8  119.09   25.50
   4   3  -8  124.79   18.70
   4  -3  -8  154.18   19.00
   4  -3  -8  142.59   17.50
  -4  -3   8  119.99   22.50
  -4   3   7  418.56   38.40
   4   3  -7  433.56   34.50
   4  -3  -7  436.26   33.90
  -4  -3   7  468.95   50.29
   4  -3  -7  432.76   35.50
  -4   3   6  294.67   30.00
   4   3  -6  319.27   34.30
   4   3  -6  309.27   34.50
   4  -3  -6  336.07   30.50
   4  -3  -6  319.37   32.70
   4  -3  -6  326.57   26.30
  -4  -3   6  328.67   34.00
  -4   3   5 1278.27   94.69
  -4   3   5 1250.87   93.89
   4   3  -5 1300.17   95.59
   4   3  -5 1377.16   92.79
   4  -3  -5 1317.87   92.39
   4  -3  -5 1419.66   94.69
  -4  -3   5 1243.68   95.39
   4   3  -4   22.30   11.60
  -4   3   4    8.40    9.90
  -4   3   4   31.90   11.90
   4   3  -4   28.40   12.40
  -4  -3   4   24.50   12.70
  -4  -3   4   25.30    9.30
   4  -3  -4   13.50    6.90
   4  -3  -4    9.00   10.80
  -4   3   3   31.30    9.90
   4   3  -3   10.30    7.40
  -4   3   3   13.20   10.90
   4   3  -3   22.70   10.80
   4   3  -3    7.50    9.30
  -4   3   3   13.40    9.10
   4  -3  -3   25.30    6.50
  -4  -3   3   13.50   12.80
  -4  -3   3    8.30   10.40
  -4   3   2  191.68   26.00
  -4   3   2  232.98   25.00
  -4   3   2  222.18   23.40
   4   3  -2  223.88   22.30
   4   3  -2  244.98   29.00
   4   3  -2  212.28   20.70
   4  -3  -2  225.78   19.40
  -4  -3   2  218.68   23.10
  -4  -3   2  207.48   29.80
   4  -3  -2  298.57   25.40
   4   3  -1   23.80   12.30
   4   3  -1   12.90    7.30
   4   3  -1   16.00    7.60
  -4   3   1   19.30   11.00
  -4   3   1    7.10    7.60
  -4   3   1   15.50   10.00
  -4  -3   1   27.90   12.20
  -4  -3   1   31.50   12.00
   4   3   0   25.90   12.70
  -4   3   0   45.20   10.50
  -4   3   0   21.00    7.50
   4   3   0   16.70    6.50
   4   3   0   37.20    8.30
  -4   3   0   21.00   12.40
   4  -3   0   41.40   11.20
  -4  -3   0   49.10   12.30
  -4  -3   0   31.90   12.90
  -4   3  -1 1514.05  115.79
  -4   3  -1 1597.14  112.49
   4   3   1 1664.23  115.39
  -4   3  -1 1565.14  112.99
   4   3   1 1686.63  112.89
   4   3   1 1525.55  112.09
  -4  -3  -1 1597.94  113.49
  -4  -3  -1 1695.13  116.09
   4   3   2   24.80   14.00
  -4   3  -2   28.10    9.60
  -4   3  -2   13.90    6.80
  -4   3  -2   27.00   15.60
  -4   3  -2   25.00    9.80
   4  -3   2   -5.80   12.70
  -4  -3  -2   17.80   11.60
  -4  -3  -2   43.70   15.30
  -4   3  -3  285.07   25.90
   4   3   3  264.77   23.90
   4   3   3  265.27   36.20
  -4   3  -3  329.47   25.70
  -4   3  -3  271.87   25.80
  -4  -3  -3  276.67   27.80
  -4  -3  -3  329.57   39.80
  -4  -3  -3  286.47   29.60
   4   3   4   18.50   15.30
  -4   3  -4   21.80    9.80
  -4   3  -4   13.50    8.50
   4   3   4   29.70    7.30
  -4   3  -4   15.00    8.60
  -4  -3  -4   16.80   12.80
   4  -3   4   10.50   18.50
  -4  -3  -4   38.70   17.30
   4  -3   4   -1.50    9.90
  -4  -3  -4   31.70   12.50
  -4   3  -5  148.19   18.80
  -4   3  -5  128.59   19.20
   4   3   5  164.18   36.10
  -4   3  -5  165.78   22.60
   4   3   5  170.08   20.10
  -4  -3  -5  161.48   22.90
  -4  -3  -5  138.79   21.00
   4  -3   5  111.69   24.20
   4  -3   5  158.68   24.40
  -4   3  -6   -4.90   16.20
   4   3   6   14.10   11.80
  -4   3  -6    6.10   11.30
   4   3   6   21.10   10.90
  -4   3  -6   19.10    9.70
   4   3   6   50.19   18.60
  -4  -3  -6   17.60   10.60
  -4  -3  -6   21.70   11.60
   4  -3   6   18.10   10.90
   4  -3   6   31.50   21.70
   4   3   7  232.98   29.40
  -4   3  -7  228.68   24.70
  -4  -3  -7  218.78   25.00
  -4  -3  -7  244.58   25.70
  -4   3  -8    3.50   10.60
   4   3   8   -8.60   13.50
  -4   3  -8    1.40    9.70
  -4  -3  -8   -2.80   11.30
   4   3   9   10.60   14.10
  -4   3  -9   12.60   12.10
  -4   3  -9   13.60   10.70
  -4  -3  -9    4.50   12.10
  -4  -3  -9   21.00   13.40
   4   3  10  -13.80   14.70
  -4   3 -10  -18.80   10.50
  -4   3 -10    0.90   12.30
   4  -3  10  -56.69   22.70
  -4  -3 -10   -1.20   13.50
  -4  -3 -10  -25.00   14.10
  -4   3 -11  185.18   26.20
  -4   3 -11  131.69   21.60
   4   3  11  238.38   31.50
   4  -3  11  119.99   27.20
  -4  -3 -11  193.28   26.70
  -4  -3 -11  176.08   27.80
   4   3  12   20.20   18.00
  -4   3 -12   32.80   15.40
  -4  -3 -12   38.90   15.30
  -4  -3 -12   34.10   16.60
   4  -3  12    1.80   22.20
   4   4 -12    5.90   12.10
  -4   4  12    2.00   13.80
  -4  -4  12  -14.50   21.40
   4  -4 -12    0.90   11.30
   4   4 -11  283.77   27.60
  -4   4  11  267.87   32.70
   4  -4 -11  242.58   25.70
   4  -4 -11  236.78   26.30
  -4   4  10  -13.20   13.10
   4   4 -10   -1.30   11.80
   4  -4 -10   21.40   11.50
  -4  -4  10    8.60   21.80
   4  -4 -10    5.30    9.60
   4   4  -9  125.69   18.90
  -4   4   9  117.39   26.70
   4  -4  -9  128.29   19.50
   4  -4  -9  111.59   17.70
  -4  -4   9   66.79   24.80
   4   4  -8  258.97   25.30
  -4   4   8  297.07   32.10
   4  -4  -8  273.27   24.00
   4  -4  -8  237.28   27.60
  -4   4   7  257.17   31.20
   4   4  -7  260.17   23.90
   4  -4  -7  267.57   23.20
   4   4  -6    3.60   12.60
   4   4  -6   15.50   13.10
  -4   4   6   13.80   11.50
   4   4  -6   -1.60    7.90
   4  -4  -6   14.40   15.00
  -4  -4   6    1.90   13.00
   4   4  -5 1097.49   77.39
  -4   4   5 1035.30   78.49
   4   4  -5 1031.70   79.79
  -4   4   5 1073.69   79.59
   4   4  -5 1123.89   80.59
   4  -4  -5 1150.28   78.99
   4  -4  -5 1097.69   76.89
  -4  -4   5 1102.09   80.69
   4   4  -4    4.30   11.30
  -4   4   4    0.80    9.40
   4   4  -4   -4.50   10.50
   4   4  -4  -10.10    7.60
  -4   4   4    7.00    9.90
   4  -4  -4   -6.90    5.70
   4  -4  -4    8.30    9.70
  -4  -4   4   -9.50   13.40
  -4  -4   4    5.30   11.00
   4   4  -3   -7.00    7.80
  -4   4   3   -0.90   12.60
   4   4  -3   -0.10    9.00
   4   4  -3   -3.80   10.90
  -4  -4   3    2.30   12.70
  -4  -4   3   -7.90   12.10
   4  -4  -3    1.00    5.40
  -4   4   2   16.50   12.30
   4   4  -2    0.00   11.00
  -4   4   2    0.50    9.00
   4   4  -2   -0.80    7.30
   4   4  -2   -6.40    8.10
   4  -4  -2    4.60    5.50
  -4  -4   2   -6.70   12.30
  -4  -4   2   -7.60   11.70
   4   4  -1  412.26   36.10
  -4   4   1  350.06   31.80
   4   4  -1  392.36   29.80
   4   4  -1  388.76   30.30
  -4   4   1  347.17   31.30
  -4  -4   1  339.57   36.10
  -4  -4   1  368.06   32.40
  -4   4   0   35.00    8.50
   4   4   0   37.20    7.10
   4   4   0   27.80   11.40
  -4   4   0   35.40   11.40
   4   4   0   48.00    8.90
  -4  -4   0   31.00   13.20
  -4  -4   0   31.20   13.40
  -4   4  -1  381.26   34.10
   4   4   1  463.45   33.60
   4   4   1  437.26   39.20
   4   4   1  429.36   32.00
  -4   4  -1  407.06   32.80
  -4   4  -1  337.27   39.70
  -4  -4  -1  378.86   35.40
  -4  -4  -1  448.66   41.10
   4   4   2  380.26   40.60
  -4   4  -2  395.46   32.80
  -4   4  -2  388.46   33.40
   4   4   2  432.26   33.60
  -4   4  -2  415.86   32.10
   4   4   2  385.46   31.30
  -4  -4  -2  419.56   42.00
  -4   4  -3  218.38   24.20
  -4   4  -3  243.28   23.40
   4   4   3  255.47   33.80
  -4   4  -3  234.28   22.80
   4   4   3  216.18   22.00
  -4  -4  -3  256.17   37.40
  -4  -4  -3  211.28   25.30
   4  -4   3  254.37   24.90
  -4   4  -4  718.43   58.09
  -4   4  -4  786.12   55.49
   4   4   4  766.42   61.99
  -4   4  -4  762.22   56.79
   4   4   4  710.53   55.39
  -4  -4  -4  803.42   56.99
  -4  -4  -4  782.32   63.89
   4  -4   4  774.82   56.99
  -4   4  -5   97.99   23.60
  -4   4  -5   89.09   20.80
  -4   4  -5  136.99   18.60
   4   4   5  135.39   18.80
   4   4   5  101.19   18.40
  -4  -4  -5  149.88   23.00
  -4  -4  -5  100.99   21.10
  -4   4  -6   52.99   12.80
  -4   4  -6   60.19   11.90
   4   4   6  110.29   19.90
  -4  -4  -6   68.29   15.00
  -4  -4  -6   39.50   12.80
   4   4   7   13.50   10.50
  -4   4  -7   18.60   10.90
  -4   4  -7   -7.00   12.80
  -4   4  -7   21.10   10.00
  -4  -4  -7   14.40   11.40
  -4  -4  -7   17.60   12.10
  -4   4  -8   50.29   12.90
  -4   4  -8   54.09   12.40
  -4   4  -8   25.30   15.30
   4   4   8   47.60   13.00
  -4  -4  -8   55.39   13.00
  -4  -4  -8   51.19   13.20
   4   4   9  356.26   40.50
  -4   4  -9  320.07   31.90
  -4   4  -9  329.47   32.60
  -4  -4  -9  370.56   34.00
  -4  -4  -9  369.46   32.90
  -4   4 -10   29.90   12.90
   4   4  10   15.90   17.50
  -4   4 -10   36.60   13.10
  -4  -4 -10   28.30   15.40
  -4  -4 -10   41.50   14.20
   4   4  11  -23.80   19.00
  -4   4 -11    1.50   12.20
  -4   4 -11   10.50   13.40
  -4  -4 -11   21.10   14.50
  -4  -4 -11  -17.60   16.00
  -4   5  11   29.60   15.10
   4   5 -11   20.20   12.00
  -4  -5  11  -13.40   24.50
   4  -5 -11   17.50   10.50
  -4   5  10  211.18   29.90
   4   5 -10  166.38   23.70
   4  -5 -10  163.88   20.10
  -4  -5  10  111.99   30.50
   4  -5 -10  206.48   25.40
   4   5  -9  251.97   26.90
  -4   5   9  323.87   32.30
   4  -5  -9  284.27   28.10
   4  -5  -9  241.58   24.70
  -4   5   8   46.80   13.50
   4   5  -8   25.30   10.30
   4  -5  -8   30.60    9.90
   4  -5  -8   29.00   13.50
   4   5  -7   32.40   14.80
  -4   5   7    8.40   11.90
   4   5  -7    6.70    9.30
   4  -5  -7   20.20   13.80
   4  -5  -7   17.60    7.90
   4   5  -6  233.28   28.90
   4   5  -6  218.18   20.90
  -4   5   6  166.58   27.90
   4  -5  -6  196.58   19.50
   4  -5  -6  254.27   27.50
   4   5  -5   30.00   12.20
   4   5  -5   24.60    8.40
  -4   5   5   26.50   11.10
   4   5  -5   31.90   22.30
  -4   5   5   30.90    8.70
   4  -5  -5   27.80    9.70
   4  -5  -5   27.40    6.60
  -4  -5   5   28.10   16.60
  -4  -5   5   19.50   12.30
   4  -5  -5   34.30   16.00
   4   5  -4   14.20   10.40
   4   5  -4    3.60    7.60
  -4   5   4    4.30   10.70
   4   5  -4    1.10   10.90
  -4  -5   4   -0.20   13.50
   4  -5  -4   16.30    5.70
  -4  -5   4   -6.00   12.30
   4   5  -3  705.33   53.89
   4   5  -3  728.03   55.39
   4   5  -3  710.33   53.29
  -4   5   3  696.93   54.69
  -4  -5   3  754.82   54.79
  -4  -5   3  715.43   56.99
   4   5  -2  771.12   50.39
  -4   5   2  650.53   52.49
   4   5  -2  727.93   53.49
   4   5  -2  714.13   51.89
  -4   5   2  657.53   53.29
  -4  -5   2  629.34   54.69
  -4  -5   2  675.73   53.29
   4   5  -1   16.10   11.60
   4   5  -1    0.60    7.60
  -4   5   1   -7.70   13.00
   4   5  -1   -3.50    8.00
  -4  -5   1   -9.50   13.50
  -4  -5   1   -7.70   12.50
  -4   5   0    1.60   11.50
   4   5   0   -7.50   11.80
   4   5   0   -5.60    7.40
   4   5   0   -6.20    8.00
  -4   5   0   -6.30    8.00
  -4  -5   0   -4.30   13.70
  -4  -5   0   -2.70   12.90
   4   5   1   76.19   15.80
  -4   5  -1   69.19   13.10
   4   5   1  109.79   15.70
   4   5   1   54.59   14.10
  -4   5  -1   90.69   17.40
  -4  -5  -1   74.99   15.50
  -4  -5  -1   86.79   14.70
   4   5   2   -6.00   12.70
  -4   5  -2   15.10   11.90
   4   5   2   -2.70    6.80
  -4   5  -2    3.80    8.70
   4   5   2   -2.70    9.00
  -4  -5  -2    0.40   13.30
  -4  -5  -2   14.10   14.70
   4  -5   2   36.50   13.20
   4  -5   2    3.50    8.80
   4   5   3  505.05   45.80
   4   5   3  498.65   39.30
  -4   5  -3  483.95   38.80
  -4   5  -3  502.15   39.90
  -4   5  -3  487.15   40.70
  -4  -5  -3  515.95   49.10
  -4  -5  -3  507.25   41.60
   4  -5   3  592.44   40.60
   4  -5   3  477.25   48.30
  -4   5  -4  344.57   34.00
   4   5   4  434.36   34.70
  -4   5  -4  453.55   35.60
   4   5   4  445.46   42.90
  -4   5  -4  449.16   35.70
   4  -5   4  508.45   36.00
  -4  -5  -4  351.76   40.50
   4  -5   4  393.26   48.50
  -4  -5  -4  461.95   37.60
  -4  -5  -4  428.86   45.20
  -4   5  -5   26.40   11.70
  -4   5  -5   16.60   10.20
   4   5   5   17.10    9.90
  -4   5  -5   14.00    9.00
  -4  -5  -5    9.20   12.90
  -4  -5  -5   -3.20   11.90
  -4   5  -6   37.40   10.30
  -4   5  -6   43.70   12.20
  -4   5  -6   33.90   11.90
   4   5   6   31.20   10.00
  -4  -5  -6   36.40   15.00
  -4  -5  -6   39.30   13.10
   4   5   7  124.29   29.40
  -4   5  -7  130.19   27.60
  -4   5  -7  119.89   21.20
  -4   5  -7  128.29   21.40
  -4  -5  -7  146.69   22.40
  -4  -5  -7  163.28   24.10
  -4   5  -8  160.58   22.60
  -4   5  -8  170.78   22.40
  -4   5  -8  151.78   31.20
   4   5   8  145.29   27.40
  -4  -5  -8  181.48   24.70
  -4  -5  -8  158.78   25.60
  -4   5  -9   11.80   17.30
   4   5   9   20.00   14.20
  -4   5  -9   30.80   12.80
  -4   5  -9   21.60   11.60
  -4  -5  -9   28.80   13.80
  -4  -5  -9   20.80   13.90
  -4   5 -10   70.79   14.30
   4   5  10   88.39   17.80
  -4   5 -10   76.59   15.30
  -4  -5 -10   93.59   17.00
  -4  -5 -10   81.49   16.20
  -4   5 -11  138.29   24.50
  -4   5 -11  126.39   23.40
   4   5  11  107.29   20.00
  -4  -5 -11  152.28   27.50
  -4  -5 -11  139.59   26.40
  -4   6  11   27.90   13.80
   4   6 -11    0.50   12.30
   4  -6 -11   53.69   16.00
  -4  -6  11  -53.69   31.00
   4  -6 -11   22.60   10.80
  -4   6  10  178.08   29.60
   4   6 -10  151.18   22.80
   4  -6 -10  141.19   25.40
   4  -6 -10  108.49   19.20
   4   6  -9    0.20   10.40
  -4   6   9  -20.20   13.00
   4  -6  -9   12.70    8.60
   4  -6  -9    2.90   14.00
  -4   6   8  653.43   51.09
   4   6  -8  669.53   53.69
   4   6  -8  601.44   47.00
   4  -6  -8  570.64   45.70
   4  -6  -8  605.74   49.80
   4   6  -7   73.79   17.10
   4   6  -7  109.69   17.10
  -4   6   7  107.09   15.80
   4  -6  -7   95.59   14.40
   4  -6  -7  117.89   17.80
  -4   6   6  155.28   27.10
   4   6  -6  191.18   27.70
   4   6  -6  192.28   19.50
   4  -6  -6  180.58   17.10
   4  -6  -6  169.68   26.70
  -4  -6   6  153.38   23.20
  -4   6   5    6.70   11.30
   4   6  -5   19.50   11.80
  -4  -6   5   26.40   14.90
   4  -6  -5   35.10   21.40
   4  -6  -5   17.90    6.20
  -4   6   4  659.13   51.69
   4   6  -4  675.13   52.19
   4   6  -4  667.93   48.40
   4  -6  -4  656.43   57.49
  -4  -6   4  689.93   51.89
  -4  -6   4  618.44   53.79
   4   6  -3  308.27   30.20
   4   6  -3  277.57   28.60
   4   6  -3  329.17   24.60
  -4  -6   3  240.58   33.80
  -4  -6   3  246.78   43.00
   4   6  -2  329.47   24.90
   4   6  -2  320.77   30.30
  -4   6   2  285.17   29.40
   4   6  -2  296.87   28.00
  -4  -6   2  318.27   31.00
  -4  -6   2  228.58   31.60
  -4   6   1   81.49   15.40
   4   6  -1   63.29    9.40
   4   6  -1   64.39   10.70
   4   6  -1  119.19   24.20
  -4   6   1   60.29   10.70
  -4  -6   1   33.00   14.00
  -4  -6   1   99.99   15.90
   4   6   0  176.08   27.40
  -4   6   0  170.28   24.70
   4   6   0  181.88   18.60
  -4   6   0  160.88   21.70
   4   6   0  211.08   22.40
  -4  -6   0  134.79   30.20
  -4  -6   0  219.28   26.60
   4   6   1  425.16   32.30
   4   6   1  380.86   38.00
  -4   6  -1  379.96   35.50
   4   6   1  410.36   31.40
  -4   6  -1  381.46   32.80
  -4  -6  -1  371.06   40.10
  -4  -6  -1  403.36   36.70
  -4   6  -2   30.50    9.60
   4   6   2   15.70   13.00
  -4   6  -2   50.09    9.60
   4   6   2   36.60    9.60
  -4   6  -2   63.19   13.80
  -4  -6  -2   55.89   27.20
  -4  -6  -2   35.10   15.20
  -4   6  -3   27.00    9.50
  -4   6  -3   33.90    8.80
   4   6   3   12.90   13.60
   4   6   3   53.39   10.90
   4   6   3   22.60   10.70
  -4   6  -3   42.40   13.70
  -4  -6  -3   43.20   16.50
  -4  -6  -3   33.90   14.40
   4  -6   3   96.19   19.10
  -4   6  -4   72.09   13.80
  -4   6  -4   57.49   11.60
   4   6   4   54.99    9.80
  -4  -6  -4   59.79   14.60
   4   6   5    4.30    8.80
  -4   6  -5    6.30    9.00
  -4   6  -5    4.60   12.50
  -4   6  -5  -14.00   10.20
  -4  -6  -5  -16.80   12.30
  -4  -6  -5   -4.10   13.20
  -4   6  -6  524.45   42.80
  -4   6  -6  576.84   45.60
   4   6   6  550.34   46.40
  -4   6  -6  562.54   44.60
  -4  -6  -6  557.54   55.79
  -4  -6  -6  558.74   45.10
  -4   6  -7    5.60   13.00
   4   6   7    8.40   10.10
  -4   6  -7    8.40   13.80
  -4   6  -7   13.70   11.10
  -4  -6  -7   15.20   13.50
  -4  -6  -7   28.80   13.90
  -4   6  -8   29.30   15.60
   4   6   8    2.20   12.90
  -4   6  -8   19.60   12.00
  -4   6  -8   11.10   21.80
  -4  -6  -8   48.40   14.50
  -4  -6  -8   21.10   15.20
   4   6   9    0.80   14.10
  -4   6  -9   -7.40   27.50
  -4   6  -9  -29.00   17.80
  -4   6  -9   -7.80   11.90
  -4  -6  -9   21.60   15.50
  -4  -6  -9    2.30   15.00
  -4   6 -10  116.29   17.30
  -4   6 -10  157.28   29.00
   4   6  10  146.99   32.80
  -4  -6 -10  130.29   25.20
  -4  -6 -10  195.08   29.00
  -4   7  10  272.27   34.90
   4   7 -10  231.58   27.30
   4  -7 -10  293.97   31.40
   4  -7 -10  231.28   24.70
   4   7  -9    0.20   17.10
  -4   7   9   13.20   14.90
   4   7  -9    0.40   10.90
   4  -7  -9    0.30    8.90
   4  -7  -9    5.80   15.40
  -4   7   8   11.90   13.70
   4   7  -8    4.80   10.50
   4   7  -8   -1.80   16.60
   4  -7  -8   17.40    8.20
   4  -7  -8   24.00   16.30
  -4   7   7    1.60   12.80
   4   7  -7   -2.90    9.40
   4   7  -7  -30.40   13.80
  -4  -7   7   18.00   15.00
   4  -7  -7    5.40   16.70
   4  -7  -7   12.40    8.50
  -4   7   6  441.46   40.40
   4   7  -6  455.75   41.00
   4   7  -6  454.05   34.90
   4  -7  -6  439.06   41.40
   4   7  -5   -3.40    7.60
  -4   7   5    7.10   11.40
   4   7  -5   -6.10   11.80
   4  -7  -5   19.60   16.70
  -4  -7   5    5.30   15.80
   4   7  -4   -7.20   10.60
   4   7  -4   -8.00    7.30
  -4   7   4   -9.80   10.50
   4  -7  -4   23.80   16.70
  -4  -7   4   10.70   15.30
   4   7  -3   45.00    8.10
  -4   7   3   27.10   10.70
   4   7  -3   30.40   10.30
   4  -7  -3   41.70   17.40
  -4  -7   3   19.00   15.20
   4   7  -2   46.80   10.10
  -4   7   2   29.40   10.70
   4   7  -2   56.99   10.50
  -4  -7   2   46.20   15.80
  -4   7   1   10.80    9.60
   4   7  -1   10.40   10.60
   4   7  -1    5.30    8.90
   4   7  -1   -0.50    7.50
  -4  -7   1   26.30   17.70
  -4  -7   1  -22.60   12.80
   4   7   0  229.48   21.40
  -4   7   0  245.68   23.80
   4   7   0  237.58   23.90
   4   7   0  234.18   28.60
  -4   7   0  217.58   28.50
  -4  -7   0  218.48   27.90
  -4  -7   0  161.78   31.00
  -4   7  -1   -0.50    8.70
   4   7   1    5.00    8.10
   4   7   1    5.30    7.90
  -4   7  -1   15.80   14.70
  -4  -7  -1   18.10   15.40
  -4   7  -2    2.20    9.00
   4   7   2   17.20    8.60
   4   7   2   12.60    7.80
  -4   7  -2   16.40   14.00
  -4  -7  -2   10.20   15.40
   4   7   3   12.10    9.30
   4   7   3    2.20    8.10
  -4   7  -3   -0.40    8.80
  -4   7  -3   -0.30    8.50
  -4   7  -3  -12.40   13.70
  -4  -7  -3   -1.30   15.60
   4   7   4  713.83   54.09
  -4   7  -4  700.93   55.79
  -4   7  -4  670.33   54.29
   4   7   4  775.92   53.79
  -4  -7  -4  725.43   56.09
   4   7   5  -15.10    9.60
  -4   7  -5   -6.30   14.00
  -4   7  -5  -12.30   10.30
  -4   7  -5   10.40    9.30
  -4  -7  -5    6.90   14.30
  -4   7  -6    3.20   11.60
  -4   7  -6   13.00   10.30
   4   7   6   15.10   10.10
  -4   7  -6  -18.10   14.30
  -4  -7  -6   17.00   17.40
  -4   7  -7  208.88   24.50
  -4   7  -7  197.38   27.80
   4   7   7  178.08   28.90
  -4   7  -7  176.28   28.20
  -4  -7  -7  195.18   29.60
  -4  -7  -7  202.58   26.90
   4   7   8   78.69   13.80
  -4   7  -8   61.79   17.70
  -4   7  -8   81.19   17.80
  -4   7  -8   65.19   13.90
  -4  -7  -8  113.49   17.50
  -4  -7  -8   59.19   16.80
  -4   7  -9   -2.30   17.50
   4   7   9    6.40   13.20
  -4   7  -9    0.50   12.40
  -4   7  -9   -8.50   16.00
  -4  -7  -9   -6.50   16.30
  -4  -7  -9  -11.90   16.10
  -4   7 -10   42.20   16.90
  -4   7 -10   29.40   19.90
  -4   7 -10   31.40   13.60
   4   7  10    5.80   15.50
  -4  -7 -10   29.40   17.40
  -4  -7 -10   49.10   17.50
  -4   8   9   24.70   14.90
   4   8  -9   20.30   11.90
   4   8  -9   40.00   18.50
   4  -8  -9   18.90   10.10
   4  -8  -9   32.90   17.60
  -4   8   8   51.99   14.60
   4   8  -8   66.29   12.10
   4   8  -8   63.09   18.20
   4  -8  -8   58.89   10.50
   4  -8  -8   82.29   19.60
  -4   8   7  221.78   29.90
   4   8  -7  196.68   32.20
   4   8  -7  184.18   22.40
  -4  -8   7  185.38   30.60
   4  -8  -7  203.28   30.30
   4   8  -6    7.60   13.20
  -4   8   6   -2.40   12.30
   4   8  -6   21.80    9.50
  -4  -8   6   51.69   18.00
   4  -8  -6   17.60   17.80
   4   8  -5   21.10   12.30
   4   8  -5   18.70    8.80
  -4   8   5   17.90   12.30
   4  -8  -5   40.20   17.50
  -4  -8   5   51.89   17.40
  -4   8   4  184.08   27.20
   4   8  -4  191.88   26.00
   4   8  -4  192.28   19.80
   4  -8  -4  242.78   30.80
   4   8  -3    6.90   10.20
  -4   8   3   14.10   10.90
   4   8  -3   12.20    7.70
   4  -8  -3   17.50   19.30
  -4  -8   3   25.30   16.80
   4   8  -2   84.49   14.30
  -4   8   2   46.90   11.50
   4   8  -2   65.99   11.10
   4  -8  -2   62.79   18.40
  -4  -8   2   65.79   17.70
   4   8  -1  399.26   29.70
  -4   8   1  350.96   32.50
   4   8  -1  381.16   32.70
  -4  -8   1  355.06   36.50
   4   8   0   17.60    8.00
   4   8   0   -0.80    9.10
  -4   8   0    0.00    8.90
  -4  -8   0    8.30   15.70
   4   8   1   23.70    8.60
  -4   8  -1   28.00    9.40
   4   8   1   34.00    9.50
  -4  -8  -1   55.59   15.90
  -4   8  -2   46.30   10.40
   4   8   2   81.89   17.50
   4   8   2   43.90   10.10
  -4  -8  -2   55.49   16.40
  -4   8  -3  216.58   30.10
   4   8   3  227.28   23.20
  -4   8  -3  223.38   25.70
  -4   8  -3  216.78   23.50
   4   8   3  256.67   23.80
  -4  -8  -3  263.07   30.10
  -4   8  -4    8.30   10.40
   4   8   4    9.90   10.40
  -4   8  -4   20.90   16.50
   4   8   4   16.70    9.50
  -4  -8  -4  -11.10   17.30
  -4   8  -5   73.59   18.10
   4   8   5  108.29   21.10
  -4   8  -5   67.59   13.50
  -4   8  -5   97.49   18.80
  -4  -8  -5  111.59   19.20
   4   8   6   69.79   12.80
  -4   8  -6   81.49   14.60
  -4   8  -6   80.59   18.20
  -4   8  -6  122.09   20.30
  -4  -8  -6  107.59   18.80
  -4   8  -7   57.69   12.80
  -4   8  -7   72.29   17.90
   4   8   7   45.30   12.80
  -4   8  -7   54.89   15.00
  -4  -8  -7   53.39   17.00
  -4  -8  -7   36.80   15.90
   4   8   8   23.40   13.10
  -4   8  -8   -0.50   17.10
  -4   8  -8   24.70   12.40
  -4   8  -8   10.00   15.50
  -4  -8  -8   26.90   18.60
  -4  -8  -8   23.30   16.60
   4   8   9  370.46   39.60
  -4   8  -9  371.46   35.80
  -4   8  -9  403.96   44.20
  -4  -8  -9  409.46   41.80
  -4  -8  -9  416.86   37.70
  -4   9   9  227.68   33.50
   4   9  -9  253.37   38.60
   4   9  -9  242.98   26.30
   4  -9  -9  189.58   32.50
  -4   9   8  -11.70   13.80
   4   9  -8    7.30   16.80
   4   9  -8    1.30   11.20
  -4  -9   8   36.10   20.50
   4  -9  -8    0.20   19.10
  -4   9   7  146.79   29.10
   4   9  -7  103.39   19.20
  -4  -9   7   71.19   24.20
   4  -9  -7  100.19   20.90
   4   9  -6   -3.70    9.50
  -4   9   6   -2.60   12.90
   4   9  -6  -19.60   13.40
  -4  -9   6   22.20   19.00
   4  -9  -6   23.80   19.90
   4   9  -5    8.90   12.20
  -4   9   5   -9.30   12.40
   4   9  -5   -5.10    8.70
  -4  -9   5   21.60   18.60
   4  -9  -5    8.20   19.40
   4   9  -4    8.90   11.60
  -4   9   4   11.90   12.30
   4   9  -4   -0.20    8.90
  -4  -9   4   19.10   18.60
   4  -9  -4   15.80   18.90
   4   9  -3  344.37   33.60
  -4   9   3  371.86   34.40
   4   9  -3  381.56   28.90
  -4  -9   3  358.56   37.70
   4  -9  -3  346.37   39.10
   4   9  -2  200.98   24.30
  -4   9   2  171.78   24.80
   4   9  -2  207.58   18.80
   4  -9  -2  150.18   32.20
  -4  -9   2  199.98   29.20
  -4   9   1    0.30    9.80
   4   9  -1    7.10    9.90
   4   9  -1    5.60   14.00
  -4  -9   1   16.30   18.40
   4  -9  -1    6.30   19.50
   4   9   0  -19.60    8.30
  -4   9   0   -8.90    9.80
   4   9   0   -6.70    9.40
  -4  -9   0   -2.60   16.80
   4  -9   0   -1.30   18.30
   4   9   1  126.59   18.20
  -4   9  -1  168.48   22.10
   4   9   1  183.78   21.80
  -4  -9  -1  115.99   20.70
   4   9   2   20.80    9.80
  -4   9  -2   12.40   10.20
   4   9   2  -16.80    9.70
  -4  -9  -2   37.70   17.20
   4   9   3  231.68   22.00
  -4   9  -3  184.78   24.90
   4   9   3  128.29   23.10
  -4  -9  -3  227.08   29.50
   4   9   4   10.10   10.10
   4   9   4   10.10    9.50
  -4   9  -4    5.70   11.00
  -4  -9  -4   -0.70   18.00
  -4   9  -5  253.47   26.20
  -4   9  -5  241.88   28.50
   4   9   5  237.08   27.20
   4   9   5  255.77   26.40
  -4  -9  -5  223.78   32.60
  -4   9  -6   66.99   12.70
  -4   9  -6   26.80   13.20
   4   9   6   45.80   12.40
  -4  -9  -6   64.19   19.10
   4   9   7   73.69   14.20
  -4   9  -7   65.59   15.90
  -4   9  -7  124.99   22.50
  -4  -9  -7   84.99   20.30
  -4   9  -8    0.20   13.40
  -4   9  -8   -5.40   15.80
   4   9   8   -5.30   13.60
  -4  -9  -8   14.00   18.10
   4  10  -7  164.28   31.90
   4  10  -7  197.78   23.00
  -4  10   7  207.18   32.10
  -4 -10   7  197.78   33.20
   4 -10  -7  183.68   33.70
   4  10  -6   29.00   10.70
   4  10  -6   -9.80   13.90
  -4  10   6   15.90   13.30
  -4 -10   6   29.70   20.90
   4 -10  -6   28.50   20.90
   4  10  -5  107.59   18.00
  -4  10   5   88.79   16.30
   4  10  -5  160.18   26.60
   4 -10  -5   96.79   23.10
  -4 -10   5  105.09   22.50
  -4  10   4   16.10   12.80
   4  10  -4   33.30    9.50
   4  10  -4   33.80   12.40
  -4 -10   4   32.70   20.60
   4 -10  -4   58.59   20.70
  -4  10   3   20.50   12.50
   4  10  -3   23.90   11.40
   4  10  -3    9.00    8.70
   4 -10  -3   41.70   20.10
  -4 -10   3   53.19   20.20
  -4  10   2   31.50   10.80
   4  10  -2    8.20   11.10
   4  10  -2   11.20    8.10
  -4 -10   2    2.00   19.40
   4 -10  -2   44.90   20.00
   4  10  -1  294.37   27.50
  -4  10   1  325.77   30.00
   4  10  -1  333.97   30.90
   4 -10  -1  295.47   38.00
  -4 -10   1  309.07   35.60
   4  10   0  116.69   15.20
  -4  10   0   92.39   21.20
   4  10   0   72.19   12.70
  -4 -10   0  111.29   21.50
   4 -10   0   84.79   23.10
  -4  10  -1  -11.80   10.20
   4  10   1   -4.40   10.20
   4  10   1   13.40    8.60
  -4 -10  -1    3.10   19.60
   4 -10   1  -15.40   21.20
  -4  10  -2   32.90   11.10
   4  10   2   88.79   19.50
   4 -10   2   51.29   22.40
  -4 -10  -2   62.49   19.80
   4  10   3   46.90   10.90
  -4  10  -3   38.10   11.80
  -4 -10  -3   60.89   19.30
  -4  10  -4   -6.00   17.00
   4  10   4    0.80   10.00
  -4  10  -4   -6.20   11.30
   4  10   4  -26.00   10.60
  -4 -10  -4   -6.20   20.20
  -4  10  -5   78.69   13.70
   4  10   5   48.30   12.00
  -4  10  -5   58.19   13.00
   4  10   5   58.89   12.20
  -4 -10  -5   47.40   21.50
   4  10   6   38.30   12.60
  -4  10  -6   32.90   13.30
   4  10   6   35.10   20.70
  -4  10  -6   55.59   13.40
  -4 -10  -6   55.29   21.20
   4  10   7   26.40   13.10
  -4  10  -7   23.60   13.50
  -4  10  -7   21.80   14.40
  -4 -10  -7   34.80   20.10
   4  11  -6   -2.50   10.80
   4  11  -6   18.80   14.60
  -4  11   6    4.50   13.70
  -4 -11   6   39.00   23.20
   4 -11  -6   30.70   21.40
  -4  11   5  128.39   29.20
   4  11  -5  172.58   21.70
   4  11  -5  190.18   29.10
   4 -11  -5  183.28   33.90
  -4 -11   5  206.78   33.50
  -4  11   4  135.39   26.70
   4  11  -4  151.38   19.40
   4  11  -4  133.59   25.40
   4 -11  -4  134.49   24.40
  -4 -11   4  190.18   32.60
  -4  11   3  108.89   23.20
   4  11  -3   67.49   14.30
   4  11  -3   89.09   17.80
  -4 -11   3  105.29   23.10
   4 -11  -3   77.99   22.50
  -4  11   2   10.80   10.40
   4  11  -2   16.60    8.40
   4  11  -2    8.40   11.60
  -4 -11   2   29.50   21.20
   4 -11  -2   33.90   20.90
   4  11  -1   -4.50   11.40
  -4  11   1  -15.10   10.90
   4  11  -1    1.80    8.40
  -4 -11   1    9.70   20.50
   4 -11  -1   15.60   20.70
   4  11   0  191.88   24.40
  -4  11   0  179.38   24.60
  -4 -11   0  198.08   32.70
   4 -11   0  175.38   33.80
   4  11   1   92.79   21.80
  -4  11  -1   95.19   22.20
   4 -11   1   81.19   23.60
  -4 -11  -1   91.99   23.00
   4  11   2  -10.10   10.80
  -4  11  -2  -11.20   10.80
   4 -11   2   23.90   23.00
  -4 -11  -2    4.10   20.50
  -4  11  -3   35.70   12.60
   4  11   3  108.29   21.80
   4 -11   3   71.99   25.40
  -4 -11  -3   66.79   22.30
   4  11   4   32.40   11.10
  -4  11  -4   38.10   12.90
   4 -11   4    4.20   27.10
  -4 -11  -4   33.20   21.30
  -4  11  -5    9.70   12.60
  -4  11  -5   22.90   13.50
   4  11   5    3.70   11.20
   4 -11   5    1.30   28.20
  -4 -11  -5   16.20   21.50
  -4  12   4  233.98   29.50
   4  12  -4  196.48   30.90
   4  12  -4  242.58   23.60
   4 -12  -4  277.77   36.60
   4  12  -3    0.50   12.80
  -4  12   3   -4.90   12.20
   4 -12  -3    4.60   22.20
  -4 -12   3   26.60   22.60
  -4  12   2    8.50   12.30
   4  12  -2   12.90   12.30
   4 -12  -2   11.00   22.70
  -4 -12   2   28.30   22.60
  -4  12   1    7.00   11.90
   4  12  -1   -3.60   12.20
   4 -12  -1   35.70   22.70
  -4 -12   1   22.70   22.80
  -4  12   0   28.90   11.80
   4  12   0   42.80   11.90
  -4 -12   0   38.90   22.40
   4 -12   0   58.09   23.60
  -4  12  -1    2.90   11.90
   4  12   1    8.50   11.60
   4 -12   1   10.90   23.70
  -4 -12  -1   13.90   22.80
  -4  12  -2  116.09   23.80
   4  12   2  164.98   24.00
   4 -12   2   97.99   26.80
  -4 -12  -2   99.79   25.00
   4  12   3   -1.30   11.30
  -4  12  -3  -13.10   12.10
  -4 -12  -3   -5.20   21.90
   4 -12   3   11.60   25.20
  -5   0  12   28.30   13.60
   5   0 -12   10.20   12.80
  -5   0  11   -5.20   13.20
   5   0 -11   -5.60   11.70
   5   0 -10  333.67   31.80
  -5   0  10  373.06   36.10
   5   0  -9   -5.80    9.30
  -5   0   9    1.50   12.60
   5   0  -8  184.58   22.40
  -5   0   8  241.58   28.20
   5   0  -7  -11.80    8.50
  -5   0   7   -3.70   11.10
  -5   0   6  292.17   40.60
  -5   0   6  247.88   28.20
   5   0  -6  241.08   30.60
   5   0  -6  216.48   23.10
   5   0  -5  -12.20    7.50
  -5   0   5    5.00   10.40
   5   0  -5   -8.20   11.90
  -5   0   5   -7.20   11.80
   5   0  -4  151.38   18.30
  -5   0   4  159.98   27.30
   5   0  -4  166.48   25.90
  -5   0   4  137.39   16.30
  -5   0   4  165.08   23.40
  -5   0   3    0.30    8.80
   5   0  -3    8.50   11.80
  -5   0   3  -12.20   12.30
   5   0  -3   -8.30    7.20
  -5   0   3   -5.50    8.20
  -5   0   2   44.70    9.20
  -5   0   2   20.30    8.30
  -5   0   2   40.70   12.00
   5   0  -2   35.80    9.10
   5   0  -2   55.09   13.60
   5   0  -1    4.70    8.60
  -5   0   1    0.20    9.30
  -5   0   1   -5.60   12.40
   5   0  -1   -4.10   12.20
   5   0   0  891.61   71.09
  -5   0   0  897.71   70.69
   5   0   0  943.11   66.39
  -5   0   0  935.41   66.29
  -5   0  -1    8.20   10.10
  -5   0  -1    3.90   15.10
   5   0   1    5.20   14.90
   5   0   1  -13.00   10.70
  -5   0  -2   44.90   11.90
  -5   0  -2   23.90   16.30
  -5   0  -2   24.00   12.80
   5   0   2   41.90   15.70
   5   0   3   -9.40   15.60
  -5   0  -3    2.30   12.10
  -5   0  -3   -3.30   11.40
  -5   0  -3   13.20   17.30
  -5   0  -4   -7.80   11.00
  -5   0  -4  -16.00   17.90
   5   0   4   -4.30   16.10
  -5   0  -4   -2.20   10.80
  -5   0  -5  -35.50   18.80
   5   0   5  -16.20   18.10
  -5   0  -5  -13.10   10.40
  -5   0  -6   87.99   13.60
   5   0   6   73.09   20.70
  -5   0  -6   70.79   12.70
   5   0   6   77.29   14.30
  -5   0  -7  -21.80   10.10
  -5   0  -7    6.70   11.40
   5   0   8   14.80   13.80
  -5   0  -8  -11.60   11.70
  -5   0  -8    5.40   12.10
  -5   0  -9   -4.60   12.00
  -5   0  -9    3.40   11.90
  -5   0 -10  357.86   34.20
  -5   0 -10  343.57   34.90
  -5   0 -11  -12.30   13.00
  -5   0 -11   11.20   12.70
  -5   0 -12  225.78   29.30
  -5   0 -12  185.68   24.80
   5   1 -12  170.48   25.00
  -5   1  12  158.78   29.40
  -5  -1  12  166.78   30.30
   5  -1 -12  124.99   23.70
  -5   1  11   -0.30   13.10
   5   1 -11  -15.40   12.30
   5  -1 -11  -13.00   11.50
  -5  -1  11   -3.20   14.50
  -5   1  10   17.40   12.70
   5   1 -10   20.30   10.80
   5  -1 -10    6.40   10.80
  -5  -1  10   24.40   14.90
   5   1  -9   44.50   10.80
  -5   1   9   63.09   13.20
  -5  -1   9   49.00   15.10
   5  -1  -9   46.20   10.80
   5   1  -8  230.28   23.90
  -5   1   8  210.38   27.90
  -5  -1   8  250.77   31.80
   5  -1  -8  258.57   23.70
  -5   1   7   52.69   11.30
   5   1  -7   20.20    9.20
  -5  -1   7   28.90   13.20
   5  -1  -7   23.20    8.60
   5   1  -6   -4.30    8.20
  -5   1   6    3.00    9.00
  -5   1   6    4.50   11.10
   5   1  -6   -4.90   12.60
  -5   1   6    6.70   10.30
  -5  -1   6   -0.50   12.60
   5  -1  -6    4.50    7.50
  -5  -1   6    0.40   11.90
   5  -1  -6   -4.50   12.20
   5   1  -5   29.30   12.60
  -5   1   5   37.90   12.00
  -5   1   5   45.70   10.80
  -5   1   5   46.80    9.00
   5   1  -5   28.10    8.50
   5  -1  -5   33.30    8.40
  -5  -1   5   28.70   11.80
  -5  -1   5   40.10   12.90
   5  -1  -5   37.40   12.70
  -5   1   4   58.19   10.80
   5   1  -4   60.99   12.20
  -5   1   4   58.89   12.50
   5   1  -4   69.09   12.80
  -5   1   4   71.29   14.00
  -5  -1   4   50.69    8.80
   5  -1  -4   61.39   13.00
  -5  -1   4   44.70   13.70
   5  -1  -4   59.09    8.90
  -5  -1   4   47.40   11.80
   5   1  -3  395.86   33.60
  -5   1   3  331.37   29.90
   5   1  -3  313.17   27.00
  -5   1   3  318.77   33.30
  -5   1   3  318.27   26.80
  -5  -1   3  276.97   31.50
  -5  -1   3  335.07   35.00
   5  -1  -3  399.16   33.50
   5  -1  -3  324.17   26.80
  -5  -1   3  316.47   26.90
  -5   1   2  857.71   59.39
  -5   1   2  861.21   62.79
   5   1  -2  856.91   63.29
  -5   1   2  800.32   60.39
   5   1  -2  858.31   59.49
  -5  -1   2  835.02   59.39
  -5  -1   2  706.53   60.59
   5  -1  -2  839.22   63.19
   5  -1  -2  796.12   59.29
  -5  -1   2  821.12   62.39
  -5   1   1   17.90    9.40
   5   1  -1   10.40    8.10
  -5   1   1   11.00    7.20
  -5   1   1    9.40   12.50
   5   1  -1   20.10   13.00
   5  -1  -1   21.10    8.80
  -5  -1   1   22.20   10.00
   5  -1  -1   26.40   11.50
  -5  -1   1    2.90   12.80
  -5   1   0  289.07   25.60
  -5   1   0  284.97   34.60
   5   1   0  257.37   26.00
   5   1   0  316.17   36.30
   5  -1   0  303.07   26.40
   5  -1   0  295.57   34.80
  -5  -1   0  301.67   35.90
  -5  -1   0  280.27   25.90
  -5   1  -1   23.10   10.30
   5   1   1   13.00   10.90
  -5   1  -1   25.90   15.40
   5   1   1   37.00   15.10
   5  -1   1   32.90   11.50
  -5  -1  -1   46.30   10.70
  -5  -1  -1   29.30   15.80
   5  -1   1    6.00   14.90
  -5   1  -2  859.21   61.09
  -5   1  -2  861.31   63.39
  -5   1  -2  842.32   68.29
   5   1   2  774.12   67.19
  -5  -1  -2  829.52   68.09
  -5  -1  -2  880.61   61.49
   5  -1   2  797.22   67.39
  -5   1  -3   49.90   11.10
   5   1   3   46.90   16.10
  -5   1  -3   57.89   12.40
  -5   1  -3   56.09   18.00
  -5  -1  -3   54.39   19.00
   5  -1   3   52.29   16.80
  -5  -1  -3   73.29   12.50
  -5  -1  -3   47.40   14.00
  -5   1  -4   74.79   19.60
  -5   1  -4   78.49   12.60
  -5   1  -4   91.09   17.50
   5   1   4   73.49   17.80
   5  -1   4   74.89   18.40
  -5  -1  -4   80.59   15.70
  -5  -1  -4   76.59   13.40
  -5  -1  -4   82.39   19.20
  -5   1  -5  307.37   28.20
   5   1   5  250.57   42.20
   5  -1   5  303.27   43.80
  -5  -1  -5  263.17   29.70
  -5  -1  -5  304.27   27.90
  -5   1  -6  163.78   22.00
   5   1   6  136.99   23.00
   5   1   6  173.38   23.40
  -5   1  -6  130.89   20.00
  -5  -1  -6  153.98   21.00
   5  -1   6  115.19   25.90
   5  -1   6  182.88   40.40
  -5  -1  -6  166.68   22.80
   5  -1   6  187.68   31.90
  -5   1  -7   44.60   11.80
  -5   1  -7   56.99   11.60
  -5  -1  -7   28.50   11.40
  -5  -1  -7   39.70   12.50
  -5   1  -8  167.68   22.20
  -5   1  -8  186.68   24.40
  -5  -1  -8  220.58   25.50
  -5  -1  -8  189.08   23.90
  -5   1  -9   91.09   14.30
  -5   1  -9   82.89   13.90
  -5  -1  -9  133.89   24.40
  -5  -1  -9   80.99   15.50
   5  -1   9  121.89   18.80
  -5   1 -10   80.69   16.30
  -5   1 -10   76.39   14.50
  -5  -1 -10   69.59   16.10
   5  -1  10  147.19   32.30
  -5  -1 -10   89.09   16.00
  -5   1 -11   -2.70   13.60
  -5   1 -11   -5.60   12.70
   5  -1  11   29.30   18.50
  -5  -1 -11  -18.00   14.00
  -5  -1 -11  -10.50   14.50
  -5   1 -12   43.80   13.40
  -5   1 -12   60.69   14.90
  -5  -1 -12   64.79   17.40
  -5  -1 -12   76.29   16.60
   5   2 -12    2.50   12.20
  -5   2  12    3.50   13.40
  -5  -2  12  -10.60   17.70
   5  -2 -12    5.20   12.60
   5   2 -11   76.69   14.20
  -5   2  11  120.39   24.50
   5  -2 -11   70.09   13.80
  -5  -2  11   95.79   19.40
  -5   2  10  106.39   24.30
   5   2 -10  104.59   20.50
  -5  -2  10  147.79   31.10
   5  -2 -10  105.99   20.20
  -5   2   9   16.80   11.90
   5   2  -9   23.40   10.50
   5  -2  -9   15.50    9.70
  -5  -2   9    1.30   15.00
  -5   2   8  341.07   35.30
   5   2  -8  390.66   32.10
  -5  -2   8  440.06   39.90
   5  -2  -8  399.66   32.30
  -5   2   7  296.37   31.30
   5   2  -7  310.27   27.30
  -5  -2   7  362.46   38.00
  -5   2   6   10.30   10.50
   5   2  -6    5.70   13.00
   5   2  -6   -0.40    8.90
  -5   2   6   16.30   13.50
  -5  -2   6  -34.80   15.30
   5  -2  -6    6.80    7.50
  -5  -2   6   -9.70   12.20
   5  -2  -6   -1.80   12.50
  -5   2   5  116.39   22.90
   5   2  -5   46.10   13.10
  -5   2   5   63.49   11.20
   5   2  -5   41.70    8.90
  -5   2   5   49.90   11.90
   5  -2  -5   61.29   13.00
  -5  -2   5   59.59   13.90
  -5  -2   5   25.00   16.40
  -5   2   4  285.67   30.70
  -5   2   4  278.37   25.50
   5   2  -4  288.87   30.60
   5   2  -4  302.87   25.50
  -5   2   4  281.77   29.10
   5  -2  -4  315.47   30.60
  -5  -2   4  326.87   38.70
   5  -2  -4  270.27   24.30
  -5  -2   4  339.67   33.90
  -5  -2   4  263.27   24.50
  -5   2   3  540.45   41.50
   5   2  -3  548.65   38.80
  -5   2   3  510.35   39.20
  -5   2   3  424.36   42.20
   5   2  -3  511.45   43.50
   5  -2  -3  560.14   42.90
  -5  -2   3  465.85   44.70
  -5  -2   3  514.65   38.80
   5  -2  -3  500.95   38.00
  -5   2   2    7.10    9.10
   5   2  -2   -6.30    8.30
  -5   2   2   -9.50   11.20
   5   2  -2   -5.50   12.50
  -5   2   2   -3.50    8.60
   5  -2  -2   16.40   11.80
  -5  -2   2   -0.30    9.70
  -5  -2   2   11.70   11.70
   5  -2  -2  -13.10    7.70
  -5   2   1  434.86   34.10
  -5   2   1  397.66   39.80
   5   2  -1  452.75   40.40
  -5   2   1  407.56   34.80
   5   2  -1  411.36   33.90
  -5  -2   1  464.75   34.70
  -5  -2   1  423.36   40.20
   5  -2  -1  413.36   33.60
   5  -2  -1  478.25   37.30
   5   2   0  117.19   16.70
   5   2   0  135.29   18.40
  -5   2   0   99.69   16.90
  -5   2   0  143.29   18.00
  -5   2   0   96.59   15.70
   5  -2   0  102.39   17.80
  -5  -2   0  143.99   19.30
  -5  -2   0  163.38   30.30
  -5   2  -1  180.88   33.10
   5   2   1  166.58   32.00
   5   2   1  156.98   20.70
  -5   2  -1  171.68   20.40
  -5   2  -1  156.58   16.70
  -5  -2  -1  168.58   33.20
  -5  -2  -1  180.28   21.80
  -5   2  -2  120.89   24.20
   5   2   2   96.89   17.70
  -5   2  -2  111.19   19.20
  -5   2  -2  134.89   18.20
  -5   2  -2  129.79   15.30
   5  -2   2  204.68   32.80
  -5  -2  -2  132.79   19.80
  -5  -2  -2  100.19   19.10
  -5   2  -3  126.79   16.70
   5   2   3  155.08   33.70
  -5   2  -3  139.69   22.60
  -5   2  -3  175.98   35.90
  -5   2  -3  145.89   19.70
   5  -2   3  164.88   34.40
  -5  -2  -3  113.39   21.10
  -5  -2  -3  137.09   24.20
  -5  -2  -3  165.88   27.00
  -5   2  -4   53.69   11.50
  -5   2  -4   30.00    9.00
  -5   2  -4   35.20   11.10
   5   2   4   25.80   16.50
  -5  -2  -4   32.80   12.60
   5  -2   4   49.70   17.80
  -5  -2  -4   45.60   18.70
  -5  -2  -4   52.19   12.50
  -5   2  -5    4.30   11.30
  -5   2  -5   -7.30    9.60
   5   2   5   16.60   16.70
  -5   2  -5  -12.00    9.50
   5   2   5   25.40    8.90
  -5  -2  -5    7.00   12.20
   5  -2   5   -3.00   18.50
   5  -2   5   -2.40   18.00
  -5  -2  -5   -3.50   11.20
  -5   2  -6  153.88   22.30
  -5   2  -6  175.68   21.00
  -5  -2  -6  169.08   22.10
  -5  -2  -6  122.89   23.80
   5  -2   6  160.58   26.50
  -5   2  -7  119.19   20.00
  -5   2  -7   85.19   18.10
  -5  -2  -7  119.99   20.20
  -5  -2  -7   79.19   13.90
   5   2   8   43.00   12.90
  -5   2  -8    5.20   10.80
  -5   2  -8   -6.90   10.20
  -5  -2  -8    4.40   12.90
  -5  -2  -8   13.40   12.30
  -5   2  -9   20.20   11.70
  -5   2  -9   10.40   10.60
  -5  -2  -9   21.10   13.70
  -5  -2  -9   20.60   13.40
   5  -2   9  -37.80   19.30
  -5   2 -10  127.39   24.50
  -5   2 -10  144.49   21.60
  -5  -2 -10  112.39   18.30
   5  -2  10  151.68   23.00
  -5  -2 -10  168.78   25.90
  -5   2 -11   31.20   26.70
  -5   2 -11   24.80   13.30
  -5  -2 -11   20.60   14.10
  -5  -2 -11   14.80   15.60
   5  -2  11  -14.40   20.50
  -5   3  12   -7.80   13.10
   5   3 -12  -12.70   12.40
  -5  -3  12  -34.40   18.80
   5  -3 -12   -4.10   11.70
   5   3 -11   44.20   13.50
  -5   3  11   43.40   13.90
  -5  -3  11   18.00   17.70
   5  -3 -11   63.49   12.40
  -5   3  10   12.50   12.90
   5   3 -10   -1.70   10.40
  -5  -3  10   -1.70   18.40
   5  -3 -10    8.70   10.50
  -5   3   9  320.47   34.00
   5   3  -9  318.77   29.50
  -5  -3   9  389.46   42.20
   5  -3  -9  322.47   29.20
  -5   3   8   13.00   11.20
   5   3  -8   19.00    9.50
   5  -3  -8   14.20    9.00
  -5  -3   8   21.10   19.20
   5  -3  -8   41.20   12.20
  -5   3   7   16.10   11.70
   5   3  -7   26.80    8.60
   5  -3  -7   46.60   13.90
  -5  -3   7   -9.80   18.50
   5  -3  -7   25.90    8.50
   5   3  -6   31.40    9.10
   5   3  -6   28.80   13.10
  -5   3   6   35.40   11.70
  -5   3   6   30.90   10.30
   5  -3  -6   35.20   12.40
  -5  -3   6   24.70   13.20
   5  -3  -6   29.20    8.00
   5   3  -5  122.69   24.20
  -5   3   5  119.69   19.40
  -5   3   5   82.49   13.50
   5   3  -5   76.99   16.00
  -5   3   5  120.49   23.80
   5  -3  -5  138.49   24.20
   5  -3  -5  101.49   14.90
   5   3  -4  331.57   28.80
  -5   3   4  385.66   33.10
   5   3  -4  419.96   34.90
  -5   3   4  343.27   30.40
  -5   3   4  323.77   33.40
  -5  -3   4  358.96   37.00
  -5  -3   4  330.67   28.70
   5  -3  -4  385.96   32.80
   5  -3  -4  329.77   27.70
  -5   3   3  407.76   34.70
  -5   3   3  408.56   33.60
   5   3  -3  450.55   34.80
  -5   3   3  373.36   36.00
   5   3  -3  431.66   37.40
  -5  -3   3  431.06   33.30
   5  -3  -3  371.06   31.10
   5  -3  -3  423.66   36.00
  -5  -3   3  373.36   39.60
   5   3  -2    4.90    7.60
  -5   3   2   11.80    9.90
   5   3  -2    3.90    8.40
  -5   3   2    6.30    9.30
   5   3  -2   25.70   12.50
  -5   3   2   -5.80   11.20
   5  -3  -2   24.10    7.20
  -5  -3   2   -6.40   11.40
  -5  -3   2    7.10   10.90
  -5   3   1   11.50   12.60
   5   3  -1    2.80   12.50
  -5   3   1   33.50   10.90
   5   3  -1   22.00    8.80
  -5   3   1   23.20    7.90
   5   3  -1    9.30    7.10
  -5  -3   1    6.50   13.20
  -5  -3   1   28.60   11.70
  -5   3   0  105.89   16.90
  -5   3   0   94.59   16.10
   5   3   0  125.39   28.10
  -5   3   0  135.99   18.40
   5   3   0  139.79   17.20
  -5  -3   0   93.29   16.50
  -5  -3   0  124.19   20.00
  -5   3  -1  109.79   15.60
   5   3   1   77.29   16.50
   5   3   1  141.09   19.10
  -5   3  -1   82.69   16.60
  -5   3  -1  104.19   18.00
  -5  -3  -1  149.29   20.30
  -5  -3  -1  108.69   17.40
  -5   3  -2   93.99   13.80
  -5   3  -2   87.59   12.40
   5   3   2  108.79   21.10
  -5   3  -2   81.49   17.80
   5   3   2   67.99   16.40
  -5   3  -2   89.19   14.40
  -5  -3  -2   77.99   17.60
   5  -3   2  128.49   27.90
  -5   3  -3   17.90   10.60
  -5   3  -3   23.80    7.70
   5   3   3   25.10   15.00
  -5  -3  -3   30.60   17.50
  -5  -3  -3   30.60   12.60
  -5   3  -4    7.20    8.40
  -5   3  -4   25.30   10.50
   5   3   4   10.50   15.40
  -5   3  -4   15.70    9.80
  -5  -3  -4   24.50   13.30
   5  -3   4   30.70   17.00
  -5  -3  -4   16.10   18.10
  -5  -3  -4   14.60   12.50
  -5   3  -5  286.37   26.20
   5   3   5  257.87   25.00
   5   3   5  214.78   39.10
  -5   3  -5  271.87   26.80
  -5   3  -5  265.37   25.40
   5  -3   5  305.77   42.80
  -5  -3  -5  248.68   26.60
  -5  -3  -5  257.77   29.40
  -5   3  -6   -7.00   10.50
   5   3   6   -4.40    9.10
  -5   3  -6  -11.60   10.80
  -5   3  -6   -1.30   10.00
  -5  -3  -6   -2.10   13.00
  -5  -3  -6   -4.20   12.10
   5   3   7   33.80   13.40
  -5   3  -7   47.00   11.20
  -5   3  -7   40.70   11.30
  -5  -3  -7   53.19   13.50
  -5  -3  -7   50.89   13.30
  -5   3  -8   30.70   11.20
  -5   3  -8   34.00   11.40
   5   3   8    5.20   13.90
  -5  -3  -8   23.00   13.90
  -5  -3  -8   42.40   13.10
  -5   3  -9   27.40   11.50
  -5   3  -9   28.20   12.50
   5   3   9   17.70   15.00
  -5  -3  -9   18.00   14.40
  -5  -3  -9   40.20   13.50
  -5   3 -10    1.10   12.60
   5   3  10   -7.40   15.90
  -5   3 -10   10.60   12.80
  -5  -3 -10   14.80   15.40
  -5  -3 -10    3.60   14.00
  -5   3 -11   26.50   13.30
   5   3  11   27.20   17.20
  -5   3 -11   15.50   21.50
  -5  -3 -11    7.00   16.70
   5  -3  11    4.20   23.80
  -5  -3 -11   28.10   15.40
   5   4 -11  232.28   27.30
  -5   4  11  245.78   31.40
  -5  -4  11  176.98   41.10
   5  -4 -11  207.68   24.20
   5   4 -10   -0.80   10.50
  -5   4  10  -11.10   13.20
   5  -4 -10    3.40   10.20
   5  -4 -10   24.60   11.80
  -5  -4  10  -17.90   21.90
  -5   4   9   -1.90   12.70
   5   4  -9    1.50   10.10
  -5  -4   9  -44.60   22.10
   5  -4  -9   23.00   12.70
   5  -4  -9   -0.90    9.40
  -5   4   8    9.90   12.50
   5   4  -8    0.90    9.20
   5  -4  -8   20.80   12.90
   5  -4  -8    9.70    8.90
  -5  -4   8    7.60   23.60
   5   4  -7  670.93   48.50
  -5   4   7  648.64   52.69
   5  -4  -7  640.64   51.19
   5  -4  -7  640.74   47.90
   5   4  -6  197.48   20.80
  -5   4   6  177.78   27.40
   5  -4  -6  207.68   19.30
  -5   4   5   94.19   20.80
   5   4  -5  110.59   24.40
   5   4  -5  103.79   17.30
   5   4  -5  116.99   24.40
  -5  -4   5   74.69   12.60
   5  -4  -5   95.39   13.60
   5  -4  -5  143.39   22.50
  -5  -4   5   63.69   15.70
  -5   4   4  526.25   41.60
  -5   4   4  448.16   42.10
   5   4  -4  492.65   42.40
   5   4  -4  587.84   44.50
  -5   4   4  532.15   43.00
   5   4  -4  520.45   39.30
   5  -4  -4  504.05   38.30
  -5  -4   4  527.25   46.20
   5  -4  -4  575.74   42.40
  -5  -4   4  504.75   40.30
  -5   4   3  763.32   58.79
   5   4  -3  838.12   60.79
   5   4  -3  790.12   56.99
  -5   4   3  840.92   59.89
  -5   4   3  645.34   59.19
   5   4  -3  828.42   58.89
   5  -4  -3  796.92   58.99
  -5  -4   3  799.62   62.19
   5  -4  -3  770.22   56.39
  -5  -4   3  829.02   58.49
  -5   4   2   23.30    9.50
  -5   4   2   19.80   11.90
   5   4  -2   14.80    8.50
  -5   4   2   -1.60   11.20
   5   4  -2   28.20   12.90
   5   4  -2   17.60    8.20
  -5  -4   2   12.20   12.70
   5  -4  -2   65.29   12.10
  -5  -4   2    8.40   12.30
  -5   4   1  156.58   28.00
  -5   4   1  186.28   21.90
   5   4  -1  186.78   20.40
   5   4  -1  186.28   19.20
   5   4  -1  233.48   28.00
  -5   4   1  189.98   22.20
  -5  -4   1  182.88   23.40
  -5  -4   1  176.98   29.20
   5   4   0   39.70    9.50
  -5   4   0   43.90   11.20
  -5   4   0   23.40    8.50
   5   4   0   17.30   12.10
   5   4   0   36.10    7.50
  -5   4   0    7.20   12.90
  -5  -4   0   58.49   16.50
   5  -4   0   33.60   11.60
  -5  -4   0   29.30   14.20
  -5   4  -1   66.39   12.70
  -5   4  -1   44.10    8.80
   5   4   1   89.89   17.00
   5   4   1   65.79   13.00
  -5   4  -1   44.00   14.50
   5   4   1   53.09   14.60
  -5  -4  -1   40.20   15.40
  -5  -4  -1   62.39   14.30
   5   4   2  -13.00   14.10
  -5   4  -2   -3.20   15.20
  -5   4  -2    5.80   11.00
   5   4   2    3.50   10.60
  -5   4  -2    7.90   11.00
   5   4   2   -0.20    5.40
  -5   4  -2    5.10    7.60
  -5  -4  -2   -8.40   12.10
  -5  -4  -2    5.30   15.90
   5   4   3   12.40    6.50
  -5   4  -3    8.50    8.20
  -5   4  -3    6.20   10.40
  -5   4  -3   23.70   11.30
   5   4   3    4.40   14.20
   5  -4   3  -31.80   13.80
  -5  -4  -3  -23.20   17.00
  -5  -4  -3   13.60   12.70
  -5   4  -4   -3.40   10.50
  -5   4  -4   -5.70    9.00
  -5   4  -4    8.10    9.50
   5   4   4   10.90   14.90
   5   4   4    3.60    6.80
  -5  -4  -4   -8.90   18.00
  -5  -4  -4   12.30   13.00
  -5  -4  -4   20.40   13.10
   5   4   5   82.79   16.70
  -5   4  -5   90.69   18.20
  -5   4  -5   98.19   18.30
  -5   4  -5   65.89   11.70
  -5  -4  -5   84.59   15.60
  -5  -4  -5   71.99   14.40
  -5   4  -6  114.09   19.80
  -5   4  -6   97.29   14.30
   5   4   6  133.89   24.30
  -5   4  -6   95.09   14.80
  -5  -4  -6  123.59   20.40
  -5  -4  -6  131.19   25.20
  -5   4  -7   66.09   14.30
  -5   4  -7   79.09   13.10
   5   4   7   59.49   12.10
  -5   4  -7   63.59   12.00
  -5  -4  -7   78.59   14.50
  -5  -4  -7   53.79   14.80
  -5   4  -8   13.00   11.50
  -5   4  -8   16.40   11.40
  -5  -4  -8   16.10   13.30
  -5  -4  -8    9.30   13.70
   5   4   9  136.49   29.30
  -5   4  -9  164.68   32.50
  -5   4  -9  190.88   24.50
  -5  -4  -9  169.78   25.10
  -5  -4  -9  162.98   28.10
   5   4  10  -17.90   15.40
  -5   4 -10    5.30   15.40
  -5   4 -10   -7.70   13.00
  -5  -4 -10   -2.60   15.50
  -5  -4 -10   23.10   14.90
  -5   4 -11   33.60   14.10
  -5   4 -11   19.30   14.40
   5   4  11   -9.00   17.90
   5  -4  11  -22.80   26.90
  -5  -4 -11   26.20   16.20
  -5  -4 -11   33.00   17.00
  -5   5  11  158.08   31.00
   5   5 -11  169.68   24.90
   5  -5 -11  182.28   21.50
  -5  -5  11  104.79   28.60
   5   5 -10   29.60   11.30
  -5   5  10   34.90   14.70
   5  -5 -10   27.20   10.00
  -5  -5  10    0.40   26.40
  -5   5   9   31.90   14.00
   5   5  -9   22.30   11.60
   5  -5  -9   27.60    9.80
   5  -5  -9   69.09   16.10
  -5   5   8   39.80   13.30
   5   5  -8   58.09   11.50
   5  -5  -8  116.19   22.60
   5  -5  -8   58.49    9.70
   5   5  -7   -9.70    8.40
  -5   5   7  -11.60   11.70
   5  -5  -7    5.00   15.30
   5  -5  -7   -0.90    7.80
   5   5  -6  174.58   29.10
  -5   5   6  183.78   27.50
   5   5  -6  170.08   19.90
   5  -5  -6  261.07   28.40
   5  -5  -6  178.98   20.00
   5   5  -5  -21.10    8.00
  -5   5   5  -13.20   11.30
   5   5  -5   -8.80   12.40
  -5  -5   5   -2.30   12.20
   5  -5  -5  -15.00    6.40
   5   5  -4   19.30   11.60
  -5   5   4  -29.10   14.20
   5   5  -4    8.50    8.00
   5   5  -4  -12.30   10.80
  -5  -5   4    6.00   15.30
  -5  -5   4   -7.10   12.90
   5  -5  -4    2.90    6.30
  -5   5   3   14.00   12.60
   5   5  -3    4.80    7.80
   5   5  -3    0.00    9.70
   5   5  -3    1.70   11.20
  -5   5   3   -2.90   10.10
  -5  -5   3   13.80   13.00
   5  -5  -3   24.90    6.10
  -5  -5   3    1.90   13.60
   5   5  -2   28.30    9.30
  -5   5   2   48.30   13.10
   5   5  -2   32.10    9.40
   5   5  -2   37.00   12.50
  -5   5   2   32.80    9.90
  -5  -5   2   19.20   13.60
  -5  -5   2   27.70   28.10
  -5   5   1   32.50   12.00
  -5   5   1    6.80    9.10
   5   5  -1   16.80    9.10
   5   5  -1   30.10   13.10
   5   5  -1   25.60    8.30
  -5  -5   1    2.80   13.40
  -5  -5   1   25.00   14.00
  -5   5   0  109.09   19.80
   5   5   0   91.09   16.20
  -5   5   0   67.09   18.10
   5   5   0   55.69   14.30
   5   5   0  111.19   15.90
  -5  -5   0  112.59   22.30
  -5  -5   0   67.59   15.60
   5   5   1  323.67   27.20
  -5   5  -1  326.97   30.40
  -5   5  -1  304.17   35.90
   5   5   1  306.47   36.00
   5   5   1  354.06   28.00
  -5  -5  -1  328.27   31.60
  -5  -5  -1  329.67   37.80
  -5   5  -2    4.60   10.10
  -5   5  -2   -2.70   11.00
   5   5   2    5.20    6.50
  -5   5  -2   -0.40   11.20
   5   5   2   -3.50   13.00
   5   5   2   14.70   10.40
  -5  -5  -2  -10.80   12.60
  -5  -5  -2   -7.90   15.80
   5   5   3    0.40   11.90
   5   5   3    9.70    7.20
  -5   5  -3   10.50   11.30
  -5   5  -3   -1.10    8.60
   5   5   3    7.80   14.20
  -5   5  -3   18.50   10.40
   5  -5   3   21.20   10.20
   5  -5   3  -36.10   14.50
  -5  -5  -3   -7.10   17.00
   5   5   4  114.79   17.40
  -5   5  -4  105.49   19.60
  -5   5  -4  132.09   21.10
  -5   5  -4  127.99   19.40
  -5  -5  -4  113.79   21.40
  -5   5  -5   41.40   10.60
   5   5   5   35.80    9.40
  -5   5  -5   44.60   12.80
  -5   5  -5   30.70   10.50
  -5  -5  -5   19.30   13.80
  -5  -5  -5   29.40   13.80
  -5   5  -6   -8.80   11.50
  -5   5  -6   -6.00   12.70
   5   5   6    4.60    8.40
  -5   5  -6    1.80   10.20
  -5  -5  -6    0.00   13.50
  -5  -5  -6    4.50   13.40
  -5   5  -7   61.49   14.80
   5   5   7   41.20   11.60
  -5   5  -7   69.39   12.30
  -5  -5  -7   60.99   15.50
  -5  -5  -7   60.29   14.30
   5   5   8   51.99   13.40
  -5   5  -8   78.29   14.70
  -5   5  -8   62.19   13.20
  -5   5  -8   39.10   16.10
  -5  -5  -8   57.99   15.00
  -5  -5  -8   65.09   16.30
  -5   5  -9   -4.30   11.80
  -5   5  -9   -7.50   12.70
   5   5   9   -2.90   14.00
  -5  -5  -9   -7.70   15.60
  -5  -5  -9    3.80   14.50
  -5   5 -10   54.89   14.30
   5   5  10   44.50   16.90
  -5   5 -10   50.19   14.80
  -5  -5 -10   58.69   17.00
  -5  -5 -10   21.20   16.10
   5   5  11  155.98   34.70
  -5  -5 -11  159.28   27.80
  -5   6  11   22.20   14.70
   5   6 -11   27.90   12.80
   5  -6 -11   27.50   11.00
   5  -6 -11   57.89   16.70
  -5  -6  11   17.40   27.50
   5   6 -10  175.88   24.40
  -5   6  10  202.98   31.50
   5  -6 -10  197.78   26.80
   5  -6 -10  176.88   21.30
  -5   6   9   16.30   14.00
   5   6  -9   19.80   11.00
   5  -6  -9   14.70    8.90
   5  -6  -9   28.90   16.10
  -5   6   8  120.29   28.30
   5   6  -8  139.59   19.80
   5  -6  -8  133.99   21.10
   5  -6  -8  142.19   26.70
  -5   6   7   -7.10   12.90
   5   6  -7    4.90    9.40
   5   6  -7  -11.70   14.90
   5  -6  -7    3.80    7.40
   5  -6  -7   31.70   15.80
  -5   6   6  271.57   31.50
   5   6  -6  266.67   32.00
   5   6  -6  252.77   23.30
   5  -6  -6  236.68   22.00
  -5  -6   6  259.07   27.80
   5  -6  -6  270.97   31.70
   5   6  -5   -3.60    7.80
   5   6  -5    1.80   12.50
  -5   6   5  -15.70   11.30
  -5  -6   5    6.20   14.10
   5  -6  -5    8.70    6.20
   5   6  -4  587.94   40.00
  -5   6   4  520.15   44.00
   5   6  -4  497.35   46.60
  -5  -6   4  485.25   45.20
  -5   6   3    5.20   14.70
   5   6  -3  -16.70    8.20
  -5   6   3    4.40   10.30
   5   6  -3   -6.40    9.90
   5   6  -3   21.80   11.50
  -5  -6   3   -9.70   14.00
  -5  -6   3  -22.90   13.30
  -5   6   2   17.00   14.20
  -5   6   2   11.70   10.20
   5   6  -2    7.20    8.20
   5   6  -2   20.60   11.60
   5   6  -2   16.20    9.30
  -5  -6   2  -19.50   13.50
  -5  -6   2   25.80   14.40
   5   6  -1   -8.40   12.40
  -5   6   1   16.90   15.70
  -5   6   1  -19.30    9.00
   5   6  -1  -30.70   14.50
   5   6  -1   -9.90    9.10
  -5  -6   1  -33.20   13.10
  -5  -6   1  -19.80   14.00
   5   6   0  484.05   34.80
  -5   6   0  396.06   45.50
   5   6   0  426.26   40.20
  -5   6   0  412.56   35.20
   5   6   0  448.26   34.10
  -5  -6   0  380.06   42.00
  -5  -6   0  436.46   37.80
   5   6   1  -10.10    7.60
   5   6   1  -10.30    9.10
  -5   6  -1  -18.10    8.30
   5   6   1  -13.50   12.90
  -5   6  -1  -20.30   15.60
  -5  -6  -1   -9.50   16.10
  -5  -6  -1   -4.00   14.30
   5   6   2  203.88   20.30
  -5   6  -2  196.08   22.30
   5   6   2  190.28   29.80
   5   6   2  168.18   30.60
  -5   6  -2  181.38   24.50
  -5   6  -2  203.28   26.00
  -5  -6  -2  217.48   25.90
  -5  -6  -2  202.88   35.70
  -5   6  -3    1.10   12.40
  -5   6  -3    5.20   10.20
   5   6   3   13.00   10.60
  -5   6  -3   -0.80    8.80
   5   6   3    9.90    8.10
  -5  -6  -3  -19.70   14.30
   5   6   4  236.78   23.90
  -5   6  -4  243.68   27.30
  -5   6  -4  251.77   25.00
  -5   6  -4  276.77   38.50
  -5  -6  -4  229.48   27.80
  -5   6  -5   35.50   13.50
   5   6   5   34.60    9.10
  -5   6  -5   19.30   10.90
  -5   6  -5   25.20   10.50
  -5  -6  -5   38.70   14.00
  -5   6  -6  294.27   28.60
  -5   6  -6  299.87   29.60
  -5   6  -6  300.17   31.00
   5   6   6  301.67   28.40
  -5  -6  -6  271.27   30.20
  -5  -6  -6  249.48   32.60
  -5   6  -7   22.00   11.50
   5   6   7   30.60   10.30
  -5   6  -7   25.20   14.00
  -5   6  -7   26.10   13.90
  -5  -6  -7   41.20   14.90
  -5  -6  -7   35.60   15.60
  -5   6  -8   -0.20   11.80
   5   6   8   -2.50   11.90
  -5   6  -8   -4.70   15.50
  -5   6  -8    8.30   14.20
  -5  -6  -8   17.70   16.20
  -5  -6  -8    3.70   14.60
   5   6   9   -9.70   13.80
  -5   6  -9  -12.10   18.60
  -5   6  -9   20.50   15.00
  -5   6  -9   -3.20   12.10
  -5  -6  -9  -10.40   16.90
  -5  -6  -9   -9.20   15.10
  -5   6 -10  127.29   25.90
   5   6  10  109.79   19.40
  -5   6 -10  164.98   25.30
  -5  -6 -10   95.19   18.80
  -5  -6 -10  202.78   31.40
  -5   7  10    0.60   14.80
   5   7 -10   21.80   12.70
   5  -7 -10   27.60   16.30
   5  -7 -10   13.10    9.90
  -5   7   9   43.10   15.70
   5   7  -9   10.30   11.10
   5  -7  -9   37.50   17.70
   5  -7  -9   22.30    9.40
   5   7  -8   34.70   17.00
   5   7  -8   45.10   11.30
  -5   7   8   60.99   15.30
   5  -7  -8   29.90    8.90
   5  -7  -8   58.09   18.40
   5   7  -7    5.40    9.40
  -5   7   7  -12.90   12.90
   5   7  -7  -15.80   14.60
   5  -7  -7   10.90   17.30
  -5  -7   7  -17.80   15.40
   5  -7  -7    2.20    7.10
   5   7  -6  530.55   44.90
   5   7  -6  532.25   38.80
  -5   7   6  537.75   44.40
  -5  -7   6  503.25   43.30
   5  -7  -6  523.75   45.60
   5  -7  -6  445.66   37.70
  -5   7   5    2.60   11.90
   5   7  -5    5.20    8.50
   5   7  -5  -12.00   12.10
  -5  -7   5    5.10   15.60
   5  -7  -5   -9.00   17.60
   5   7  -4   60.09   10.50
  -5   7   4   54.19   12.50
   5   7  -4   49.99   12.40
  -5  -7   4   76.69   16.10
   5   7  -3   42.70   11.20
  -5   7   3   38.70   11.10
   5   7  -3   57.29    9.50
  -5  -7   3   55.89   16.40
   5   7  -2  110.69   15.00
   5   7  -2  113.89   20.80
  -5   7   2   65.49   12.10
   5   7  -1   56.39    9.60
   5   7  -1   43.60   10.00
  -5   7   1   40.90   11.00
  -5   7   1   74.09   15.90
  -5  -7   1   59.19   16.70
   5   7   0  140.69   23.10
  -5   7   0  210.58   26.60
   5   7   0  207.88   21.10
  -5   7   0  183.78   22.00
  -5  -7   0  210.98   27.60
   5   7   1   -3.70   10.30
   5   7   1    2.50    8.20
  -5   7  -1    9.20   13.80
  -5   7  -1  -14.70    8.50
  -5  -7  -1   -1.40   15.20
   5   7   2  236.88   23.10
  -5   7  -2  246.58   24.30
  -5   7  -2  227.38   28.00
  -5   7  -2  172.88   25.70
   5   7   2  209.28   22.70
  -5  -7  -2  250.47   28.10
   5   7   3   73.59   15.80
  -5   7  -3  113.69   19.60
  -5   7  -3   47.60   10.70
   5   7   3   39.70   11.50
  -5   7  -3   73.89   15.40
  -5  -7  -3   57.69   15.40
  -5   7  -4  321.37   29.20
   5   7   4  311.17   29.10
  -5   7  -4  308.37   29.70
  -5   7  -4  297.97   32.40
   5   7   4  315.37   28.10
  -5  -7  -4  314.87   32.10
  -5   7  -5    6.60   10.90
   5   7   5   16.00   15.10
  -5   7  -5   15.20   14.60
  -5   7  -5    8.40   10.70
  -5  -7  -5   11.40   15.20
  -5   7  -6   11.70   12.30
   5   7   6   28.10   10.00
  -5   7  -6   10.60   14.90
  -5   7  -6   23.60   11.80
  -5  -7  -6    9.30   14.70
  -5   7  -7   16.70   13.80
  -5   7  -7    6.50   15.40
  -5   7  -7   21.70   11.70
   5   7   7   14.30   11.20
  -5  -7  -7  -13.00   15.90
  -5  -7  -7   49.60   16.80
  -5   7  -8  162.78   32.60
  -5   7  -8  167.68   27.30
  -5   7  -8  139.19   24.20
   5   7   8  182.18   26.80
  -5  -7  -8  118.59   21.40
  -5  -7  -8  167.68   26.00
  -5   7  -9   -7.40   16.40
   5   7   9    7.70   13.20
  -5   7  -9    2.90   18.20
  -5   7  -9   12.00   12.80
  -5  -7  -9   10.40   17.90
  -5  -7  -9   -2.30   16.60
  -5   8   9   27.80   15.50
   5   8  -9   26.60   12.00
   5   8  -9    7.20   18.10
   5  -8  -9   37.40   10.00
   5  -8  -9   60.09   20.00
  -5   8   8  -15.20   13.60
   5   8  -8    6.00   10.90
   5   8  -8    5.70   17.30
   5  -8  -8    1.30    8.50
   5  -8  -8   22.20   18.20
  -5   8   7  189.38   30.00
   5   8  -7  200.18   32.40
   5   8  -7  178.88   22.00
   5  -8  -7  170.88   30.70
  -5  -8   7  181.28   29.50
   5   8  -6   49.50   14.60
  -5   8   6   37.20   13.60
   5   8  -6   31.80   10.40
   5  -8  -6   72.99   19.70
  -5  -8   6   57.49   18.10
   5   8  -5  130.59   18.00
  -5   8   5  127.69   27.50
   5  -8  -5  152.58   30.50
   5   8  -4  256.77   22.30
   5   8  -4  240.58   28.60
  -5   8   4  215.78   29.60
   5  -8  -4  231.28   34.60
  -5  -8   4  224.18   31.30
   5   8  -3  178.98   20.00
  -5   8   3  217.08   26.80
   5   8  -3  193.68   25.00
  -5  -8   3  190.08   29.80
   5   8  -2    8.40    9.90
  -5   8   2   -2.20   10.60
   5   8  -2    8.10    8.50
  -5  -8   2   11.30   17.80
   5   8  -1    7.20    9.60
  -5   8   1   22.30   10.10
   5   8  -1   20.80    8.60
  -5  -8   1   34.80   18.00
   5   8   0  139.29   19.30
   5   8   0  116.59   18.10
  -5   8   0   96.59   20.30
  -5   8   0  125.99   25.70
  -5  -8   0  165.18   27.70
   5   8   1   -1.80    9.80
   5   8   1    9.50   12.60
  -5   8  -1   39.90   15.10
  -5   8  -1   24.30    9.70
  -5  -8  -1   44.70   18.00
  -5   8  -2  238.08   26.00
  -5   8  -2  284.17   30.60
   5   8   2  243.48   29.90
   5   8   2  203.78   23.90
  -5  -8  -2  292.37   31.00
  -5   8  -3  302.47   31.10
  -5   8  -3  304.57   33.50
   5   8   3  323.57   27.60
  -5   8  -3  319.47   29.80
   5   8   3  305.67   28.40
  -5  -8  -3  330.17   33.40
  -5   8  -4    9.70   11.60
   5   8   4   18.10   10.80
  -5   8  -4   -4.40   15.60
   5   8   4   16.40    8.80
  -5   8  -4    9.30   10.60
  -5  -8  -4   -4.90   15.80
   5   8   5   97.09   20.30
   5   8   5   63.89   19.40
  -5   8  -5   54.79   12.70
  -5   8  -5   74.29   13.30
  -5   8  -5   91.99   18.10
  -5  -8  -5   80.59   17.20
   5   8   6  196.48   25.30
  -5   8  -6  194.38   29.50
  -5   8  -6  154.48   26.90
  -5   8  -6  184.18   25.60
  -5  -8  -6  171.68   27.60
  -5   8  -7  262.47   33.40
  -5   8  -7  293.17   30.30
  -5   8  -7  294.57   34.30
   5   8   7  306.37   30.90
  -5  -8  -7  268.77   31.70
  -5   8  -8  -10.70   15.80
  -5   8  -8    8.70   12.50
   5   8   8   16.90   12.90
  -5   8  -8  -29.30   17.30
  -5  -8  -8    3.00   17.80
  -5  -8  -8   -3.20   17.80
  -5   8  -9  135.79   23.80
   5   8   9  128.79   28.80
  -5   8  -9   94.79   20.20
  -5   8  -9   60.09   20.30
  -5  -8  -9   84.09   20.90
  -5  -8  -9   98.99   19.40
   5   9  -8    9.00   17.30
   5   9  -8   10.10   11.70
  -5   9   8   -3.00   14.30
   5  -9  -8   40.60   19.80
  -5  -9   8   14.40   21.00
   5   9  -7   10.40   10.70
  -5   9   7    5.30   14.10
   5   9  -7   -4.60   15.80
  -5  -9   7   10.80   18.60
   5  -9  -7   14.60   20.40
   5   9  -6   31.40   15.10
   5   9  -6   43.30   11.10
  -5   9   6   45.30   14.50
   5  -9  -6   86.49   21.60
  -5  -9   6   71.69   20.00
   5   9  -5  487.05   37.10
  -5   9   5  524.65   43.60
   5   9  -5  465.15   43.10
   5  -9  -5  471.95   45.80
  -5  -9   5  429.16   45.00
  -5   9   4  -13.10   12.40
   5   9  -4   -6.10    8.80
   5   9  -4   -2.40   12.30
  -5  -9   4    3.60   22.50
   5  -9  -4  -14.70   20.00
  -5   9   3  168.28   26.80
   5   9  -3  189.08   25.20
   5   9  -3  199.18   22.00
   5  -9  -3  159.28   34.00
  -5  -9   3  210.78   30.70
  -5   9   2   48.50   12.30
   5   9  -2   59.09   11.80
   5   9  -2   56.69   10.30
   5  -9  -2   52.69   19.30
  -5  -9   2   49.70   19.50
   5   9  -1   45.70    9.50
   5   9  -1   32.80   10.90
  -5   9   1   30.70   10.20
  -5  -9   1   59.89   18.70
   5   9   0  -23.80    8.90
  -5   9   0  -10.40    9.80
   5   9   0   -9.50    9.20
  -5  -9   0    5.70   19.10
   5   9   1  359.46   32.90
  -5   9  -1  381.26   33.80
   5   9   1  452.35   34.10
  -5  -9  -1  360.96   39.10
  -5   9  -2   26.90   10.40
   5   9   2   37.90   10.00
   5   9   2   14.10   10.50
  -5  -9  -2   45.30   19.00
   5   9   3   -0.10   10.00
   5   9   3   -6.50    9.40
  -5   9  -3   -3.00   10.20
  -5   9  -3    2.70   17.00
  -5  -9  -3   -1.90   18.20
  -5   9  -4  130.09   23.00
  -5   9  -4  109.59   20.40
   5   9   4   92.39   14.20
   5   9   4  108.59   20.00
  -5   9  -4  143.29   23.50
  -5  -9  -4  118.99   20.30
   5   9   5  146.69   25.10
  -5   9  -5  116.39   23.40
  -5   9  -5  155.38   24.60
  -5   9  -5   91.19   20.90
   5   9   5  119.49   21.90
  -5  -9  -5  101.79   21.10
   5   9   6    7.20   11.30
  -5   9  -6   -3.40   12.70
  -5   9  -6   -8.00   18.10
   5   9   6    2.80   13.80
  -5   9  -6    0.00   13.20
  -5  -9  -6   -2.30   18.10
  -5   9  -7   -9.70   13.80
   5   9   7   20.10   12.30
  -5   9  -7   17.70   14.60
  -5   9  -7   19.70   19.10
  -5  -9  -7  -20.10   19.00
  -5   9  -8  -18.90   16.00
   5   9   8   12.50   13.30
  -5   9  -8   29.10   14.00
  -5  -9  -8  -14.90   18.00
   5  10  -7   40.30   16.50
   5  10  -7   12.90   11.60
  -5  10   7   38.30   15.40
   5 -10  -7   33.20   21.00
  -5 -10   7   37.10   20.50
  -5  10   6   46.70   14.50
   5  10  -6   52.49   11.80
   5  10  -6   42.70   15.60
   5 -10  -6   79.29   21.70
  -5 -10   6   81.19   21.70
   5  10  -5   12.80   13.70
  -5  10   5   11.50   13.60
   5  10  -5   19.00    9.90
   5 -10  -5   25.10   20.20
  -5 -10   5    9.50   21.00
   5  10  -4  -10.00    9.20
  -5  10   4  -15.20   12.50
   5  10  -4   -9.30   12.40
   5 -10  -4   22.80   20.50
  -5 -10   4   17.40   20.70
   5  10  -3   36.30   12.30
  -5  10   3   35.80   12.80
   5  10  -3   48.90    9.70
  -5 -10   3   76.29   22.30
   5 -10  -3   52.89   22.20
  -5  10   2   33.60   11.60
   5  10  -2   44.30   12.10
   5  10  -2   43.80   10.00
  -5 -10   2   56.89   20.90
   5 -10  -2   75.09   23.50
   5  10  -1  513.25   37.60
  -5  10   1  448.56   39.80
   5  10  -1  489.05   40.40
   5 -10  -1  464.95   47.00
  -5 -10   1  458.95   45.50
  -5  10   0   47.90   12.00
   5  10   0   88.49   20.00
   5  10   0   58.19   11.60
  -5 -10   0  102.19   21.90
  -5  10  -1   53.19   11.80
   5  10   1   42.50   11.40
   5  10   1   95.39   20.60
  -5 -10  -1   88.59   21.70
  -5  10  -2  -19.80   10.30
   5  10   2   -4.10   10.30
  -5 -10  -2  -15.60   20.20
   5  10   3   92.59   13.60
  -5  10  -3  110.79   22.80
  -5 -10  -3  138.79   24.30
   5  10   4  121.99   20.00
   5  10   4   68.79   13.50
  -5  10  -4  107.79   23.30
  -5 -10  -4  158.38   28.30
   5  10   5   27.20   13.60
  -5  10  -5   10.40   14.90
  -5  10  -5   30.20   12.60
   5  10   5   23.70   10.90
  -5 -10  -5    2.20   19.90
  -5  10  -6   63.49   14.70
   5  10   6  125.39   21.60
  -5  10  -6   96.69   16.70
   5  10   6  101.89   23.60
  -5 -10  -6   76.39   21.40
  -5  11   5  226.38   32.20
   5  11  -5  237.18   31.90
   5  11  -5  257.17   24.70
   5 -11  -5  199.48   36.00
  -5 -11   5  249.08   36.00
  -5  11   4  206.28   30.00
   5  11  -4  230.78   22.80
   5  11  -4  203.58   29.90
   5 -11  -4  219.78   34.80
  -5 -11   4  228.38   35.80
   5  11  -3   39.20   10.50
  -5  11   3   57.49   13.20
   5  11  -3   57.59   13.50
   5 -11  -3   78.69   23.60
  -5 -11   3   83.89   23.90
   5  11  -2  199.18   27.20
  -5  11   2  212.58   25.70
   5 -11  -2  195.68   34.70
  -5 -11   2  210.98   34.10
   5  11  -1   37.70   12.60
   5  11  -1   41.50   10.20
  -5  11   1   15.50   11.50
  -5 -11   1   74.59   21.70
   5 -11  -1   64.89   24.30
   5  11   0   29.00   10.10
  -5  11   0    9.70   10.90
   5  11   0   33.20   11.60
   5 -11   0   57.59   23.60
  -5 -11   0   33.30   22.00
  -5  11  -1  215.38   27.90
   5  11   1  249.08   24.20
   5  11   1  257.47   27.50
  -5 -11  -1  242.08   35.90
   5 -11   1  200.08   37.60
   5  11   2   44.90   12.10
  -5  11  -2   24.90   11.40
   5  11   2   45.00   11.20
  -5 -11  -2   48.40   22.20
   5 -11   2   69.79   24.50
   5  11   3  -15.70   11.00
   5  11   3    5.70   10.80
  -5  11  -3   -1.60   11.50
  -5 -11  -3    6.70   21.30
   5  11   4  -13.30   11.30
   5  11   4  -35.60   12.10
  -5  11  -4   -2.70   12.00
  -5 -11  -4   15.60   22.10
   5  11   5   31.50   11.20
  -5  11  -5   31.10   12.90
  -5  11  -5   54.69   17.00
   5  11   5   20.50   17.20
  -5 -11  -5   45.50   21.20
   5  12  -3   21.50   13.60
   5  12  -3   39.60   10.00
  -5  12   3   21.30   12.50
   5 -12  -3   23.20   22.10
  -5  12   2    1.20   11.50
   5  12  -2   33.20   12.90
   5  12  -2   12.50   10.50
   5 -12  -2    3.10   22.20
  -5 -12   2   46.60   24.10
  -5  12   1   -5.80   12.00
   5  12  -1    2.60    9.10
   5  12  -1   -2.20   12.30
  -5 -12   1   -7.90   23.00
   5 -12  -1  -12.10   23.40
   5  12   0   37.40   12.60
  -5  12   0   22.20   11.70
  -5 -12   0   43.50   24.00
   5 -12   0   17.70   23.40
   5  12   1   -0.60   11.80
  -5  12  -1    1.50   11.60
  -5 -12  -1    2.60   22.80
   5 -12   1   -8.90   23.70
   5  12   2   47.50   12.20
  -5  12  -2   23.10   11.80
  -5 -12  -2   47.40   25.20
   5 -12   2   29.10   25.70
   6   0 -12  228.58   28.40
  -6   0  12  253.17   31.40
   6   0 -11   -1.80   11.20
  -6   0  11    4.10   12.70
  -6   0  10  117.19   23.90
   6   0 -10   69.69   12.60
   6   0  -9   -5.90    9.50
  -6   0   9   -2.80   11.80
   6   0  -8  181.98   21.10
  -6   0   8  193.18   26.50
  -6   0   7    4.70   11.00
   6   0  -6  374.16   32.30
   6   0  -6  430.96   38.60
  -6   0   6  391.76   38.60
  -6   0   6  405.76   35.80
   6   0  -5   -9.60   12.10
  -6   0   5   -7.40   12.50
  -6   0   5   -6.80    7.70
  -6   0   5    7.00   10.10
   6   0  -5  -20.60    7.80
   6   0  -4  387.26   32.60
  -6   0   4  416.46   32.40
   6   0  -4  458.35   38.20
  -6   0   4  444.66   35.60
  -6   0   4  386.76   39.00
   6   0  -3   -2.10    9.10
  -6   0   3    7.10    8.50
  -6   0   3  -11.10   12.00
  -6   0   3   -2.60    8.60
   6   0  -3   -4.20   12.50
   6   0  -2  289.57   25.80
  -6   0   2  246.88   26.50
  -6   0   2  308.17   33.30
  -6   0   2  299.37   25.20
   6   0  -2  311.57   33.00
  -6   0   1    1.00   10.00
   6   0  -1  -22.20   12.10
  -6   0   1  -17.50   13.00
   6   0  -1  -15.30    9.40
   6   0   0  377.66   42.00
  -6   0   0  401.36   41.40
  -6   0   0  425.96   33.20
   6   0   0  393.06   33.50
  -6   0  -1  -17.10   15.50
   6   0   1   -5.40   15.00
   6   0   1  -21.60   11.40
  -6   0  -1    7.70   10.30
   6   0   2    1.80   15.50
  -6   0  -2   -3.10   16.40
  -6   0  -2   -4.60   13.30
  -6   0  -3  -14.00   18.20
  -6   0  -3    1.10   12.90
   6   0   3  -15.10   15.50
  -6   0  -3   -1.90   11.70
  -6   0  -4  168.18   21.90
  -6   0  -4  147.39   26.90
  -6   0  -4  199.98   38.80
   6   0   4  169.18   37.10
  -6   0  -5   -1.50   13.80
  -6   0  -5   -5.90   11.50
  -6   0  -5   27.50   19.00
   6   0   5  -12.10   17.00
  -6   0  -6  211.78   26.80
  -6   0  -6  218.58   24.20
  -6   0  -7  -17.40   12.10
  -6   0  -7   -0.40   14.60
  -6   0  -8  334.87   32.40
  -6   0  -8  297.27   29.70
  -6   0  -9   -6.30   12.80
   6   0   9    4.00   17.80
  -6   0  -9   14.50   12.90
  -6   0 -10  372.56   39.60
  -6   0 -10  378.96   36.70
   6   0  10  507.65   41.70
  -6   0 -11   -2.20   14.30
   6   0  11   38.60   17.70
  -6   0 -11    7.50   14.10
   6   1 -12  210.08   28.40
  -6   1  12  232.68   32.40
  -6  -1  12  272.27   33.20
   6  -1 -12  231.88   27.70
  -6   1  11  122.29   27.70
   6   1 -11  118.49   22.20
   6  -1 -11  111.79   23.10
  -6  -1  11  161.98   29.50
  -6   1  10    1.60   12.80
   6   1 -10  -10.70   10.80
   6  -1 -10   -9.30   10.70
  -6  -1  10   -0.90   13.80
   6   1  -9  -16.60    9.70
  -6   1   9   12.60   12.00
   6  -1  -9   -6.30    9.70
  -6  -1   9   -6.40   14.00
  -6   1   8   59.49   13.20
   6   1  -8   88.19   17.20
   6  -1  -8   71.19   11.30
  -6  -1   8   78.99   15.00
  -6   1   7   20.30   11.10
   6   1  -7   17.50    9.10
   6  -1  -7   22.40    8.60
  -6  -1   7   24.40   13.20
  -6   1   6   58.79   15.40
  -6   1   6   64.19   13.60
  -6   1   6   91.59   15.00
   6   1  -6   55.79   14.60
   6   1  -6   64.49   10.90
  -6  -1   6   62.69   14.50
   6  -1  -6   85.59   14.60
   6  -1  -6   66.79   11.00
  -6  -1   6   65.59   14.00
   6   1  -5   -1.30    8.30
  -6   1   5   20.60   11.70
  -6   1   5   28.90    9.00
  -6   1   5   30.50   10.20
   6   1  -5    5.70   12.30
   6  -1  -5   27.60   12.20
  -6  -1   5   18.80    7.80
  -6  -1   5   16.00   19.30
   6  -1  -5    2.10    7.70
  -6  -1   5   14.00   11.90
  -6   1   4  -12.20   11.90
  -6   1   4   16.40    9.30
   6   1  -4  -10.10    7.40
  -6   1   4   13.50    8.50
   6   1  -4   10.40   11.80
   6  -1  -4   10.00   11.40
   6  -1  -4    9.90    7.70
  -6  -1   4    5.70   11.00
  -6  -1   4    4.70   12.70
  -6  -1   4  -13.00    8.30
  -6   1   3   -4.10   11.50
   6   1  -3   -5.70    7.80
  -6   1   3   11.30    9.00
   6   1  -3    4.60   12.60
  -6   1   3   10.70    8.50
   6  -1  -3    6.60    8.50
  -6  -1   3   -3.70    9.20
  -6  -1   3    2.80    9.90
   6  -1  -3   18.40   12.30
  -6  -1   3  -15.20   12.40
  -6   1   2  124.29   16.90
  -6   1   2   89.39   14.80
   6   1  -2  147.19   27.20
  -6   1   2   81.19   19.10
   6   1  -2  114.89   17.60
  -6  -1   2   94.89   17.60
   6  -1  -2  103.59   15.40
  -6  -1   2   91.19   19.40
   6  -1  -2  106.19   16.90
  -6  -1   2   89.19   15.30
  -6   1   1    4.70   12.80
   6   1  -1   11.30   13.50
  -6   1   1   23.20   10.20
   6   1  -1   24.40    8.80
  -6   1   1   -4.60    6.80
  -6  -1   1   15.10   13.10
   6  -1  -1   -1.20   12.10
  -6  -1   1   19.50   10.20
   6  -1  -1   15.10    9.00
  -6   1   0   48.60   10.50
  -6   1   0   39.30   14.90
   6   1   0   56.49   10.20
   6   1   0   42.80   15.50
   6  -1   0   53.69   10.30
  -6  -1   0   52.29   15.10
  -6  -1   0   53.39   12.30
   6  -1   0   53.49   15.30
   6   1   1   37.20   10.70
  -6   1  -1   49.40   11.20
   6   1   1   46.70   15.40
  -6   1  -1   31.60   16.00
   6  -1   1   45.00   11.80
   6  -1   1   47.40   16.10
  -6  -1  -1   69.69   12.60
  -6  -1  -1   22.80   16.20
  -6   1  -2  484.55   48.80
   6   1   2  481.05   46.60
  -6  -1  -2  457.95   47.60
   6  -1   2  447.76   47.60
  -6   1  -3   35.60   10.60
  -6   1  -3   18.40   17.80
  -6   1  -3   27.20   13.30
   6   1   3   13.00   16.00
  -6  -1  -3   28.90   14.40
   6  -1   3   21.20   16.00
  -6  -1  -3   35.50   18.50
  -6  -1  -3   39.00   11.60
   6   1   4  197.38   36.70
  -6   1  -4  156.78   26.10
  -6   1  -4  150.88   20.50
  -6   1  -4  189.68   38.40
  -6  -1  -4  174.48   21.80
  -6  -1  -4  153.18   24.60
  -6  -1  -4  175.48   27.60
   6  -1   4  126.09   21.20
  -6   1  -5   19.50   11.30
   6   1   5   23.50   17.30
  -6   1  -5   13.20   14.90
  -6  -1  -5   19.80   11.80
   6  -1   5    8.20   17.80
  -6  -1  -5   18.30   19.70
  -6  -1  -5   16.70   13.80
  -6   1  -6    3.80   10.80
  -6   1  -6   11.90   11.50
  -6  -1  -6   -3.90   11.80
  -6  -1  -6   28.00   12.20
  -6   1  -7  -20.90   11.10
   6   1   7   27.20   12.30
  -6   1  -7    4.50   11.10
  -6  -1  -7    0.20   12.10
  -6  -1  -7   12.00   12.80
   6   1   8  195.38   27.00
  -6   1  -8  111.29   20.40
  -6   1  -8   98.69   15.60
  -6  -1  -8  155.98   25.40
  -6  -1  -8  110.89   22.60
  -6   1  -9    2.20   12.80
  -6   1  -9   12.70   11.90
  -6  -1  -9  -10.50   13.40
  -6  -1  -9    1.70   13.10
  -6   1 -10   46.10   14.00
  -6   1 -10   32.50   13.90
  -6  -1 -10   37.80   14.60
  -6  -1 -10   17.40   15.50
   6  -1  10   53.19   18.30
  -6   1 -11   19.50   13.60
  -6   1 -11    2.10   14.60
  -6  -1 -11   22.80   15.30
   6  -1  11   61.59   19.00
  -6  -1 -11  -11.00   15.70
   6   2 -12    3.20   12.60
  -6   2  12    3.20   13.50
  -6  -2  12   -0.10   16.60
   6  -2 -12    5.10   12.50
  -6   2  11   45.40   13.40
   6   2 -11   59.79   13.70
   6  -2 -11   43.00   13.00
  -6  -2  11   49.50   17.70
   6   2 -10  266.97   27.40
  -6   2  10  232.58   29.90
  -6  -2  10  254.37   34.70
   6  -2 -10  261.47   26.80
  -6   2   9   22.60   12.20
   6   2  -9    4.60   10.60
   6  -2  -9    3.30   10.10
  -6  -2   9    1.10   15.10
   6   2  -8    2.10    9.00
  -6   2   8   12.20   11.00
  -6  -2   8    2.40   14.10
   6  -2  -8   -0.90    9.20
   6   2  -7  331.07   28.50
  -6   2   7  305.97   32.60
  -6  -2   7  342.37   36.30
   6  -2  -7  356.76   28.30
  -6   2   6   23.80   10.90
   6   2  -6  -18.70    8.40
  -6   2   6    2.50   10.50
  -6  -2   6    9.10   25.40
   6  -2  -6  -14.90    8.00
   6   2  -5   -7.10   13.20
   6   2  -5   -0.30   12.20
  -6   2   5    4.90   10.40
  -6   2   5    1.90   10.10
  -6   2   5    9.80   11.40
  -6  -2   5  -11.80   14.20
  -6  -2   5    6.80    8.10
   6  -2  -5   14.10   12.20
  -6  -2   5  -14.40   12.90
   6  -2  -5   -9.30    7.40
   6   2  -4   61.39   10.10
  -6   2   4   71.49   14.20
   6   2  -4   59.29   13.30
  -6   2   4   91.99   11.80
  -6   2   4   63.39   13.10
  -6  -2   4   63.79   15.70
  -6  -2   4   92.99   15.30
   6  -2  -4   78.29   13.50
  -6  -2   4   54.79   14.60
   6  -2  -4   56.39   15.00
   6   2  -3   -6.90   12.40
  -6   2   3   -1.30   10.40
  -6   2   3    5.80   10.00
  -6   2   3    0.40    9.50
   6   2  -3   -9.30    7.60
  -6  -2   3    0.80   13.40
  -6  -2   3   10.60    9.60
   6  -2  -3   -9.00    7.60
   6  -2  -3    9.00   12.10
  -6  -2   3   -8.20   12.90
  -6   2   2    8.90    8.30
   6   2  -2    6.60   13.50
  -6   2   2    5.10   13.70
   6   2  -2    1.40   11.40
  -6   2   2    9.00    9.80
   6  -2  -2   -5.00    8.10
  -6  -2   2   15.30   10.40
   6  -2  -2   18.30   12.70
  -6  -2   2    5.20   13.20
  -6   2   1   79.89   15.50
  -6   2   1   92.29   18.30
   6   2  -1  136.39   17.70
   6   2  -1  101.19   16.40
  -6   2   1  108.89   17.20
   6  -2  -1   97.59   17.20
   6  -2  -1  134.79   24.80
  -6  -2   1  133.59   18.90
  -6  -2   1   90.89   15.70
  -6   2   0  303.17   27.50
   6   2   0  377.16   38.10
  -6   2   0  343.17   29.40
   6   2   0  345.57   29.30
  -6   2   0  333.17   39.10
  -6  -2   0  357.36   30.00
   6  -2   0  370.06   37.40
  -6  -2   0  304.37   37.70
   6  -2   0  346.07   29.20
  -6   2  -1   89.09   17.40
   6   2   1   86.19   14.10
   6   2   1   73.89   16.30
  -6  -2  -1   87.49   17.20
   6  -2   1   88.89   13.50
   6  -2   1   85.69   16.90
  -6   2  -2   42.90   11.50
   6   2   2   36.30   15.90
   6   2   2   32.50   13.20
  -6   2  -2   45.90   16.80
  -6  -2  -2   26.00   16.90
   6  -2   2   13.80   15.40
  -6  -2  -2   41.00   12.10
   6   2   3 1298.77   98.49
  -6   2  -3 1372.56   95.09
  -6   2  -3 1348.77   93.89
  -6   2  -3 1248.68   99.49
  -6  -2  -3 1360.16   99.89
   6  -2   3 1271.77   98.69
  -6  -2  -3 1294.67   93.89
  -6   2  -4   14.60   18.50
  -6   2  -4   29.70   12.50
   6   2   4   -7.70   15.90
  -6   2  -4   34.40   11.00
  -6   2  -4   18.60    8.50
  -6  -2  -4   22.60   13.70
   6  -2   4    3.30   16.90
  -6  -2  -4   44.50   12.80
  -6   2  -5  433.56   34.70
  -6   2  -5  462.75   42.40
   6   2   5  460.35   46.80
  -6   2  -5  337.77   35.30
  -6  -2  -5  443.06   35.40
   6  -2   5  435.36   48.00
  -6  -2  -5  439.86   49.60
  -6  -2  -5  408.56   38.70
  -6   2  -6   17.70   10.90
  -6   2  -6   26.10   11.40
  -6  -2  -6   16.30   13.60
  -6  -2  -6   26.10   12.80
  -6   2  -7  397.56   38.90
  -6   2  -7  486.65   39.50
   6   2   7  520.75   39.40
  -6  -2  -7  443.76   38.90
  -6  -2  -7  455.45   41.10
  -6   2  -8   37.70   12.80
   6   2   8  133.69   26.60
  -6   2  -8   49.70   12.70
  -6  -2  -8   38.40   14.10
  -6  -2  -8   56.19   14.80
  -6   2  -9  134.79   22.70
  -6   2  -9  205.48   27.50
   6   2   9  267.87   44.50
  -6  -2  -9  203.88   28.10
  -6  -2  -9  181.88   25.50
  -6   2 -10   80.09   14.50
   6   2  10  108.49   18.70
  -6   2 -10   52.59   16.10
  -6  -2 -10   78.09   16.70
  -6  -2 -10   75.89   16.70
  -6   2 -11   78.49   16.80
   6   2  11  114.19   20.10
  -6   2 -11   80.69   15.00
  -6  -2 -11   83.89   16.70
  -6  -2 -11   81.19   18.00
   6  -2  11   83.79   22.80
  -6   3  11   27.70   13.50
   6   3 -11   32.70   11.70
  -6  -3  11   10.30   19.10
   6  -3 -11   31.50   11.90
  -6   3  10    1.20   12.20
   6   3 -10  -12.00   11.70
   6  -3 -10   -5.70   11.20
  -6  -3  10  -16.30   17.10
  -6   3   9  142.79   25.30
   6   3  -9  129.99   21.30
   6  -3  -9  162.98   21.90
  -6  -3   9  170.38   34.20
   6  -3  -9  169.98   20.70
  -6   3   8   -9.40   11.00
   6   3  -8   -6.40    9.00
   6  -3  -8    5.90   18.90
  -6  -3   8  -15.10   17.90
   6  -3  -8   -4.00    9.00
  -6   3   7   49.00   12.90
   6   3  -7   52.99   10.00
  -6  -3   7   48.20   18.90
   6  -3  -7   66.59    9.90
   6   3  -6  -17.60    8.80
  -6   3   6   -9.00   11.80
  -6   3   6  -13.90   14.30
   6  -3  -6  -12.50    8.00
  -6  -3   6  -26.20   17.80
  -6   3   5  121.69   22.50
   6   3  -5  137.59   25.50
   6   3  -5  115.69   16.40
  -6   3   5  138.39   24.60
  -6   3   5   79.39   13.70
  -6  -3   5  137.19   28.80
   6  -3  -5   88.79   15.10
  -6  -3   5   75.19   15.80
  -6   3   4    3.80   10.30
  -6   3   4   -9.20   10.60
   6   3  -4    8.10   11.70
   6   3  -4    3.10    7.90
  -6   3   4   -4.30   19.40
   6  -3  -4   -5.50    7.40
   6  -3  -4    8.20   11.50
  -6  -3   4  -13.40   24.00
  -6  -3   4    7.00    9.80
  -6   3   3    3.40    9.80
   6   3  -3  -15.30    7.70
  -6   3   3   -3.40   11.10
   6   3  -3  -21.20   12.20
   6  -3  -3   -2.70   11.40
   6  -3  -3   -8.20    7.30
  -6  -3   3    0.80   10.40
  -6  -3   3  -25.60   13.20
  -6   3   2   67.99   15.50
  -6   3   2   28.40   12.80
   6   3  -2   40.60    9.90
   6   3  -2   30.10   14.00
  -6   3   2   49.40   10.60
   6   3  -2   58.19   10.50
   6  -3  -2   58.09    9.20
  -6  -3   2   67.39   12.20
  -6  -3   2   32.70   14.10
   6   3  -1  547.55   45.10
  -6   3   1  527.15   41.80
  -6   3   1  551.64   42.20
  -6   3   1  509.85   47.20
   6   3  -1  522.15   47.30
   6   3  -1  502.15   40.80
  -6  -3   1  550.24   47.40
   6  -3  -1  539.85   41.00
   6  -3  -1  612.64   44.60
  -6  -3   1  598.44   43.40
  -6   3   0   41.10   14.90
  -6   3   0   30.20    7.80
   6   3   0   22.20   14.00
  -6   3   0   48.80   11.00
  -6  -3   0   17.30   14.80
   6  -3   0   46.80    9.40
   6   3   1  226.48   26.20
  -6   3  -1  194.78   19.60
   6   3   1  197.08   33.40
  -6   3  -1  206.48   22.00
  -6   3  -1  190.28   33.40
   6  -3   1  170.48   23.60
  -6  -3  -1  213.38   34.10
  -6  -3  -1  187.98   24.00
  -6   3  -2  138.89   18.40
  -6   3  -2  113.49   15.20
   6   3   2  110.49   21.70
  -6   3  -2  114.09   18.90
   6   3   2   94.99   17.90
  -6  -3  -2  114.59   21.10
  -6  -3  -2   89.29   19.00
  -6   3  -3  138.19   19.30
  -6   3  -3   95.99   17.40
  -6   3  -3   93.59   19.30
  -6   3  -3  122.69   24.50
   6   3   3  145.59   32.10
  -6  -3  -3  154.18   21.50
  -6  -3  -3  172.08   36.00
  -6   3  -4   77.29   13.10
  -6   3  -4   78.19   12.70
  -6   3  -4   52.49    9.90
   6   3   4   58.49   17.00
  -6  -3  -4   95.59   14.80
  -6  -3  -4   73.89   15.00
  -6  -3  -4   60.89   28.50
   6  -3   4   75.89   18.10
  -6   3  -5  314.67   35.40
  -6   3  -5  289.77   30.10
  -6   3  -5  319.17   28.70
  -6  -3  -5  296.47   29.50
  -6  -3  -5  366.06   34.10
  -6   3  -6   -0.20   10.90
  -6   3  -6    5.40   11.40
  -6   3  -6   12.20   10.70
  -6  -3  -6   -3.90   12.70
  -6  -3  -6    4.70   13.60
  -6   3  -7   72.99   16.10
   6   3   7   38.80   21.20
  -6   3  -7   70.99   13.20
  -6  -3  -7   66.99   14.50
  -6  -3  -7   64.99   15.00
  -6   3  -8   38.90   12.30
   6   3   8   25.20   14.80
  -6   3  -8   27.80   12.80
  -6  -3  -8   45.80   15.30
  -6  -3  -8   40.90   14.30
  -6   3  -9   44.00   12.50
  -6   3  -9   45.20   14.20
   6   3   9   40.10   16.80
  -6  -3  -9   49.30   15.40
  -6  -3  -9   36.10   15.30
  -6   3 -10   21.30   12.60
   6   3  10  -24.50   17.70
  -6   3 -10   24.80   14.80
  -6  -3 -10   16.90   16.30
  -6  -3 -10    2.50   15.20
  -6   3 -11   85.09   14.80
   6   3  11   83.39   20.60
  -6   3 -11  114.49   18.40
   6  -3  11   46.00   24.70
  -6  -3 -11   70.39   17.40
  -6  -3 -11   73.09   17.60
   6   4 -11   62.59   12.90
  -6   4  11   55.69   15.80
   6  -4 -11   57.29   12.70
  -6  -4  11   29.00   22.10
   6  -4 -11  116.79   20.10
   6   4 -10  -12.70   11.80
  -6   4  10    2.00   13.70
   6  -4 -10   -9.70   10.80
   6  -4 -10   16.80   13.40
  -6  -4  10  -24.00   20.20
   6   4  -9   -7.40   10.90
  -6   4   9   -8.00   13.50
  -6  -4   9  -12.10   22.20
   6  -4  -9   -3.40    9.70
   6  -4  -9    5.50   13.70
  -6   4   8   53.89   13.80
   6   4  -8   37.10   10.30
  -6  -4   8   61.99   22.20
   6  -4  -8   63.99   16.10
   6  -4  -8   51.19   10.50
   6   4  -7  369.36   31.40
  -6   4   7  385.86   37.20
   6   4  -6  -22.90    8.20
  -6   4   6    6.90   11.50
   6  -4  -6   -9.70    7.50
  -6   4   5   -2.10   11.30
   6   4  -5  -13.70    7.70
  -6   4   5    6.60   12.30
   6  -4  -5   -0.70    8.50
  -6  -4   5   -3.20    9.90
  -6   4   4  168.38   28.20
  -6   4   4  291.87   29.60
   6   4  -4  250.97   28.50
   6   4  -4  248.68   23.60
  -6   4   4  228.08   26.30
   6   4  -4  300.57   30.30
   6  -4  -4  239.38   22.10
   6  -4  -4  336.97   29.20
  -6  -4   4  240.78   33.20
  -6  -4   4  259.07   25.50
  -6   4   3   96.09   18.60
  -6   4   3   57.19   12.60
   6   4  -3   59.99   10.10
   6   4  -3   61.89   11.50
  -6   4   3   77.69   12.40
   6   4  -3   77.09   13.70
   6  -4  -3   58.99    8.90
  -6  -4   3   50.79   14.70
  -6  -4   3   77.99   13.10
   6  -4  -3  121.29   23.40
   6   4  -2   -4.40    8.70
  -6   4   2   -4.90   10.60
  -6   4   2  -19.40   11.80
   6   4  -2   -2.50    8.80
   6   4  -2   11.70   13.20
  -6  -4   2   14.60   12.90
   6  -4  -2   19.40    8.10
  -6  -4   2    1.70   13.90
  -6   4   1   -9.50    8.30
   6   4  -1    0.20    7.70
   6   4  -1   -7.90   13.30
  -6   4   1   -9.30   13.00
  -6   4   1   -9.50   10.30
   6   4  -1    8.70    9.00
  -6  -4   1   -5.80   13.60
  -6  -4   1   10.90   12.80
   6   4   0  111.19   17.70
  -6  -4   0   58.19   14.20
   6   4   1  227.38   23.10
  -6   4  -1  162.88   33.20
  -6   4  -1  179.38   20.70
   6   4   1  206.68   33.40
  -6   4  -1  198.58   23.00
  -6  -4  -1  208.58   24.70
   6  -4   1  206.68   30.80
  -6  -4  -1  224.88   34.20
   6   4   2  358.56   29.00
  -6   4  -2  349.77   39.40
   6   4   2  268.77   36.60
  -6   4  -2  306.27   28.30
  -6   4  -2  300.47   26.60
   6  -4   2  207.98   35.40
  -6  -4  -2  324.17   40.40
  -6  -4  -2  322.77   28.90
   6   4   3   14.10   13.00
  -6   4  -3    7.10   12.30
   6   4   3    3.40   15.00
  -6   4  -3   19.60    8.50
  -6   4  -3   14.00   11.40
  -6  -4  -3   15.50   17.40
   6  -4   3   -5.00   14.30
  -6   4  -4  164.48   23.50
  -6   4  -4  160.98   20.90
  -6   4  -4  115.79   20.90
   6   4   4  109.59   19.70
   6  -4   4  218.98   33.60
  -6  -4  -4  134.79   22.50
  -6  -4  -4  156.98   22.20
  -6   4  -5    9.30   19.50
  -6   4  -5   -1.20   13.10
  -6   4  -5   -1.10    9.70
  -6  -4  -5   -3.50   14.30
  -6  -4  -5   10.50   12.40
   6   4   6  441.46   39.10
  -6   4  -6  505.45   40.90
  -6   4  -6  512.75   42.80
  -6   4  -6  505.35   40.10
  -6  -4  -6  522.65   43.90
  -6  -4  -6  517.15   41.00
  -6   4  -7  246.88   31.00
  -6   4  -7  226.38   24.10
  -6   4  -7  210.38   26.60
   6   4   7  196.38   26.50
  -6  -4  -7  190.28   26.10
  -6  -4  -7  239.48   31.90
  -6   4  -8   16.00   12.30
  -6   4  -8   11.20   12.80
   6   4   8    2.40   12.30
  -6  -4  -8   21.30   14.30
  -6  -4  -8   15.30   16.20
   6   4   9  -17.90   14.20
  -6   4  -9   -0.10   12.60
  -6   4  -9   -3.00   13.20
  -6  -4  -9   -2.40   14.70
  -6  -4  -9    3.90   16.30
  -6   4 -10   14.70   14.50
   6   4  10   21.10   15.90
  -6   4 -10   48.40   14.10
  -6  -4 -10   34.80   17.20
  -6  -4 -10   28.80   16.40
  -6  -4 -11   -5.20   16.60
  -6   5  11   -6.80   14.30
   6   5 -11    1.00   11.90
  -6  -5  11  -37.00   23.60
   6  -5 -11    3.70   10.90
   6  -5 -11   24.40   14.10
   6   5 -10  -10.20   11.30
  -6   5  10    8.60   13.50
   6  -5 -10   20.60   15.60
   6  -5 -10   -3.50   10.40
  -6  -5  10  -12.70   24.10
   6   5  -9  108.69   19.30
  -6   5   9  129.79   27.00
   6  -5  -9  106.79   19.20
   6  -5  -9   95.39   18.30
  -6  -5   9   62.59   27.30
   6   5  -8    8.80    9.90
  -6   5   8    8.20   12.80
   6  -5  -8   16.00   21.00
   6  -5  -8    9.60    9.00
  -6   5   7   38.10   13.20
   6   5  -7   22.30    9.10
   6  -5  -7   23.90    8.70
   6   5  -6   89.29   15.90
   6   5  -6   83.79   16.40
  -6   5   6   85.89   14.50
   6  -5  -6  118.09   14.90
  -6  -5   6   55.39   13.80
  -6   5   5  186.38   26.80
   6   5  -5  147.79   26.90
  -6   5   5  163.88   30.00
   6   5  -5  135.99   17.70
   6  -5  -5  131.69   16.50
  -6  -5   5  117.39   20.80
   6   5  -4  452.15   32.70
  -6   5   4  409.66   37.40
  -6   5   4  394.36   35.50
   6   5  -4  400.56   35.90
   6  -5  -4  374.36   30.50
  -6  -5   4  365.16   34.20
  -6   5   3   46.40   13.40
   6   5  -3   36.10   10.50
  -6   5   3   17.40   10.70
   6   5  -3   32.70   12.80
   6   5  -3   22.30    8.90
  -6  -5   3   15.70   13.80
   6  -5  -3   46.70   10.80
   6  -5  -3   28.20    7.10
   6   5  -2  172.28   30.20
  -6   5   2  200.58   25.00
   6   5  -2  171.18   22.60
   6   5  -2  207.38   20.80
  -6   5   2  199.58   23.70
  -6  -5   2  155.18   31.10
  -6  -5   2  194.58   24.50
   6  -5  -2  202.58   18.80
   6   5  -1  544.55   41.70
  -6   5   1  520.65   43.00
   6   5  -1  509.55   46.20
   6   5  -1  585.64   41.20
  -6   5   1  527.25   42.50
  -6  -5   1  480.05   47.70
   6  -5  -1  568.14   40.20
  -6  -5   1  550.04   43.60
  -6   5   0  -15.80    8.70
   6   5   0    0.10    7.40
  -6   5   0   -4.80   11.30
  -6   5   0   -0.70   13.10
   6   5   0   -1.20   13.30
   6   5   0    0.60    9.20
  -6  -5   0    5.50   13.10
  -6  -5   0   -8.00   14.30
   6   5   1  319.77   36.60
  -6   5  -1  304.67   30.20
   6   5   1  358.76   28.70
  -6   5  -1  307.77   40.80
  -6   5  -1  288.57   37.20
   6   5   1  317.47   26.60
  -6  -5  -1  355.06   33.70
  -6  -5  -1  331.47   38.80
   6   5   2  215.78   34.10
  -6   5  -2  239.68   23.40
   6   5   2  292.27   25.10
  -6   5  -2  248.58   35.90
   6   5   2  222.78   21.40
  -6  -5  -2  240.58   37.00
  -6  -5  -2  230.08   26.50
   6   5   3   30.70   12.20
  -6   5  -3   45.00   13.20
  -6   5  -3   32.50    9.20
  -6   5  -3   43.10   12.80
  -6  -5  -3   45.60   14.40
  -6   5  -4   53.89   13.70
   6   5   4   70.59   14.30
  -6   5  -4   42.90   10.10
  -6   5  -4   47.20   12.40
  -6  -5  -4   42.60   13.60
  -6   5  -5  213.28   25.50
  -6   5  -5  192.88   25.50
  -6   5  -5  196.08   25.70
   6   5   5  226.08   22.20
  -6  -5  -5  209.88   25.60
   6   5   6   81.89   18.00
  -6   5  -6   78.69   13.10
  -6   5  -6   68.59   13.50
  -6   5  -6   85.59   15.20
  -6  -5  -6   59.59   14.60
  -6  -5  -6   60.09   16.50
   6   5   7  -10.60    9.40
  -6   5  -7   -5.20   12.10
  -6   5  -7   -9.30   13.20
  -6   5  -7  -19.10   13.80
  -6  -5  -7   -7.40   13.60
  -6  -5  -7   -1.30   15.60
  -6   5  -8  199.18   26.50
  -6   5  -8  187.88   27.30
  -6   5  -8  237.18   33.10
   6   5   8  154.58   27.50
  -6  -5  -8  175.48   25.70
  -6  -5  -8  207.48   32.30
  -6   5  -9   16.70   14.00
  -6   5  -9    8.30   14.70
   6   5   9  -13.80   14.20
  -6  -5  -9    6.40   18.50
  -6  -5  -9   37.90   15.60
  -6   5 -10   -0.30   14.70
   6   5  10  -20.90   16.70
  -6   5 -10  -20.60   14.70
  -6  -5 -10   -5.20   16.10
  -6  -5 -10   -2.10   17.50
   6   6 -10  173.88   24.20
  -6   6  10  194.48   31.60
  -6  -6  10  136.39   33.60
   6  -6 -10  231.48   29.30
   6  -6 -10  175.88   21.50
  -6   6   9   71.29   15.30
   6   6  -9   51.59   12.80
   6  -6  -9   62.29   11.50
   6  -6  -9   86.99   18.90
   6   6  -8    1.10   10.50
  -6   6   8   -6.40   12.90
   6  -6  -8    1.90    8.60
   6  -6  -8    7.30   16.80
   6   6  -7  -22.70   15.50
   6   6  -7  -26.70    8.60
  -6   6   7  -15.70   12.90
   6  -6  -7    5.50   17.50
   6  -6  -7   -6.20    8.30
   6   6  -6  147.29   28.90
  -6   6   6  161.18   27.90
   6   6  -6  154.48   18.40
   6  -6  -6  130.69   16.30
  -6  -6   6  114.09   22.20
   6   6  -5  -10.30    8.50
  -6   6   5   -8.40   12.00
   6   6  -5    9.40   13.20
   6  -6  -5    8.60    6.70
  -6  -6   5   -8.20   14.50
   6   6  -4   18.90   12.20
   6   6  -4   36.60    9.20
  -6   6   4   25.90   11.40
  -6   6   4   18.20   14.90
   6  -6  -4   39.10    7.00
  -6  -6   4   21.20   14.60
   6   6  -3  181.48   22.40
  -6   6   3  182.28   25.00
  -6   6   3  167.08   25.40
   6   6  -3  147.79   23.30
  -6  -6   3  162.68   24.60
   6   6  -2  147.19   17.50
  -6   6   2   92.99   16.10
  -6   6   2  126.99   22.80
   6   6  -2   88.39   20.20
  -6  -6   2  136.19   22.30
  -6   6   1  165.38   22.60
   6   6  -1  134.69   27.80
  -6   6   1  145.79   23.80
   6   6  -1  176.88   20.50
  -6  -6   1  219.38   38.70
   6   6   0  -10.60    9.50
  -6   6   0   -0.80    8.60
  -6   6   0   -9.80   11.90
   6   6   0   -4.40    8.20
  -6  -6   0  -10.70   13.60
  -6   6  -1  129.49   22.60
   6   6   1  143.09   18.20
   6   6   1  167.08   19.00
  -6   6  -1  121.79   19.50
  -6  -6  -1  144.19   23.40
   6   6   2   49.00   10.80
  -6   6  -2   31.90    9.30
  -6   6  -2   46.40   13.10
   6   6   2   38.10    8.00
  -6  -6  -2   42.40   14.10
   6   6   3   49.60   11.60
  -6   6  -3   41.80   16.00
   6   6   3   77.99   13.40
  -6   6  -3   41.40   10.10
  -6   6  -3   54.19   14.30
  -6  -6  -3   77.49   15.10
   6   6   4  595.94   55.59
  -6   6  -4  593.14   48.30
  -6   6  -4  622.64   49.50
  -6   6  -4  612.54   48.60
   6   6   4  667.83   49.99
  -6  -6  -4  566.64   48.50
  -6   6  -5  -10.40   10.60
   6   6   5    6.40    8.40
  -6   6  -5   -6.50   11.70
  -6   6  -5   -8.30   12.90
  -6  -6  -5    4.70   14.20
  -6   6  -6  354.66   34.90
  -6   6  -6  358.06   34.20
  -6   6  -6  342.27   33.40
   6   6   6  389.06   32.10
  -6  -6  -6  340.17   34.00
  -6   6  -7    6.80   14.10
  -6   6  -7    1.20   14.00
  -6   6  -7    3.60   12.90
   6   6   7   26.60   19.50
  -6  -6  -7    6.10   16.50
  -6  -6  -7   28.30   15.00
   6   6   8   -4.60   11.40
  -6   6  -8   -9.40   14.50
  -6   6  -8   -2.90   13.10
  -6   6  -8   13.90   16.50
  -6  -6  -8    8.30   17.80
  -6  -6  -8   -4.80   14.30
  -6   6  -9    6.20   14.40
   6   6   9   -7.60   13.00
  -6   6  -9   -8.10   19.00
  -6   6  -9   12.90   14.90
  -6  -6  -9    6.20   18.20
  -6  -6  -9  -13.60   15.10
   6   6  10    9.20   15.40
  -6   6 -10   19.70   14.70
  -6   6 -10   18.90   16.00
  -6  -6 -10   15.70   19.70
  -6  -6 -10   10.80   16.30
  -6   7  10  -10.20   15.80
   6   7 -10    4.70   12.10
   6  -7 -10   13.80   18.30
   6  -7 -10    1.60   10.10
   6   7  -9   27.70   11.90
  -6   7   9   26.40   15.10
   6  -7  -9   34.30   18.70
   6  -7  -9   15.50    9.70
  -6   7   8   88.99   16.50
   6   7  -8  115.89   19.20
   6   7  -8   73.29   19.60
   6  -7  -8  101.69   20.60
   6  -7  -8  116.09   21.10
   6   7  -7  -26.60   16.60
  -6   7   7    3.70   13.90
   6   7  -7  -10.80    9.60
   6  -7  -7    8.20   19.00
   6  -7  -7    6.00    8.00
  -6  -7   7  -21.90   15.70
   6   7  -6  -14.40   14.60
  -6   7   6   -6.40   12.30
   6   7  -6  -10.10    9.30
   6  -7  -6   16.10   19.20
   6  -7  -6   -2.20    9.40
  -6  -7   6  -17.90   15.80
   6   7  -5  -30.40   13.20
   6   7  -5  -16.00    8.80
  -6   7   5   -6.70   11.80
  -6  -7   5    0.20   15.60
   6   7  -4   89.69   16.10
   6   7  -4   67.39   13.40
  -6   7   4   65.19   13.60
  -6  -7   4   78.99   16.90
   6   7  -3    3.60    8.80
  -6   7   3   15.80   16.00
  -6   7   3    0.50   10.90
   6   7  -3   13.30   10.80
  -6  -7   3   15.60   17.50
  -6   7   2  444.86   39.70
   6   7  -2  542.75   37.10
  -6   7   2  440.16   41.10
   6   7  -2  483.85   39.90
  -6  -7   2  441.56   41.60
   6   7  -1    4.80    9.10
  -6   7   1   -5.70   14.00
   6   7  -1    0.00    8.80
  -6   7   1   -7.60   10.20
  -6  -7   1   13.20   15.60
  -6   7   0    4.50   15.00
   6   7   0   -1.30    8.70
  -6   7   0    2.30    8.40
   6   7   0  -15.00    9.10
  -6  -7   0   -1.10   15.30
  -6   7  -1   34.50    9.40
   6   7   1   43.50   11.00
   6   7   1   48.80    9.40
  -6   7  -1   46.00   15.60
  -6  -7  -1   62.09   16.00
  -6   7  -2  205.98   23.00
  -6   7  -2  188.28   26.30
   6   7   2  168.68   22.00
   6   7   2  200.88   20.80
  -6  -7  -2  213.28   26.90
  -6   7  -3   10.10    9.60
   6   7   3   10.70   10.80
  -6   7  -3   45.40   15.10
   6   7   3   24.10    8.10
  -6   7  -3  -29.00   24.70
  -6  -7  -3   36.20   14.60
  -6   7  -4   91.69   20.70
  -6   7  -4   77.19   14.90
   6   7   4  118.49   21.50
  -6   7  -4   89.29   17.30
   6   7   4   90.59   16.80
  -6  -7  -4   86.69   17.00
  -6   7  -5  187.38   25.40
   6   7   5  184.38   22.50
   6   7   5  196.78   25.40
  -6   7  -5  190.68   27.20
  -6   7  -5  191.68   25.50
  -6  -7  -5  163.18   26.10
  -6   7  -6   92.09   17.30
  -6   7  -6   49.80   13.90
  -6   7  -6   76.49   14.30
   6   7   6  112.79   21.00
  -6  -7  -6   63.49   17.10
  -6   7  -7   -9.40   15.30
  -6   7  -7  -23.50   13.80
   6   7   7   16.90   11.30
  -6   7  -7   12.20   13.30
  -6  -7  -7    7.40   16.30
   6   7   8   72.89   14.50
  -6   7  -8  106.39   18.80
  -6   7  -8   74.09   18.70
  -6   7  -8   81.99   15.80
  -6  -7  -8   62.79   19.90
  -6  -7  -8   84.19   17.70
  -6   7  -9   -9.90   16.70
   6   7   9   -4.50   13.70
  -6   7  -9   -6.10   18.80
  -6   7  -9  -10.50   14.50
  -6  -7  -9    6.40   15.80
  -6  -7  -9   -8.90   19.40
  -6   8   9   -9.10   16.10
   6   8  -9  -12.00   11.30
   6  -8  -9    7.20    9.10
   6  -8  -9    4.60   18.50
   6   8  -8  -12.70   18.00
   6   8  -8    9.00   11.30
  -6   8   8  -13.50   14.90
   6  -8  -8    0.20   19.30
   6  -8  -8    1.80    8.60
  -6   8   7   -5.30   13.40
   6   8  -7   12.10   16.80
   6   8  -7   -0.30   10.50
  -6  -8   7  -11.70   17.10
   6  -8  -7   30.40   20.00
   6   8  -6  153.88   18.90
   6   8  -6   95.29   19.10
  -6   8   6  148.49   28.90
   6  -8  -6  168.98   31.50
   6   8  -5   38.50   14.10
  -6   8   5   29.50   13.90
   6   8  -5   37.20   10.00
   6  -8  -5   53.79   21.00
  -6  -8   5   56.19   18.00
  -6   8   4   76.79   14.40
   6   8  -4   94.59   16.00
   6   8  -4   55.49   13.60
  -6  -8   4   43.30   18.60
   6   8  -3  121.29   16.90
   6   8  -3   46.90   12.90
  -6   8   3   63.29   13.40
  -6  -8   3   94.39   18.50
  -6   8   2   36.30   11.50
   6   8  -2   28.00   11.50
   6   8  -2   25.70   10.90
  -6  -8   2   32.30   17.40
  -6   8   1   -2.70   16.50
   6   8  -1  -20.00    9.20
   6   8  -1    0.90    9.80
  -6   8   1    9.80    9.90
  -6  -8   1   -2.70   16.10
   6   8   0  183.68   24.10
   6   8   0  163.08   21.90
  -6   8   0  181.88   27.20
  -6   8   0  168.68   22.50
  -6  -8   0  190.98   27.70
  -6   8  -1  353.66   35.50
  -6   8  -1  374.26   31.30
   6   8   1  319.77   31.00
  -6  -8  -1  359.76   35.50
   6   8   2  -13.70   10.20
  -6   8  -2    1.50    9.50
  -6   8  -2   -2.00   15.40
  -6  -8  -2   -6.40   16.30
  -6   8  -3   47.90   17.20
   6   8   3   30.60   13.30
  -6   8  -3   21.20   10.30
  -6   8  -3   40.40   21.80
   6   8   3   58.79   17.00
  -6  -8  -3   41.80   17.30
  -6   8  -4  240.68   29.20
   6   8   4  212.28   24.70
  -6   8  -4  175.18   30.10
  -6   8  -4  213.78   26.00
  -6  -8  -4  205.18   28.80
  -6   8  -5   10.70   13.50
   6   8   5   -7.50   12.80
   6   8   5   -2.20    9.50
  -6   8  -5    2.50   16.80
  -6   8  -5    3.90   11.60
  -6  -8  -5   -1.60   16.50
  -6   8  -6  355.06   37.60
   6   8   6  321.47   35.20
   6   8   6  410.56   33.10
  -6   8  -6  303.37   35.10
  -6  -8  -6  362.86   35.20
  -6   8  -7   96.79   16.90
  -6   8  -7   86.49   17.00
   6   8   7  133.69   24.80
  -6   8  -7  152.88   28.30
  -6  -8  -7  106.09   19.30
  -6   8  -8   27.40   18.80
  -6   8  -8   29.70   15.00
  -6   8  -8   32.30   16.80
  -6  -8  -8   39.80   17.90
   6   9  -8   26.70   11.80
  -6   9   8   16.10   14.40
   6   9  -8   18.10   18.30
   6  -9  -8   47.50   21.90
   6   9  -7  -15.60   16.60
  -6   9   7   -3.70   14.90
   6   9  -7   -3.90   11.00
   6  -9  -7   15.80   21.50
  -6  -9   7  -22.20   18.50
   6   9  -6    3.50   15.30
   6   9  -6    0.00    9.60
  -6   9   6    8.20   14.40
   6  -9  -6   15.50   20.40
  -6  -9   6   -3.10   19.40
  -6   9   5  157.58   29.10
   6   9  -5  157.38   26.90
   6   9  -5  127.19   19.10
   6  -9  -5  122.79   23.90
  -6  -9   5  100.49   21.90
   6   9  -4  138.39   18.50
   6   9  -4  131.89   26.30
  -6   9   4  165.08   28.00
   6  -9  -4  122.59   24.20
  -6  -9   4  120.39   22.10
  -6   9   3   32.90   12.60
   6   9  -3   42.20   12.90
   6   9  -3   52.19   10.60
  -6  -9   3   50.19   18.80
  -6   9   2   26.90   12.00
   6   9  -2   52.99   10.20
   6   9  -2   39.10   11.60
  -6  -9   2   23.60   18.00
  -6   9   1   26.30   10.80
   6   9  -1   53.59   11.40
  -6  -9   1   59.19   18.80
  -6   9   0   -7.10   10.10
   6   9   0   -3.30   10.20
   6   9   0  -25.50   10.00
  -6  -9   0   -6.60   17.40
  -6   9  -1  106.89   19.20
  -6   9  -1   56.49   11.60
   6   9   1  113.49   19.30
   6   9   1   50.39   11.60
  -6  -9  -1   67.89   18.50
   6   9   2    9.70    9.90
   6   9   2   -6.40   11.00
  -6   9  -2   -3.10   10.30
  -6   9  -2   17.10   18.20
  -6  -9  -2   -9.60   16.60
  -6   9  -3   57.29   12.60
   6   9   3  125.19   20.00
   6   9   3   86.89   15.10
  -6   9  -3  139.59   28.00
  -6  -9  -3  104.99   19.30
  -6   9  -4   15.00   11.60
  -6   9  -4   24.20   15.20
   6   9   4   11.10    9.50
  -6   9  -4   23.70   17.90
   6   9   4   19.20   11.70
  -6  -9  -4    9.50   18.40
   6   9   5  278.67   28.20
   6   9   5  263.27   29.20
  -6   9  -5  283.17   30.60
  -6   9  -5  345.77   33.30
  -6   9  -5  282.97   35.10
  -6  -9  -5  272.07   33.20
  -6   9  -6   20.30   15.30
  -6   9  -6   18.60   13.40
  -6   9  -6    2.80   18.50
   6   9   6   -0.20   11.40
   6   9   6  -20.10   14.00
  -6  -9  -6   16.30   18.50
   6   9   7    5.30   12.30
  -6   9  -7    6.10   19.20
  -6   9  -7    3.80   14.80
  -6   9  -7  -11.60   14.50
   6   9   7   16.90   15.70
  -6  -9  -7    8.30   18.40
   6  10  -7   76.69   13.90
   6  10  -6   -3.90   15.90
  -6  10   6  -13.90   14.10
   6  10  -6   -5.10   11.10
  -6 -10   6   -5.80   20.20
   6 -10  -6   15.90   22.10
  -6  10   5    1.80   14.30
   6  10  -5   -7.70   14.20
   6  10  -5   10.40   10.10
  -6 -10   5   -4.50   19.90
   6 -10  -5    3.60   22.40
  -6  10   4   -5.60   13.10
   6  10  -4    2.20   13.40
   6  10  -4    8.50    9.40
   6 -10  -4   15.10   21.50
  -6 -10   4  -12.00   19.20
   6  10  -3  591.54   47.40
  -6  10   3  590.74   47.90
   6  10  -3  601.84   43.60
  -6 -10   3  519.55   50.19
   6 -10  -3  504.95   53.09
   6  10  -2   12.20   10.60
   6  10  -2   13.40   12.00
  -6  10   2   20.20   11.50
  -6 -10   2    2.90   19.90
   6 -10  -2   -2.20   20.00
   6  10  -1    4.00   11.30
   6  10  -1   -3.60   10.10
  -6  10   1   -4.60   10.60
  -6 -10   1   -8.00   19.60
  -6  10   0   94.19   22.60
   6  10   0  152.18   23.20
  -6 -10   0   95.19   22.60
   6  10   1   12.90   10.60
  -6  10  -1   19.80   10.90
   6  10   1    1.60   18.40
  -6 -10  -1   19.30   18.80
   6  10   2   -2.20   10.60
  -6  10  -2  -16.00   10.70
  -6 -10  -2   -8.60   18.10
   6  10   3  141.69   25.20
   6  10   3  188.28   23.80
  -6  10  -3  175.08   25.60
  -6 -10  -3  232.28   30.50
  -6  10  -4    8.40   11.80
   6  10   4   19.70   11.10
   6  10   4   24.10   11.80
  -6  10  -4    8.40   16.80
  -6 -10  -4    8.90   18.70
  -6  10  -5  -11.10   20.00
   6  10   5   -7.80   12.30
  -6  10  -5   -7.50   16.90
  -6  10  -5    9.80   12.40
   6  10   5   19.20   10.50
  -6 -10  -5  -14.60   19.70
  -6  10  -6    5.60   13.40
  -6  10  -6   26.00   21.00
   6  10   6   28.10   11.60
  -6  10  -6   32.60   16.90
   6  10   6   34.10   13.80
  -6 -10  -6   14.60   19.50
   6  11  -5  286.57   34.00
  -6  11   5  284.47   34.60
   6  11  -5  294.97   27.20
  -6 -11   5  194.48   35.60
   6 -11  -5  284.37   38.70
   6  11  -4   28.10   14.40
   6  11  -4    6.70   10.50
  -6  11   4   12.30   14.20
   6 -11  -4   43.70   23.70
  -6 -11   4    7.10   21.60
   6  11  -3   10.20   13.10
  -6  11   3   -9.60   12.10
   6  11  -3   -1.10   10.30
   6 -11  -3    4.90   22.50
  -6 -11   3  -28.60   21.10
   6  11  -2  124.59   23.70
  -6  11   2   79.29   14.30
   6  11  -2   97.09   18.40
   6 -11  -2  101.19   25.50
  -6 -11   2   75.99   23.60
   6  11  -1  154.38   24.10
  -6  11   1  126.99   23.90
   6  11  -1  123.59   20.80
  -6 -11   1   89.89   24.40
   6 -11  -1  105.89   26.40
   6  11   0   -9.80   11.60
  -6  11   0   -1.80   11.10
   6  11   0   -3.50   12.20
   6 -11   0    4.50   21.90
  -6 -11   0    1.00   20.70
   6  11   1  109.59   21.60
   6  11   1   59.59   17.20
  -6  11  -1  100.59   22.90
  -6 -11  -1   70.39   23.40
   6  11   2  276.07   27.40
  -6  11  -2  231.38   27.70
   6  11   2  192.18   30.10
  -6 -11  -2  216.78   33.80
   6  11   3   -1.60   11.10
   6  11   3  -16.80   12.30
  -6  11  -3  -11.20   11.70
  -6 -11  -3   13.20   19.60
   6  11   4   -0.10   11.70
  -6  11  -4  -20.70   12.10
   6  11   4  -33.80   12.30
  -6 -11  -4   -9.10   20.60
   6  12  -1   47.90   11.50
   6  12   0  224.38   23.60
   6 -12   0  115.49   29.30
  -7   0  12   54.19   15.40
   7   0 -11   -6.60   11.60
  -7   0  11    7.40   13.60
   7   0 -10  488.35   38.50
  -7   0  10  434.16   41.30
  -7   0   9    0.80   11.80
   7   0  -9   -5.20   10.50
   7   0  -8  102.99   18.10
  -7   0   8  115.09   23.40
   7   0  -7   -5.90    8.70
  -7   0   7   -5.20   10.50
  -7   0   6  114.09   15.90
   7   0  -6  129.89   17.10
  -7   0   5  -12.70   12.50
  -7   0   5   -4.00    8.00
   7   0  -5   17.40   12.60
  -7   0   5   -1.90    9.70
  -7   0   4   96.99   14.70
   7   0  -4   57.29    9.90
  -7   0   4   61.39   16.10
   7   0  -4   70.99   14.20
  -7   0   3   -6.00    9.00
   7   0  -3    0.60   13.40
  -7   0   3   -4.50   12.50
   7   0  -3  -10.50    8.50
  -7   0   3   -5.20    9.10
  -7   0   2  459.35   45.50
   7   0  -2  509.65   39.30
  -7   0   2  514.65   39.10
   7   0  -2  544.95   45.70
   7   0  -1  -11.90   12.80
   7   0  -1  -11.20    9.90
  -7   0   1  -23.60   13.20
  -7   0   1   -4.20   13.20
   7   0   0 2184.58  155.68
  -7   0   0 2128.89  152.88
   7   0   0 2207.88  152.78
  -7   0   0 2195.88  155.58
   7   0   1   -3.00   14.80
   7   0   1  -17.70   10.30
  -7   0  -1    7.60   11.40
  -7   0  -1   -8.50   16.00
   7   0   2  574.44   52.19
  -7   0  -2  583.14   52.39
  -7   0  -2  538.55   43.40
   7   0   2  543.05   45.40
   7   0   3  -16.40   16.10
  -7   0  -3   -1.60   11.70
  -7   0  -4  715.03   64.59
  -7   0  -4  695.93   53.19
   7   0   4  647.34   61.59
  -7   0  -4  759.62   57.89
  -7   0  -5    5.40   14.50
  -7   0  -5   -7.50   13.80
  -7   0  -6  103.29   20.40
  -7   0  -6  100.99   16.40
  -7   0  -7    1.60   12.20
  -7   0  -7  -11.20   13.30
  -7   0  -8    5.70   13.00
  -7   0  -8  -11.00   13.70
   7   0   9  -22.30   18.10
  -7   0  -9   -8.30   15.50
  -7   0  -9    3.70   13.60
  -7   0 -10  174.28   26.80
  -7   0 -10  172.78   31.10
   7   0  10  250.97   33.10
  -7   0 -11   -8.90   14.60
  -7   0 -11   -4.30   15.80
   7   0  11    7.20   18.60
  -7   1  11   42.10   13.80
   7   1 -11   24.00   11.90
  -7  -1  11   33.70   14.70
   7  -1 -11   38.60   12.10
   7   1 -10   99.49   19.80
  -7   1  10   77.49   15.70
   7  -1 -10   73.39   13.30
  -7  -1  10  148.29   27.70
  -7   1   9    9.90   12.20
   7   1  -9    1.20   10.10
   7  -1  -9    0.20   10.30
  -7  -1   9   -8.80   13.40
  -7   1   8  306.77   33.80
   7   1  -8  327.47   28.60
   7  -1  -8  331.47   29.10
  -7  -1   8  370.16   35.00
  -7   1   7    0.80    9.60
  -7   1   7    0.40   10.80
   7   1  -7   -5.80    8.80
  -7  -1   7   -9.00   12.50
   7  -1  -7  -12.60    8.90
   7   1  -6   84.09   17.20
  -7   1   6  101.99   16.10
  -7   1   6  130.79   22.00
   7  -1  -6   93.69   16.30
  -7  -1   6  108.39   14.80
  -7   1   5  253.87   31.40
   7   1  -5  253.07   24.80
   7   1  -5  314.77   32.10
  -7   1   5  314.07   28.30
  -7   1   5  270.47   24.40
  -7  -1   5  248.88   23.80
   7  -1  -5  247.98   24.40
  -7  -1   5  309.07   33.50
   7  -1  -5  311.57   32.20
  -7  -1   5  243.58   30.30
  -7   1   4  -10.10   11.80
  -7   1   4    4.90    8.80
   7   1  -4    6.30   12.60
   7   1  -4   -5.50    8.10
  -7  -1   4   13.50   11.10
  -7  -1   4   -5.70   13.30
   7  -1  -4    5.40    8.00
   7  -1  -4    2.10   12.60
  -7  -1   4    3.10    8.50
   7   1  -3   75.39   11.20
  -7   1   3   92.39   16.20
   7   1  -3   85.79   15.30
  -7   1   3   48.90   14.40
  -7   1   3   85.29   19.60
   7  -1  -3  100.19   15.60
   7  -1  -3   71.49   11.00
  -7  -1   3   96.49   16.10
  -7  -1   3   63.49   11.80
  -7  -1   3   76.69   14.80
  -7   1   2  350.06   31.10
  -7   1   2  309.17   37.00
  -7   1   2  362.96   30.40
   7   1  -2  377.16   29.80
   7   1  -2  380.96   37.20
   7  -1  -2  349.47   30.00
  -7  -1   2  327.27   38.10
  -7  -1   2  372.56   30.00
  -7  -1   2  296.47   29.90
   7  -1  -2  372.26   36.70
  -7   1   1  651.93   52.29
   7   1  -1  626.04   46.00
   7   1  -1  613.44   51.19
  -7   1   1  577.74   47.00
  -7  -1   1  575.34   51.39
  -7  -1   1  581.54   48.20
   7  -1  -1  604.14   50.39
   7   1   0  255.37   34.50
  -7   1   0  227.18   33.90
   7   1   0  233.58   23.40
  -7   1   0  158.78   22.30
   7  -1   0  232.68   35.80
  -7  -1   0  256.97   34.20
   7   1   1   24.90   15.10
   7   1   1   22.00   10.90
  -7   1  -1   46.70   11.00
  -7   1  -1   29.90   16.20
  -7  -1  -1   38.10   12.60
   7  -1   1   36.10   16.10
  -7  -1  -1   26.00   16.80
   7  -1   1   21.70   10.90
  -7   1  -2  429.66   46.30
   7   1   2  492.65   46.10
  -7   1  -2  390.96   34.70
   7   1   2  388.76   37.50
   7  -1   2  405.06   44.90
  -7  -1  -2  459.75   36.20
  -7  -1  -2  447.86   46.30
  -7   1  -3   21.90   21.20
   7   1   3    5.60   16.30
  -7   1  -3    5.70   10.30
   7  -1   3   18.80   16.20
  -7  -1  -3   21.30   22.70
  -7  -1  -3    6.80   11.70
   7   1   4   12.70   16.40
  -7   1  -4   23.40   18.70
  -7   1  -4    9.50   11.40
  -7  -1  -4   32.90   19.10
  -7  -1  -4   23.00   14.30
   7  -1   4   19.20   16.60
  -7  -1  -4   39.00   13.50
  -7   1  -5  308.07   31.60
  -7   1  -5  305.87   36.30
  -7  -1  -5  236.18   28.20
  -7  -1  -5  312.87   33.70
  -7   1  -6  400.16   34.80
  -7   1  -6  435.26   38.70
  -7  -1  -6  428.46   39.90
  -7  -1  -6  409.16   36.20
  -7   1  -7   31.00   14.40
  -7   1  -7   36.90   12.60
  -7  -1  -7   45.40   13.80
   7  -1   7   43.40   19.80
  -7  -1  -7   29.70   14.40
  -7   1  -8   71.99   15.40
  -7   1  -8   60.19   13.90
   7   1   8   70.19   14.10
  -7  -1  -8   58.99   15.50
  -7  -1  -8   64.69   16.20
  -7   1  -9  113.79   21.80
  -7   1  -9  104.89   18.10
   7   1   9  163.58   27.20
  -7  -1  -9   97.99   18.30
  -7  -1  -9  102.29   17.80
  -7   1 -10   38.40   15.80
  -7   1 -10   17.40   14.10
   7   1  10   73.69   16.50
  -7  -1 -10   29.40   15.90
   7  -1  10  -27.30   17.70
  -7  -1 -10   38.60   15.80
  -7   1 -11   19.40   14.50
   7   1  11   47.10   17.30
  -7   1 -11   -1.90   15.60
   7  -1  11   45.20   19.10
  -7  -1 -11   18.90   16.00
  -7  -1 -11   10.70   17.50
  -7   2  11   26.80   13.40
   7   2 -11   22.70   13.10
  -7  -2  11   33.20   17.00
   7  -2 -11   35.80   12.80
   7   2 -10    6.60   12.10
  -7   2  10   27.30   12.70
  -7  -2  10   19.70   16.60
   7  -2 -10   13.10   12.00
   7   2  -9  332.67   29.60
  -7   2   9  309.47   33.10
  -7  -2   9  343.67   37.90
   7  -2  -9  325.07   29.50
  -7   2   8   15.20   11.90
   7   2  -8    0.00    9.60
   7  -2  -8    8.60    9.40
  -7  -2   8   14.80   16.20
  -7   2   7   78.99   12.60
   7   2  -7   22.70   10.00
  -7   2   7   44.10   11.90
  -7  -2   7   49.10   14.40
   7  -2  -7   28.30    9.90
  -7   2   6   75.79   13.50
  -7   2   6   88.59   17.40
   7   2  -6   92.19   16.70
  -7  -2   6  143.69   26.50
  -7  -2   6   94.19   14.10
   7  -2  -6  108.59   16.20
   7   2  -5  229.78   28.80
   7   2  -5  161.48   19.90
  -7   2   5  178.18   25.00
  -7   2   5  144.89   21.70
  -7  -2   5  182.08   27.30
  -7  -2   5  167.88   18.60
  -7  -2   5  176.58   30.30
   7  -2  -5  158.98   19.00
   7   2  -4    8.30   12.70
  -7   2   4    4.60   10.80
  -7   2   4    5.70   11.80
  -7  -2   4  -13.30   13.30
  -7  -2   4   19.40    9.80
   7  -2  -4    7.10    8.10
   7  -2  -4   10.80   12.40
  -7  -2   4   14.40   14.90
   7   2  -3  402.16   36.50
  -7   2   3  341.77   28.80
   7   2  -3  314.27   28.40
  -7   2   3  357.76   31.40
  -7   2   3  278.47   35.00
  -7  -2   3  336.57   28.60
   7  -2  -3  294.97   28.10
  -7  -2   3  303.17   33.50
   7  -2  -3  371.26   35.70
   7   2  -2  604.54   50.89
  -7   2   2  586.14   45.30
  -7   2   2  520.65   50.59
  -7   2   2  622.54   46.00
   7   2  -2  607.74   45.30
  -7  -2   2  621.24   47.80
   7  -2  -2  576.14   46.80
  -7  -2   2  576.14   51.49
  -7  -2   2  652.53   45.70
   7  -2  -2  597.94   50.19
   7   2  -1  177.48   19.60
  -7   2   1  171.28   20.20
  -7   2   1  177.58   32.10
   7   2  -1  171.38   30.80
  -7   2   1  104.29   19.70
   7  -2  -1  200.68   27.70
   7  -2  -1  179.88   19.90
  -7  -2   1  113.19   17.90
  -7  -2   1  150.38   20.40
   7   2   0  104.39   18.10
  -7   2   0   88.89   17.70
   7   2   0   75.79   16.30
  -7   2   0   47.70   16.60
  -7  -2   0   85.99   14.00
   7  -2   0   89.79   12.70
   7  -2   0   93.69   16.90
  -7  -2   0   78.89   16.10
   7   2   1 1053.89   74.69
  -7   2  -1 1028.10   74.19
   7   2   1 1120.99   79.99
  -7   2  -1 1025.30   80.09
  -7  -2  -1 1010.50   79.99
   7  -2   1 1015.70   75.29
  -7  -2  -1 1041.80   74.89
   7  -2   1  923.31   79.39
   7   2   2   -2.50   16.00
   7   2   2    6.10   12.40
  -7   2  -2   15.20   16.90
  -7   2  -2    7.30   11.20
  -7  -2  -2   -1.80   16.70
  -7  -2  -2    4.70   11.80
   7  -2   2   26.10   15.30
  -7   2  -3  291.37   31.90
   7   2   3  213.08   37.30
  -7   2  -3  264.57   26.20
  -7   2  -3  259.07   40.80
  -7  -2  -3  264.47   26.80
  -7  -2  -3  276.37   40.40
   7  -2   3  219.38   38.30
   7   2   4  265.97   39.70
  -7   2  -4  288.47   42.80
  -7   2  -4  289.17   27.50
   7  -2   4  287.77   40.80
  -7  -2  -4  263.87   28.10
  -7  -2  -4  282.77   43.80
  -7   2  -5   22.00   11.60
  -7   2  -5   42.60   14.00
  -7  -2  -5    7.50   15.10
  -7  -2  -5   23.40   12.60
  -7   2  -6   72.59   13.60
  -7   2  -6   69.59   14.50
  -7  -2  -6   57.79   15.70
  -7  -2  -6   68.39   14.10
  -7   2  -7  286.07   31.50
  -7   2  -7  256.37   28.00
  -7  -2  -7  321.07   33.40
  -7  -2  -7  258.57   28.30
   7   2   8   55.19   14.20
  -7   2  -8   65.29   15.20
  -7   2  -8   45.30   13.90
  -7  -2  -8   69.19   17.20
  -7  -2  -8   48.90   14.90
   7   2   9   19.50   15.10
  -7   2  -9    3.60   14.20
  -7   2  -9   10.80   13.00
  -7  -2  -9    9.00   14.70
  -7  -2  -9  -11.90   15.30
  -7   2 -10   52.29   16.60
   7   2  10   72.09   17.50
  -7   2 -10   37.10   13.80
  -7  -2 -10   50.79   17.10
  -7  -2 -10   59.29   18.60
   7   2  11  -26.00   17.40
  -7   2 -11   -6.80   13.60
   7  -2  11    0.30   21.10
  -7  -2 -11   -1.60   16.60
   7   3 -11  204.38   24.70
  -7   3  11  148.79   27.20
   7  -3 -11  190.68   25.60
  -7  -3  11  187.98   36.40
   7   3 -10   62.39   12.70
  -7   3  10   52.39   13.10
  -7  -3  10   33.70   18.20
   7  -3 -10   62.59   12.50
   7   3  -9    3.90    9.90
  -7   3   9   -8.40   12.20
  -7  -3   9    9.80   16.10
   7  -3  -9   40.90   19.80
   7  -3  -9    4.30   10.30
   7   3  -8   -2.90    9.80
  -7   3   8    3.40   12.10
   7  -3  -8   -5.40    9.40
  -7  -3   8    4.20   17.00
   7   3  -7  160.98   19.70
  -7   3   7  131.09   26.40
  -7   3   7  131.29   22.40
  -7  -3   7  207.38   34.40
   7  -3  -7  158.78   18.90
  -7   3   6   14.60   11.90
   7   3  -6   -5.50    8.30
  -7   3   6  -10.60   11.70
  -7  -3   6    6.60   16.70
  -7   3   5   94.09   18.50
   7   3  -5   63.59   11.00
  -7  -3   5   76.39   18.20
  -7  -3   5   99.39   16.60
   7  -3  -5  103.09   16.00
  -7   3   4   -3.80   10.20
  -7   3   4   -7.20   10.50
   7   3  -4   11.80   12.60
   7   3  -4  -11.00    7.70
  -7   3   4  -12.80   10.60
  -7  -3   4  -16.40   10.10
  -7  -3   4  -26.30   13.60
   7  -3  -4    6.80   11.70
   7  -3  -4  -15.50    7.50
  -7   3   3  -14.20   11.90
   7   3  -3    4.40   13.40
   7   3  -3   -9.20    8.90
  -7   3   3   13.40   10.60
  -7   3   3    3.10   10.90
  -7  -3   3   14.60   14.20
   7  -3  -3   -2.00   13.50
   7  -3  -3   19.50   12.60
  -7  -3   3    5.00   11.20
  -7   3   2   43.60   13.50
  -7   3   2   48.60   11.60
   7   3  -2   32.30   14.80
   7   3  -2   40.10   10.80
  -7   3   2   25.40   10.50
  -7  -3   2   19.00   15.00
   7  -3  -2   43.20    9.10
   7  -3  -2   70.09   13.80
  -7  -3   2   54.29   13.20
   7   3  -1  238.18   23.90
   7   3  -1  222.78   33.30
  -7   3   1  242.28   23.90
  -7   3   1  226.58   23.80
  -7   3   1  193.88   33.70
   7  -3  -1  211.78   23.00
  -7  -3   1  207.08   32.10
  -7  -3   1  227.88   24.50
   7  -3  -1  267.37   30.00
   7   3   0  215.68   33.80
  -7   3   0  216.48   23.20
  -7   3   0  216.68   35.40
  -7   3   0  166.98   21.00
   7   3   0  225.78   22.50
  -7  -3   0  190.48   33.60
   7  -3   0  206.58   23.00
  -7  -3   0  220.58   24.20
   7  -3   0  314.47   33.90
  -7   3  -1  458.65   36.30
  -7   3  -1  494.75   47.80
   7   3   1  466.15   38.70
  -7   3  -1  475.25   38.00
   7   3   1  441.06   46.30
  -7  -3  -1  474.95   46.80
   7  -3   1  587.34   46.20
  -7  -3  -1  474.85   38.90
  -7   3  -2   17.10   16.80
  -7   3  -2   -8.90   10.30
   7   3   2   -7.00   15.20
   7   3   2   -0.30   10.80
  -7   3  -2   -5.70    6.40
   7  -3   2   37.60   14.40
  -7  -3  -2  -13.90   27.90
  -7  -3  -2   -6.40   11.90
   7   3   3  289.37   40.10
  -7   3  -3  339.87   34.00
   7   3   3  309.17   34.00
  -7   3  -3  287.67   26.00
  -7   3  -3  267.27   42.00
  -7   3  -3  305.27   30.60
  -7  -3  -3  303.07   28.70
   7  -3   3  336.37   39.00
  -7  -3  -3  294.17   41.80
  -7   3  -4  426.86   35.80
  -7   3  -4  385.36   51.69
  -7  -3  -4  449.46   36.40
  -7   3  -5  263.57   27.80
  -7   3  -5  289.87   31.20
  -7   3  -5  252.17   26.30
  -7  -3  -5  259.27   33.10
  -7  -3  -5  267.87   27.60
  -7   3  -6  137.29   25.00
  -7   3  -6  104.19   24.30
  -7   3  -6  114.59   20.40
  -7  -3  -6  152.78   29.20
  -7  -3  -6  123.59   22.10
  -7   3  -7   -1.00   11.80
  -7   3  -7   -3.10   12.40
  -7  -3  -7  -15.70   15.80
  -7  -3  -7   -6.90   13.30
  -7   3  -8   -1.00   13.30
  -7   3  -8   -5.50   12.30
  -7  -3  -8    5.50   14.40
  -7  -3  -8   -7.80   15.60
   7   3   9   31.30   26.60
  -7   3  -9   82.09   15.30
  -7   3  -9   62.99   15.70
   7  -3   9   27.90   24.30
  -7  -3  -9   72.59   17.10
  -7  -3  -9   66.09   17.70
  -7   3 -10   50.39   13.80
   7   3  10   11.20   19.10
  -7   3 -10   37.50   15.10
  -7  -3 -10   43.10   18.60
  -7  -3 -10   33.60   16.30
   7   4 -11   -1.40   12.00
  -7   4  11   -3.70   14.80
   7  -4 -11    4.10   11.80
  -7  -4  11  -20.50   19.10
   7  -4 -11   29.00   14.30
  -7   4  10   27.90   14.60
   7   4 -10   29.80   12.50
  -7  -4  10   34.40   20.70
   7  -4 -10   46.20   15.20
   7  -4 -10   34.50   12.00
  -7   4   9   48.70   15.00
   7   4  -9   56.69   11.70
  -7  -4   9   24.80   21.70
   7  -4  -9   48.30   11.50
   7  -4  -9   38.30   16.80
   7   4  -8   13.50    9.50
  -7   4   8   19.80   13.60
  -7  -4   8   25.40   21.00
   7  -4  -8   34.80   10.00
  -7   4   7   16.00   12.90
   7   4  -7   10.10    9.20
   7  -4  -7   22.10    9.00
  -7  -4   7   12.50   21.40
  -7   4   6  401.26   35.20
   7   4  -6  388.16   30.10
  -7   4   6  354.16   33.40
  -7  -4   6  280.47   30.40
   7  -4  -6  397.46   30.00
   7   4  -5  114.59   17.20
  -7   4   5   89.49   15.10
  -7   4   5  116.69   24.20
   7  -4  -5   75.89   14.90
  -7  -4   5   92.59   18.10
   7   4  -4   12.30    8.20
  -7   4   4    6.60   11.60
  -7   4   4   16.80   11.90
  -7  -4   4   30.50   12.40
   7  -4  -4   25.20    8.80
  -7   4   3  160.78   25.10
  -7   4   3  100.69   16.40
  -7   4   3  154.58   20.50
   7   4  -3  134.89   22.90
   7   4  -3  155.88   27.90
   7   4  -3  151.78   26.20
  -7  -4   3  135.99   30.00
   7  -4  -3  143.39   17.10
  -7  -4   3  110.49   20.60
  -7   4   2  -11.00   12.80
  -7   4   2   -3.40    9.00
  -7   4   2    8.40   11.60
   7   4  -2   -6.70    9.80
   7   4  -2   -2.00   13.60
   7   4  -2   -2.30    9.40
   7  -4  -2   25.50   12.80
   7  -4  -2    5.90    8.40
  -7  -4   2   -4.20   16.60
  -7  -4   2   -4.10   12.20
  -7   4   1   37.70    9.10
   7   4  -1   29.80    8.60
   7   4  -1   22.40   14.30
  -7   4   1   25.70   15.10
  -7   4   1   49.10   12.20
   7   4  -1   50.99   10.50
  -7  -4   1   27.00   15.60
  -7  -4   1   54.99   13.40
  -7   4   0  -17.70   14.30
   7   4   0   -2.40   13.40
  -7   4   0   -5.50    8.00
  -7   4   0   -6.60   11.80
   7   4   0   11.40    9.80
  -7  -4   0   -2.50   12.50
   7  -4   0   32.60    9.60
  -7  -4   0  -20.90   14.60
   7   4   1  290.57   26.70
   7   4   1  234.28   36.20
  -7   4  -1  257.27   24.20
  -7   4  -1  254.87   37.90
  -7  -4  -1  243.38   43.80
   7  -4   1  304.57   27.60
   7   4   2  -12.80   14.20
  -7   4  -2  -15.20   11.00
  -7   4  -2   18.10   16.00
  -7   4  -2  -12.70    7.10
   7   4   2  -16.00   10.60
  -7  -4  -2    2.20   12.20
  -7  -4  -2  -10.20   17.30
  -7   4  -3  224.68   29.40
   7   4   3  258.67   33.60
  -7   4  -3  209.58   22.30
  -7   4  -3  228.48   24.20
  -7  -4  -3  206.78   25.90
  -7   4  -4  312.67   28.70
  -7   4  -4  262.87   28.80
  -7   4  -4  336.47   41.00
  -7  -4  -4  320.77   29.80
  -7   4  -5   26.00   13.80
  -7   4  -5   39.60   10.40
  -7   4  -5   20.60   12.10
  -7  -4  -5   27.70   14.20
  -7   4  -6    9.60   13.40
  -7   4  -6   34.20   12.20
  -7   4  -6   18.80   12.80
  -7  -4  -6    3.00   13.40
  -7  -4  -6   20.90   15.90
  -7   4  -7  340.97   31.30
  -7   4  -7  349.77   42.30
  -7   4  -7  338.37   34.50
  -7  -4  -7  304.67   32.60
  -7  -4  -7  365.56   38.50
  -7   4  -8    9.80   12.90
   7   4   8    0.10   12.20
  -7   4  -8   16.40   14.20
  -7  -4  -8    1.00   14.70
  -7  -4  -8   25.80   18.00
   7   4   9   17.30   15.30
  -7   4  -9   43.10   15.30
  -7   4  -9   29.60   13.40
  -7  -4  -9   34.50   19.50
  -7  -4  -9   36.60   16.00
  -7   4 -10    5.30   13.70
  -7   4 -10   12.10   15.30
  -7  -4 -10    8.10   18.50
  -7  -4 -10  -18.90   16.00
   7   5 -10   -4.00   11.10
  -7   5  10  -11.40   13.80
   7  -5 -10   16.80   15.80
   7  -5 -10  -12.10   10.90
  -7  -5  10  -16.90   23.70
   7   5  -9   -4.40   10.40
  -7   5   9   -7.80   13.10
   7  -5  -9   12.70   17.10
  -7  -5   9  -33.20   24.60
   7  -5  -9   -0.40   10.40
   7   5  -8   60.69   11.60
  -7   5   8   65.79   14.90
   7  -5  -8   95.59   19.50
   7  -5  -8   65.69   11.30
  -7  -5   8   63.19   26.70
  -7   5   7   -6.70   13.00
   7   5  -7  -16.60    9.30
   7  -5  -7  -12.20    8.30
   7   5  -6    1.80    9.40
  -7   5   6  -21.30   12.10
  -7  -5   6  -14.80   11.70
   7  -5  -6    5.80    7.60
   7   5  -5  169.28   29.50
  -7   5   5  172.98   25.10
  -7   5   5  198.38   28.80
   7   5  -5  228.18   21.10
   7  -5  -5  202.18   19.20
  -7  -5   5  136.79   25.50
   7   5  -4  404.26   36.20
   7   5  -4  416.46   31.30
  -7   5   4  342.67   34.50
  -7   5   4  451.15   37.20
  -7  -5   4  350.86   33.90
   7  -5  -4  343.87   30.80
   7   5  -3   77.69   13.70
  -7   5   3  134.09   21.00
  -7  -5   3  138.69   21.60
   7  -5  -3  125.59   15.50
   7   5  -2  157.88   22.70
  -7   5   2  182.28   24.70
  -7   5   2  171.58   23.90
  -7  -5   2  155.58   23.60
   7  -5  -2  217.68   19.90
   7   5  -1  210.18   23.40
   7   5  -1  201.68   23.30
  -7   5   1  217.88   25.40
   7   5  -1  183.28   33.00
  -7   5   1  235.68   24.80
   7  -5  -1  286.57   21.80
  -7  -5   1  239.28   26.30
  -7  -5   1  194.28   33.50
   7   5   0   51.49   10.80
   7   5   0   16.30   14.70
   7   5   0   41.90    8.80
  -7   5   0   54.29   12.40
  -7   5   0   41.90    9.00
  -7  -5   0   62.59   27.10
  -7  -5   0   45.90   14.00
   7   5   1   -6.60    9.80
  -7   5  -1   -9.30   12.50
  -7   5  -1   -6.20    7.80
  -7  -5  -1  -18.80   13.00
   7   5   2   44.50   13.90
  -7   5  -2   47.00   13.40
  -7   5  -2   36.30    8.90
  -7  -5  -2   25.90   13.20
  -7   5  -3   17.50   13.10
  -7   5  -3   14.70    8.90
  -7   5  -3   -0.40   13.80
   7   5   3   11.90   11.40
  -7  -5  -3   41.40   14.00
  -7   5  -4  174.08   31.80
   7   5   4  206.68   26.50
  -7   5  -4  157.78   24.20
  -7   5  -4  196.08   22.40
  -7  -5  -4  161.38   24.30
  -7   5  -5    6.30   12.80
  -7   5  -5    4.70   10.50
  -7   5  -5   16.30   13.70
  -7  -5  -5    5.10   13.30
  -7   5  -6   47.50   14.50
  -7   5  -6   28.80   12.90
   7   5   6   49.80   11.50
  -7   5  -6   40.60   14.20
  -7  -5  -6   35.10   14.30
   7   5   7   87.19   19.70
  -7   5  -7   56.99   15.70
  -7   5  -7   56.39   14.80
  -7   5  -7   31.70   14.80
  -7  -5  -7   27.10   17.50
  -7  -5  -7   50.99   14.90
   7   5   8   73.69   14.20
  -7   5  -8  143.29   32.40
  -7   5  -8   54.79   16.10
  -7   5  -8   80.69   16.30
  -7  -5  -8   74.19   20.00
  -7  -5  -8  104.19   16.90
   7   5   9   48.40   14.40
  -7   5  -9   42.30   15.30
  -7   5  -9   53.09   16.30
  -7  -5  -9    4.90   16.10
  -7  -5  -9   32.90   19.30
   7   5  10  -18.10   16.20
  -7   5 -10   -4.80   15.70
  -7   5 -10    7.80   15.70
  -7  -5 -10   25.30   16.50
  -7  -5 -10   11.10   20.40
  -7   6  10  163.48   31.40
   7   6 -10  165.78   23.20
  -7  -6  10  108.39   30.90
   7  -6 -10  149.39   21.90
   7  -6 -10  225.28   29.30
   7   6  -9   13.70   11.60
  -7   6   9   10.50   14.20
   7  -6  -9   24.60   18.50
   7  -6  -9   27.30   10.60
  -7   6   8   21.20   14.80
   7   6  -8   22.10   10.50
   7  -6  -8   36.20    9.90
   7  -6  -8   40.00   19.30
   7   6  -7  -25.60    9.70
  -7   6   7  -15.70   13.50
  -7  -6   7  -17.20   13.20
   7  -6  -7  -13.70   14.70
  -7   6   6  307.27   34.00
   7   6  -6  261.27   34.70
   7   6  -6  290.47   24.90
   7  -6  -6  250.37   23.30
  -7  -6   6  210.28   28.50
  -7   6   5   13.70   12.70
   7   6  -5    0.60   14.00
   7   6  -5    7.90    9.30
  -7   6   5   26.80   15.50
  -7  -6   5   15.10   13.80
   7  -6  -5    2.20    9.10
  -7   6   4   -1.40   11.50
   7   6  -4    7.10    9.70
  -7   6   4   23.80   14.40
   7   6  -4    8.80   12.60
  -7  -6   4   14.70   14.00
   7  -6  -4    8.40    7.00
  -7   6   3   59.19   15.50
  -7   6   3   24.20   11.90
   7   6  -3   38.60    9.70
   7   6  -3   22.70   11.90
   7  -6  -3   46.80    7.80
  -7  -6   3   48.90   15.20
   7   6  -2  162.38   19.90
  -7   6   2  141.59   24.10
  -7   6   2  113.19   23.90
   7   6  -2  141.49   22.30
  -7  -6   2  150.68   24.90
   7  -6  -2  204.18   17.90
   7   6  -1   -3.70   12.40
   7   6  -1    2.30   17.10
  -7   6   1    2.50   13.20
  -7  -6   1    3.30   14.30
  -7   6   0   14.80    8.80
  -7   6   0    8.60   13.10
   7   6   0   20.30   13.50
   7   6   0   22.20    8.50
  -7  -6   0   28.10   15.50
  -7   6  -1   20.10   12.90
  -7   6  -1    2.00    8.20
   7   6   1   -9.20   17.30
   7   6   1    5.00    7.90
  -7  -6  -1   13.20   14.90
  -7   6  -2  114.09   21.70
   7   6   2   66.19   13.30
  -7   6  -2  106.29   18.10
   7   6   2   75.29   15.20
  -7  -6  -2   80.29   16.00
  -7   6  -3   10.50   13.50
   7   6   3   -3.50    7.40
   7   6   3    0.40   10.90
  -7   6  -3  -10.00   14.10
  -7   6  -3   -6.10   10.30
  -7  -6  -3    1.20   14.20
  -7   6  -4  233.98   27.60
  -7   6  -4  250.17   26.30
  -7   6  -4  221.08   34.80
   7   6   4  248.38   27.10
  -7  -6  -4  240.78   27.30
  -7   6  -5  177.68   24.60
   7   6   5  185.78   25.90
  -7   6  -5  179.88   27.30
  -7   6  -5  168.28   24.70
   7   6   5  120.19   22.50
  -7  -6  -5  149.19   24.10
  -7   6  -6   44.30   14.00
  -7   6  -6   35.90   15.00
  -7   6  -6   40.30   15.20
   7   6   6   88.99   19.30
  -7  -6  -6   40.10   14.80
   7   6   7   16.60   10.50
  -7   6  -7    1.60   14.60
  -7   6  -7   -8.00   14.40
  -7   6  -7   -3.40   14.30
  -7  -6  -7   10.20   15.70
  -7   6  -8   63.89   16.20
   7   6   8   56.59   12.90
  -7   6  -8   49.99   18.30
  -7   6  -8   67.29   16.60
  -7  -6  -8   63.99   16.90
  -7  -6  -8   47.40   20.20
  -7   6  -9    3.90   15.10
   7   6   9    2.20   12.70
  -7   6  -9  -18.70   19.20
  -7   6  -9  -13.40   15.20
  -7  -6  -9   -8.20   19.90
  -7  -6  -9   10.20   16.20
   7   7  -9    2.90   12.00
  -7   7   9    4.30   16.00
   7  -7  -9    5.40   10.20
   7  -7  -9   21.50   19.50
   7   7  -8  100.09   19.80
  -7   7   8   98.89   17.80
   7  -7  -8   93.39   18.00
   7  -7  -8  103.99   22.20
   7   7  -7   31.00   17.40
  -7   7   7   20.90   14.70
   7   7  -7   21.90   10.50
   7  -7  -7   43.40    9.20
  -7  -7   7   30.80   15.60
   7  -7  -7   33.30   21.50
   7   7  -6   -1.80   15.60
  -7   7   6   -4.40   13.20
   7   7  -6    0.80    9.80
  -7  -7   6    0.20   15.20
   7  -7  -6   13.60    7.90
   7   7  -5   49.30   15.20
   7   7  -5   48.60   10.40
  -7   7   5   45.80   13.60
   7  -7  -5   52.39    8.40
  -7  -7   5   72.59   21.20
  -7   7   4  218.68   29.70
   7   7  -4  227.58   28.90
   7   7  -4  254.47   23.20
  -7   7   4  199.28   35.10
  -7  -7   4  172.58   29.20
  -7   7   3    7.80   11.50
   7   7  -3    8.60   11.40
   7   7  -3    6.90    9.30
  -7   7   3   23.50   15.00
  -7  -7   3    9.20   15.60
  -7   7   2  176.88   25.20
   7   7  -2  121.69   23.90
  -7   7   2  173.48   26.10
   7   7  -2  194.48   20.00
  -7  -7   2  148.89   26.90
  -7   7   1   25.40   16.10
  -7   7   1   19.20   10.70
   7   7  -1   16.10   10.20
   7   7  -1   23.10   10.40
  -7  -7   1   31.60   16.10
   7   7   0   14.50    8.80
   7   7   0    6.70   10.10
  -7   7   0    2.80    8.80
  -7   7   0   36.10   14.60
  -7  -7   0   35.00   15.60
  -7   7  -1    3.20   14.30
   7   7   1    7.20    8.70
  -7   7  -1   -3.60    8.70
   7   7   1   -7.00   10.90
  -7  -7  -1  -11.10   15.60
   7   7   2  371.26   33.10
   7   7   2  396.76   32.00
  -7   7  -2  400.56   33.40
  -7   7  -2  384.36   37.00
  -7  -7  -2  407.06   36.50
   7   7   3   52.09   12.10
  -7   7  -3   80.39   16.70
   7   7   3   79.59   15.90
  -7   7  -3   35.10   11.00
  -7  -7  -3   67.59   16.40
  -7   7  -4   35.30   16.50
   7   7   4   80.99   15.90
  -7   7  -4   62.69   11.90
  -7   7  -4  109.29   17.60
   7   7   4  101.99   20.00
  -7  -7  -4   56.89   16.50
  -7   7  -5   25.70   16.00
  -7   7  -5   26.30   11.70
   7   7   5   32.60    9.20
  -7   7  -5   23.70   15.60
   7   7   5   42.80   14.30
  -7  -7  -5   21.00   15.50
  -7   7  -6   25.60   15.40
  -7   7  -6   17.20   13.10
   7   7   6   49.30   15.60
  -7   7  -6   51.49   16.40
  -7  -7  -6   31.20   16.00
  -7   7  -7   58.99   15.60
  -7   7  -7   48.40   16.20
  -7   7  -7   42.70   17.30
  -7  -7  -7   47.40   17.00
  -7   7  -8   38.90   18.20
   7   7   8   26.00   12.70
  -7   7  -8   33.00   17.60
  -7   7  -8   45.40   16.00
  -7  -7  -8   10.90   16.70
  -7   8   8  -11.40   14.40
   7   8  -8  -14.60   18.70
   7   8  -8   -4.90   11.10
   7  -8  -8   21.70   20.50
   7  -8  -8   -2.50   11.10
  -7  -8   8  -14.30   16.80
   7   8  -7   51.09   19.50
   7   8  -7   63.69   12.20
  -7   8   7   92.19   16.30
   7  -8  -7   92.49   15.90
  -7  -8   7   65.99   31.20
   7  -8  -7  103.59   22.50
   7   8  -6   23.60   10.30
   7   8  -6    6.90   16.30
  -7   8   6   20.80   14.10
   7  -8  -6   27.30   22.00
  -7  -8   6   21.60   17.60
   7   8  -5   50.49   10.90
   7   8  -5   31.60   15.90
  -7   8   5   49.60   14.70
  -7  -8   5   37.00   17.70
  -7   8   4   -3.50   12.60
   7   8  -4    1.10   12.90
   7   8  -4    0.60    9.70
  -7  -8   4   -8.00   17.70
  -7   8   3   79.69   15.00
   7   8  -3  107.09   18.00
   7   8  -3  113.59   23.90
  -7   8   3  102.49   19.10
  -7  -8   3   93.79   19.30
   7   8  -2   32.20   11.90
   7   8  -2   49.50   11.10
  -7   8   2   69.99   18.30
  -7   8   2   39.90   12.00
  -7  -8   2   54.09   17.10
  -7   8   1   11.10   15.50
   7   8  -1   -0.90   10.20
   7   8  -1   -6.80   10.00
  -7   8   1    8.50   10.20
  -7  -8   1   17.90   16.60
  -7   8   0   -2.30    9.60
   7   8   0   -2.90   13.60
  -7   8   0   -5.90   15.20
   7   8   0  -19.50   10.50
  -7  -8   0   -3.00   16.50
  -7   8  -1  204.08   24.00
   7   8   1  158.08   24.10
   7   8   1  237.88   24.80
  -7   8  -1  230.98   29.50
  -7  -8  -1  217.68   28.40
   7   8   2   18.30   11.70
  -7   8  -2   48.40   10.70
   7   8   2   39.30   10.40
  -7   8  -2   65.69   16.60
   7  -8   2   62.59   13.70
  -7  -8  -2   54.49   17.80
  -7   8  -3  257.47   30.70
   7   8   3  217.78   24.90
   7   8   3  260.17   26.30
  -7   8  -3  204.08   25.90
  -7  -8  -3  231.68   28.40
  -7   8  -4  218.38   30.40
   7   8   4  219.98   25.70
  -7   8  -4  235.38   33.70
  -7   8  -4  208.68   26.50
   7   8   4  232.18   28.10
  -7  -8  -4  228.08   29.00
  -7   8  -5  133.59   24.10
   7   8   5  153.18   19.90
  -7   8  -5  136.59   27.50
  -7   8  -5  122.69   19.90
   7   8   5  101.29   16.10
  -7  -8  -5   94.19   19.40
  -7   8  -6   -0.40   16.10
   7   8   6    9.20   10.80
   7   8   6    9.30   14.80
  -7   8  -6   12.40   13.40
  -7   8  -6  -14.70   17.00
  -7  -8  -6   15.30   17.00
  -7   8  -7   43.20   19.00
  -7   8  -7   27.90   15.40
   7   8   7   43.30   12.10
  -7   8  -7   46.30   17.70
  -7  -8  -7   21.70   16.90
  -7   8  -8  176.38   31.70
   7   8   8  240.28   29.10
  -7  -8  -8  133.99   27.90
   7   9  -7   -6.20   18.00
   7   9  -7   14.60   11.10
  -7   9   7    8.10   15.90
  -7  -9   7    8.60   19.10
   7  -9  -7   40.40   22.30
   7   9  -6    6.20   16.70
   7   9  -6   -2.80   10.90
  -7   9   6  -12.30   15.60
  -7  -9   6  -11.90   19.00
   7  -9  -6    0.50   21.90
   7   9  -5  231.48   23.80
   7   9  -5  222.18   32.30
  -7   9   5  251.07   32.20
   7  -9  -5  215.38   36.90
  -7  -9   5  193.08   31.60
  -7   9   4   17.90   13.90
   7   9  -4   14.50   14.00
   7   9  -4   28.70   10.60
  -7  -9   4   37.20   19.00
  -7   9   3   14.70   12.90
   7   9  -3   23.40   11.10
   7   9  -3   29.30   13.20
  -7  -9   3   49.00   19.10
   7   9  -2   45.50   12.50
  -7   9   2   35.40   12.50
   7   9  -2   40.90   11.20
  -7  -9   2   39.00   19.10
   7   9  -1  207.98   24.90
  -7   9   1  176.18   31.10
   7   9  -1  193.38   23.20
  -7   9   1  206.28   24.60
  -7  -9   1  167.38   30.00
  -7   9   0    7.10   18.30
  -7   9   0    2.30   10.40
   7   9   0    6.60   10.60
  -7  -9   0   25.20   18.80
  -7   9  -1    7.90   17.50
  -7   9  -1    0.10   10.10
   7   9   1    1.70    9.90
   7   9   1  -24.00   11.10
  -7  -9  -1   16.80   17.40
   7   9   2   -0.70   10.10
  -7   9  -2    2.10   18.70
  -7   9  -2   -8.40   10.40
   7   9   2  -25.80   11.00
  -7  -9  -2   -1.30   18.50
  -7   9  -3  223.08   30.90
   7   9   3  207.78   22.80
   7   9   3  149.19   23.30
  -7   9  -3  151.58   24.20
  -7  -9  -3  171.18   27.20
  -7   9  -4    8.70   18.00
  -7   9  -4   16.10   11.90
  -7   9  -4   33.00   18.00
   7   9   4   28.40   11.00
   7   9   4   20.40   12.20
  -7  -9  -4   23.40   18.20
  -7   9  -5  280.67   34.30
   7   9   5  174.58   26.90
   7   9   5  218.78   24.60
  -7   9  -5  250.77   34.10
  -7   9  -5  235.58   28.00
  -7  -9  -5  222.58   30.60
   7   9   6   95.79   20.40
   7   9   6   43.10   14.90
  -7   9  -6   56.69   14.70
  -7   9  -6   68.19   18.80
  -7   9  -6   62.39   20.90
  -7  -9  -6   53.89   19.40
   7  10  -6  -19.50   10.50
   7  10  -6   -9.30   16.80
  -7  10   6   -8.00   15.10
  -7 -10   6   -4.30   21.10
   7 -10  -6   31.90   23.90
   7  10  -5   31.10   11.20
   7  10  -5    5.10   15.50
  -7  10   5   31.90   15.30
   7 -10  -5   36.80   24.60
  -7 -10   5   38.20   20.80
   7  10  -4   68.99   12.40
  -7  10   4   51.29   15.00
   7  10  -4   65.79   15.80
  -7 -10   4   45.40   21.60
   7 -10  -4   82.49   24.30
   7  10  -3   29.30   11.40
   7  10  -3   32.40   13.50
  -7  10   3   14.50   13.40
  -7 -10   3   20.60   20.70
   7  10  -2   22.50   12.50
  -7  10   2    9.90   11.60
   7  10  -2   12.50   11.50
  -7 -10   2   19.60   21.00
   7  10  -1    4.40   11.80
  -7  10   1    4.60   10.80
   7  10  -1   -8.80   11.80
  -7 -10   1   -8.00   19.30
  -7  10   0  -12.90   11.00
   7  10   0  -11.20   11.70
   7  10   0   -5.90   11.80
  -7 -10   0    3.30   19.70
  -7  10  -1  123.89   21.10
   7  10   1   65.49   15.00
   7  10   1  101.09   22.40
  -7  10  -1   93.49   21.90
  -7 -10  -1  106.39   22.20
   7  10   2   -8.50   12.20
  -7  10  -2    6.70   11.30
   7  10   2   27.80   11.20
  -7  10  -2   14.20   19.60
  -7 -10  -2    6.50   19.60
   7  10   3   49.80   12.00
   7  10   3   38.80   13.80
  -7  10  -3   69.89   20.20
  -7  10  -3   45.60   12.70
  -7 -10  -3   60.09   19.90
   7  10   4   17.40   12.70
   7  10   4   39.10   11.70
  -7  10  -4   41.10   21.00
  -7  10  -4   15.60   12.40
  -7 -10  -4   20.70   18.70
  -7  10  -5   48.80   13.70
   7  10   5   35.40   13.50
  -7  10  -5   55.49   21.40
   7  10   5   42.90   11.80
  -7  10  -5   36.90   19.60
  -7 -10  -5   50.59   20.20
   7  11  -4    4.70   14.80
   7  11  -4  -20.60   11.00
   7 -11  -4   10.00   23.30
   7  11  -3   22.00   11.30
   7  11  -3   18.20   14.00
  -7  11   3    2.90   13.30
  -7 -11   3   -2.80   21.20
   7 -11  -3   28.40   25.80
   7  11  -2    3.40   13.10
   7  11  -2   -8.30   11.80
  -7  11   2   -9.70   11.50
   7 -11  -2   20.80   23.50
  -7 -11   2  -12.70   20.90
   7  11  -1   28.10   12.30
  -7  11   1   33.50   12.30
   7  11  -1   18.90   12.90
  -7 -11   1   28.40   21.30
   7  11   0  193.68   25.10
  -7  11   0  152.28   24.40
   7  11   0  126.19   23.60
  -7 -11   0  126.19   24.70
   7  11   1   34.40   12.30
   7  11   1  -14.60   12.60
  -7  11  -1   19.80   11.90
  -7 -11  -1   28.80   21.30
  -7  11  -2  157.98   24.50
   7  11   2   93.39   16.60
  -7 -11  -2  165.38   31.00
   7  11   3    3.20   13.30
  -7  11  -3   26.80   12.30
  -7 -11  -3    8.60   20.90
  -8   0  11   15.90   13.60
   8   0 -11   -3.60   11.60
   8   0 -10   16.30   11.20
  -8   0  10   37.60   13.30
  -8   0   9    8.50   12.40
   8   0  -9   -8.00   10.10
  -8   0   8  131.49   23.50
   8   0  -8   80.69   13.20
   8   0  -7   -3.40    8.90
  -8   0   7    0.20   11.10
  -8   0   7    4.20    9.80
  -8   0   6  115.29   21.70
   8   0  -6   90.19   16.90
  -8   0   6   96.39   15.70
   8   0  -5   -5.70    8.90
  -8   0   5   -4.70    8.70
  -8   0   5   15.60   10.00
  -8   0   4  -21.60   11.90
   8   0  -4    9.90   13.10
   8   0  -4  -12.60    8.50
  -8   0   4   -8.70   10.70
  -8   0   3   -5.50    9.30
   8   0  -3   -6.60   14.10
   8   0  -3  -11.40    9.40
  -8   0   3   -3.20    8.30
  -8   0   3   -8.00   13.10
   8   0  -2  174.78   31.60
  -8   0   2  161.38   21.20
  -8   0   2  190.08   20.40
   8   0  -2  212.38   21.60
  -8   0   1   -6.20   14.30
  -8   0   1    4.00   10.70
   8   0  -1   12.10   10.60
   8   0  -1   10.10   13.50
  -8   0   0  185.68   35.20
   8   0   0  184.58   34.40
   8   0   0  193.08   22.10
  -8   0   0  160.98   21.30
   8   0   1   -4.80   10.50
   8   0   1   -6.20   15.50
  -8   0  -1    5.00   10.70
  -8   0  -2  520.55   49.70
   8   0   2  438.96   49.30
   8   0   2  506.15   44.60
  -8   0  -3   25.30   18.30
  -8   0  -3   -0.60   11.00
   8   0   3    3.00   15.60
  -8   0  -4  597.04   46.40
  -8   0  -5    3.10   11.60
  -8   0  -5    4.10   15.00
  -8   0  -6   24.30   13.10
  -8   0  -6   -7.40   16.00
  -8   0  -7  -22.30   12.90
  -8   0  -7  -17.50   16.20
  -8   0  -8  279.27   30.10
  -8   0  -8  323.37   37.30
   8   0   9   -6.30   15.40
  -8   0  -9   -7.50   16.80
  -8   0  -9    7.50   14.40
  -8   0 -10  116.19   21.20
   8   0  10   91.69   19.50
  -8   0 -10  130.09   24.50
  -8   1  11  117.19   25.00
   8   1 -11   78.79   14.10
  -8  -1  11   72.69   16.80
   8  -1 -11  111.79   21.70
  -8   1  10  205.58   28.50
   8   1 -10  236.78   25.00
   8  -1 -10  226.88   26.00
  -8  -1  10  234.78   31.40
   8   1  -9  119.59   20.40
  -8   1   9  148.19   24.00
   8  -1  -9  113.49   20.10
  -8  -1   9  123.79   26.90
  -8   1   8  172.18   22.00
  -8   1   8  186.48   25.20
   8   1  -8  179.38   21.50
  -8  -1   8  186.78   28.10
   8  -1  -8  164.38   21.70
   8   1  -7  133.59   19.70
  -8   1   7  159.08   23.70
  -8   1   7  171.48   19.70
   8  -1  -7  140.89   20.30
  -8  -1   7  149.88   26.00
   8   1  -6   32.10    9.50
  -8   1   6   35.80   10.60
  -8   1   6   26.10   18.40
  -8  -1   6   48.00   12.10
   8  -1  -6   21.90    8.90
  -8  -1   6   25.30    9.40
  -8   1   5   98.89   21.30
  -8   1   5   90.59   16.70
   8   1  -5   89.19   16.90
  -8  -1   5  113.29   16.50
   8  -1  -5   92.99   16.60
  -8  -1   5  129.69   22.90
  -8   1   4  153.38   28.70
  -8   1   4  197.38   20.90
  -8   1   4  223.58   24.80
   8   1  -4  235.78   29.90
   8   1  -4  177.48   21.20
  -8  -1   4  218.08   33.50
  -8  -1   4  203.48   22.80
   8  -1  -4  208.98   29.50
   8  -1  -4  227.68   30.40
  -8  -1   4  141.79   29.00
  -8   1   3   60.59   11.30
   8   1  -3   70.99   15.40
  -8   1   3   48.30   10.60
  -8  -1   3   50.49   14.80
   8  -1  -3   54.29   10.40
  -8  -1   3   65.89   11.30
   8  -1  -3   83.39   15.60
  -8  -1   3   39.60   10.10
  -8   1   2   -2.40   13.60
   8   1  -2    4.40    9.30
  -8   1   2   -9.20    8.80
   8   1  -2   11.80   14.70
  -8   1   2   13.70    9.70
   8  -1  -2    4.70    9.40
  -8  -1   2  -10.80   13.60
   8  -1  -2    1.20   14.60
  -8  -1   2    8.80   10.60
  -8  -1   2    3.80    7.70
   8   1  -1  121.89   19.30
  -8   1   1   49.10   15.90
   8   1  -1   62.79   16.30
  -8   1   1   92.09   17.70
  -8  -1   1   69.89   12.50
   8  -1  -1  118.99   19.10
   8  -1  -1   47.50   14.70
  -8   1   0  226.08   24.10
   8   1   0  263.87   25.50
  -8   1   0  264.57   37.00
   8   1   0  247.88   35.90
   8  -1   0  214.88   36.80
  -8  -1   0  247.48   49.00
   8  -1   0  257.77   25.40
  -8  -1   0  244.38   25.50
   8   1   1   15.00   11.30
  -8   1  -1    7.00   18.50
  -8   1  -1    8.80   10.20
   8   1   1    3.90   15.80
  -8  -1  -1    2.50   11.90
   8  -1   1   15.60   10.50
  -8  -1  -1   -0.50   16.10
   8  -1   1    2.00   15.60
   8   1   2   99.89   23.50
  -8   1  -2  176.98   36.10
   8   1   2   80.39   18.40
   8  -1   2  108.29   19.20
   8  -1   2  103.09   15.40
  -8  -1  -2  101.99   19.90
  -8  -1  -2  113.99   27.20
  -8   1  -3  444.86   34.80
   8   1   3  413.76   38.00
  -8   1  -3  378.86   49.99
   8   1   3  457.55   45.30
   8  -1   3  360.16   45.10
  -8  -1  -3  445.06   48.10
  -8  -1  -3  400.76   35.30
  -8   1  -4   52.89   12.40
  -8   1  -4   47.00   15.40
  -8   1  -5   47.80   12.30
  -8   1  -5   36.70   16.40
  -8  -1  -5   20.00   16.30
  -8  -1  -5   47.70   13.30
  -8   1  -6  170.48   28.20
  -8   1  -6  143.19   21.60
  -8  -1  -6  133.69   22.80
  -8  -1  -6  110.39   19.20
  -8   1  -7   -8.60   12.10
  -8   1  -7   21.70   15.80
  -8  -1  -7   -0.80   13.60
  -8  -1  -7  -16.10   15.70
  -8   1  -8    4.20   15.10
  -8   1  -8    2.60   12.80
  -8  -1  -8   10.80   16.50
  -8  -1  -8   -1.70   14.40
   8   1   9    8.20   14.90
  -8   1  -9    0.10   17.00
  -8   1  -9   -7.00   13.60
  -8  -1  -9   -6.00   14.70
  -8  -1  -9    4.50   17.00
  -8   1 -10   60.39   15.80
  -8   1 -10   54.79   18.80
   8   1  10   56.29   16.90
   8  -1  10   12.00   18.00
  -8  -1 -10   64.89   18.50
  -8  -1 -10   51.79   17.10
   8   2 -11   39.60   12.40
  -8   2  11   33.30   14.00
  -8  -2  11   31.40   16.50
   8  -2 -11   27.70   13.10
  -8   2  10    6.70   12.90
   8   2 -10    3.50   11.10
  -8  -2  10   23.00   16.50
   8  -2 -10   25.20   11.70
  -8   2   9  141.69   26.90
   8   2  -9  131.79   20.60
  -8  -2   9  158.08   30.50
   8  -2  -9  127.99   21.20
  -8   2   8   64.39   13.70
  -8   2   8  101.09   15.50
   8   2  -8  101.19   18.40
  -8  -2   8   63.19   16.60
   8  -2  -8   67.89   11.40
   8   2  -7   -9.50    9.40
  -8   2   7  -24.30   11.40
  -8   2   7    4.40   11.50
  -8  -2   7   -8.70   13.90
   8  -2  -7   -2.00    8.90
  -8   2   6  139.19   19.70
  -8   2   6  134.29   23.80
   8   2  -6  147.19   19.10
   8  -2  -6  139.39   18.60
  -8  -2   6  111.39   16.90
  -8  -2   6  184.48   27.90
  -8   2   5   31.70   12.60
  -8   2   5   42.00   11.50
   8   2  -5   44.90   10.10
  -8  -2   5   42.00   10.30
  -8  -2   5   35.20   12.80
   8  -2  -5   37.30    9.60
  -8   2   4   -8.00   11.00
   8   2  -4   -5.30    8.70
  -8   2   4    0.00   10.10
  -8  -2   4    4.60   13.40
   8  -2  -4    7.50    8.60
   8   2  -3  525.15   38.90
  -8   2   3  478.95   38.80
  -8   2   3  509.65   40.60
  -8   2   3  419.46   44.70
   8   2  -3  501.65   44.60
  -8  -2   3  500.95   39.40
   8  -2  -3  502.55   38.70
  -8  -2   3  445.56   45.50
   8  -2  -3  527.85   45.20
  -8  -2   3  515.15   40.60
  -8   2   2  -14.10    9.40
   8   2  -2  -15.80   14.30
  -8   2   2  -12.10   12.90
  -8   2   2    6.10   10.10
   8  -2  -2    0.20    9.50
  -8  -2   2   -3.30    9.20
   8  -2  -2   -9.60   14.30
  -8  -2   2  -26.30   13.90
  -8  -2   2    0.70   11.50
   8   2  -1  131.19   19.10
  -8   2   1  123.09   18.30
  -8   2   1  105.69   16.90
  -8   2   1   78.39   17.60
   8   2  -1   69.39   17.00
   8  -2  -1   65.89   15.80
   8  -2  -1  113.59   13.00
  -8  -2   1   67.59   16.40
  -8  -2   1  113.39   19.50
  -8   2   0    9.80   10.70
  -8   2   0   -2.00   15.60
   8   2   0   18.40    9.70
   8   2   0    3.40   15.20
  -8  -2   0   -0.30   15.00
   8  -2   0   16.50   10.50
   8  -2   0    2.00   16.30
  -8  -2   0   13.50   11.80
  -8   2  -1  833.72   67.49
   8   2   1  730.93   64.69
   8   2   1  860.61   66.29
  -8  -2  -1  769.32   66.69
  -8  -2  -1  889.71   62.69
   8  -2   1  805.72   59.89
   8  -2   1  741.13   65.39
   8   2   2   41.50   16.40
  -8   2  -2   60.89   12.90
  -8   2  -2   21.90   18.70
   8   2   2   37.00   11.70
  -8  -2  -2   47.00   12.30
   8  -2   2   30.20   13.50
  -8  -2  -2   23.10   17.70
   8  -2   2   13.40   16.60
  -8   2  -3   -3.60   11.30
   8   2   3  -23.80   13.00
  -8  -2  -3   -0.10   11.50
  -8   2  -4   87.29   17.20
  -8   2  -4  124.99   19.90
  -8  -2  -4  119.99   20.40
  -8   2  -5  162.98   23.00
  -8   2  -5  192.18   29.70
  -8  -2  -5  200.08   29.80
  -8  -2  -5  169.38   23.10
  -8   2  -6   89.89   16.20
  -8   2  -6   65.89   14.20
  -8  -2  -6   56.39   14.20
  -8  -2  -6   82.99   17.20
  -8   2  -7  177.48   23.60
  -8   2  -7  151.88   30.00
  -8  -2  -7  190.08   24.40
  -8  -2  -7  110.99   20.50
  -8   2  -8   37.00   14.30
  -8   2  -8   51.69   16.40
  -8  -2  -8   30.20   18.60
  -8  -2  -8   55.59   16.00
  -8   2  -9   85.59   16.00
  -8   2  -9   88.99   19.00
   8   2   9   62.29   17.60
  -8  -2  -9  108.99   18.00
   8  -2   9   65.29   21.60
  -8  -2  -9   72.29   19.40
  -8   2 -10   19.10   13.70
  -8   2 -10    3.80   17.10
  -8  -2 -10   23.80   16.90
  -8  -2 -10   12.80   20.00
   8   3 -11  234.08   27.10
  -8   3  11  216.18   30.60
  -8  -3  11  254.67   37.90
   8  -3 -11  259.07   27.30
   8   3 -10   -7.00   11.60
  -8   3  10    2.30   12.60
  -8  -3  10   -2.80   17.90
   8  -3 -10    8.30   15.00
   8  -3 -10    7.60   11.70
  -8   3   9  -14.50   12.50
   8   3  -9  -14.90    9.90
  -8  -3   9    2.70   17.20
   8  -3  -9    0.00   10.70
   8   3  -8  -13.50   10.10
  -8   3   8    4.10   12.50
  -8  -3   8    1.00   15.90
   8  -3  -8    9.30    9.60
  -8   3   7   66.69   14.30
  -8   3   7   43.30   13.50
   8   3  -7   21.40   10.40
   8  -3  -7   41.50   10.10
  -8  -3   7   36.10   16.10
  -8   3   6    0.00   11.80
  -8   3   6  -11.80   12.40
   8   3  -6  -16.20    8.70
   8  -3  -6    1.80    8.40
  -8  -3   6    2.30   10.00
  -8  -3   6   -4.10   15.40
   8   3  -5   98.99   17.10
  -8   3   5  118.89   19.30
  -8   3   5   88.79   14.10
  -8  -3   5  103.69   17.60
  -8  -3   5   95.89   18.50
  -8   3   4   45.60   11.80
   8   3  -4   34.70   10.00
  -8   3   4   29.50   11.70
   8  -3  -4   26.70    8.80
  -8  -3   4   47.20   11.90
  -8  -3   4   26.50   15.20
  -8   3   3  245.28   28.40
  -8   3   3  224.48   24.30
   8   3  -3  223.98   23.80
  -8  -3   3  246.48   24.60
  -8  -3   3  269.87   31.60
   8  -3  -3  204.48   23.00
   8   3  -2   59.89   15.50
   8   3  -2   65.69   11.60
  -8   3   2   42.70   15.00
  -8   3   2   82.39   12.60
  -8   3   2   46.70   11.20
  -8  -3   2   70.79   13.20
  -8  -3   2   78.49   15.70
   8  -3  -2   65.89   10.90
   8  -3  -2  148.39   28.40
   8   3  -1   64.39   16.30
  -8   3   1   60.59   10.10
  -8   3   1   77.89   16.20
   8   3  -1   86.19   13.70
   8  -3  -1   72.49   14.50
  -8  -3   1   80.59   13.90
  -8  -3   1   44.40   15.90
   8  -3  -1   81.89   11.70
  -8   3   0   -0.20   10.20
   8   3   0   -8.40   14.50
  -8   3   0    8.50    7.00
  -8   3   0   -6.40   15.80
   8   3   0   24.30   17.30
  -8  -3   0    2.20   15.10
  -8  -3   0    6.20   12.80
   8  -3   0   16.20   16.00
   8  -3   0   22.40   10.00
  -8   3  -1  140.29   16.20
  -8   3  -1  139.29   19.30
  -8   3  -1  157.78   35.10
   8   3   1  206.88   23.00
   8   3   1  104.39   19.40
  -8  -3  -1  111.49   19.90
   8  -3   1  110.99   20.90
   8  -3   1  201.38   32.40
  -8  -3  -1  150.98   21.70
  -8   3  -2   60.59   12.20
   8   3   2   55.09   12.00
  -8  -3  -2   48.20   12.70
   8  -3   2   50.29   13.50
  -8   3  -3  167.78   20.70
   8   3   3  147.49   24.50
  -8  -3  -3  108.39   21.70
  -8   3  -4   20.30   11.00
  -8   3  -4    1.70   14.80
  -8  -3  -4    0.50   13.10
  -8   3  -5   52.59   12.80
  -8   3  -5   28.50   15.40
  -8   3  -5   22.90   10.60
  -8  -3  -5   56.49   13.70
  -8   3  -6  -12.60   13.20
  -8   3  -6  -11.70   15.80
  -8   3  -6    9.10   12.30
  -8  -3  -6    5.50   16.90
  -8  -3  -6   -9.00   14.00
  -8   3  -7   58.29   13.80
  -8   3  -7   60.89   17.00
  -8  -3  -7   40.90   18.60
  -8  -3  -7   67.79   15.80
  -8   3  -8    9.00   16.40
  -8   3  -8   19.00   13.20
  -8  -3  -8   13.30   14.90
  -8  -3  -8    2.60   17.70
  -8   3  -9  357.36   33.50
  -8   3  -9  369.96   39.10
  -8  -3  -9  388.06   41.20
  -8  -3  -9  294.77   34.20
  -8   3 -10   85.39   16.40
  -8   3 -10  102.69   18.30
  -8  -3 -10   91.19   18.60
  -8  -3 -10   76.79   22.70
  -8   4  10   -1.90   14.20
   8   4 -10   -4.80   11.10
   8  -4 -10   35.10   19.80
   8  -4 -10   10.50   11.40
  -8  -4  10   18.60   18.90
  -8   4   9  432.46   39.70
   8   4  -9  342.87   33.30
   8  -4  -9  400.86   34.10
  -8  -4   9  415.16   46.10
   8   4  -8   12.60    9.90
  -8   4   8   -4.30   13.30
   8  -4  -8   -3.10    9.80
  -8  -4   8  -22.40   20.00
   8   4  -7   -8.50    9.10
  -8   4   7   -9.30   12.70
  -8   4   7   -1.40   14.20
  -8  -4   7  -13.20   19.90
   8  -4  -7  -10.40    9.30
  -8   4   6   74.19   14.50
   8   4  -6   88.09   17.70
  -8   4   6  138.09   21.90
  -8  -4   6   83.49   21.10
  -8  -4   6   95.99   18.40
   8  -4  -6   82.99   16.80
   8   4  -5  263.87   24.50
  -8   4   5  253.67   27.10
  -8   4   5  297.17   30.80
   8  -4  -5  288.17   24.00
  -8  -4   5  187.58   25.80
  -8   4   4  233.08   25.70
   8   4  -4  237.58   23.50
  -8   4   4  284.07   31.20
  -8  -4   4  210.58   25.60
   8  -4  -4  219.58   22.00
  -8   4   3  112.09   24.20
   8   4  -3  108.19   17.50
  -8   4   3   96.59   19.70
  -8  -4   3  105.79   20.00
   8  -4  -3  110.69   17.00
   8   4  -2    8.40   10.10
  -8   4   2   11.00    9.90
  -8   4   2   13.50   11.80
   8  -4  -2   27.00    9.30
  -8  -4   2    8.30   12.50
  -8   4   1   61.79   13.20
   8   4  -1   57.29   12.00
   8  -4  -1   92.39   17.20
   8   4   0  104.79   19.60
  -8   4   0  114.69   17.20
  -8   4   0   97.09   14.50
  -8  -4   0   92.89   15.60
   8  -4   0  159.38   19.70
   8   4   1  133.59   20.80
  -8   4  -1  144.09   20.80
  -8   4  -1  141.49   17.70
  -8  -4  -1  149.59   22.90
   8  -4   1  153.38   20.60
   8   4   2    6.20   11.30
  -8   4  -2   18.90    7.50
  -8   4  -2   19.10   11.20
  -8  -4  -2   17.20   13.90
   8  -4   2   12.40   12.30
   8   4   3  -10.10   11.60
  -8   4  -3   -6.60   10.90
  -8   4  -3   11.70    8.10
  -8  -4  -3    5.60   13.20
  -8   4  -4  280.97   27.30
  -8   4  -4  230.58   27.50
   8   4   4  286.07   31.30
  -8   4  -4  308.37   34.20
  -8  -4  -4  298.07   29.00
  -8   4  -5  224.38   30.30
  -8   4  -5  195.28   24.70
  -8   4  -5  229.88   25.30
  -8  -4  -5  178.38   26.00
  -8   4  -6   38.80   13.40
  -8   4  -6   29.10   13.00
  -8   4  -6   31.10   16.10
  -8  -4  -6   28.70   14.80
  -8   4  -7    5.20   15.40
  -8   4  -7    5.90   12.60
  -8   4  -7  -13.90   25.50
  -8  -4  -7   -2.40   17.70
  -8  -4  -7    5.00   14.00
  -8   4  -8  202.18   31.10
  -8   4  -8  142.59   23.80
  -8  -4  -8  131.89   23.20
  -8  -4  -8  169.48   25.70
   8   4   9   65.49   18.30
  -8   4  -9   63.69   15.80
  -8   4  -9   64.99   17.80
  -8  -4  -9   82.09   18.00
  -8  -4  -9   49.60   20.80
   8   5 -10   29.10   11.30
  -8   5  10   21.50   14.50
  -8  -5  10   37.60   23.50
   8  -5 -10   50.99   18.50
   8  -5 -10   37.10   12.40
  -8   5   9   -9.50   13.10
   8   5  -9  -25.70   10.10
  -8  -5   9  -31.30   23.30
   8  -5  -9    2.50   19.10
   8  -5  -9   -3.00   10.80
   8   5  -8   32.60   11.60
  -8   5   8   19.40   14.60
  -8  -5   8   23.20   24.10
   8  -5  -8   34.60   10.70
  -8   5   7   73.49   15.40
   8   5  -7   87.99   17.40
   8  -5  -7   80.39   11.50
  -8  -5   7   88.79   25.90
  -8  -5   7   90.59   14.50
  -8   5   6   85.19   17.30
  -8   5   6   81.39   15.60
   8   5  -6   99.39   17.50
  -8  -5   6   94.69   15.20
   8  -5  -6   87.79   13.40
  -8   5   5  -19.90   12.50
  -8   5   5   13.20   14.10
   8   5  -5   -0.70    9.50
  -8  -5   5  -24.40   12.10
   8  -5  -5   12.20    8.00
   8   5  -4   10.10    9.10
  -8   5   4   34.30   13.20
  -8   5   4   18.20   12.40
  -8  -5   4   28.20   13.40
   8  -5  -4   25.20    8.40
  -8   5   3    0.00   11.10
   8   5  -3   15.00   11.80
  -8   5   3   15.80   12.60
   8   5  -3   -3.40    9.00
   8  -5  -3    1.80    8.10
  -8  -5   3    5.30   13.30
   8   5  -2   56.19   11.60
  -8   5   2   69.09   13.60
  -8   5   2   54.59   11.60
   8   5  -2   53.39   11.20
  -8  -5   2   69.29   14.80
   8  -5  -2   71.99   15.30
  -8   5   1   59.59   12.60
  -8   5   1   48.30   10.20
   8   5  -1   44.70   10.70
   8   5  -1   35.80    9.80
   8  -5  -1   65.39   16.30
  -8  -5   1   48.20   14.30
   8   5   0  325.87   28.60
  -8   5   0  298.47   26.80
  -8   5   0  266.87   29.90
  -8  -5   0  279.37   29.70
   8  -5   0  328.57   27.50
  -8   5  -1   93.09   16.20
  -8   5  -1  107.59   17.40
   8   5   1  109.09   19.20
  -8  -5  -1  107.69   22.30
   8   5   2   25.50   11.60
  -8   5  -2   17.70   12.80
  -8   5  -2   29.90    8.60
  -8  -5  -2   34.80   13.90
   8  -5   2    7.70   11.90
  -8   5  -3   18.10    9.10
   8   5   3  -19.40   11.20
  -8   5  -3   19.70   13.20
  -8  -5  -3   21.40   13.20
  -8   5  -4  131.69   20.90
  -8   5  -4  144.79   23.00
  -8   5  -4   71.69   18.00
   8   5   4  139.69   24.20
  -8  -5  -4  124.19   22.50
   8   5   5   30.40   14.70
  -8   5  -5    0.20   15.50
  -8   5  -5  -16.50   10.70
  -8   5  -5  -16.50   13.10
  -8  -5  -5   -2.60   13.30
  -8   5  -6  320.37   33.20
  -8   5  -6  339.27   36.20
  -8   5  -6  300.47   31.00
  -8  -5  -6  255.87   31.00
  -8   5  -7   94.79   17.40
  -8   5  -7   86.29   18.20
  -8   5  -7  153.28   28.70
  -8  -5  -7  122.09   23.90
  -8   5  -8   40.00   15.50
  -8   5  -8   40.20   16.90
  -8   5  -8   29.90   18.20
  -8  -5  -8   15.60   19.60
  -8  -5  -8   53.99   16.70
  -8   5  -9   92.89   18.70
   8   5   9   62.29   14.20
  -8   5  -9   73.79   17.30
  -8  -5  -9   75.39   18.30
  -8  -5  -9   72.99   22.10
  -8   6   9   -4.90   14.50
   8   6  -9   -5.10   11.00
   8  -6  -9  -18.50   10.80
   8  -6  -9    7.10   20.10
  -8  -6   9   -5.60   27.30
   8   6  -8   53.09   12.60
  -8   6   8   67.39   17.00
   8  -6  -8   80.29   12.10
   8  -6  -8   88.99   22.30
   8   6  -7    0.70    9.90
  -8   6   7  -14.30   14.20
  -8  -6   7   -3.60   13.80
   8  -6  -7   19.00    9.30
  -8   6   6  148.69   31.50
   8   6  -6  154.18   20.00
   8  -6  -6  192.68   19.60
  -8  -6   6  176.18   24.90
   8   6  -5   49.00   16.30
  -8   6   5   59.49   14.40
   8   6  -5   56.59   11.30
  -8   6   5   73.89   17.40
  -8  -6   5   55.69   15.40
   8  -6  -5  107.99   15.30
   8   6  -4  151.18   18.80
  -8   6   4  139.29   26.70
  -8   6   4  117.59   18.30
   8   6  -4  158.98   26.80
  -8  -6   4   84.39   18.40
   8  -6  -4  129.79   17.10
   8   6  -3   -4.80    9.30
  -8   6   3    8.30   11.70
  -8   6   3  -17.80   13.60
   8   6  -3   -6.10   12.00
   8  -6  -3   12.00   12.30
  -8  -6   3   -4.10   13.80
   8   6  -2  442.16   36.30
  -8   6   2  439.66   38.70
   8   6  -2  447.36   37.90
  -8   6   2  454.55   38.90
  -8  -6   2  436.76   39.20
   8  -6  -2  462.35   35.70
  -8   6   1   29.70   14.30
   8   6  -1   24.20   11.00
  -8  -6   1   20.60   14.20
  -8   6   0   93.59   14.90
   8   6   0   58.29   12.40
   8   6   0   78.59   18.10
  -8   6   0   44.20   15.50
  -8  -6   0   78.19   15.80
  -8   6  -1   38.80   14.20
   8   6   1   49.20   11.20
  -8   6  -1   32.00    9.50
   8  -6   1   45.90   10.20
  -8  -6  -1   28.40   15.50
  -8   6  -2  259.37   25.50
   8   6   2  215.78   26.10
  -8   6  -2  285.87   28.20
  -8  -6  -2  248.08   28.00
  -8   6  -3    5.20   14.30
   8   6   3    7.30   11.90
  -8  -6  -3    2.00   14.40
  -8   6  -4  172.08   26.00
   8   6   4  147.29   24.70
  -8   6  -4  159.98   30.20
  -8   6  -4  172.48   22.70
  -8  -6  -4  152.48   24.40
   8   6   5   10.50   14.60
  -8   6  -5   16.10   14.80
  -8   6  -5   -4.60   16.30
  -8   6  -5    8.50   11.50
  -8  -6  -5   -5.20   14.30
  -8   6  -6   33.60   16.70
  -8   6  -6   38.40   13.50
  -8   6  -6   22.40   15.80
  -8  -6  -6   32.30   15.30
  -8   6  -7   40.10   15.90
  -8   6  -7   25.40   17.10
  -8   6  -7   15.50   16.10
  -8  -6  -7   14.90   15.50
  -8   6  -8  231.08   33.70
   8   6   8  268.47   38.50
  -8   6  -8  242.58   30.10
  -8   6  -8  195.88   36.80
  -8  -6  -8  173.38   28.20
  -8  -6  -9  -11.00   15.80
   8   7  -9    4.30   11.70
  -8   7   9   -1.00   15.40
   8  -7  -9   16.70   20.90
  -8   7   8  148.39   31.10
   8   7  -8   74.69   13.30
   8  -7  -8   84.59   12.50
   8  -7  -8  118.39   24.10
  -8   7   7   17.60   15.80
   8   7  -7   19.80   10.90
   8  -7  -7   21.70    9.60
  -8  -7   7   10.80   15.30
   8   7  -6  -10.00   10.30
  -8   7   6  -20.80   14.10
   8   7  -6  -21.50   16.80
  -8  -7   6    1.20   22.00
   8  -7  -6  -13.70    8.10
  -8   7   5    0.30   17.40
  -8   7   5   -7.10   12.80
   8   7  -5   -7.30   10.20
   8   7  -5  -14.80   15.30
   8  -7  -5    4.30    8.20
  -8  -7   5   -4.20   15.00
  -8   7   4  241.08   30.10
  -8   7   4  172.18   28.40
   8   7  -4  185.88   30.10
   8   7  -4  194.88   22.30
  -8  -7   4  190.18   27.30
   8  -7  -4  154.88   23.60
   8   7  -3   29.50   12.70
  -8   7   3   49.50   15.70
   8   7  -3   23.10   10.50
  -8   7   3   33.50   12.40
   8  -7  -3   79.09   13.80
  -8  -7   3   13.00   16.10
  -8   7   2  -11.70   14.90
  -8   7   2   -4.90   11.10
   8   7  -2   -0.30   10.10
   8   7  -2   -1.10   12.20
  -8  -7   2   10.50   15.70
   8  -7  -2   22.70    8.40
   8   7  -1   -1.60   10.20
  -8   7   1   -7.80   10.30
   8   7  -1  -13.20   11.10
  -8   7   1   11.20   14.80
  -8  -7   1   -1.60   16.00
   8  -7  -1   27.60    9.60
   8   7   0   60.89   10.70
  -8   7   0   41.20   10.30
  -8   7   0   73.29   16.60
   8   7   0   46.60   11.80
  -8  -7   0   57.49   16.60
   8   7   1   24.60    9.20
  -8   7  -1   15.40    9.20
   8   7   1   -2.80   11.60
  -8   7  -1    4.90   14.70
  -8  -7  -1   19.40   15.80
   8   7   2   -6.40   10.90
  -8   7  -2   10.00    9.90
   8   7   2    7.50    8.90
  -8   7  -2  -11.60   14.70
  -8  -7  -2  -13.40   15.50
   8   7   3   25.00   12.10
  -8   7  -3   24.40   10.30
  -8   7  -3   19.30   14.90
   8   7   3   26.80    9.60
  -8  -7  -3   22.90   15.10
  -8   7  -4   35.60   11.30
  -8   7  -4   17.00   16.50
   8   7   4   15.30   12.50
   8   7   4   29.60    9.10
  -8   7  -4   25.50   15.50
  -8  -7  -4   38.70   15.10
   8   7   5   15.00    8.30
  -8   7  -5   24.10   12.00
   8   7   5    3.70   13.80
  -8   7  -5   15.00   15.50
  -8   7  -5    3.50   17.00
  -8  -7  -5  -16.00   14.70
   8   7   6  326.37   34.60
  -8   7  -6  312.97   38.20
  -8   7  -6  301.67   34.10
  -8   7  -6  322.17   34.70
  -8  -7  -6  313.37   32.20
  -8   7  -7   10.50   15.50
  -8   7  -7   20.30   17.70
  -8   7  -7    2.80   16.10
   8   7   7   17.30   13.10
  -8  -7  -7   -0.30   15.70
   8   7   8   32.70   12.60
  -8   7  -8   -3.00   17.50
  -8   7  -8  -28.20   16.30
  -8   7  -8  -11.70   18.50
  -8  -7  -8    3.70   15.90
  -8   8   8  -16.80   15.60
   8   8  -8  -16.30   10.50
   8  -8  -8  -18.90   21.70
  -8  -8   8    4.50   19.50
   8  -8  -8    3.30    9.80
   8   8  -7   -0.50   11.10
  -8   8   7   -6.40   14.30
   8   8  -7  -14.80   18.70
  -8  -8   7  -12.10   17.30
   8  -8  -7    7.30    9.60
   8  -8  -7    9.20   23.40
   8   8  -6  -16.50   17.40
  -8   8   6  -14.40   14.40
   8   8  -6   -1.70   10.60
  -8  -8   6    2.10   17.70
   8  -8  -6    7.00    8.50
   8   8  -5   31.10   10.80
  -8   8   5   34.00   15.40
   8   8  -5   43.30   16.80
  -8  -8   5   39.00   17.90
  -8   8   4   10.50   17.30
  -8   8   4    1.10   13.20
   8   8  -4    9.30   14.40
   8   8  -4    8.50   11.20
  -8  -8   4    5.60   17.30
   8   8  -3  -19.50   12.70
  -8   8   3   -2.50   16.70
   8   8  -3   -8.40   10.20
  -8   8   3   -5.40   12.50
  -8  -8   3   -0.50   17.40
   8   8  -2  432.46   37.00
   8   8  -2  402.76   33.90
  -8   8   2  389.86   38.60
  -8   8   2  382.66   36.90
  -8  -8   2  402.36   39.20
   8   8  -1  159.78   24.40
  -8   8   1  211.68   29.00
  -8   8   1  217.48   24.20
   8   8  -1  140.59   22.20
  -8  -8   1  141.89   28.10
   8   8   0   -7.60   11.80
  -8   8   0   18.80   10.20
  -8   8   0    0.20   16.40
  -8  -8   0   14.60   17.50
  -8   8  -1  176.68   27.30
   8   8   1  127.29   20.50
   8   8   1  100.39   16.10
  -8   8  -1  129.79   20.90
  -8  -8  -1  139.39   25.60
  -8   8  -2   -1.20   16.50
   8   8   2   -4.80   11.70
  -8   8  -2    3.60   10.30
   8   8   2    3.60    9.00
  -8  -8  -2   -4.00   16.00
  -8   8  -3   -5.50   15.90
   8   8   3   12.40    9.20
   8   8   3   -5.60   11.30
  -8   8  -3  -14.70   10.60
  -8  -8  -3    6.10   17.10
   8   8   4   99.89   15.70
  -8   8  -4  153.68   28.00
   8   8   4  144.59   22.70
  -8   8  -4  106.89   22.90
  -8  -8  -4  120.09   25.00
  -8   8  -5  189.38   26.90
   8   8   5  149.69   25.90
   8   8   5  156.48   25.50
  -8   8  -5  233.98   30.40
  -8   8  -5  216.98   33.80
  -8  -8  -5  169.78   27.40
   8   8   6   18.70   10.00
  -8   8  -6    6.60   14.00
  -8   8  -6   12.50   19.00
  -8   8  -6   -4.60   17.50
   8   8   6   16.20   14.80
  -8  -8  -6   -1.50   15.90
   8   8   7   44.80   12.20
  -8   8  -7   35.40   18.90
  -8   8  -7   27.20   19.20
  -8   8  -7    0.60   15.50
   8   8   7   32.50   17.40
  -8  -8  -7   26.40   16.80
  -8   9   6  -29.00   15.00
   8   9  -6  -10.80   17.90
   8   9  -6  -13.30   10.80
  -8  -9   6   -8.30   18.70
   8  -9  -6   -7.70   22.70
  -8   9   5   19.70   14.80
   8   9  -5   23.10   11.10
   8   9  -5   19.90   17.10
  -8  -9   5    9.00   19.40
   8   9  -4    8.40   14.60
   8   9  -4   -7.40   10.80
  -8   9   4   -2.40   14.20
  -8  -9   4    7.60   19.40
   8   9  -3  -12.10   11.20
   8   9  -3   -4.80   13.40
  -8   9   3   -1.40   13.30
  -8  -9   3  -17.90   18.20
  -8   9   2   -2.00   12.30
   8   9  -2  -21.90   11.40
   8   9  -2   -3.60   12.60
  -8   9   2   -8.70   18.40
  -8  -9   2   -1.30   18.30
   8   9  -1  347.37   31.10
  -8   9   1  330.97   31.60
   8   9  -1  351.96   33.10
  -8   9   1  346.47   36.90
  -8  -9   1  312.87   36.20
   8   9   0    9.50   12.50
  -8   9   0   26.90   11.00
   8   9   0   11.30   11.00
  -8   9   0   15.70   17.70
  -8  -9   0   47.10   18.90
   8   9   1  -11.10   10.80
  -8   9  -1  -14.60   10.50
  -8   9  -1   -4.70   17.50
  -8  -9  -1  -27.00   18.60
  -8   9  -2    7.40   10.90
   8   9   2  -20.00   11.50
  -8   9  -2   -6.20   17.10
   8   9   2   12.60   10.00
  -8  -9  -2    4.00   17.20
   8   9   3   40.10   10.80
   8   9   3   25.90   12.20
  -8   9  -3   32.90   18.70
  -8   9  -3   20.30   11.70
  -8  -9  -3   16.90   18.10
  -8   9  -4   41.20   13.00
   8   9   4   58.29   13.40
   8   9   4   99.69   20.00
  -8   9  -4   56.09   20.80
  -8  -9  -4   58.39   19.60
  -8   9  -5   26.60   20.40
  -8   9  -5   51.99   13.70
   8   9   5   57.69   14.30
  -8   9  -5   69.89   20.60
   8   9   5  104.19   21.10
  -8  -9  -5   36.20   18.70
   8   9   6   21.70   10.30
  -8   9  -6  -16.50   19.90
  -8   9  -6   21.70   19.90
   8   9   6   -1.70   13.90
  -8  -9  -6    5.60   17.30
   8  10  -5  103.69   20.70
   8  10  -5   93.59   18.60
  -8  10   5   86.39   17.30
   8 -10  -5  120.69   26.60
  -8 -10   5   72.49   22.00
   8  10  -4    0.00   11.50
  -8  10   4  -16.90   14.30
   8  10  -4  -11.00   14.80
  -8 -10   4    9.30   20.10
   8  10  -3   -3.80   14.10
   8  10  -3  -16.50   12.40
  -8  10   3  -16.10   13.40
  -8 -10   3   -1.40   20.00
  -8  10   2   24.80   12.40
   8  10  -2   28.00   13.50
   8  10  -2   11.70   11.80
  -8 -10   2   12.60   20.00
   8  10  -1   12.40   12.40
   8  10  -1   14.60   12.40
  -8  10   1   18.00   11.60
  -8 -10   1   13.90   19.20
  -8  10   0   38.60   12.10
  -8  10   0   74.89   20.40
   8  10   0   37.60   13.40
   8  10   0   44.70   12.80
  -8 -10   0   72.69   20.10
  -8  10  -1  164.48   24.40
   8  10   1  153.48   23.90
   8  10   1  109.09   17.10
  -8  10  -1  160.28   25.00
  -8 -10  -1  115.59   22.20
   8  10   2  137.49   25.30
  -8  10  -2  160.48   32.50
  -8  10  -2  188.88   25.20
   8  10   2  201.28   24.10
  -8 -10  -2  168.98   29.20
   8  10   3   18.80   11.50
   8  10   3   -6.30   13.60
  -8  10  -3   -5.20   11.80
  -8  10  -3   17.90   21.10
  -8 -10  -3    9.30   19.00
   8 -10   3   27.70   13.00
   8  10   4    6.90   12.60
  -8  10  -4   10.60   12.60
  -8  10  -4   38.70   20.30
   8  10   4   33.20   11.70
  -8 -10  -4    1.30   18.40
   8  11  -2   10.90   14.30
   8  11  -2   19.90   13.40
   8  11  -1   49.90   13.90
   8  11  -1   30.70   14.00
  -8  11   1   42.80   13.30
  -8 -11   1   40.00   21.80
   8  11   0  148.79   24.50
  -8  11   0  129.29   24.20
   8  11   0  194.08   25.50
  -8 -11   0   98.69   24.30
   8  11   1    0.80   13.50
   8  11   1   19.80   12.60
  -9   0  11   11.90   14.70
   9   0 -11    1.50   12.20
   9   0 -10   12.90   11.10
  -9   0  10   24.40   14.00
   9   0  -9  -24.60   10.20
  -9   0   9    2.40   13.00
  -9   0   8  441.06   42.40
   9   0  -8  526.15   38.90
  -9   0   7    1.10   11.90
  -9   0   7   10.60   11.60
   9   0  -7  -14.70    9.30
   9   0  -6    9.00    9.60
  -9   0   6   25.80   10.30
  -9   0   6   13.20   11.30
   9   0  -5   -8.00    8.40
  -9   0   5    3.10    9.90
  -9   0   5   -1.20    9.60
  -9   0   4  146.09   17.80
   9   0  -4  114.69   18.10
  -9   0   4   89.59   20.10
  -9   0   3   18.50   10.30
   9   0  -3    9.20   10.20
   9   0  -2 1755.22  120.19
  -9   0   2 1648.64  120.19
   9   0   0   19.10   16.40
   9   0   0  105.39   19.20
  -9   0   0   43.40   16.90
  -9   0  -1  -20.80   11.00
   9   0   1   -3.90   11.00
   9   0   2  429.36   40.50
  -9   0  -2  529.15   39.40
  -9   0  -3   -4.80   11.20
   9   0   3   -4.40   13.60
  -9   0  -4   22.50   13.00
  -9   0  -5   -2.90   15.70
  -9   0  -5    4.10   12.70
  -9   0  -6   16.30   17.70
  -9   0  -6   -0.80   12.80
  -9   0  -7  -18.10   13.50
  -9   0  -7   -3.80   18.10
  -9   0  -8  238.38   28.00
  -9   0  -8  223.18   37.50
  -9   0  -9  -20.70   14.70
  -9   0  -9   -6.40   19.20
  -9   0 -10   38.60   16.60
   9   0  10   15.00   22.10
  -9   0 -10   38.20   21.60
  -9   1  11   13.70   13.10
  -9   1  10   37.90   13.20
   9   1 -10   55.19   12.80
  -9  -1  10   44.30   14.20
   9  -1 -10   50.69   12.00
  -9   1   9    9.30   11.90
   9   1  -9  -14.60    9.60
   9  -1  -9   -2.40   10.60
  -9  -1   9   15.20   13.60
  -9   1   8   31.60   12.30
  -9   1   8   33.10   12.50
   9   1  -8   27.80   10.00
   9  -1  -8   30.30   10.80
  -9   1   7   18.30   11.00
   9   1  -7   -6.90    9.00
  -9   1   7   30.60   11.20
   9  -1  -7   10.80    9.50
  -9  -1   7   29.50   10.40
  -9  -1   7   26.10   12.20
   9   1  -6  260.07   23.90
  -9   1   6  260.37   24.50
  -9   1   6  203.68   28.00
   9  -1  -6  239.28   23.80
  -9  -1   6  261.07   28.50
  -9  -1   6  233.88   23.60
  -9   1   5  -13.40   10.40
   9   1  -5   -0.20    8.30
  -9   1   5   -1.80   10.00
  -9  -1   5    6.10   10.30
   9  -1  -5   -2.00    8.40
  -9  -1   5   -7.10   10.20
   9   1  -4   19.40    9.90
  -9   1   4    0.60    9.70
  -9   1   4   21.40   10.10
  -9  -1   4   32.30   10.30
   9  -1  -4   18.80    9.10
  -9  -1   4   21.00    9.70
  -9   1   3  297.97   29.90
  -9   1   3  305.07   26.70
   9   1  -3  307.47   28.30
  -9  -1   3  297.17   26.70
   9  -1  -3  288.17   27.60
  -9  -1   3  273.27   27.60
  -9   1   2  119.19   21.70
  -9   1   2   80.69   11.40
  -9   1   1   55.59   16.20
   9   1  -1   69.99   11.70
  -9   1   1   66.59   12.40
   9   1  -1   61.89   16.80
   9  -1  -1   40.70   15.30
   9  -1  -1  141.69   26.30
  -9  -1   1   46.60   16.40
  -9   1   0  687.93   55.39
   9   1   0  774.12   62.19
   9   1   0  793.32   55.99
  -9   1   0  769.22   63.49
   9  -1   0  701.33   62.29
  -9  -1   0  740.63   56.19
  -9  -1   0  745.73   62.09
   9  -1   0  777.02   56.99
   9   1   1  293.07   26.40
  -9   1  -1  194.88   24.10
  -9  -1  -1  196.48   25.30
   9  -1   1  262.57   25.80
  -9   1  -2    8.30   11.60
   9   1   2   39.40   11.40
   9  -1   2    8.30   12.60
  -9  -1  -2   47.90   12.70
   9   1   3   -1.00   13.50
  -9   1  -3    5.40   11.40
   9  -1   3    6.80   14.20
  -9  -1  -3  -12.00   12.60
  -9   1  -4  163.08   22.10
  -9  -1  -4  156.78   23.80
  -9   1  -5    4.80   16.20
  -9   1  -5   44.20   12.30
  -9  -1  -5   26.40   14.70
  -9   1  -6   42.70   14.20
  -9   1  -6   38.40   17.70
  -9  -1  -6   51.69   14.50
  -9  -1  -6   40.10   17.00
  -9   1  -7   16.40   18.80
  -9   1  -7   22.20   13.10
  -9  -1  -7   32.00   14.30
  -9  -1  -7   50.89   18.30
  -9   1  -8   10.90   18.50
  -9   1  -8   -7.50   13.50
  -9  -1  -8    5.90   18.50
  -9  -1  -8   18.90   15.10
  -9   1  -9    3.60   14.60
  -9   1  -9   34.00   20.20
  -9  -1  -9    8.00   15.30
  -9  -1  -9    2.70   18.80
  -9   1 -10   13.70   15.30
  -9  -1 -10   35.40   17.00
  -9   2  10   34.70   13.70
   9   2 -10   22.10   11.10
   9  -2 -10   20.10   12.40
  -9  -2  10   32.60   16.00
   9   2  -9   50.99   12.00
  -9   2   9   57.29   14.10
  -9  -2   9   60.29   16.80
   9  -2  -9   67.69   12.10
   9   2  -8  242.98   25.10
  -9   2   8  271.17   28.10
  -9   2   8  240.08   30.30
  -9  -2   8  294.57   34.40
   9  -2  -8  252.07   26.30
  -9   2   7   49.60   13.10
  -9   2   7   81.39   14.10
   9   2  -7   48.40   10.50
   9  -2  -7   70.59   11.30
  -9  -2   7   84.19   16.10
  -9  -2   7   65.79   15.90
  -9   2   6  -17.00   11.20
   9   2  -6  -13.40    9.40
  -9   2   6   -9.80   10.80
  -9  -2   6   -5.40    9.80
  -9  -2   6    6.70   13.30
   9  -2  -6  -23.90    8.90
  -9   2   5  285.07   31.10
   9   2  -5  287.07   25.20
  -9   2   5  268.07   26.90
  -9  -2   5  254.97   25.20
  -9  -2   5  290.47   30.80
   9  -2  -5  260.87   25.10
   9   2  -4   93.49   17.30
  -9   2   4  110.39   16.70
  -9  -2   4  118.89   18.40
   9  -2  -4   84.09   17.20
  -9  -2   4   97.29   22.90
   9   2  -3   -4.80   10.00
  -9   2   3    1.70   12.70
  -9   2   3  -31.80   18.20
   9  -2  -3   -6.10    9.50
  -9  -2   3   -0.20   11.20
  -9  -2   3    1.20   10.50
  -9   2   2   92.79   17.50
   9   2  -2   95.69   13.20
  -9  -2   2   91.29   14.80
   9  -2  -2  138.29   20.60
  -9   2   1  287.87   29.80
  -9   2   1  351.36   30.40
   9   2  -1  400.56   31.00
   9  -2  -1  377.06   31.80
  -9  -2   1  352.96   32.20
  -9   2   0   32.30   10.80
  -9  -2   0   49.00   13.10
   9   2   1  268.97   27.40
  -9   2  -1  276.87   25.50
  -9  -2  -1  244.08   27.20
   9  -2   1  243.48   27.40
   9   2   2  153.48   22.50
  -9   2  -2  147.19   21.50
   9  -2   2  155.98   24.20
  -9  -2  -2  149.99   22.80
   9   2   3   -0.20   12.60
  -9   2  -3    9.40   12.20
  -9  -2  -3    3.20   12.20
   9   2   4    0.50   14.10
  -9   2  -4   16.20   11.30
  -9  -2  -4    3.00   12.60
  -9   2  -5  483.05   44.60
  -9   2  -5  482.15   40.00
  -9  -2  -5  476.35   40.40
  -9   2  -6   28.10   13.10
  -9   2  -6   56.39   18.10
  -9  -2  -6   41.00   15.10
  -9  -2  -6   29.30   17.40
  -9   2  -7    4.70   18.10
  -9   2  -7   -1.90   13.80
  -9  -2  -7   -2.10   17.60
  -9  -2  -7   17.20   15.30
  -9   2  -8    2.30   14.20
  -9   2  -8    7.70   18.80
  -9  -2  -8   13.80   15.40
  -9  -2  -8   40.80   20.70
  -9   2  -9   67.19   16.20
  -9   2  -9   60.69   19.60
  -9  -2  -9   36.70   21.80
   9  -2   9   93.79   26.00
  -9  -2  -9   58.89   17.90
   9   3 -10  -22.20   10.30
  -9   3  10  -19.20   13.30
  -9  -3  10   -7.90   18.00
   9  -3 -10   -7.00   11.90
   9  -3 -10   -7.70   17.30
   9   3  -9    4.90   10.50
  -9   3   9   -8.10   13.30
  -9  -3   9   14.90   17.70
   9  -3  -9   -6.30   11.00
   9   3  -8   12.50    9.80
  -9   3   8   10.80   24.30
  -9   3   8    2.10   13.60
  -9  -3   8   41.60   17.20
   9  -3  -8   19.70   10.80
  -9   3   7  142.79   23.50
   9   3  -7   91.19   17.80
  -9   3   7   86.49   16.20
  -9  -3   7  119.59   19.00
  -9  -3   7  147.09   29.40
   9  -3  -7  139.79   19.40
   9   3  -6   44.90   10.90
  -9   3   6   64.99   14.00
  -9   3   6  100.59   20.40
  -9  -3   6   69.29   12.80
   9  -3  -6   64.59   10.80
  -9  -3   6   71.79   15.20
  -9   3   5   94.69   14.70
  -9   3   5  104.39   19.90
   9   3  -5   94.39   17.50
  -9  -3   5  137.09   19.40
  -9  -3   5  143.29   32.10
   9  -3  -5   99.89   17.90
  -9   3   4  -10.70   11.50
   9   3  -4   -4.60    8.80
  -9   3   4  -14.30   11.00
   9  -3  -4   -5.60    8.80
  -9  -3   4   13.00   12.00
  -9  -3   4   19.60   12.90
  -9   3   3  243.78   27.50
  -9   3   3  258.97   30.60
   9   3  -3  294.97   26.90
   9  -3  -3  276.27   32.00
  -9  -3   3  340.57   30.80
  -9  -3   3  288.47   27.90
   9   3  -2   32.30   11.30
  -9   3   2   25.80   11.90
   9  -3  -2   43.50   10.80
  -9  -3   2   29.20   20.60
   9   3  -1   86.39   13.60
  -9   3   1   98.69   18.60
  -9   3   1  101.89   18.70
   9  -3  -1   98.09   19.50
  -9  -3   1   86.49   14.60
   9   3   0   28.00   10.60
  -9   3   0   28.10    7.70
  -9   3   0   10.20   10.50
   9  -3   0   38.10   11.40
  -9  -3   0   23.10   12.20
  -9   3  -1   63.09   12.30
   9   3   1   68.49   12.40
  -9  -3  -1   69.49   14.00
   9   3   2   29.70   11.50
  -9   3  -2   18.30   12.50
   9  -3   2   41.20   12.40
  -9  -3  -2   23.40   13.60
  -9   3  -3  314.67   30.00
   9   3   3  341.37   31.80
  -9  -3  -3  315.77   31.20
   9   3   4    2.70   14.80
  -9   3  -4   17.50   12.20
  -9  -3  -4   12.70   13.00
  -9   3  -5   -0.10   12.30
  -9   3  -5  -15.90   15.90
  -9  -3  -5    3.30   14.00
  -9   3  -6   52.79   13.90
  -9   3  -6   36.60   17.40
  -9  -3  -6   31.60   14.80
  -9   3  -7  243.98   27.00
  -9   3  -7  240.68   34.20
  -9  -3  -7  214.68   35.60
  -9  -3  -7  225.98   27.40
  -9   3  -8    8.10   17.70
  -9   3  -8   -0.30   13.90
  -9  -3  -8   26.90   15.60
  -9  -3  -8   17.00   21.10
  -9   3  -9   58.89   19.80
  -9   3  -9   58.69   16.20
  -9  -3  -9   51.79   22.80
  -9  -3  -9   71.59   17.60
   9   4 -10    2.30   10.90
  -9   4  10    6.90   14.60
   9  -4 -10   25.60   12.20
  -9  -4  10   -7.40   19.80
   9  -4 -10   13.30   17.70
  -9   4   9    6.20   14.10
   9   4  -9   -4.80   10.40
  -9  -4   9    6.60   18.60
   9  -4  -9    0.70   11.20
   9   4  -8   26.70   11.20
  -9   4   8   26.80   14.30
  -9  -4   8   39.50   19.40
   9  -4  -8   35.90   10.90
  -9   4   7   84.59   16.80
   9   4  -7   59.59   11.50
  -9   4   7   54.19   14.30
  -9  -4   7   34.90   16.60
  -9  -4   7   64.89   19.80
   9  -4  -7   71.69   11.40
  -9   4   6   -9.90   12.80
  -9   4   6   17.00   13.80
   9   4  -6  -13.50    9.60
  -9  -4   6    5.70   12.40
  -9  -4   6   -0.90   18.70
   9  -4  -6   -3.70    8.90
   9   4  -5  214.08   23.30
  -9   4   5  270.07   30.70
  -9   4   5  242.88   27.20
  -9  -4   5  224.28   26.30
  -9  -4   5  286.27   36.50
   9  -4  -5  230.88   23.80
  -9   4   4   64.99   14.00
  -9   4   4   81.69   14.20
   9   4  -4   50.99   11.00
  -9  -4   4   78.59   14.20
  -9  -4   4  163.28   32.60
  -9   4   3  -20.90   10.90
   9   4  -3  -10.90   10.10
  -9   4   3   -1.90   11.70
  -9  -4   3  -14.20   14.30
   9  -4  -3    3.00    9.20
  -9   4   2  102.79   20.40
   9   4  -2   72.49   12.70
  -9   4   2   72.99   12.00
  -9  -4   2   76.69   14.30
   9  -4  -2   69.99   12.00
   9   4  -1  120.79   21.30
  -9   4   1  143.29   20.40
  -9   4   1  104.29   20.80
   9  -4  -1  110.99   20.00
  -9  -4   1  103.79   16.70
  -9   4   0   74.39   15.90
  -9   4   0   41.30   12.60
   9   4   0   39.90   11.60
   9  -4   0   43.70   11.60
  -9  -4   0   41.10   13.80
  -9   4  -1  121.09   16.60
  -9   4  -1  128.79   20.70
   9   4   1  111.39   21.00
  -9  -4  -1  144.89   22.20
   9  -4   1  120.79   17.00
  -9   4  -2  180.68   18.30
   9   4   2  120.59   23.20
  -9   4  -2  153.48   21.80
   9  -4   2  129.89   23.20
  -9  -4  -2  158.58   23.50
  -9   4  -3   34.40    8.80
   9   4   3   27.90   12.10
  -9   4  -3   17.90   11.90
  -9  -4  -3   45.40   14.20
  -9   4  -4   29.50   12.30
  -9   4  -4   15.80   15.50
   9   4   4    7.10   13.70
  -9  -4  -4   24.40   13.40
   9   4   5   66.19   17.20
  -9   4  -5   70.09   13.10
  -9   4  -5   53.99   18.00
  -9   4  -5   90.79   15.00
  -9  -4  -5   85.99   15.50
  -9   4  -6   28.10   13.50
  -9   4  -6   -3.00   17.40
  -9   4  -6    3.00   12.90
  -9  -4  -6   31.00   14.40
  -9   4  -7   13.10   13.70
  -9   4  -7   40.50   18.30
  -9  -4  -7   -9.20   14.30
  -9   4  -8   23.30   19.30
  -9   4  -8   17.70   14.50
  -9  -4  -8   37.50   16.90
  -9  -4  -8   14.20   20.60
  -9   4  -9   55.09   19.30
  -9   4  -9   76.09   16.20
  -9  -4  -9   75.99   23.30
  -9  -4  -9   55.09   17.60
   9   5  -9    6.00   11.10
  -9   5   9    9.40   14.40
  -9  -5   9  -27.00   22.30
   9  -5  -9   -0.50   11.50
   9   5  -8    2.30   10.20
  -9   5   8  -19.60   13.90
   9  -5  -8   -5.30   10.70
  -9  -5   8   14.60   23.20
   9   5  -7  -10.80   10.50
  -9   5   7   34.90   16.40
  -9   5   7   18.30   13.90
   9  -5  -7  -11.40   10.20
  -9  -5   7    6.20   22.20
  -9  -5   7   12.80   13.70
  -9   5   6  123.19   25.30
  -9   5   6  163.38   30.40
   9   5  -6  120.19   19.60
  -9  -5   6  124.69   24.90
  -9  -5   6  119.69   22.70
   9  -5  -6  133.19   19.00
  -9   5   5   24.10   14.60
   9   5  -5   18.70    9.90
  -9   5   5   25.50   13.90
   9  -5  -5   23.50    9.20
  -9  -5   5   16.30   14.60
  -9   5   4  286.97   32.10
   9   5  -4  250.37   25.80
  -9   5   4  270.77   28.80
  -9  -5   4  256.57   28.60
   9  -5  -4  272.57   24.80
  -9   5   3  115.49   21.90
   9   5  -3  132.39   19.00
  -9   5   3   91.69   14.70
  -9  -5   3  113.59   16.70
   9  -5  -3  116.09   18.00
  -9   5   2   42.20   20.10
   9   5  -2   28.40   11.50
  -9   5   2   55.19   14.20
   9   5  -2   28.10   12.50
   9  -5  -2   51.69   11.10
  -9  -5   2   58.19   14.50
   9   5  -1    0.40   11.00
  -9   5   1    4.70   12.70
  -9   5   1   31.60    9.40
   9  -5  -1   -2.80   10.20
  -9  -5   1   21.70   13.90
   9   5   0  234.38   26.10
  -9   5   0  267.27   28.10
  -9   5   0  250.17   23.80
  -9  -5   0  241.98   27.70
   9  -5   0  235.18   25.50
  -9   5  -1  115.99   17.40
   9   5   1  108.09   19.90
  -9   5  -1   65.09   15.40
   9  -5   1  146.39   20.20
  -9  -5  -1   72.59   15.80
  -9   5  -2   -5.40   12.40
  -9   5  -2    5.20    8.40
   9   5   2    4.60   11.40
   9  -5   2    4.70   11.50
  -9  -5  -2   -1.90   13.50
  -9   5  -3  111.99   21.80
   9   5   3   92.59   15.30
  -9   5  -3  108.39   19.90
  -9  -5  -3  122.29   22.70
  -9   5  -4   87.09   15.10
  -9   5  -4   81.69   12.30
   9   5   4   66.29   15.10
  -9  -5  -4   64.29   15.50
  -9   5  -5   -5.70   11.50
  -9   5  -5    2.40   13.00
   9   5   5    3.70   14.70
  -9   5  -5  -16.40   17.10
  -9  -5  -5    6.70   14.70
  -9   5  -6   51.29   15.30
  -9   5  -6   53.49   15.00
  -9   5  -6   54.39   18.80
  -9  -5  -6   47.70   15.50
  -9   5  -7   93.99   17.90
  -9   5  -7  110.09   17.30
  -9   5  -7   97.29   20.30
  -9  -5  -7   64.69   16.70
  -9   5  -8   37.50   19.80
  -9   5  -8   25.40   18.80
  -9   5  -8   42.50   16.10
  -9  -5  -8   23.50   16.10
   9   6  -9  -10.10   10.80
  -9   6   9    2.20   15.00
  -9  -6   9  -13.60   26.70
   9  -6  -9  -19.30   11.40
   9  -6  -9    3.90   22.10
   9   6  -8   44.30   12.00
  -9   6   8   82.29   17.90
   9  -6  -8   85.09   12.60
  -9  -6   8   85.39   28.10
   9   6  -7  -11.40   10.90
  -9   6   7   -3.80   14.90
   9  -6  -7   16.50    9.80
  -9  -6   7  -18.70   14.30
  -9   6   6  -18.30   14.40
   9   6  -6  -12.60   10.40
  -9   6   6  -11.00   16.70
   9  -6  -6    7.00    9.10
   9   6  -5   43.80   12.30
  -9   6   5   64.59   17.30
  -9   6   5   38.90   14.50
  -9  -6   5   32.90   15.20
   9  -6  -5   62.89   11.80
   9   6  -4  150.68   20.80
  -9   6   4  190.58   29.20
   9   6  -4  150.38   30.20
  -9   6   4  215.78   27.40
   9  -6  -4  207.48   20.40
  -9  -6   4  121.39   25.80
   9   6  -3   30.00   10.50
  -9   6   3   30.20   14.50
  -9   6   3   36.00   12.80
   9   6  -3   38.20   13.70
   9  -6  -3   49.99   10.00
  -9  -6   3   29.20   15.40
  -9   6   2  142.29   25.20
   9   6  -2  152.08   24.80
  -9   6   2  133.99   26.00
   9   6  -2  164.28   22.20
  -9  -6   2  194.78   26.10
   9  -6  -2  179.98   21.20
  -9   6   1   45.20   10.60
   9   6  -1   20.00   11.50
  -9   6   1   42.20   14.60
   9  -6  -1   56.09   11.50
  -9  -6   1   28.80   15.20
  -9   6   0    8.70    8.50
  -9   6   0  -11.40   12.70
   9   6   0   -8.80   11.50
  -9  -6   0   -2.50   14.40
   9  -6   0   39.30   10.30
   9   6   1   -1.50   11.20
  -9   6  -1   -9.70   13.80
  -9  -6  -1  -10.90   13.90
  -9   6  -2  127.69   24.00
   9   6   2   96.29   14.60
  -9   6  -2  117.89   26.20
   9  -6   2  136.49   25.50
  -9  -6  -2  135.09   23.30
  -9   6  -3   15.30   15.80
  -9   6  -3   -6.30   14.10
   9   6   3   -8.10   12.10
  -9  -6  -3   -5.90   14.90
  -9   6  -4   97.39   16.80
  -9   6  -4   55.39   12.30
   9   6   4   70.49   14.40
  -9  -6  -4   77.29   15.90
  -9   6  -5    6.80   12.00
  -9   6  -5    7.40   17.80
  -9   6  -5    4.20   15.90
   9   6   5  -12.80   13.90
  -9  -6  -5   -0.40   14.50
  -9   6  -6  266.67   29.80
  -9   6  -6  200.98   35.70
   9   6   6  150.38   30.50
  -9   6  -6  210.68   29.70
  -9  -6  -6  152.38   27.00
  -9   6  -7   53.89   17.40
  -9   6  -7    4.10   16.90
  -9   6  -7   19.80   19.10
  -9  -6  -7   30.00   16.40
  -9   6  -8  171.28   35.00
  -9   6  -8  167.98   27.90
  -9   6  -8   77.79   22.50
  -9  -6  -8   91.59   18.70
  -9   7   8   52.19   17.30
   9   7  -8   50.09   12.80
   9  -7  -8   64.99   12.00
   9  -7  -8   61.19   23.30
  -9  -7   8   68.29   17.20
   9   7  -7   26.60   11.50
  -9   7   7   47.40   16.30
   9  -7  -7   32.40   10.70
  -9  -7   7   29.70   17.20
  -9   7   6   55.19   15.50
   9   7  -6   38.40   11.50
  -9  -7   6   48.70   16.90
   9  -7  -6   62.39   12.50
  -9   7   5  -11.00   17.20
   9   7  -5   -5.60   17.00
  -9   7   5   -2.50   14.20
   9   7  -5   -3.80   10.30
   9  -7  -5   11.70    9.00
  -9  -7   5  -16.40   15.80
   9   7  -4  122.99   20.20
  -9   7   4  149.69   28.90
   9   7  -4   87.79   18.40
  -9   7   4  145.19   26.90
   9  -7  -4  151.38   18.20
  -9  -7   4  149.49   26.50
   9   7  -3   96.99   19.90
   9   7  -3   63.99   16.30
  -9   7   3  121.99   26.60
  -9   7   3  120.69   20.00
  -9  -7   3  121.49   24.80
   9  -7  -3  166.08   17.70
   9   7  -2   13.20   14.20
  -9   7   2    6.90   11.40
   9   7  -2    1.20   11.50
  -9   7   2   17.10   15.50
  -9  -7   2    0.70   15.60
  -9   7   1    9.40   15.30
  -9   7   1   -1.20   10.20
   9   7  -1  -15.60   11.00
   9   7  -1   -6.00   12.10
  -9  -7   1   -6.70   15.90
   9  -7  -1    5.50   10.70
  -9   7   0   15.80   15.70
   9   7   0   24.50   10.70
   9   7   0   21.40   12.30
  -9   7   0   20.30    9.90
  -9  -7   0   30.00   15.70
   9  -7   0   43.10   11.40
  -9   7  -1   54.09   11.10
  -9   7  -1   93.09   17.20
   9   7   1   53.39   13.40
   9   7   1   53.39   15.00
  -9  -7  -1   53.19   16.60
  -9   7  -2   24.00   10.30
  -9   7  -2   16.60   15.40
   9   7   2   23.00   11.60
  -9  -7  -2   41.00   15.70
  -9   7  -3  -21.10   14.90
  -9   7  -3    2.50   10.60
   9   7   3    9.20   12.10
  -9  -7  -3   -2.60   15.80
   9   7   4  136.49   24.40
  -9   7  -4  145.09   23.90
  -9   7  -4  176.88   27.60
  -9  -7  -4  122.89   25.40
  -9   7  -5    7.30   15.80
   9   7   5   -1.90   13.40
  -9   7  -5   -8.20   12.30
  -9   7  -5  -42.30   18.90
  -9  -7  -5   12.40   14.80
  -9   7  -6   39.40   14.70
  -9   7  -6   35.90   17.20
   9   7   6   41.10   15.90
  -9   7  -6   37.00   20.20
  -9  -7  -6   52.19   16.70
  -9   7  -7   86.59   18.00
  -9   7  -7   73.09   18.70
   9   7   7   82.39   18.90
  -9   7  -7   41.60   21.10
  -9  -7  -7   48.30   17.90
   9   8  -7   -7.10   11.10
  -9   8   7    5.70   15.10
  -9  -8   7   -3.30   17.30
   9  -8  -7    3.80    9.80
   9   8  -6   24.40   19.30
  -9   8   6   33.70   16.20
   9   8  -6   30.40   11.60
  -9  -8   6   30.90   18.20
   9  -8  -6   37.20    9.90
   9   8  -5   34.70   11.70
  -9   8   5   30.10   15.80
   9   8  -5   34.00   17.90
  -9  -8   5   28.90   17.80
   9  -8  -5   53.99    9.70
   9   8  -4   44.90   16.60
  -9   8   4   56.39   19.80
   9   8  -4   47.00   12.40
  -9   8   4   56.99   14.80
  -9  -8   4   14.90   18.60
   9   8  -3    7.90   14.30
   9   8  -3    4.50   11.30
  -9   8   3   -2.20   12.70
  -9   8   3   -4.90   17.50
  -9  -8   3   31.70   17.40
   9   8  -2   -2.20   12.50
   9   8  -2   -3.20   11.40
  -9   8   2   -9.20   12.30
  -9   8   2    8.50   16.60
   9  -8  -2    1.00   14.60
  -9  -8   2   12.30   17.00
   9   8  -1  150.98   25.20
  -9   8   1  174.48   28.80
   9   8  -1  135.39   23.80
  -9   8   1  178.18   23.70
  -9  -8   1  149.59   27.20
  -9   8   0   38.50   16.90
   9   8   0   50.79   15.30
  -9   8   0   34.80   11.00
   9   8   0   32.80   12.80
  -9  -8   0   17.10   16.50
   9   8   1   77.79   14.60
  -9   8  -1   83.99   19.10
   9   8   1  109.19   20.30
  -9   8  -1   56.29   12.30
   9  -8   1  142.09   20.50
  -9  -8  -1   80.59   17.90
  -9   8  -2   13.60   16.40
  -9   8  -2   13.20   10.80
   9   8   2   13.60   10.30
   9   8   2   11.80   12.60
  -9  -8  -2    8.90   16.60
   9   8   3   62.99   13.50
  -9   8  -3  119.69   19.40
   9   8   3  110.09   18.50
  -9   8  -3   54.89   12.80
  -9  -8  -3   94.09   18.00
   9  -8   3    3.50   14.90
  -9   8  -4   -6.50   12.00
   9   8   4   19.00   10.00
   9   8   4   16.80   13.30
  -9   8  -4    1.30   18.00
  -9  -8  -4    4.30   16.90
   9   8   5   49.30   14.70
  -9   8  -5   61.99   19.00
   9   8   5   66.69   12.60
  -9   8  -5   36.10   13.70
  -9  -8  -5   49.30   18.00
   9   8   6   38.50   15.00
  -9   8  -6   67.49   21.20
  -9   8  -6   43.80   15.40
   9   8   6   43.40   12.30
  -9   8  -6   47.50   19.20
  -9  -8  -6   35.20   17.20
   9   9  -6  -12.50   11.60
   9   9  -5    3.90   17.50
  -9   9   5    1.10   15.00
   9   9  -5  -14.20   11.30
  -9  -9   5  -22.10   18.70
   9   9  -4   34.30   13.20
  -9   9   4   12.00   14.90
   9   9  -4   44.70   17.00
  -9  -9   4   45.10   19.30
  -9   9   3  132.19   22.70
   9   9  -3   73.89   14.30
   9   9  -3  125.29   27.70
  -9   9   3  139.49   26.50
  -9  -9   3  102.89   21.30
   9   9  -2   -1.20   13.50
  -9   9   2   15.60   12.40
  -9   9   2   -1.10   18.90
   9   9  -2   -2.70   11.80
  -9  -9   2   -0.30   18.70
  -9   9   1    0.00   18.50
   9   9  -1   19.30   13.00
  -9   9   1   10.40   10.80
   9   9  -1   19.50   12.70
  -9  -9   1    2.90   18.40
  -9   9   0    4.00   19.00
   9   9   0   -1.80   12.10
   9   9   0  -20.90   13.20
  -9   9   0   -8.80   11.20
  -9  -9   0  -20.70   18.10
  -9   9  -1   22.10   18.10
   9   9   1   54.99   12.10
  -9   9  -1   21.50   11.30
   9   9   1   16.30   13.20
  -9  -9  -1   20.20   18.50
   9  -9   1   39.10   11.90
  -9   9  -2  118.49   21.80
  -9   9  -2  104.39   20.50
   9   9   2  105.39   21.70
   9   9   2   59.59   14.40
  -9  -9  -2   64.29   19.60
   9   9   3   20.80   10.60
  -9   9  -3    3.30   11.70
  -9   9  -3   13.10   18.10
   9   9   3   21.20   12.70
   9  -9   3  -34.70   12.30
  -9  -9  -3    7.30   17.70
  -9   9  -4   29.90   13.00
   9   9   4   37.60   11.00
   9   9   4   11.40   12.90
  -9   9  -4   36.80   20.00
  -9  -9  -4    5.40   18.20
  -9   9  -5  -13.40   18.90
   9   9   5    3.80   13.70
  -9  10   3   10.90   14.70
   9  10  -3    0.00   14.70
   9  10  -3   -8.70   12.80
  -9 -10   3  -12.60   20.40
   9  10  -2    0.30   12.80
  -9  10   2    4.10   19.80
  -9  10   2   -9.90   12.40
   9  10  -2   -2.60   14.00
  -9 -10   2   19.80   20.50
   9  10  -1    5.80   12.80
  -9  10   1   17.80   19.80
  -9  10   1    8.70   12.30
   9  10  -1   23.90   13.80
  -9 -10   1   -4.80   19.90
  -9  10   0   45.70   21.20
   9  10   0   36.40   13.50
   9  10   0   56.49   13.40
  -9  10   0   14.40   11.90
  -9 -10   0   18.10   19.60
  -9  10  -1   33.30   12.50
  -9  10  -1   53.19   20.80
   9  10   1   22.10   14.50
   9  10   1   55.79   12.60
  -9 -10  -1   42.70   19.70
   9  10   2   15.90   13.80
  -9  10  -2   45.10   21.00
   9  10   2   20.90   12.10
  -9  10  -2   19.00   11.90
  -9 -10  -2   44.40   21.10
  10   0 -10  296.97   29.50
 -10   0  10  325.57   34.40
  10   0  -9    6.30   11.20
 -10   0   9   14.80   13.50
 -10   0   8   -5.60   11.90
  10   0  -8    1.60   10.80
 -10   0   8    4.00   12.70
 -10   0   7   29.90   12.00
 -10   0   7   47.40   12.00
  10   0  -6   18.10   10.70
 -10   0   6   34.30   11.40
 -10   0   6   24.70   10.80
 -10   0   5   -2.80   12.40
  10   0  -5   -9.90    9.60
 -10   0   5   -9.90   11.70
  10   0  -4   31.40    9.60
 -10   0   4   53.69   11.60
 -10   0   4   10.90   10.00
 -10   0   3    0.60   10.50
  10   0  -3  -16.50   11.00
 -10   0   2  376.66   33.50
  10   0  -2  427.46   34.40
 -10   0   1   10.40   10.40
 -10   0   0    4.50   10.70
  10   0   0   12.70   10.80
 -10   0  -1  -13.10   11.20
  10   0   1    3.40   11.90
 -10   0  -2  123.99   20.30
  10   0   2  115.79   22.10
  10   0   3   -4.30   12.70
 -10   0  -3    1.40   12.60
  10   0   4  107.99   17.80
 -10   0  -4  118.29   21.70
 -10   0  -5  -14.50   13.20
 -10   0  -6  -13.00   13.40
 -10   0  -7   14.20   15.10
 -10   0  -7   30.80   20.50
 -10   0  -8   10.00   15.50
 -10   0  -8   17.40   20.10
 -10   0  -9    2.00   15.50
 -10   0  -9  -16.70   21.10
  10   1 -10  104.59   20.30
 -10   1  10   68.39   15.40
  10  -1 -10  108.39   21.40
 -10   1   9  142.59   24.00
  10   1  -9  135.39   22.00
 -10   1   9  131.79   26.20
 -10  -1   9  161.38   27.20
  10  -1  -9  156.48   21.90
 -10   1   8   20.00   13.10
  10   1  -8   15.20   10.20
 -10   1   8   30.60   12.50
 -10  -1   8   24.40   12.90
  10  -1  -8   16.20   10.80
 -10  -1   8   22.10   11.60
  10   1  -7   28.10    9.80
 -10   1   7   52.19   13.20
 -10   1   7   23.30   12.20
  10  -1  -7   22.90    9.80
 -10  -1   7   18.10   11.20
 -10  -1   7   20.00   12.30
  10   1  -6  234.28   24.30
 -10   1   6  219.18   27.90
 -10  -1   6  219.18   27.90
  10  -1  -6  245.48   24.10
 -10  -1   6  237.58   23.90
 -10   1   5   12.40   11.00
  10   1  -5   -6.30    9.90
 -10   1   5    4.40   12.40
  10  -1  -5    6.20    9.20
 -10  -1   5   -7.70   10.50
 -10  -1   5    8.90   10.90
  10   1  -4  156.98   19.80
 -10   1   4  163.68   19.30
 -10   1   4   98.69   15.20
 -10  -1   4  154.08   24.10
  10  -1  -4  161.48   19.70
 -10  -1   4  130.79   22.20
 -10   1   3   16.70   11.10
 -10   1   3   40.20   11.30
  10   1  -3   41.60   11.20
 -10  -1   3   56.19   11.70
 -10  -1   3   21.30    8.90
  10  -1  -3   36.50   11.70
 -10   1   2   20.20   10.60
 -10   1   2  -12.20    8.80
  10   1  -2   53.19   11.00
 -10  -1   2   42.90   11.80
  10  -1  -2    8.10   11.10
 -10   1   1   35.80   12.30
  10   1  -1   31.50   12.10
  10  -1  -1   33.80   11.40
 -10  -1   1   22.60   11.80
 -10   1   0   16.50   11.80
  10   1   0   38.80   10.80
 -10  -1   0   30.80   12.70
  10  -1   0   24.50   11.00
 -10   1  -1    6.40   11.10
  10   1   1   30.80   12.60
 -10  -1  -1   20.10   11.80
  10  -1   1   -1.70   12.00
 -10   1  -2   68.69   13.40
  10   1   2   61.59   13.30
 -10  -1  -2   54.99   13.40
  10  -1   2   57.69   13.20
  10   1   3   -1.30   13.00
 -10   1  -3    1.30   11.70
 -10  -1  -3   13.60   13.40
  10  -1   3    8.20   13.40
 -10   1  -4  195.38   23.70
  10   1   4  163.48   30.20
 -10  -1  -4  208.88   25.30
 -10   1  -5   33.10   12.90
 -10  -1  -5   24.20   14.00
 -10   1  -6   -3.30   17.70
 -10   1  -6    0.30   13.40
 -10  -1  -6   -2.60   13.60
 -10   1  -7    6.90   13.60
 -10   1  -7    4.40   20.00
 -10  -1  -7    6.60   14.40
 -10  -1  -7   -6.80   18.50
 -10   1  -8   76.49   21.30
 -10   1  -8   95.79   17.20
 -10  -1  -8   85.39   17.70
 -10  -1  -8   83.29   23.50
 -10   1  -9   31.20   21.60
 -10   1  -9   20.50   15.50
 -10  -1  -9   20.80   22.50
 -10  -1  -9   19.60   17.10
 -10   2  10    3.60   12.70
  10   2 -10  -11.10   10.40
 -10  -2  10   12.60   15.60
  10  -2 -10   16.40   11.80
 -10   2   9   16.20   13.00
 -10   2   9   33.50   17.20
  10   2  -9   24.90   12.10
  10  -2  -9   33.00   11.60
 -10  -2   9   41.50   15.50
 -10   2   8  185.18   31.30
 -10   2   8  166.68   27.40
  10   2  -8  131.69   21.00
  10  -2  -8  154.48   22.00
 -10  -2   8  203.98   26.70
 -10  -2   8  203.48   30.00
 -10   2   7  265.97   27.40
  10   2  -7  252.57   24.60
 -10   2   7  227.68   30.90
  10  -2  -7  322.47   25.70
 -10  -2   7  210.98   25.50
 -10  -2   7  260.47   31.70
 -10   2   6  -22.60   12.60
 -10   2   6    7.00   12.20
  10   2  -6   -2.30   10.50
 -10  -2   6   13.40   12.50
 -10  -2   6   -8.00   10.50
  10  -2  -6    6.70    9.70
 -10   2   5   68.39   14.60
 -10   2   5  154.18   20.20
  10   2  -5  110.79   18.30
 -10  -2   5   87.19   16.60
 -10  -2   5  108.79   18.30
  10  -2  -5  106.39   18.30
 -10   2   4   28.80   11.80
 -10   2   4   88.49   17.70
  10   2  -4   58.49   10.90
 -10  -2   4   56.19   11.80
 -10  -2   4   63.49   14.90
  10  -2  -4   43.70   10.60
  10   2  -3   93.49   13.60
 -10   2   3   56.49   12.40
 -10   2   3  116.69   18.00
  10  -2  -3   75.89   12.70
 -10  -2   3   65.49   11.50
 -10  -2   3   90.19   14.00
 -10   2   2   30.40   10.60
  10   2  -2   23.20   10.50
 -10   2   2   -2.30    9.60
  10  -2  -2   20.70   11.20
 -10  -2   2   13.30   12.10
  10   2  -1   29.30   12.10
 -10   2   1   34.20   11.60
  10  -2  -1   23.50   11.30
 -10  -2   1   25.40   13.00
 -10   2   0   40.70   11.20
  10   2   0   44.40   11.10
  10  -2   0   46.20   11.80
 -10  -2   0   32.30   12.90
 -10   2  -1    0.70   10.70
  10   2   1    4.40   10.80
 -10  -2  -1   11.30   12.10
  10  -2   1    8.40   11.30
  10   2   2   41.50   12.10
 -10   2  -2   18.20   11.80
  10  -2   2   22.10   11.60
 -10  -2  -2   24.70   13.60
  10   2   3  -12.80   12.10
 -10   2  -3   -0.70   11.50
  10  -2   3  -13.60   13.50
 -10  -2  -3   -4.90   12.70
 -10   2  -4    2.10   13.10
  10   2   4    0.10   14.70
 -10  -2  -4   -5.50   13.00
 -10   2  -5   78.69   15.10
 -10  -2  -5   66.49   16.30
 -10   2  -6   34.40   14.70
 -10   2  -6   15.30   18.80
 -10  -2  -6   16.40   14.20
 -10   2  -7   66.89   15.90
 -10   2  -7   67.09   21.60
 -10  -2  -7   67.09   16.60
 -10   2  -8   24.40   21.00
 -10   2  -8   17.00   15.30
 -10  -2  -8   28.10   20.30
 -10  -2  -8   25.10   16.50
 -10   2  -9   13.00   21.70
 -10   2  -9   21.60   15.30
 -10  -2  -9   16.20   21.10
 -10  -2  -9   16.10   17.20
  10   3  -9  104.99   20.60
 -10   3   9   78.09   16.90
  10  -3  -9  137.09   20.80
 -10  -3   9  104.39   20.30
  10   3  -8    0.10   10.00
 -10   3   8   -4.70   14.20
 -10   3   8   23.90   16.50
  10  -3  -8   10.50   11.00
 -10  -3   8    2.20   16.90
 -10   3   7   48.70   14.60
 -10   3   7   58.89   15.60
  10   3  -7   47.80   10.70
 -10  -3   7   45.20   12.60
  10  -3  -7   53.09   11.50
 -10  -3   7   59.19   16.80
 -10   3   6   21.50   13.30
  10   3  -6   -1.80    9.80
 -10   3   6   -7.20   12.80
  10  -3  -6    2.60    9.80
 -10  -3   6   14.60   15.50
 -10  -3   6   14.30   11.70
 -10   3   5  102.89   16.10
 -10   3   5  137.09   22.00
  10   3  -5  115.39   18.80
 -10  -3   5  169.08   33.40
  10  -3  -5  119.19   18.70
 -10  -3   5  122.99   18.70
 -10   3   4  -15.50   11.80
 -10   3   4   -7.50   14.50
  10   3  -4   -2.60   10.30
 -10  -3   4   -0.30   12.40
  10  -3  -4  -13.70    9.30
 -10  -3   4    7.10   12.50
 -10   3   3  377.16   35.60
  10   3  -3  381.06   32.60
 -10   3   3  369.96   32.10
 -10  -3   3  334.77   35.00
  10  -3  -3  349.77   32.30
 -10  -3   3  368.26   33.00
 -10   3   2   -1.10   11.30
 -10   3   2   -0.80    9.60
  10   3  -2    6.30   11.30
  10  -3  -2   10.40   10.70
 -10  -3   2    8.80   13.10
  10   3  -1    9.50   11.60
 -10   3   1   16.10    8.10
 -10   3   1   16.50   11.40
 -10  -3   1   10.00   12.70
  10  -3  -1    9.60   11.40
  10   3   0    1.00   11.20
 -10   3   0   24.50    7.10
 -10   3   0    2.30   11.40
  10  -3   0    7.40   11.30
 -10  -3   0    3.40   13.50
  10   3   1  166.58   23.70
 -10   3  -1  170.48   22.10
 -10  -3  -1  170.48   23.90
  10  -3   1  164.08   23.90
  10   3   2  152.18   23.00
 -10   3  -2  127.29   21.60
 -10  -3  -2  124.59   21.90
  10  -3   2  135.59   22.80
  10   3   3    0.20   11.80
 -10   3  -3   27.60   12.00
 -10  -3  -3    7.80   13.30
  10  -3   3    8.70   14.10
  10   3   4   -7.70   13.30
 -10   3  -4    6.00   12.80
 -10  -3  -4    0.70   12.70
 -10   3  -5   36.30   13.80
  10   3   5   23.60   16.20
 -10  -3  -5   37.70   15.20
 -10   3  -6    6.90   17.90
 -10   3  -6   -9.90   13.00
 -10  -3  -6    2.40   14.40
 -10   3  -7  101.09   16.80
 -10   3  -7   83.59   21.10
 -10  -3  -7  121.09   24.50
 -10   3  -8   12.00   19.20
 -10   3  -8   10.50   15.00
 -10  -3  -8    2.00   20.00
 -10  -3  -8   10.70   16.80
  10   4  -9  -21.60   10.70
 -10   4   9  -26.20   14.20
  10  -4  -9  -14.50   11.60
 -10  -4   9  -22.60   19.50
 -10   4   8   19.40   17.20
  10   4  -8  -16.00   11.20
 -10   4   8    1.20   13.80
  10  -4  -8  -20.40   11.40
 -10  -4   8   -3.50   18.30
 -10   4   7   93.79   16.60
  10   4  -7  105.69   18.90
 -10   4   7  154.88   25.20
 -10  -4   7   90.79   19.20
 -10  -4   7   96.09   15.30
  10  -4  -7  103.89   13.90
 -10   4   6    7.40   13.70
  10   4  -6   11.60   11.10
 -10   4   6   22.90   14.60
  10  -4  -6   23.40   10.30
 -10  -4   6   16.00   16.80
 -10  -4   6   19.70   13.40
  10   4  -5  167.28   21.50
 -10   4   5  195.88   31.10
 -10   4   5  207.08   25.60
  10  -4  -5  174.88   21.90
 -10  -4   5  190.38   25.00
 -10  -4   5  261.57   32.80
 -10   4   4   95.29   16.00
  10   4  -4  101.89   19.50
 -10   4   4  130.79   21.70
  10  -4  -4   96.89   18.80
 -10  -4   4  173.28   29.90
 -10  -4   4  109.79   22.30
  10   4  -3   22.70   11.30
 -10   4   3   36.50   14.20
 -10  -4   3   63.89   17.50
  10  -4  -3   40.10   10.70
 -10  -4   3   43.00   14.20
 -10   4   2   -6.50   12.20
 -10   4   2   -1.50   10.10
  10   4  -2  -20.90   11.20
 -10  -4   2   -8.50   12.80
  10  -4  -2  -18.40   10.60
 -10   4   1  251.87   24.40
  10   4  -1  220.78   26.90
 -10   4   1  259.37   25.90
  10  -4  -1  216.98   25.50
 -10  -4   1  191.98   27.30
 -10   4   0   54.19   14.80
 -10   4   0   23.30   13.20
  10   4   0   56.89   12.80
 -10  -4   0   18.50   14.00
  10  -4   0   52.39   11.70
  10   4   1   80.99   13.40
 -10   4  -1   88.19   15.70
 -10   4  -1   78.99   14.30
 -10  -4  -1   75.39   16.50
  10  -4   1   87.79   13.70
  10   4   2    3.80   11.90
 -10   4  -2   15.30   12.10
 -10  -4  -2    9.80   13.20
  10  -4   2   -8.30   11.50
 -10   4  -3  195.08   25.10
  10   4   3  242.18   26.40
 -10  -4  -3  195.98   25.60
  10  -4   3  196.58   29.00
 -10   4  -4    0.20   12.90
  10   4   4    1.20   13.60
 -10  -4  -4   -5.20   14.40
  10   4   5   26.50   16.00
 -10   4  -5    8.60   12.80
 -10   4  -5   10.50   12.70
 -10  -4  -5   19.40   14.10
 -10   4  -6    7.90   13.30
 -10   4  -6   22.20   13.70
 -10   4  -6   -4.10   18.90
 -10  -4  -6   -5.90   14.50
 -10   4  -7    3.40   19.10
 -10   4  -7    2.30   14.30
 -10  -4  -7   15.00   15.00
 -10   4  -8   -1.30   20.70
 -10   4  -8   -3.40   14.30
 -10  -4  -8    7.40   15.70
 -10   5   9  -10.00   14.70
  10   5  -9    9.40   12.20
 -10  -5   9   19.20   21.30
 -10   5   8   16.80   15.00
  10   5  -8   15.70   11.00
 -10  -5   8   22.70   14.10
 -10  -5   8   53.79   21.90
  10  -5  -8   31.10   11.20
  10   5  -7   -0.40   10.90
 -10   5   7    5.00   17.30
 -10   5   7   19.60   15.40
 -10  -5   7   -6.40   14.20
 -10  -5   7    8.90   20.80
  10  -5  -7   -2.30   10.50
 -10   5   6  206.28   32.30
  10   5  -6  146.59   21.90
 -10   5   6  181.48   27.80
 -10  -5   6  200.78   39.80
  10  -5  -6  144.99   20.70
 -10  -5   6  150.38   25.20
  10   5  -5    0.70   10.30
 -10   5   5   16.00   14.60
 -10   5   5   26.10   14.90
 -10  -5   5   14.50   15.10
 -10  -5   5   35.70   20.70
  10  -5  -5   11.40   10.20
  10   5  -4   -9.20   10.00
 -10   5   4  -13.70   12.60
 -10   5   4    4.90   14.10
 -10  -5   4    1.30   14.40
  10  -5  -4   -1.70    9.50
 -10   5   3   97.29   15.90
 -10   5   3   75.19   14.00
  10   5  -3   68.19   12.70
  10  -5  -3   81.69   12.10
 -10  -5   3   74.29   16.60
 -10   5   2  312.57   31.90
  10   5  -2  346.07   32.00
 -10   5   2  381.06   32.10
 -10  -5   2  312.67   32.40
  10  -5  -2  300.77   30.10
 -10   5   1   21.90   14.30
 -10  -5   1   25.30   14.80
 -10   5   0  130.49   23.30
 -10   5   0  133.99   17.70
  10   5   0  127.69   22.60
  10  -5   0  102.79   14.90
 -10  -5   0  139.59   23.60
 -10   5  -1  174.48   24.90
  10   5   1  184.78   22.80
 -10   5  -1  191.18   20.50
  10  -5   1  163.98   24.10
 -10  -5  -1  116.59   24.80
  10   5   2   25.30   12.80
 -10   5  -2   46.80   13.90
 -10   5  -2   77.89   17.50
 -10  -5  -2   47.50   14.80
  10  -5   2   53.39   12.70
 -10   5  -3    0.70    9.80
  10   5   3    2.50   13.10
 -10   5  -3   -5.10   12.40
  10  -5   3  -28.10   13.90
 -10  -5  -3   -4.80   13.40
 -10   5  -4   79.19   15.50
 -10   5  -4   48.20   12.20
  10   5   4   60.49   14.00
 -10  -5  -4   62.29   15.90
 -10   5  -5    6.20   13.70
  10   5   5   -0.90   14.20
 -10   5  -5   -7.20   12.00
 -10  -5  -5   -4.40   14.00
 -10   5  -6   -7.50   19.20
  10   5   6  -21.40   16.50
 -10   5  -6   -1.00   14.20
 -10   5  -6    4.90   19.10
 -10  -5  -6    3.60   14.20
 -10   5  -7   41.10   21.20
 -10   5  -7   47.10   17.30
 -10   5  -7   58.09   16.10
 -10  -5  -7   39.70   16.00
 -10  -5  -8   24.10   17.00
  10   6  -8   55.49   12.10
 -10   6   8   58.79   17.30
 -10  -6   8   39.80   26.10
 -10  -6   8   69.19   17.40
  10  -6  -8   91.99   13.40
 -10   6   7   26.80   16.50
 -10   6   7   28.90   19.00
  10   6  -7   30.80   11.80
 -10  -6   7   43.80   16.90
 -10  -6   7   21.20   25.80
  10  -6  -7   45.20   11.60
 -10   6   6    5.50   17.10
 -10   6   6   -8.80   14.90
  10   6  -6   -5.70   10.60
 -10  -6   6  -17.40   14.60
  10  -6  -6   -2.90   10.10
 -10   6   5   -6.40   16.30
  10   6  -5   -9.10   10.60
 -10   6   5  -22.20   13.70
  10  -6  -5  -15.40    9.80
 -10  -6   5  -13.90   15.50
 -10   6   4  101.99   17.20
  10   6  -4  109.09   20.60
 -10   6   4  148.09   25.50
  10  -6  -4  132.99   18.60
 -10  -6   4  123.89   18.90
  10   6  -3   -2.10   10.70
 -10   6   3   38.50   15.60
 -10   6   3   24.30   13.00
  10  -6  -3   35.80   16.00
 -10  -6   3   27.90   15.50
 -10   6   2  226.38   28.80
  10   6  -2  205.78   29.10
  10   6  -2  193.28   26.30
 -10   6   2  205.98   27.50
 -10  -6   2  222.68   28.00
  10  -6  -2  211.08   33.60
 -10   6   1   26.10   14.70
 -10   6   1   44.20   11.00
 -10  -6   1    3.10   15.00
 -10   6   0   55.19   10.60
  10   6   0   66.49   14.00
 -10   6   0   70.79   15.70
  10  -6   0  105.49   19.60
 -10  -6   0   73.99   17.10
 -10   6  -1   17.60   13.90
  10   6   1   34.20   13.00
 -10   6  -1   11.80    9.50
 -10  -6  -1   14.30   14.60
  10   6   2  117.39   21.60
 -10   6  -2  114.29   19.20
 -10   6  -2  126.69   25.00
  10  -6   2  153.78   22.60
 -10  -6  -2  111.19   18.00
 -10   6  -3   33.50   11.90
 -10   6  -3   45.40   16.40
  10   6   3   21.20   12.90
 -10  -6  -3    0.00   15.10
  10  -6   3   44.70   14.10
  10   6   4   32.20   14.00
 -10   6  -4   19.10   11.40
 -10   6  -4   56.69   16.20
 -10  -6  -4   31.90   15.20
 -10   6  -5    4.10   12.70
 -10   6  -5    9.20   16.90
  10   6   5  -12.90   13.90
 -10  -6  -5   -0.20   15.60
 -10   6  -6  201.98   36.50
 -10   6  -6  213.28   29.70
  10   6   6  196.08   30.60
 -10   6  -6  240.08   31.20
 -10  -6  -6  164.08   27.10
 -10   6  -7   30.90   17.60
 -10   6  -7    5.10   17.50
 -10   6  -7   15.30   20.60
  10   6   7   26.50   18.60
 -10  -6  -7    2.10   15.20
 -10   7   7   13.90   16.30
  10   7  -7   11.10   11.50
  10  -7  -7   34.70   10.80
 -10  -7   7   24.70   16.60
 -10   7   6  209.88   31.00
 -10   7   6  229.88   33.60
  10   7  -6  161.18   23.30
  10  -7  -6  202.38   22.50
 -10  -7   6  145.99   29.30
 -10   7   5   49.00   18.70
 -10   7   5   16.00   16.10
  10   7  -5   30.60   12.70
 -10  -7   5   30.00   17.20
  10  -7  -5   39.00    9.80
 -10   7   4    1.40   14.60
  10   7  -4  -15.50   17.20
 -10   7   4   -6.90   16.90
  10   7  -4   28.00   11.30
 -10  -7   4   60.39   17.10
  10   7  -3  104.19   17.20
 -10   7   3   71.29   15.50
 -10   7   3  103.19   19.00
  10   7  -3   73.69   13.10
  10  -7  -3  113.89   18.70
 -10  -7   3   80.49   18.40
 -10   7   2   45.00   12.70
  10   7  -2   21.50   12.80
  10   7  -2   33.70   16.50
 -10   7   2   49.60   16.60
 -10  -7   2   26.70   17.20
  10  -7  -2   61.79   12.00
  10   7  -1   13.00   12.50
  10   7  -1  -20.30   12.60
 -10   7   1   21.50   10.90
 -10   7   1   21.40   16.50
 -10  -7   1   22.20   16.60
  10  -7  -1   20.10   12.60
 -10   7   0  135.29   21.20
 -10   7   0  125.89   21.50
  10   7   0  153.18   24.10
  10  -7   0  176.18   24.90
 -10  -7   0  183.88   26.70
 -10   7  -1  150.68   21.40
  10   7   1  130.99   23.40
 -10   7  -1  156.88   26.60
 -10  -7  -1  124.19   25.90
 -10   7  -2    8.80   15.70
 -10   7  -2   16.20   10.40
  10   7   2   -4.40   11.80
 -10  -7  -2   -4.60   15.20
 -10   7  -3   18.90   11.30
 -10   7  -3   20.10   16.20
  10   7   3    8.50   12.60
 -10  -7  -3   23.70   15.70
  10  -7   3   17.10   13.30
 -10   7  -4   90.29   14.60
  10   7   4  101.39   16.10
 -10   7  -4  129.99   26.50
 -10  -7  -4   86.09   18.20
 -10   7  -5   41.20   13.90
 -10   7  -5   22.40   16.80
  10   7   5   20.50   14.70
 -10  -7  -5   30.50   16.70
 -10   7  -6   19.50   17.80
 -10   7  -6   12.90   14.90
 -10   7  -6   16.70   21.20
  10   7   6   15.90   15.40
 -10  -7  -6    2.60   16.10
 -10   8   6    7.00   16.90
  10   8  -6    5.40   11.40
 -10  -8   6   41.30   18.50
  10  -8  -6    9.00    9.60
  10   8  -5   17.80   19.20
  10   8  -5    7.70   12.00
 -10   8   5    8.80   16.00
 -10   8   5   15.60   19.00
 -10  -8   5   15.80   17.90
  10  -8  -5   35.00   17.40
  10   8  -4  146.09   23.00
  10   8  -4  191.18   34.10
 -10   8   4  188.08   31.10
 -10   8   4  165.58   29.70
 -10  -8   4  136.99   23.20
  10  -8  -4  183.78   21.10
 -10   8   3   94.39   20.60
  10   8  -3   63.79   16.90
  10   8  -3   38.80   13.20
 -10   8   3   50.69   14.60
  10  -8  -3   91.89   17.60
 -10  -8   3   43.80   18.90
  10   8  -2    5.10   14.00
 -10   8   2  -22.40   16.70
 -10   8   2  -15.30   12.70
  10   8  -2   -5.70   12.00
 -10  -8   2    5.10   17.30
  10  -8  -2   15.20   10.80
 -10   8   1  103.79   18.90
  10   8  -1   66.29   15.20
  10   8  -1   59.49   15.10
 -10   8   1   72.19   13.00
 -10  -8   1   90.59   18.80
  10  -8  -1  121.89   21.20
  10   8   0    5.40   13.00
  10   8   0   14.80   12.40
 -10   8   0   19.90   16.90
 -10   8   0   20.80   11.20
 -10  -8   0    7.00   17.00
  10  -8   0   42.60   12.30
  10   8   1   53.39   13.10
  10   8   1   44.00   14.90
 -10   8  -1   86.89   18.60
 -10   8  -1   63.39   12.10
 -10  -8  -1   75.89   17.70
 -10   8  -2  240.28   32.30
 -10   8  -2  246.38   27.10
  10   8   2  233.08   28.20
 -10  -8  -2  239.78   29.50
  10  -8   2  234.78   27.50
  10   8   3   88.59   15.30
 -10   8  -3  158.28   28.30
 -10   8  -3  107.99   23.30
 -10  -8  -3  147.29   25.50
 -10   8  -4    9.40   12.30
 -10   8  -4    8.60   17.70
  10   8   4   28.20   10.50
  10   8   4   23.80   13.20
 -10  -8  -4   32.20   16.70
  10   8   5   27.70   14.70
 -10   8  -5   87.19   20.80
 -10   8  -5   33.30   14.20
 -10  -8  -5   36.10   16.80
  10   9  -4    0.90   17.60
 -10   9   4   19.70   19.50
 -10   9   4   -5.00   14.90
  10   9  -4    4.40   12.90
 -10  -9   4  -16.40   18.10
 -10   9   3  243.58   34.60
  10   9  -3  235.98   27.50
 -10   9   3  210.98   31.10
  10   9  -3  273.37   34.50
 -10  -9   3  211.98   31.90
  10   9  -2   12.30   12.70
  10   9  -2   14.10   15.10
 -10   9   2    8.10   19.10
 -10   9   2   45.80   13.00
 -10  -9   2   34.20   18.90
 -10   9   1   10.80   11.30
  10   9  -1    3.70   14.00
 -10   9   1   15.40   19.30
  10   9  -1   21.20   13.40
 -10  -9   1   21.00   18.60
 -10   9   0   29.60   19.70
 -10   9   0    7.10   11.70
  10   9   0    8.90   13.30
  10   9   0   -4.60   14.10
 -10  -9   0   23.10   17.70
  10  -9   0   47.20   14.10
 -10   9  -1    3.30   18.40
  10   9   1   28.30   12.50
 -10   9  -1    9.10   11.40
  10   9   1  -11.30   13.40
  10  -9   1   47.90   13.70
 -10  -9  -1   17.30   17.50
  10   9   2  -20.90   12.80
 -10   9  -2   17.30   18.80
 -10   9  -2    7.30   11.30
  10   9   2   17.20   12.00
 -10  -9  -2    7.30   17.30
  10  -9   2  -18.90   12.40
 -10   9  -3  105.79   23.90
  10   9   3   96.79   16.40
 -10   9  -3  121.99   22.00
  10   9   3  119.89   24.70
 -10  -9  -3  103.19   21.20
  11   0  -9   33.00   11.50
 -11   0   9    8.80   12.50
 -11   0   9   24.60   14.30
  11   0  -8   15.00   11.10
 -11   0   8   12.80   12.20
 -11   0   8   -4.00   24.40
  11   0  -7  -19.40   10.60
 -11   0   7   -8.70   11.70
 -11   0   7   -3.20   11.80
 -11   0   6   52.59   12.60
  11   0  -6   43.00   10.80
 -11   0   6   35.20   11.80
  11   0  -5  -17.90    9.50
 -11   0   5    7.50   11.60
 -11   0   4   71.39   12.30
 -11   0   4  129.29   18.70
  11   0  -4  116.29   19.40
 -11   0   3   -4.20   11.70
  11   0  -3  -12.80   11.20
  11   0  -2  143.69   23.80
 -11   0   2  185.98   21.80
  11   0  -1   27.10   12.50
 -11   0   1   -3.80   10.70
  11   0   0  168.68   22.50
 -11   0   0  146.49   21.70
  11   0   1   39.20   12.50
 -11   0  -1    3.30   12.00
  11   0   2  199.38   26.00
 -11   0  -2  208.58   24.50
  11   0   3   -5.50   12.20
 -11   0  -3    2.80   12.30
  11   0   4   27.60   15.80
 -11   0  -4   11.50   12.60
 -11   0  -5   -5.10   12.90
 -11   0  -6  299.87   30.70
 -11   0  -7   -5.20   14.20
 -11   0  -8   15.40   15.40
 -11   0  -8    7.90   21.30
  11   1  -9   19.00   11.20
 -11   1   9    7.60   13.60
  11  -1  -9   17.80   11.60
 -11  -1   9   23.80   14.30
  11   1  -8  180.48   21.00
 -11   1   8  118.69   27.70
 -11   1   8  173.38   24.30
 -11  -1   8  135.19   22.20
 -11  -1   8  130.59   27.80
  11  -1  -8  193.08   21.80
 -11   1   7    8.40   11.70
 -11   1   7   37.60   14.10
  11   1  -7   13.80   10.20
  11  -1  -7    1.70   10.30
 -11  -1   7    1.70   12.90
 -11  -1   7   26.10   20.10
  11   1  -6    6.40   10.00
 -11   1   6  -13.80   11.60
 -11   1   6   11.90   12.20
 -11  -1   6    7.80   11.80
 -11  -1   6   17.50   11.80
  11  -1  -6    7.00   11.10
 -11   1   5   22.80   11.80
 -11   1   5  -17.10   11.70
  11   1  -5    8.70   10.00
  11  -1  -5   -2.20   10.10
 -11  -1   5   15.70   12.10
 -11  -1   5   -0.80   19.40
 -11   1   4    2.60   11.60
  11   1  -4   17.80   10.80
  11  -1  -4   -1.20   10.60
 -11  -1   4   -5.00    9.20
 -11  -1   4   22.60   11.70
 -11   1   3    8.00   11.40
  11   1  -3    1.70   12.50
 -11   1   3  -10.00   17.60
  11  -1  -3   -7.60   11.50
 -11  -1   3   25.40   11.70
 -11   1   2  321.17   30.20
  11   1  -2  374.36   31.80
  11  -1  -2  320.67   31.90
 -11  -1   2  355.66   31.00
 -11   1   1   18.10   11.50
 -11  -1   1    2.50   11.40
  11   1   0  129.99   21.10
 -11   1   0  124.69   20.80
  11  -1   0  167.98   21.60
 -11  -1   0   85.49   16.20
 -11   1  -1  265.87   27.50
  11   1   1  294.27   29.30
  11  -1   1  317.47   29.90
 -11  -1  -1  252.57   28.40
  11   1   2  136.99   23.40
 -11   1  -2  125.39   21.60
  11  -1   2  120.79   23.30
 -11  -1  -2  134.39   22.10
 -11   1  -3  -15.60   11.70
  11   1   3  -22.20   11.90
  11  -1   3   -0.60   12.70
 -11  -1  -3   -2.10   13.00
 -11   1  -4  173.28   23.50
  11   1   4  166.18   28.40
  11  -1   4  159.68   29.50
 -11  -1  -4  188.68   24.30
 -11   1  -5  102.09   21.40
  11   1   5  110.59   18.60
 -11  -1  -5  113.49   22.80
 -11   1  -6   24.70   14.90
 -11  -1  -6   69.99   15.70
 -11   1  -7  -11.40   19.20
 -11   1  -7    7.20   14.30
 -11  -1  -7   11.70   14.90
 -11   1  -8  152.18   26.60
 -11   1  -8  223.08   27.90
 -11  -1  -8  220.58   39.40
 -11  -1  -8  166.18   27.90
 -11   2   9    7.80   13.60
 -11   2   9   43.40   17.00
  11   2  -9   25.80   11.80
 -11  -2   9   22.80   15.10
  11  -2  -9   43.70   12.50
 -11   2   8   41.20   15.30
  11   2  -8   17.20   10.40
 -11   2   8    2.20   13.40
 -11  -2   8   41.00   12.60
 -11  -2   8   19.20   14.20
  11  -2  -8   27.30   11.50
 -11   2   7  229.58   31.70
  11   2  -7  225.58   24.20
 -11   2   7  235.98   26.90
  11  -2  -7  245.78   24.60
 -11  -2   7  177.58   29.80
 -11   2   6   85.39   15.40
  11   2  -6   63.89   11.70
 -11   2   6   46.00   14.50
 -11  -2   6   50.19   13.40
 -11  -2   6  120.99   23.90
  11  -2  -6   56.49   12.30
 -11   2   5   -5.00   12.30
 -11   2   5  -16.90   12.10
  11   2  -5   -1.90   10.70
  11  -2  -5   -6.40    9.80
 -11  -2   5   -2.40   14.40
 -11  -2   5   -1.00   11.30
 -11   2   4   17.40   12.60
  11   2  -4   30.70   10.80
 -11   2   4   37.90   12.50
 -11  -2   4   43.40   10.70
  11  -2  -4   46.20   11.20
 -11  -2   4   45.30   12.60
  11   2  -3   -3.90   11.50
 -11   2   3    6.40   10.90
 -11   2   3   -8.70   11.30
  11  -2  -3    2.70   12.00
 -11  -2   3   16.20   12.60
 -11   2   2  -22.40   10.90
 -11   2   2   -2.90   11.30
  11   2  -2  -17.70   11.40
 -11  -2   2   -5.40   12.50
  11  -2  -2  -30.50   11.40
 -11   2   1  108.79   19.40
  11   2  -1   95.69   14.60
  11  -2  -1   64.99   14.20
 -11  -2   1  101.39   15.70
 -11   2   0  548.55   44.70
  11   2   0  573.94   45.20
  11  -2   0  587.44   44.80
 -11  -2   0  563.14   45.60
 -11   2  -1  152.78   22.40
 -11  -2  -1  211.48   25.20
 -11   2  -2   19.30   13.40
  11   2   2   35.90   13.20
 -11  -2  -2   25.70   14.00
  11  -2   2   25.30   13.00
 -11   2  -3  101.79   20.50
  11   2   3   87.79   15.30
  11  -2   3   76.59   15.70
 -11  -2  -3  104.09   17.20
  11   2   4   22.60   14.10
 -11   2  -4    8.30   12.90
 -11  -2  -4   26.10   15.40
  11  -2   4   17.10   15.50
  11   2   5   19.60   16.80
 -11   2  -5   -1.90   13.20
 -11  -2  -5   13.10   14.90
 -11   2  -6   23.50   14.40
 -11  -2  -6   15.60   16.30
 -11   2  -7   45.20   16.40
 -11   2  -7   22.10   21.50
 -11  -2  -7   38.30   16.60
 -11   2  -8   41.30   21.10
 -11   2  -8    7.30   15.30
 -11  -2  -8   34.10   17.20
 -11   3   9  101.59   18.90
  11   3  -9   41.80   12.00
 -11   3   9   40.60   15.90
  11  -3  -9   55.49   13.10
 -11  -3   9   60.59   17.90
  11   3  -8   20.40   10.80
 -11   3   8   27.30   16.70
 -11   3   8   12.60   14.70
  11  -3  -8   38.40   11.80
 -11  -3   8   24.70   16.70
 -11  -3   8   22.70   13.20
 -11   3   7    5.70   13.80
 -11   3   7   22.90   15.00
  11   3  -7    9.70   11.40
 -11  -3   7   10.90   15.60
 -11  -3   7   26.50   22.00
  11  -3  -7   -4.80   10.70
 -11   3   6   -2.50   13.30
  11   3  -6  -13.90   11.00
 -11   3   6    6.60   13.70
 -11  -3   6   17.50   15.20
 -11  -3   6  -12.90   11.90
  11  -3  -6   -2.70   10.70
  11   3  -5  375.46   32.10
 -11   3   5  412.36   34.70
 -11   3   5  366.56   37.40
 -11  -3   5  376.86   33.60
  11  -3  -5  338.57   32.00
 -11  -3   5  350.46   37.10
 -11   3   4    4.50   12.70
 -11   3   4  -27.40   12.50
  11   3  -4    6.00   11.00
  11  -3  -4   -7.00   10.20
 -11  -3   4   11.90   12.70
 -11  -3   4    0.80   13.20
 -11   3   3   24.80   11.80
  11   3  -3   28.00   11.80
 -11   3   3   50.49   13.20
  11  -3  -3   38.20   12.10
 -11  -3   3   52.39   14.40
 -11  -3   3   44.60   12.90
 -11   3   2   29.20   12.30
 -11   3   2    3.80   10.20
  11   3  -2    2.10   11.90
  11  -3  -2   13.50   12.00
 -11  -3   2   17.10   14.00
 -11   3   1   33.60    9.10
 -11   3   1   38.30   12.30
  11   3  -1    8.90   13.90
 -11  -3   1   23.70   14.00
  11  -3  -1   20.50   12.70
  11   3   0   11.40   12.00
 -11   3   0    5.30   11.30
 -11  -3   0   -9.90   14.20
  11  -3   0   10.50   11.50
 -11   3  -1  423.46   36.50
  11   3   1  427.36   36.90
  11  -3   1  414.26   37.60
 -11  -3  -1  454.15   38.00
 -11   3  -2   22.20   12.70
  11   3   2   25.20   12.30
 -11  -3  -2    7.30   13.20
  11  -3   2   14.50   12.70
  11   3   3   51.99   14.00
 -11   3  -3   53.89   14.40
 -11  -3  -3   81.19   15.70
  11  -3   3   66.09   14.50
 -11   3  -4    4.30   12.50
  11   3   4  -18.40   12.80
 -11  -3  -4   -0.90   13.90
  11  -3   4    6.00   16.30
  11   3   5   92.09   17.60
 -11   3  -5  104.89   21.60
 -11  -3  -5   97.29   17.40
 -11   3  -6  -16.50   14.00
  11   3   6    2.20   17.20
 -11  -3  -6    2.60   15.10
 -11   3  -7   69.39   21.00
 -11   3  -7   50.09   15.60
 -11  -3  -7   70.09   17.40
 -11   4   8   11.30   17.80
 -11   4   8  -26.40   14.30
  11   4  -8  -13.30   11.00
 -11  -4   8   -0.40   13.30
  11  -4  -8   -5.60   11.60
 -11  -4   8   -5.80   18.90
 -11   4   7  402.96   39.50
  11   4  -7  349.67   32.00
 -11   4   7  388.76   36.70
  11  -4  -7  375.66   32.70
 -11  -4   7  340.67   33.70
 -11  -4   7  364.06   42.10
 -11   4   6  143.49   26.10
 -11   4   6  132.09   30.80
 -11  -4   6  194.78   32.40
  11  -4  -6  143.69   21.90
 -11  -4   6  130.39   24.30
 -11   4   5   83.69   15.60
  11   4  -5   39.60   11.20
 -11   4   5   54.09   15.30
 -11  -4   5   71.99   15.80
 -11  -4   5   72.79   15.60
  11  -4  -5   54.79   11.60
  11   4  -4    5.50   11.30
 -11   4   4  -34.70   13.10
 -11   4   4   35.50   14.20
 -11  -4   4   19.60   13.90
  11  -4  -4    1.90   10.30
 -11  -4   4   11.30   14.60
 -11   4   3  170.58   27.00
 -11   4   3  176.28   25.00
  11   4  -3  153.38   23.60
 -11  -4   3  196.88   28.20
 -11  -4   3  177.38   25.70
  11  -4  -3  169.28   22.90
  11   4  -2   -6.70   12.60
 -11   4   2  -10.40   12.90
 -11   4   2   22.10   10.70
 -11  -4   2   29.90   14.40
  11  -4  -2   13.90   11.90
  11   4  -1  196.38   26.10
 -11   4   1  212.18   24.70
 -11   4   1  238.38   23.20
  11  -4  -1  181.88   25.20
 -11  -4   1  175.88   26.10
  11   4   0   54.99   13.90
 -11   4   0   19.80   12.40
  11  -4   0   48.00   12.10
 -11  -4   0   37.20   14.50
 -11   4  -1   -5.20   12.10
  11   4   1    9.80   11.10
 -11  -4  -1   -0.40   13.50
  11  -4   1    4.80   12.50
  11   4   2   14.60   12.00
 -11   4  -2    1.50   11.90
  11  -4   2   10.70   12.40
 -11  -4  -2  -11.00   14.40
 -11   4  -3  161.98   23.00
  11   4   3  139.69   25.00
 -11  -4  -3  146.89   24.80
  11  -4   3  123.89   25.20
  11   4   4   70.19   14.50
 -11   4  -4   74.39   15.50
  11  -4   4  120.49   18.40
 -11  -4  -4   67.19   16.80
  11   4   5   -8.20   14.30
 -11   4  -5    6.00   13.20
 -11  -4  -5  -12.00   13.40
 -11   4  -6   -3.00   13.50
  11   4   6   -8.40   17.20
 -11  -4  -6   -8.60   14.10
  11   4   7  -13.80   18.70
 -11   4  -7    5.60   14.80
 -11   4  -7   -3.80   20.90
 -11  -4  -7    0.50   15.30
 -11   5   8   36.30   19.40
 -11   5   8    8.10   15.60
  11   5  -8    2.70   11.70
  11  -5  -8   12.30   12.00
 -11  -5   8    3.00   19.70
  11   5  -7   -3.50   10.50
 -11   5   7   -2.10   16.00
 -11   5   7   23.30   18.30
 -11  -5   7  -10.80   15.00
  11  -5  -7    0.80   11.10
 -11  -5   7   22.30   19.70
 -11   5   6  144.59   32.80
 -11   5   6  131.29   27.40
  11   5  -6  109.89   21.60
 -11  -5   6  204.48   37.00
 -11  -5   6  135.49   26.30
  11  -5  -6  131.79   21.80
  11   5  -5   21.30   10.40
 -11   5   5   32.60   16.00
 -11   5   5    6.40   14.90
  11  -5  -5   31.50   11.20
 -11  -5   5   33.40   19.50
 -11  -5   5    9.70   16.20
 -11   5   4   -9.80   12.80
  11   5  -4   -7.40   10.40
 -11   5   4   -4.00   14.50
 -11  -5   4   32.10   23.50
 -11  -5   4  -13.70   15.10
  11  -5  -4   -0.90   10.60
 -11   5   3  123.19   23.40
  11   5  -3   96.09   15.30
 -11   5   3   84.29   15.40
 -11  -5   3  160.08   30.70
 -11  -5   3   92.09   17.40
  11  -5  -3  118.69   20.80
 -11   5   2  254.57   31.00
 -11   5   2  337.17   31.70
  11   5  -2  284.17   30.60
  11  -5  -2  297.97   29.20
 -11  -5   2  284.27   31.50
 -11   5   1  139.99   26.70
 -11   5   1  279.17   36.00
  11   5  -1  221.18   26.10
 -11  -5   1  178.98   27.70
  11  -5  -1  222.08   26.30
  11   5   0   34.00   13.40
 -11   5   0   14.90   13.40
  11  -5   0   23.60   14.10
 -11  -5   0   16.90   14.70
  11   5   1   59.99   13.10
 -11   5  -1   69.39   15.60
 -11   5  -1   50.19   10.40
  11  -5   1   71.39   14.40
 -11  -5  -1   67.09   16.40
 -11   5  -2   86.09   16.30
 -11   5  -2   75.79   17.80
  11   5   2   68.79   13.60
  11  -5   2   80.99   14.70
 -11  -5  -2   66.59   16.50
  11   5   3   65.59   15.00
 -11   5  -3   62.49   15.80
 -11   5  -3   96.79   20.10
 -11  -5  -3   42.90   16.10
  11  -5   3   47.10   14.90
 -11   5  -4  161.78   24.20
 -11   5  -4  141.99   24.60
  11   5   4  129.99   25.50
 -11  -5  -4  133.89   25.00
  11  -5   4  181.18   29.60
  11   5   5   24.90   14.40
 -11   5  -5   40.00   15.80
 -11   5  -5   24.90   12.80
 -11  -5  -5   11.40   15.30
  11   5   6   18.50   16.20
 -11   5  -6   24.30   16.00
 -11  -5  -6   10.50   15.30
 -11  -5  -7   13.00   16.10
  11   6  -7    8.40   10.40
 -11   6   7  -10.60   16.80
 -11   6   7    0.50   19.10
 -11  -6   7   30.00   17.20
  11  -6  -7   15.10   11.70
 -11  -6   7   29.80   24.20
 -11   6   6    2.20   15.50
 -11   6   6   11.40   18.50
  11   6  -6  -15.20   11.30
 -11  -6   6   15.40   16.90
  11  -6  -6   19.50   10.70
 -11  -6   6   38.00   23.90
 -11   6   5   11.60   17.30
 -11   6   5  -32.20   14.60
  11   6  -5   -7.40   11.60
 -11  -6   5   -6.20   15.90
  11  -6  -5    0.40   10.90
 -11  -6   5   28.10   23.10
  11   6  -4  521.95   45.40
 -11   6   4  661.63   50.89
 -11   6   4  565.64   47.90
  11  -6  -4  557.74   44.90
 -11  -6   4  558.24   48.40
  11   6  -3    2.20   11.40
 -11   6   3    9.90   15.20
 -11  -6   3   -2.40   16.00
  11   6  -2   -7.70   12.70
 -11   6   2    8.10   15.80
 -11   6   2    3.80   11.50
 -11  -6   2   -0.70   16.10
  11  -6  -2   -6.60   12.20
 -11   6   1   13.10   14.50
 -11   6   1    8.90   10.50
  11   6  -1   -2.30   12.80
 -11  -6   1    4.90   15.00
  11  -6  -1  -40.50   13.00
 -11   6   0  173.18   26.00
  11   6   0  147.09   26.20
 -11   6   0  163.78   21.10
 -11  -6   0  154.88   26.00
  11  -6   0  149.09   24.20
 -11   6  -1  120.09   18.90
  11   6   1   67.19   15.30
 -11   6  -1   77.39   17.10
 -11  -6  -1   69.89   16.80
  11  -6   1  136.79   23.10
 -11   6  -2   30.20   10.80
  11   6   2   16.30   12.90
 -11   6  -2   16.90   16.40
  11  -6   2   28.00   13.20
 -11  -6  -2   27.40   15.60
 -11   6  -3   29.80   16.40
  11   6   3   12.50   13.10
 -11   6  -3   32.90   11.90
 -11  -6  -3   24.10   15.00
  11  -6   3   33.10   14.00
 -11   6  -4   21.30   15.30
  11   6   4   17.80   14.00
 -11   6  -4   21.70   12.00
  11  -6   4   41.50   16.70
 -11  -6  -4    3.10   15.40
  11   6   5  -12.90   13.60
 -11   6  -5  -12.40   13.10
 -11   6  -5  -16.20   15.90
 -11  -6  -5    5.80   14.40
 -11   6  -6  147.49   29.80
  11   6   6   68.49   17.90
 -11   6  -6   89.09   19.40
 -11  -6  -6   68.49   16.90
 -11   7   6  161.88   33.20
  11   7  -6  139.89   23.00
 -11   7   6  148.09   24.30
  11  -7  -6  136.59   21.80
 -11  -7   6  183.78   28.60
 -11   7   5   25.00   16.60
 -11   7   5   10.00   18.60
  11   7  -5    3.40   11.70
 -11  -7   5   22.70   17.90
  11  -7  -5   10.40   11.00
  11   7  -4    4.90   11.40
 -11   7   4   19.60   15.10
 -11   7   4   15.50   17.90
  11  -7  -4   29.90   11.00
 -11  -7   4   32.30   17.50
 -11   7   3   62.89   15.60
 -11   7   3   88.49   19.20
  11   7  -3   49.10   13.20
 -11  -7   3   67.39   18.50
  11  -7  -3  106.19   19.90
  11   7  -2   43.00   13.20
  11   7  -2   38.80   17.70
 -11   7   2   44.30   13.10
 -11   7   2   62.49   17.30
 -11  -7   2   51.49   17.20
  11  -7  -2   66.59   13.30
 -11   7   1    8.20   15.70
  11   7  -1   -0.90   13.40
 -11   7   1   22.50   11.10
  11  -7  -1    1.00   12.90
 -11  -7   1    2.00   16.30
 -11   7   0   17.60   10.80
 -11   7   0   31.60   15.90
  11   7   0   22.40   13.70
 -11  -7   0   30.80   16.20
  11  -7   0   35.80   13.50
 -11   7  -1   14.50   15.90
 -11   7  -1    0.10   10.60
  11   7   1   -7.10   13.40
  11  -7   1   31.40   13.90
 -11  -7  -1    9.50   16.40
 -11   7  -2  167.48   22.70
  11   7   2  142.19   23.60
 -11   7  -2  161.88   26.70
 -11  -7  -2   92.69   20.00
  11   7   3   13.00   13.30
 -11   7  -3   11.70   16.60
 -11   7  -3   25.10   12.20
 -11  -7  -3   17.00   15.80
 -11   7  -4  284.47   32.50
  11   7   4  241.98   30.00
 -11   7  -4  266.77   29.80
  11  -7   4  295.87   33.00
 -11  -7  -4  212.28   29.40
  11   7   5    4.90   14.70
 -11   7  -5   18.00   17.90
 -11  -7  -5    2.80   15.40
  11   8  -4   -1.20   11.60
 -11   8   4    3.30   18.80
  11   8  -4   11.00   19.40
 -11   8   4   -3.40   15.60
  11  -8  -4   -6.00   10.60
 -11  -8   4    8.60   18.10
  11   8  -3   25.30   13.00
  11   8  -3    5.90   17.90
 -11   8   3   29.40   14.10
 -11   8   3   60.59   19.40
 -11  -8   3   12.50   18.00
  11   8  -2   45.70   14.30
 -11   8   2   40.10   13.60
 -11   8   2   47.30   20.20
  11   8  -2   48.50   17.20
 -11  -8   2   34.00   18.40
  11  -8  -2  122.09   20.50
 -11   8   1   98.29   21.20
  11   8  -1   84.99   27.60
 -11   8   1   89.19   20.40
  11   8  -1   80.89   16.60
  11  -8  -1  118.59   22.50
 -11  -8   1   79.39   19.40
 -11   8   0   25.90   17.30
  11   8   0    4.30   13.90
 -11   8   0    8.50   11.60
 -11  -8   0   11.80   17.50
  11  -8   0   13.00   13.10
 -11   8  -1   -9.50   10.90
  11   8   1  -16.50   14.60
 -11   8  -1   24.50   18.60
  11  -8   1   29.10   12.70
 -11  -8  -1   11.10   16.60
  11   8   2    8.20   14.40
 -11   8  -2    3.50   17.20
 -11   8  -2   20.50   11.30
 -11  -8  -2    6.70   16.70
  11  -8   2   57.49   14.20
 -11   8  -3  155.18   29.20
 -11   8  -3  120.89   23.50
  11   8   3   74.69   15.50
 -11  -8  -3   89.49   19.60
 -11   9   1   32.10   20.00
  11   9  -1   -6.00   13.90
  11   9  -1   40.10   15.80
  11   9   0   86.39   16.90
 -11   9   0   74.69   20.70
  11   9   0   64.19   15.90
 -12   0   8   25.90   15.50
 -12   0   8   28.60   13.20
  12   0  -8   13.00   10.50
 -12   0   7   -6.30   13.00
  12   0  -7   -7.20   10.30
 -12   0   7  -26.50   11.90
 -12   0   6  -27.50   11.80
 -12   0   6    2.80   12.70
  12   0  -6    7.20   10.30
  12   0  -5  -24.60   10.90
 -12   0   5   -3.00   12.20
  12   0  -4    7.80   11.20
 -12   0   4   20.00   12.50
  12   0  -3   -8.70   11.90
 -12   0   3   -9.80   12.20
  12   0  -2   25.70   12.60
 -12   0   2   16.20   12.30
 -12   0   1    9.80   12.90
  12   0  -1    8.90   13.10
 -12   0   0  317.27   29.90
  12   0   0  326.37   30.80
  12   0   1   56.39   13.30
 -12   0  -1   33.50   13.40
  12   0   2   62.59   13.90
 -12   0  -2   40.10   14.80
  12   0   3    4.90   13.20
 -12   0  -3   -2.20   12.90
  12   0   4  235.58   30.80
 -12   0  -4  257.27   27.70
 -12   0  -5  -17.10   14.10
  12   0   5   -3.10   16.30
 -12   0  -6   15.20   14.30
 -12   0  -7   -3.00   16.10
 -12   1   8  283.97   29.90
  12   1  -8  268.77   27.30
 -12   1   8  217.88   31.80
 -12  -1   8  271.27   28.50
 -12  -1   8  265.07   31.90
  12  -1  -8  285.17   27.30
 -12   1   7  -12.70   12.50
  12   1  -7   12.40   10.70
 -12   1   7    4.10   14.90
 -12  -1   7    0.80   12.20
 -12  -1   7   29.50   12.80
  12  -1  -7    9.80   11.40
 -12   1   6   23.10   13.40
  12   1  -6   34.80   11.10
 -12   1   6   46.20   13.50
 -12  -1   6   35.20   13.20
  12  -1  -6   47.00   11.50
 -12  -1   6    9.80   11.20
 -12   1   5  -26.50   12.40
 -12   1   5   20.60   12.60
  12   1  -5   -1.20   11.20
 -12  -1   5   12.90   12.50
 -12  -1   5  -13.80   10.60
  12  -1  -5   25.70   10.90
 -12   1   4   -8.70   11.90
  12   1  -4  -19.40   10.60
 -12  -1   4   -2.30   11.90
  12  -1  -4   -1.70   10.70
  12   1  -3    6.80   13.20
 -12   1   3  -21.90   10.80
 -12   1   3    7.30   11.70
  12  -1  -3    4.90   12.20
 -12  -1   3   -2.70   12.10
  12   1  -2  122.69   22.70
 -12   1   2  116.19   20.20
  12  -1  -2  133.49   22.10
 -12  -1   2   99.09   20.50
 -12   1   1   38.60   12.80
  12   1  -1   48.60   13.30
  12  -1  -1   48.40   13.00
 -12  -1   1   48.20   13.00
  12   1   0   65.29   13.70
 -12   1   0   19.40   12.60
 -12  -1   0   52.29   13.80
  12  -1   0   25.30   12.30
 -12   1  -1   -1.00   11.70
  12   1   1    2.10   12.00
  12  -1   1    0.00   12.50
 -12  -1  -1    4.20   12.60
 -12   1  -2  150.78   22.70
  12   1   2  153.28   25.10
  12  -1   2  162.78   25.30
 -12  -1  -2  151.58   23.60
  12   1   3   -7.20   13.20
 -12   1  -3    2.10   12.20
  12  -1   3    9.50   12.60
 -12  -1  -3   12.50   13.70
  12   1   4   53.39   15.70
 -12   1  -4   49.40   14.70
 -12  -1  -4   66.39   15.90
  12  -1   4    7.90   15.30
 -12   1  -5   11.10   14.60
  12   1   5    4.80   15.60
  12  -1   5   30.20   16.80
 -12  -1  -5   24.30   14.90
  12   1   6   38.10   18.70
 -12   1  -6   60.19   15.50
 -12  -1  -6   42.80   15.70
 -12   1  -7    9.90   15.10
 -12  -1  -7   14.70   16.20
  12   2  -8   53.69   12.60
 -12   2   8   46.50   16.70
 -12   2   8    9.60   15.00
  12  -2  -8   54.19   12.50
 -12  -2   8   54.59   13.90
  12   2  -7  -22.00   10.30
 -12   2   7  -13.80   14.10
 -12   2   7    5.90   14.70
  12  -2  -7    0.90   11.80
 -12  -2   7   -3.00   12.90
 -12  -2   7   -1.90   13.00
 -12   2   6    3.10   13.80
 -12   2   6   27.20   14.90
  12   2  -6    8.90   10.30
  12  -2  -6    4.20   11.00
 -12  -2   6   26.30   13.60
 -12  -2   6   14.00   12.40
  12   2  -5   -8.60   10.80
 -12   2   5    0.80   12.60
 -12   2   5   -2.90   13.00
 -12  -2   5   -5.30   11.40
 -12  -2   5    1.40   12.60
  12  -2  -5  -14.30   10.70
  12   2  -4   -3.40   11.50
 -12   2   4  -29.90   20.50
 -12   2   4    7.70   12.40
  12  -2  -4    9.40   11.50
 -12  -2   4   -6.80   10.80
 -12  -2   4   12.50   12.80
 -12   2   3   97.99   19.40
 -12   2   3   47.10   13.40
  12   2  -3   88.59   14.20
 -12  -2   3   79.29   15.00
  12  -2  -3  114.09   22.40
  12   2  -2   12.30   13.10
 -12   2   2   -2.10   11.40
  12  -2  -2   15.30   12.30
 -12  -2   2   -1.50   13.60
  12   2  -1    2.00   13.30
 -12   2   1    6.70   12.20
  12  -2  -1   11.00   12.60
 -12  -2   1    1.50   13.70
 -12   2   0    4.90   12.00
  12   2   0    5.70   13.10
 -12  -2   0   11.90   13.30
  12  -2   0   15.10   11.80
  12   2   1   84.49   14.90
 -12   2  -1   97.29   19.70
  12  -2   1  123.69   22.90
 -12  -2  -1   93.99   16.00
 -12   2  -2    0.90   12.10
  12   2   2   27.70   13.90
  12  -2   2   18.20   12.80
 -12  -2  -2    2.80   14.40
 -12   2  -3  228.88   25.50
  12   2   3  211.98   27.90
 -12  -2  -3  223.78   27.50
  12  -2   3  182.98   27.60
 -12   2  -4    1.30   13.30
  12   2   4   -3.60   12.80
  12  -2   4   -5.20   14.00
 -12  -2  -4   -3.30   14.10
  12   2   5   53.29   16.10
 -12   2  -5   43.80   15.40
  12  -2   5   86.09   18.50
 -12  -2  -5   57.19   16.10
  12   2   6   25.10   17.80
 -12   2  -6   28.20   15.20
 -12  -2  -6   46.50   17.00
 -12   2  -7   72.59   17.10
 -12  -2  -7   74.39   18.20
 -12   3   8  -14.10   14.40
 -12   3   8   24.30   17.90
  12   3  -8    3.30   11.10
 -12  -3   8   21.20   15.60
 -12  -3   8   31.20   13.90
  12  -3  -8   26.10   11.90
 -12   3   7   -9.30   13.90
  12   3  -7    0.70   10.80
 -12   3   7   13.80   16.00
  12  -3  -7   21.80   11.60
 -12  -3   7    5.90   14.90
 -12  -3   7    3.90   13.60
 -12   3   6    4.70   14.30
  12   3  -6   40.10   11.60
 -12   3   6   41.50   15.40
 -12  -3   6   26.10   13.80
 -12  -3   6   28.70   14.30
  12  -3  -6   26.60   12.20
 -12   3   5   77.69   16.80
 -12   3   5  142.99   24.20
  12   3  -5   95.29   13.90
 -12  -3   5  131.79   22.00
  12  -3  -5  106.99   20.30
 -12  -3   5   81.49   15.20
 -12   3   4   26.10   14.10
  12   3  -4   24.60   11.20
 -12   3   4   23.40   14.00
  12  -3  -4   25.00   11.70
 -12  -3   4   51.99   14.80
 -12  -3   4   26.80   11.70
 -12   3   3    3.70   12.40
  12   3  -3  -15.40   12.00
 -12   3   3   -7.10   11.40
  12  -3  -3  -12.70   12.50
 -12  -3   3   -7.40   13.90
 -12   3   2   -9.40   12.60
  12   3  -2  -12.50   13.30
 -12   3   2   11.40   10.10
 -12  -3   2    8.80   14.20
  12  -3  -2   -8.40   12.40
  12   3  -1   79.49   15.60
 -12   3   1   81.49   14.40
  12  -3  -1   90.69   14.90
 -12  -3   1   87.79   17.30
  12   3   0   42.60   12.80
 -12   3   0    7.20   12.00
  12  -3   0   31.30   12.30
 -12  -3   0   23.80   14.60
  12   3   1  108.49   21.50
 -12   3  -1   75.89   14.70
  12  -3   1   67.19   15.20
 -12  -3  -1   84.49   16.70
  12   3   2   34.10   13.10
 -12   3  -2   56.79   14.70
 -12  -3  -2   41.80   15.70
  12  -3   2   38.30   13.90
  12   3   3   39.30   15.00
 -12   3  -3   33.40   13.60
  12  -3   3   21.10   13.20
 -12  -3  -3   27.00   16.30
 -12   3  -4   -0.30   12.50
  12   3   4    5.50   14.10
 -12  -3  -4  -17.30   15.60
  12  -3   4   -2.80   14.90
 -12   3  -5   90.99   15.70
  12   3   5   83.99   16.80
 -12  -3  -5   79.59   17.40
  12  -3   5  115.29   19.10
  12   3   6   -3.90   17.20
 -12   3  -6   -8.80   13.50
 -12  -3  -6   -9.80   16.50
 -12   4   7  161.18   32.70
 -12   4   7  210.28   29.50
  12   4  -7  172.98   23.60
 -12  -4   7  170.78   26.00
 -12  -4   7  214.98   34.30
  12  -4  -7  203.38   23.90
  12   4  -6  206.98   24.70
 -12   4   6  235.08   29.70
 -12   4   6  227.98   34.50
  12  -4  -6  174.78   25.40
 -12  -4   6  201.68   27.40
 -12  -4   6  232.18   34.10
  12   4  -5   -4.90   10.40
 -12   4   5    1.30   14.70
 -12   4   5  -18.40   14.90
  12  -4  -5   -6.10   11.10
 -12  -4   5   -0.20   15.00
 -12  -4   5  -16.50   15.40
 -12   4   4   30.00   15.10
  12   4  -4   10.40   11.40
 -12   4   4   15.50   13.90
 -12  -4   4   15.40   15.00
 -12  -4   4   42.20   16.00
  12  -4  -4   25.40   11.80
  12   4  -3   68.29   13.80
 -12   4   3  103.09   16.70
 -12   4   3   54.39   14.20
  12  -4  -3   70.09   14.20
 -12  -4   3  127.29   24.40
 -12   4   2  124.49   24.10
  12   4  -2  149.88   25.40
 -12   4   2  208.88   24.50
 -12  -4   2  155.28   26.00
  12  -4  -2  137.79   24.00
 -12   4   1   47.10   14.30
  12   4  -1   38.40   14.70
 -12  -4   1   41.40   15.30
  12  -4  -1   43.40   14.00
  12   4   0    9.70   14.10
 -12   4   0   16.30   13.60
  12  -4   0   14.10   12.80
 -12  -4   0    8.00   14.70
  12   4   1   92.29   15.00
 -12   4  -1   81.69   15.20
  12  -4   1  105.49   15.90
 -12  -4  -1   92.99   16.80
  12   4   2   32.30   13.20
 -12   4  -2    8.00   12.90
  12  -4   2    0.80   13.40
 -12  -4  -2  -14.40   15.40
 -12   4  -3  -11.40   12.40
  12   4   3    2.50   13.70
 -12  -4  -3  -11.40   15.00
  12  -4   3   -5.10   13.30
  12   4   4   23.90   14.20
 -12   4  -4   24.80   14.40
 -12  -4  -4   10.80   16.20
  12  -4   4   34.80   15.50
  12   4   5   19.50   14.30
 -12   4  -5  -17.30   13.40
 -12  -4  -5   -2.20   15.10
  12  -4   5  -12.80   17.20
 -12   4  -6   -6.40   14.00
  12   4   6  -11.40   16.30
 -12  -4  -6   10.30   16.60
 -12   5   6   63.99   18.40
 -12   5   6   20.00   17.20
  12   5  -6   43.60   12.50
 -12  -5   6   57.29   18.60
 -12  -5   6   41.20   17.10
  12  -5  -6   51.59   12.60
 -12   5   5    0.30   15.10
 -12   5   5    1.70   16.70
  12   5  -5   -3.50   11.00
 -12  -5   5    7.50   16.90
  12  -5  -5    9.20   11.20
 -12  -5   5   36.60   17.30
 -12   5   4  181.68   30.70
  12   5  -4   97.29   15.70
 -12   5   4  165.18   25.70
  12  -5  -4  124.29   22.40
 -12  -5   4  158.08   33.80
 -12  -5   4  131.29   26.70
 -12   5   3  -21.60   14.30
  12   5  -3   -0.30   12.30
 -12   5   3   -3.20   12.80
 -12  -5   3   29.20   14.60
  12  -5  -3    4.30   12.20
 -12  -5   3  -23.30   15.70
  12   5  -2   45.30   15.20
 -12   5   2   79.29   16.70
 -12   5   2  102.59   22.80
 -12  -5   2   56.49   16.80
  12  -5  -2   60.19   14.30
 -12   5   1  128.69   24.40
 -12   5   1  102.69   18.50
  12   5  -1  136.39   23.70
 -12  -5   1   82.39   17.90
  12  -5  -1  109.29   16.70
 -12   5   0   28.60   14.80
  12   5   0   48.60   14.40
 -12   5   0   35.50    9.50
 -12  -5   0   11.90   15.80
  12  -5   0   16.90   13.60
 -12   5  -1    0.70    9.60
  12   5   1    2.50   13.20
 -12   5  -1    3.80   13.60
 -12  -5  -1   -4.10   14.60
  12  -5   1    4.60   13.50
  12   5   2   24.90   12.90
 -12   5  -2   14.80   13.20
 -12  -5  -2    6.20   15.80
  12  -5   2   16.30   13.60
 -12   5  -3    7.50   13.60
  12   5   3   -9.50   13.70
 -12  -5  -3    7.90   16.00
  12  -5   3   -2.60   13.40
  12   5   4   29.30   14.80
 -12   5  -4   26.60   16.30
  12  -5   4   37.10   15.30
 -12  -5  -4    6.20   15.20
  12   5   5   38.40   14.40
 -12   5  -5   11.80   15.20
  12  -5   5   45.40   18.10
 -12  -5  -5   12.80   16.00
  12   6  -6  133.39   23.80
 -12   6   6  165.08   30.50
 -12   6   5  -19.40   16.00
 -12   6   5  -22.70   17.70
  12   6  -5  -14.10   11.70
  12  -6  -5   -0.90   12.10
 -12  -6   5   -2.80   17.10
 -12  -6   5   30.20   21.40
  12   6  -4  193.78   26.20
 -12   6   4  226.48   33.70
 -12   6   4  223.08   30.30
 -12  -6   4  151.58   30.20
 -12  -6   4  329.17   39.90
  12  -6  -4  203.68   25.70
  12   6  -3   -1.50   12.10
 -12   6   3   13.80   13.60
 -12   6   3   -2.70   15.30
  12  -6  -3   11.40   12.00
 -12  -6   3  -10.30   16.10
  12   6  -2   20.10   13.90
 -12   6   2   32.20   12.20
 -12   6   2   45.80   16.80
 -12  -6   2   44.40   17.20
  12  -6  -2   16.80   13.40
 -12   6   1   -3.20   14.50
 -12   6   1   26.60   10.80
  12   6  -1    2.30   13.00
 -12  -6   1   16.20   16.30
  12   6   0  183.68   27.70
 -12   6   0  195.68   27.40
 -12   6   0  203.38   23.50
 -12  -6   0  203.38   28.00
  12  -6   0  147.49   26.20
 -12   6  -1   15.20   14.90
  12   6   1   44.30   14.90
  12  -6   1   35.00   14.10
 -12  -6  -1   -1.90   16.50
  12   6   2    6.10   12.40
 -12   6  -2   15.30   10.00
 -12   6  -2   21.20   15.40
  12  -6   2   23.50   13.80
 -12  -6  -2   -9.50   15.40
  12   6   3   28.40   14.20
 -12   6  -3   25.80   15.70
 -12   6  -3   95.19   21.40
 -12  -6  -3   29.60   16.20
  12  -6   3   29.00   14.20
 -12   6  -4   42.00   17.30
 -12   6  -4  121.89   23.70
  12   6   4   26.70   14.90
  12  -6   4   54.49   16.00
 -12  -6  -4   16.50   16.70
 -12   7   4   43.40   16.00
  12   7  -4   51.99   13.90
 -12   7   4   75.39   19.90
 -12  -7   4   73.49   19.80
  12  -7  -4   77.39   13.00
  12   7  -3    4.40   13.40
 -12   7   3   20.40   13.90
 -12   7   3   31.10   17.30
  12  -7  -3   48.50   12.70
 -12  -7   3    0.40   17.80
 -12   7   2  114.29   25.50
 -12   7   2   77.09   18.60
  12   7  -2   41.20   14.40
  12  -7  -2   94.79   15.70
 -12  -7   2   69.59   19.00
 -12   7   1   97.79   20.70
 -12   7   1   29.90   16.60
  12   7  -1   41.90   15.00
 -12  -7   1   12.30   17.70
  12  -7  -1   27.10   14.10
 -12   7   0   37.10   11.70
  12   7   0   38.50   15.20
 -12   7   0   31.20   17.00
  12  -7   0   25.70   14.00
 -12  -7   0   46.20   17.30
 -12   7  -1   23.20   11.30
  12   7   1    0.20   14.20
 -12   7  -1   19.30   16.60
 -12  -7  -1    5.20   16.60
  12  -7   1   48.00   14.10
  12   7   2  101.49   17.10
 -12   7  -2  127.09   22.10
 -12   7  -2  143.09   26.80
  12  -7   2  160.28   26.20
 -12  -7  -2   98.99   18.90
 -12   7  -3   26.70   12.70
  12   7   3   -9.40   12.70
 -12   7  -3   20.40   17.00
 -12  -7  -3   -8.90   16.50
 -12   8   1   -0.20   11.30
 -12   8   1    9.20   17.70
  12   8  -1  -29.60   15.50
 -12  -8   1   11.50   18.10
 -12   8   0  285.17   33.10
  12   8   0  261.37   30.40
 -12  -8   0  221.78   31.90
 -13   0   7  -17.40   14.40
  13   0  -7  -13.40   11.00
 -13   0   6  287.17   29.20
  13   0  -6  266.37   27.40
 -13   0   5   -2.60   13.20
  13   0  -5    6.00   11.40
  13   0  -4   -2.20   12.90
 -13   0   4   29.90   13.10
  13   0  -3  -31.10   13.20
 -13   0   3   -0.40   12.90
 -13   0   2  143.29   21.80
  13   0  -2  123.59   24.10
  13   0  -1   46.30   15.40
 -13   0   1    2.40   12.40
 -13   0   0  269.97   29.00
  13   0   0  295.57   30.40
 -13   0  -1    7.90   12.50
  13   0   2   66.89   15.40
 -13   0  -2   40.20   13.60
 -13   0  -3   -1.40   14.10
  13   0   3    5.80   13.20
  13   0   4   60.59   14.80
 -13   0  -4   28.50   14.50
  13   0   5   -2.10   14.90
 -13   0  -5    4.00   14.20
 -13   0  -6  114.49   24.40
  13   0   6  158.58   30.90
  13   1  -7   -1.50   12.10
 -13   1   7  -20.90   14.10
 -13   1   7   -3.50   14.80
 -13  -1   7  -11.40   12.40
  13  -1  -7   16.50   12.60
 -13  -1   7   17.20   14.00
 -13   1   6  -31.90   13.90
  13   1  -6   -0.80   10.50
 -13   1   6   13.80   14.00
  13  -1  -6    0.50   11.40
 -13  -1   6    3.10   12.00
 -13  -1   6    2.50   13.90
 -13   1   5  -15.70   13.10
  13   1  -5   10.40   11.30
  13  -1  -5  -12.00   10.80
 -13  -1   5    3.20   13.40
  13   1  -4   -4.20   12.40
 -13   1   4  -23.70   13.60
 -13   1   4   15.00   13.10
 -13  -1   4   10.00   13.50
  13  -1  -4    6.00   12.50
 -13   1   3   16.10   13.00
  13   1  -3   -1.20   14.60
 -13  -1   3   14.70   12.90
  13  -1  -3   10.70   13.50
 -13   1   2    4.40   12.00
  13   1  -2   -6.00   12.80
 -13  -1   2    6.70   13.00
  13  -1  -2    2.90   13.60
 -13   1   1   10.20   12.10
  13   1  -1   -0.10   14.10
  13  -1  -1   -2.10   13.40
 -13  -1   1   -3.30   13.20
 -13   1   0  134.39   22.00
  13   1   0  142.59   24.20
 -13  -1   0  132.29   22.50
  13  -1   0  117.49   24.10
 -13   1  -1   56.89   14.10
  13   1   1   39.60   13.20
 -13  -1  -1   46.10   14.40
  13  -1   1   74.29   14.50
 -13   1  -2  184.28   24.40
  13   1   2  195.68   26.90
 -13  -1  -2  190.18   25.70
  13  -1   2  177.98   27.40
  13   1   3   39.00   14.00
 -13   1  -3   14.10   13.70
  13  -1   3   28.20   14.70
 -13  -1  -3   16.40   14.80
  13   1   4   16.60   13.90
 -13   1  -4   25.20   13.60
 -13  -1  -4   51.19   16.30
  13  -1   4   29.70   15.30
 -13   1  -5   40.80   14.70
  13   1   5   23.90   15.50
 -13  -1  -5   56.49   16.70
  13  -1   5   31.20   16.10
  13   1   6   66.49   19.00
 -13   1  -6   50.49   15.50
 -13  -1  -6   68.49   16.40
  13  -1   6   34.10   19.20
 -13   2   7   70.69   17.40
  13   2  -7   19.30   12.20
 -13   2   7   24.40   15.00
 -13  -2   7   34.50   14.90
 -13  -2   7   17.90   14.40
  13  -2  -7   43.20   12.50
  13   2  -6   22.40   10.90
 -13   2   6   39.20   15.70
 -13   2   6    6.50   14.00
 -13  -2   6   33.30   14.80
 -13  -2   6    6.00   13.30
  13  -2  -6   20.40   11.40
  13   2  -5   34.50   12.00
 -13   2   5   60.89   14.80
 -13   2   5   28.40   13.90
  13  -2  -5   34.00   12.30
 -13  -2   5   11.80   11.40
 -13  -2   5   50.39   14.60
 -13   2   4   21.70   13.50
  13   2  -4   -4.60   11.30
  13  -2  -4  -12.40   11.50
 -13  -2   4   -2.10   13.30
  13   2  -3  137.29   25.70
 -13   2   3  152.68   22.70
 -13  -2   3  156.28   23.90
  13  -2  -3  157.28   25.60
 -13   2   2   56.29   13.70
  13   2  -2   33.90   13.90
  13  -2  -2   59.99   14.00
 -13  -2   2   47.20   15.00
  13   2  -1    2.40   14.70
 -13   2   1    9.20   12.50
  13  -2  -1   24.80   14.10
 -13  -2   1    3.20   13.90
 -13   2   0   58.39   14.90
  13   2   0   69.99   14.60
  13  -2   0   73.59   14.90
 -13  -2   0   75.19   16.70
 -13   2  -1  171.48   23.50
  13   2   1  178.98   24.70
  13  -2   1  175.98   26.20
 -13  -2  -1  160.48   24.90
 -13   2  -2   -2.40   12.00
  13   2   2   12.50   14.10
  13  -2   2    8.70   14.70
 -13  -2  -2    4.20   14.80
 -13   2  -3   -8.10   12.50
  13   2   3   12.00   14.10
  13  -2   3    9.80   13.50
 -13  -2  -3    9.40   14.80
  13   2   4  -11.60   14.60
 -13   2  -4   24.00   14.50
  13  -2   4   10.00   13.80
 -13  -2  -4   19.00   15.10
  13   2   5   58.09   15.80
 -13   2  -5   80.79   17.10
  13  -2   5   81.49   18.50
 -13  -2  -5   97.19   18.00
 -13   3   6  -31.10   15.40
  13   3  -6  -14.40   11.80
 -13  -3   6   -2.40   13.20
 -13  -3   6  -16.60   14.40
  13  -3  -6  -15.00   11.80
 -13   3   5  -36.60   15.00
 -13   3   5   -4.10   15.70
  13   3  -5    0.40   12.00
 -13  -3   5   13.80   14.70
  13  -3  -5   12.60   11.90
 -13  -3   5  -10.30   12.10
 -13   3   4  -25.40   13.60
  13   3  -4  -20.80   11.50
 -13   3   4    1.60   14.10
  13  -3  -4  -20.00   11.90
 -13  -3   4   -2.90   14.50
  13   3  -3   46.10   14.30
 -13   3   3   51.89   14.30
 -13  -3   3   53.39   15.60
  13  -3  -3   58.49   14.50
  13   3  -2   -7.10   13.40
 -13   3   2   29.60   10.10
 -13   3   2   14.40   13.80
  13  -3  -2    4.20   13.50
 -13  -3   2   14.30   14.80
  13   3  -1  265.67   30.70
 -13   3   1  238.58   27.10
 -13  -3   1  260.57   29.90
  13  -3  -1  274.97   30.30
 -13   3   0   54.39   14.70
  13   3   0  142.29   24.00
 -13  -3   0   67.29   16.30
  13   3   1    4.90   12.50
 -13   3  -1   -1.10   12.20
  13  -3   1    2.90   14.30
 -13  -3  -1   12.40   15.00
  13   3   2   20.10   13.10
 -13   3  -2   13.40   13.20
  13  -3   2   20.60   15.00
 -13  -3  -2   11.20   15.90
 -13   3  -3   68.39   15.30
  13   3   3   80.89   16.20
  13  -3   3   64.29   15.40
 -13  -3  -3   72.49   16.80
  13   3   4   -7.30   13.50
 -13   3  -4    8.60   13.70
  13  -3   4    3.70   14.40
 -13  -3  -4   -3.70   15.10
  13   3   5   47.00   16.30
 -13   3  -5   40.00   15.60
  13  -3   5   51.99   17.20
 -13  -3  -5   37.40   17.60
  13   4  -6    2.00   11.40
 -13   4   6  -15.90   16.20
 -13   4   6    3.50   16.40
 -13  -4   6    7.30   15.60
  13  -4  -6   22.00   12.80
 -13  -4   6   12.40   15.70
  13   4  -5   13.40   12.80
 -13   4   5   -1.50   15.40
 -13   4   5   18.80   15.60
 -13  -4   5   14.50   14.20
 -13  -4   5   19.60   15.90
  13  -4  -5   11.80   12.20
 -13   4   4   -5.50   13.50
  13   4  -4  -12.40   12.50
 -13   4   4    8.80   16.30
 -13  -4   4   10.70   14.00
 -13  -4   4    8.90   15.80
  13  -4  -4  -14.40   12.10
 -13   4   3  158.58   27.40
 -13   4   3  120.89   24.00
  13   4  -3  123.79   24.40
 -13  -4   3  132.39   26.40
  13  -4  -3  128.29   24.50
 -13   4   2    5.80   14.00
  13   4  -2   -0.90   13.40
 -13  -4   2    1.50   16.40
  13  -4  -2   -2.50   13.30
 -13   4   1  -12.70   12.80
  13   4  -1  -15.40   13.60
 -13  -4   1    7.30   15.60
  13  -4  -1  -21.30   14.40
  13   4   0   10.10   14.80
 -13   4   0   20.60   14.30
 -13  -4   0    4.30   16.00
  13  -4   0   24.40   14.20
 -13   4  -1   43.30   14.10
  13   4   1   61.49   14.10
 -13  -4  -1   29.30   16.10
  13  -4   1   42.90   14.60
  13   4   2  166.88   26.30
 -13   4  -2  201.28   25.20
 -13  -4  -2  187.38   28.00
  13  -4   2  216.18   28.20
 -13   4  -3   32.30   13.80
  13   4   3   29.70   14.40
 -13  -4  -3    1.70   15.60
  13  -4   3   25.40   14.50
 -13   4  -4   20.10   14.60
  13   4   4   15.10   15.10
  13  -4   4    5.30   14.60
 -13  -4  -4   11.70   16.30
  13   5  -5   16.10   13.10
 -13   5   5    6.90   17.10
 -13   5   5   -5.60   14.90
 -13  -5   5    9.80   17.20
 -13  -5   5   18.20   17.20
  13  -5  -5   18.40   12.00
 -13   5   4   82.59   17.20
 -13   5   4  105.49   18.30
  13   5  -4   67.39   14.00
 -13  -5   4  135.59   27.40
  13  -5  -4   87.79   14.80
 -13  -5   4   85.69   18.70
 -13   5   3   35.60   13.30
  13   5  -3   25.40   13.30
 -13   5   3   20.60   16.40
 -13  -5   3   27.90   17.10
  13  -5  -3   36.00   13.70
  13   5  -2  -15.80   15.10
 -13   5   2   30.70   11.20
 -13   5   2  -14.60   14.40
  13  -5  -2    5.10   14.00
 -13  -5   2   21.60   17.20
 -13   5   1  121.79   18.80
  13   5  -1   49.99   15.50
 -13   5   1   71.99   16.00
 -13  -5   1   65.89   17.40
  13  -5  -1   54.69   16.20
 -13   5   0   13.70   14.80
  13   5   0   18.30   14.90
 -13   5   0   32.60   10.60
  13  -5   0   18.10   14.30
 -13  -5   0   26.30   16.50
  13   5   1   26.40   14.70
 -13   5  -1   36.50   10.70
 -13   5  -1   21.60   14.40
  13  -5   1   17.80   14.10
 -13  -5  -1   10.80   15.80
  13   5   2    5.50   12.70
 -13   5  -2    0.20   13.80
  13  -5   2   11.60   14.80
 -13  -5  -2    4.50   16.10
 -13   5  -3   62.89   15.70
  13   5   3   50.19   14.80
 -13  -5  -3   73.39   17.80
  13  -5   3   71.79   16.30
 -13  -5  -4   18.00   16.20
 -13   6   3    5.70   15.80
 -13   6   3    1.90   13.70
  13   6  -3   -8.80   13.60
 -13  -6   3   -6.20   17.40
  13  -6  -3   -7.90   13.00
 -13   6   2   42.60   17.20
 -13   6   2   53.59   12.70
  13   6  -2   42.20   15.10
  13  -6  -2   32.30   15.10
 -13  -6   2   38.40   18.60
 -13   6   1   18.10   16.40
 -13   6   1   99.29   20.60
  13   6  -1   42.10   15.90
 -13  -6   1   41.10   16.70
  13  -6  -1   24.30   15.10
 -13   6   0    0.30   15.10
 -13   6   0   22.70   10.70
  13   6   0   -1.30   14.70
  13  -6   0   -4.50   14.00
 -13  -6   0   11.80   16.90
 -13   6  -1   16.20   17.00
  13   6   1   37.20   15.80
 -13   6  -1   31.20   11.20
  13  -6   1   13.40   14.00
 -13  -6  -1   18.30   17.20
  13   6   2   -1.50   13.50
 -13   6  -2   38.70   11.60
 -13   6  -2    2.40   17.20
  13  -6   2   18.70   14.70
 -13  -6  -2    2.50   17.40
 -14   0   5   -1.60   14.60
  14   0  -5    7.10   13.30
  14   0  -4   -5.80   13.70
 -14   0   4   20.60   14.20
 -14   0   4  -30.90   12.40
 -14   0   3   -7.40   13.30
  14   0  -3   -5.00   14.80
 -14   0   2   -2.10   13.40
  14   0  -2    0.50   14.60
  14   0  -1    9.40   16.40
 -14   0   1   13.20   13.10
 -14   0   0   -6.80   13.60
  14   0   0   10.60   14.30
 -14   0  -1   -7.20   14.20
  14   0   1   -2.60   12.40
  14   0   2   38.20   14.80
 -14   0  -2    8.20   14.40
 -14   0  -3   -4.00   13.30
  14   0   3   10.10   15.50
 -14   0  -4   87.49   16.70
  14   0   4   85.99   16.20
  14   1  -5   62.29   14.90
 -14   1   5   63.79   15.70
 -14  -1   5   56.59   15.40
  14  -1  -5   51.79   13.60
 -14   1   4  106.19   29.30
  14   1  -4  214.18   26.30
 -14   1   4  194.08   24.40
 -14  -1   4  170.48   26.20
  14  -1  -4  211.48   26.20
  14   1  -3   48.90   14.80
 -14   1   3   31.10   14.40
  14  -1  -3   46.00   15.40
 -14  -1   3   31.20   14.70
  14   1  -2   10.10   13.70
 -14   1   2   16.90   13.10
  14  -1  -2   14.30   14.50
 -14  -1   2   27.50   14.10
  14   1  -1   27.20   15.60
 -14   1   1   26.80   12.90
 -14  -1   1   34.90   15.00
  14  -1  -1   39.80   15.90
 -14   1   0  117.39   22.00
  14   1   0  130.19   25.60
  14  -1   0  105.99   17.10
 -14  -1   0  121.39   22.90
 -14   1  -1   25.50   13.70
  14   1   1   34.60   13.40
  14  -1   1   10.60   13.80
 -14  -1  -1   16.60   13.90
 -14   1  -2    1.00   13.50
  14   1   2   14.90   14.30
 -14  -1  -2   26.50   14.30
  14  -1   2    4.70   13.30
 -14   1  -3    3.50   15.10
  14   1   3   19.00   15.30
  14  -1   3    4.10   14.30
 -14  -1  -3    7.70   15.20
  14   1   4   43.00   15.30
 -14   1  -4   41.30   14.70
 -14  -1  -4   52.39   16.70
  14  -1   4   53.39   15.60
 -14   2   5   -3.00   14.20
  14   2  -5  -11.10   12.00
  14  -2  -5   -2.60   12.50
 -14  -2   5  -26.90   11.10
 -14  -2   5    4.90   14.80
  14   2  -4   23.90   12.80
 -14   2   4   21.80   14.40
 -14   2   4    8.90   13.60
 -14  -2   4   14.70   15.10
  14  -2  -4   20.70   12.80
 -14   2   3   22.60   13.70
  14   2  -3   33.90   15.30
  14  -2  -3   32.80   14.50
 -14  -2   3   29.20   15.10
  14   2  -2   -5.60   14.90
 -14   2   2    3.50   12.80
 -14  -2   2    1.80   14.50
  14  -2  -2   -7.40   14.20
  14   2  -1    3.00   15.40
 -14   2   1   -2.60   13.10
 -14  -2   1    7.10   14.20
  14  -2  -1   -9.70   15.30
 -14   2   0   -2.10   12.60
  14   2   0   13.20   14.50
 -14  -2   0   20.10   15.40
  14  -2   0  -24.20   13.60
 -14   2  -1    1.90   12.90
  14   2   1    4.40   13.60
 -14  -2  -1    9.50   15.80
  14  -2   1   -0.90   13.40
 -14   2  -2  129.49   23.00
  14   2   2  143.59   24.80
  14  -2   2  134.09   25.80
 -14  -2  -2  125.19   25.10
  14   2   3   11.20   15.30
 -14   2  -3   18.30   13.30
 -14  -2  -3   10.90   16.20
  14  -2   3   22.00   15.00
 -14   2  -4    1.00   13.90
 -14  -2  -4    2.90   15.90
 -14   3   4   24.90   15.80
 -14   3   4  -14.20   13.20
  14   3  -4   13.70   13.30
  14  -3  -4   16.90   12.80
 -14  -3   4   13.10   15.40
 -14   3   3   35.50   14.40
  14   3  -3   17.70   13.90
 -14   3   3   44.80   14.40
  14  -3  -3   54.99   15.70
 -14  -3   3   32.30   16.00
  14   3  -2   10.50   15.30
 -14   3   2   27.60   14.90
 -14  -3   2   17.10   15.60
  14  -3  -2   18.90   13.90
  14   3  -1   85.59   17.20
 -14   3   1   73.79   16.10
  14  -3  -1   97.09   17.60
 -14  -3   1   87.69   18.00
 -14   3   0    2.90   12.80
  14   3   0   28.50   14.90
  14  -3   0   18.80   15.10
 -14  -3   0   21.70   16.40
 -14   3  -1   -5.80   13.40
  14   3   1   -1.90   13.40
  14  -3   1   -3.00   14.00
 -14  -3  -1   -2.50   16.10
  14   3   2   -4.20   13.60
 -14   3  -2   -7.30   14.80
 -14  -3  -2  -11.00   15.00
  14  -3   2   11.80   14.10
  14   3   3   90.99   16.50
 -14   3  -3  126.09   22.60
 -14  -3  -3   83.89   19.10
  14  -3   3   91.79   17.90
 -14   4   4   -0.50   16.00
 -14   4   3   64.19   17.00
 -14   4   3   38.80   13.10
  14   4  -3   34.50   14.30
  14  -4  -3   51.19   15.30
 -14  -4   3   56.29   17.50
  14   4  -2   32.20   16.10
 -14   4   2   37.80   15.00
 -14  -4   2   26.50   16.70
  14  -4  -2   21.50   15.00
  14   4  -1    3.60   14.30
 -14   4   1    9.80   13.60
 -14  -4   1    8.50   17.30
  14  -4  -1  -10.20   15.80
 -14   4   0    7.10   14.90
  14   4   0   18.50   16.60
 -14  -4   0   34.30   17.90
  14  -4   0   31.40   14.90
  14   4   1   12.30   14.00
 -14   4  -1   -6.00   14.10
  14  -4   1    6.70   13.70
 -14  -4  -1    0.60   17.20
 -14   4  -2   -5.40   13.50
  14   4   2   -2.80   12.80
  14  -4   2   -3.70   14.70
 -14  -4  -2   -6.10   15.70
  14   5  -2   -8.60   14.80
 -14   5   2    3.70   16.40
 -14  -5   2   10.70   17.70
  14   5  -1   19.20   14.90
 -14   5   1    7.10   14.90
 -14   5   1   26.50    9.30
 -14  -5   1    9.10   17.20
  14  -5  -1  -24.30   15.30
 -14   5   0    4.40   14.50
  14   5   0    1.80   15.70
 -14   5   0   37.10   12.50
  14  -5   0   -3.90   14.50
 -14  -5   0   11.60   17.40
 -15   0   3    2.50   14.50
  15   0  -2   35.80   15.70
 -15   0   2   43.10   15.80
  15   0  -1   22.50   16.70
 -15   0   1   21.30   15.40
 -15   0   0   14.40   13.70
  15   0   0   -1.40   15.40
 -15   0  -1    2.10   13.30
  15   0   1    1.20   13.50
  15   1  -2   -9.30   15.30
 -15   1   2    3.60   13.30
 -15  -1   2    6.50   14.00
  15  -1  -2  -15.00   14.70
 -15   1   1   24.30   13.20
  15   1  -1    0.10   15.50
 -15  -1   1   21.30   14.50
  15  -1  -1   14.30   17.00
  15   1   0   72.49   17.50
 -15   1   0   60.59   15.60
  15  -1   0   52.99   16.10
 -15  -1   0   49.99   15.10
 -15   1  -1   17.90   14.90
  15   1   1   35.50   14.90
  15  -1   1   33.00   14.50
 -15  -1  -1   16.70   14.90
 -15   2   2   44.00   14.80
  15   2  -1   11.10   15.90
 -15   2   1   30.20   15.00
 -15  -2   1   10.00   14.80
  15  -2  -1   24.00   17.40
 -15   2   0   36.00   14.10
  15   2   0   47.60   16.50
  15  -2   0    1.10   15.00
 -15  -2   0   30.90   15.90

_computing_structure_solution     'SHELXT 2014/4 (Sheldrick, 2014)'
;
_shelx_hkl_checksum              78038
_shelx_fab_file
;
    2    0    0     13.04      0.00
    3    0    0     10.54      0.00
    4    0    0      7.76      0.00
    5    0    0      5.21      0.00
    6    0    0      3.25      0.00
    7    0    0      2.05      0.00
    8    0    0      1.57      0.00
    9    0    0      1.62      0.00
   10    0    0      1.91      0.00
   11    0    0      2.19      0.00
   12    0    0      2.29      0.00
   13    0    0      2.16      0.00
   14    0    0      1.81      0.00
   15    0    0      1.36      0.00
    2    1    0     -0.02      0.00
    3    1    0      0.05      0.00
    4    1    0      0.19      0.00
    5    1    0      0.36      0.00
    6    1    0      0.51      0.00
    7    1    0      0.60      0.00
    8    1    0      0.59      0.00
    9    1    0      0.47      0.00
   10    1    0      0.26      0.00
   11    1    0      0.00      0.00
   12    1    0     -0.26      0.00
   13    1    0     -0.46      0.00
   14    1    0     -0.57      0.00
   15    1    0     -0.60      0.00
    0    2    0     11.19      0.00
    1    2    0     10.76      0.00
    2    2    0      9.56      0.00
    3    2    0      7.85      0.00
    4    2    0      5.97      0.00
    5    2    0      4.25      0.00
    6    2    0      2.95      0.00
    7    2    0      2.18      0.00
    8    2    0      1.89      0.00
    9    2    0      1.95      0.00
   10    2    0      2.15      0.00
   11    2    0      2.30      0.00
   12    2    0      2.30      0.00
   13    2    0      2.09      0.00
   14    2    0      1.72      0.00
   15    2    0      1.26      0.00
    1    3    0     -0.10      0.00
    2    3    0     -0.11      0.00
    3    3    0      0.02      0.00
    4    3    0      0.29      0.00
    5    3    0      0.64      0.00
    6    3    0      0.98      0.00
    7    3    0      1.18      0.00
    8    3    0      1.19      0.00
    9    3    0      0.97      0.00
   10    3    0      0.56      0.00
   11    3    0      0.05      0.00
   12    3    0     -0.45      0.00
   13    3    0     -0.84      0.00
   14    3    0     -1.06      0.00
    0    4    0      3.42      0.00
    1    4    0      3.34      0.00
    2    4    0      3.12      0.00
    3    4    0      2.80      0.00
    4    4    0      2.46      0.00
    5    4    0      2.16      0.00
    6    4    0      1.96      0.00
    7    4    0      1.87      0.00
    8    4    0      1.88      0.00
    9    4    0      1.94      0.00
   10    4    0      1.99      0.00
   11    4    0      1.99      0.00
   12    4    0      1.88      0.00
   13    4    0      1.66      0.00
   14    4    0      1.34      0.00
    1    5    0     -0.13      0.00
    2    5    0     -0.20      0.00
    3    5    0     -0.15      0.00
    4    5    0      0.00      0.00
    5    5    0      0.24      0.00
    6    5    0      0.49      0.00
    7    5    0      0.68      0.00
    8    5    0      0.75      0.00
    9    5    0      0.68      0.00
   10    5    0      0.49      0.00
   11    5    0      0.21      0.00
   12    5    0     -0.08      0.00
   13    5    0     -0.31      0.00
   14    5    0     -0.46      0.00
    0    6    0     -0.68      0.00
    1    6    0     -0.61      0.00
    2    6    0     -0.43      0.00
    3    6    0     -0.18      0.00
    4    6    0      0.11      0.00
    5    6    0      0.37      0.00
    6    6    0      0.58      0.00
    7    6    0      0.72      0.00
    8    6    0      0.82      0.00
    9    6    0      0.87      0.00
   10    6    0      0.91      0.00
   11    6    0      0.92      0.00
   12    6    0      0.90      0.00
   13    6    0      0.84      0.00
    1    7    0     -0.02      0.00
    2    7    0     -0.06      0.00
    3    7    0     -0.10      0.00
    4    7    0     -0.13      0.00
    5    7    0     -0.15      0.00
    6    7    0     -0.14      0.00
    7    7    0     -0.09      0.00
    8    7    0      0.00      0.00
    9    7    0      0.10      0.00
   10    7    0      0.21      0.00
   11    7    0      0.29      0.00
   12    7    0      0.34      0.00
    0    8    0     -0.90      0.00
    1    8    0     -0.88      0.00
    2    8    0     -0.81      0.00
    3    8    0     -0.71      0.00
    4    8    0     -0.59      0.00
    5    8    0     -0.46      0.00
    6    8    0     -0.33      0.00
    7    8    0     -0.21      0.00
    8    8    0     -0.10      0.00
    9    8    0     -0.01      0.00
   10    8    0      0.06      0.00
   11    8    0      0.12      0.00
   12    8    0      0.15      0.00
    1    9    0      0.21      0.00
    2    9    0      0.34      0.00
    3    9    0      0.36      0.00
    4    9    0      0.26      0.00
    5    9    0      0.09      0.00
    6    9    0     -0.11      0.00
    7    9    0     -0.25      0.00
    8    9    0     -0.30      0.00
    9    9    0     -0.24      0.00
   10    9    0     -0.10      0.00
   11    9    0      0.07      0.00
    0   10    0     -0.69      0.00
    1   10    0     -0.70      0.00
    2   10    0     -0.72      0.00
    3   10    0     -0.72      0.00
    4   10    0     -0.68      0.00
    5   10    0     -0.57      0.00
    6   10    0     -0.41      0.00
    7   10    0     -0.22      0.00
    8   10    0     -0.05      0.00
    9   10    0      0.06      0.00
    1   11    0      0.37      0.00
    2   11    0      0.65      0.00
    3   11    0      0.78      0.00
    4   11    0      0.74      0.00
    5   11    0      0.56      0.00
    6   11    0      0.30      0.00
    7   11    0      0.03      0.00
    8   11    0     -0.18      0.00
    0   12    0     -0.85      0.00
    1   12    0     -0.85      0.00
    2   12    0     -0.82      0.00
    3   12    0     -0.75      0.00
    4   12    0     -0.62      0.00
    5   12    0     -0.42      0.00
    6   12    0     -0.19      0.00
    1   13    0      0.30      0.00
  -15    1    1      1.70      0.00
  -14    1    1      2.15      0.00
  -13    1    1      2.45      0.00
  -12    1    1      2.50      0.00
  -11    1    1      2.29      0.00
  -10    1    1      1.89      0.00
   -9    1    1      1.49      0.00
   -8    1    1      1.32      0.00
   -7    1    1      1.64      0.00
   -6    1    1      2.59      0.00
   -5    1    1      4.21      0.00
   -4    1    1      6.31      0.00
   -3    1    1      8.58      0.00
   -2    1    1     10.59      0.00
   -1    1    1     11.95      0.00
    0    1    1     12.38      0.00
    1    1    1     11.82      0.00
    2    1    1     10.41      0.00
    3    1    1      8.45      0.00
    4    1    1      6.33      0.00
    5    1    1      4.44      0.00
    6    1    1      3.01      0.00
    7    1    1      2.15      0.00
    8    1    1      1.79      0.00
    9    1    1      1.76      0.00
   10    1    1      1.86      0.00
   11    1    1      1.92      0.00
   12    1    1      1.83      0.00
   13    1    1      1.59      0.00
   14    1    1      1.23      0.00
   15    1    1      0.86      0.00
  -15    2    1      0.98      0.00
  -14    2    1      0.88      0.00
  -13    2    1      0.60      0.00
  -12    2    1      0.19      0.00
  -11    2    1     -0.30      0.00
  -10    2    1     -0.76      0.00
   -9    2    1     -1.13      0.00
   -8    2    1     -1.35      0.00
   -7    2    1     -1.44      0.00
   -6    2    1     -1.45      0.00
   -5    2    1     -1.45      0.00
   -4    2    1     -1.53      0.00
   -3    2    1     -1.72      0.00
   -2    2    1     -1.98      0.00
   -1    2    1     -2.26      0.00
    0    2    1     -2.44      0.00
    1    2    1     -2.45      0.00
    2    2    1     -2.21      0.00
    3    2    1     -1.76      0.00
    4    2    1     -1.15      0.00
    5    2    1     -0.50      0.00
    6    2    1      0.06      0.00
    7    2    1      0.43      0.00
    8    2    1      0.56      0.00
    9    2    1      0.48      0.00
   10    2    1      0.25      0.00
   11    2    1     -0.05      0.00
   12    2    1     -0.32      0.00
   13    2    1     -0.52      0.00
   14    2    1     -0.61      0.00
  -14    3    1      1.34      0.00
  -13    3    1      1.65      0.00
  -12    3    1      1.84      0.00
  -11    3    1      1.91      0.00
  -10    3    1      1.89      0.00
   -9    3    1      1.85      0.00
   -8    3    1      1.89      0.00
   -7    3    1      2.13      0.00
   -6    3    1      2.61      0.00
   -5    3    1      3.36      0.00
   -4    3    1      4.27      0.00
   -3    3    1      5.22      0.00
   -2    3    1      6.02      0.00
   -1    3    1      6.50      0.00
    0    3    1      6.55      0.00
    1    3    1      6.16      0.00
    2    3    1      5.42      0.00
    3    3    1      4.49      0.00
    4    3    1      3.54      0.00
    5    3    1      2.76      0.00
    6    3    1      2.24      0.00
    7    3    1      2.01      0.00
    8    3    1      2.01      0.00
    9    3    1      2.14      0.00
   10    3    1      2.28      0.00
   11    3    1      2.32      0.00
   12    3    1      2.21      0.00
   13    3    1      1.94      0.00
   14    3    1      1.56      0.00
  -14    4    1      0.87      0.00
  -13    4    1      0.55      0.00
  -12    4    1      0.07      0.00
  -11    4    1     -0.49      0.00
  -10    4    1     -1.02      0.00
   -9    4    1     -1.43      0.00
   -8    4    1     -1.66      0.00
   -7    4    1     -1.73      0.00
   -6    4    1     -1.69      0.00
   -5    4    1     -1.61      0.00
   -4    4    1     -1.60      0.00
   -3    4    1     -1.69      0.00
   -2    4    1     -1.88      0.00
   -1    4    1     -2.12      0.00
    0    4    1     -2.30      0.00
    1    4    1     -2.34      0.00
    2    4    1     -2.17      0.00
    3    4    1     -1.81      0.00
    4    4    1     -1.29      0.00
    5    4    1     -0.73      0.00
    6    4    1     -0.24      0.00
    7    4    1      0.09      0.00
    8    4    1      0.23      0.00
    9    4    1      0.18      0.00
   10    4    1      0.01      0.00
   11    4    1     -0.21      0.00
   12    4    1     -0.41      0.00
   13    4    1     -0.52      0.00
   14    4    1     -0.54      0.00
  -14    5    1      0.44      0.00
  -13    5    1      0.62      0.00
  -12    5    1      0.80      0.00
  -11    5    1      1.00      0.00
  -10    5    1      1.20      0.00
   -9    5    1      1.41      0.00
   -8    5    1      1.59      0.00
   -7    5    1      1.73      0.00
   -6    5    1      1.81      0.00
   -5    5    1      1.82      0.00
   -4    5    1      1.75      0.00
   -3    5    1      1.62      0.00
   -2    5    1      1.44      0.00
   -1    5    1      1.25      0.00
    0    5    1      1.07      0.00
    1    5    1      0.92      0.00
    2    5    1      0.81      0.00
    3    5    1      0.76      0.00
    4    5    1      0.76      0.00
    5    5    1      0.83      0.00
    6    5    1      0.95      0.00
    7    5    1      1.12      0.00
    8    5    1      1.33      0.00
    9    5    1      1.54      0.00
   10    5    1      1.72      0.00
   11    5    1      1.82      0.00
   12    5    1      1.82      0.00
   13    5    1      1.69      0.00
  -13    6    1      0.04      0.00
  -12    6    1     -0.15      0.00
  -11    6    1     -0.36      0.00
  -10    6    1     -0.55      0.00
   -9    6    1     -0.71      0.00
   -8    6    1     -0.80      0.00
   -7    6    1     -0.84      0.00
   -6    6    1     -0.82      0.00
   -5    6    1     -0.77      0.00
   -4    6    1     -0.71      0.00
   -3    6    1     -0.67      0.00
   -2    6    1     -0.66      0.00
   -1    6    1     -0.67      0.00
    0    6    1     -0.70      0.00
    1    6    1     -0.73      0.00
    2    6    1     -0.74      0.00
    3    6    1     -0.73      0.00
    4    6    1     -0.69      0.00
    5    6    1     -0.62      0.00
    6    6    1     -0.54      0.00
    7    6    1     -0.45      0.00
    8    6    1     -0.36      0.00
    9    6    1     -0.27      0.00
   10    6    1     -0.19      0.00
   11    6    1     -0.12      0.00
   12    6    1     -0.06      0.00
   13    6    1      0.00      0.00
  -12    7    1      0.15      0.00
  -11    7    1      0.24      0.00
  -10    7    1      0.35      0.00
   -9    7    1      0.45      0.00
   -8    7    1      0.51      0.00
   -7    7    1      0.51      0.00
   -6    7    1      0.42      0.00
   -5    7    1      0.24      0.00
   -4    7    1      0.01      0.00
   -3    7    1     -0.25      0.00
   -2    7    1     -0.47      0.00
   -1    7    1     -0.62      0.00
    0    7    1     -0.68      0.00
    1    7    1     -0.65      0.00
    2    7    1     -0.57      0.00
    3    7    1     -0.45      0.00
    4    7    1     -0.33      0.00
    5    7    1     -0.22      0.00
    6    7    1     -0.13      0.00
    7    7    1     -0.03      0.00
    8    7    1      0.09      0.00
    9    7    1      0.24      0.00
   10    7    1      0.40      0.00
   11    7    1      0.56      0.00
   12    7    1      0.67      0.00
  -12    8    1     -0.12      0.00
  -11    8    1      0.03      0.00
  -10    8    1      0.17      0.00
   -9    8    1      0.25      0.00
   -8    8    1      0.25      0.00
   -7    8    1      0.15      0.00
   -6    8    1     -0.02      0.00
   -5    8    1     -0.19      0.00
   -4    8    1     -0.32      0.00
   -3    8    1     -0.36      0.00
   -2    8    1     -0.30      0.00
   -1    8    1     -0.16      0.00
    0    8    1      0.00      0.00
    1    8    1      0.13      0.00
    2    8    1      0.18      0.00
    3    8    1      0.13      0.00
    4    8    1      0.01      0.00
    5    8    1     -0.14      0.00
    6    8    1     -0.26      0.00
    7    8    1     -0.31      0.00
    8    8    1     -0.26      0.00
    9    8    1     -0.14      0.00
   10    8    1      0.02      0.00
   11    8    1      0.17      0.00
  -11    9    1      0.21      0.00
  -10    9    1      0.23      0.00
   -9    9    1      0.16      0.00
   -8    9    1      0.01      0.00
   -7    9    1     -0.20      0.00
   -6    9    1     -0.44      0.00
   -5    9    1     -0.65      0.00
   -4    9    1     -0.81      0.00
   -3    9    1     -0.87      0.00
   -2    9    1     -0.85      0.00
   -1    9    1     -0.77      0.00
    0    9    1     -0.65      0.00
    1    9    1     -0.54      0.00
    2    9    1     -0.46      0.00
    3    9    1     -0.42      0.00
    4    9    1     -0.40      0.00
    5    9    1     -0.40      0.00
    6    9    1     -0.39      0.00
    7    9    1     -0.37      0.00
    8    9    1     -0.33      0.00
    9    9    1     -0.28      0.00
   10    9    1     -0.22      0.00
   -9   10    1      0.64      0.00
   -8   10    1      0.58      0.00
   -7   10    1      0.36      0.00
   -6   10    1      0.03      0.00
   -5   10    1     -0.34      0.00
   -4   10    1     -0.65      0.00
   -3   10    1     -0.81      0.00
   -2   10    1     -0.79      0.00
   -1   10    1     -0.59      0.00
    0   10    1     -0.28      0.00
    1   10    1      0.06      0.00
    2   10    1      0.34      0.00
    3   10    1      0.51      0.00
    4   10    1      0.56      0.00
    5   10    1      0.51      0.00
    6   10    1      0.40      0.00
    7   10    1      0.29      0.00
    8   10    1      0.21      0.00
    9   10    1      0.16      0.00
   -8   11    1      0.16      0.00
   -7   11    1     -0.14      0.00
   -6   11    1     -0.47      0.00
   -5   11    1     -0.76      0.00
   -4   11    1     -0.94      0.00
   -3   11    1     -1.01      0.00
   -2   11    1     -0.97      0.00
   -1   11    1     -0.86      0.00
    0   11    1     -0.72      0.00
    1   11    1     -0.60      0.00
    2   11    1     -0.50      0.00
    3   11    1     -0.41      0.00
    4   11    1     -0.31      0.00
    5   11    1     -0.20      0.00
    6   11    1     -0.09      0.00
    7   11    1      0.01      0.00
    8   11    1      0.05      0.00
   -6   12    1     -0.17      0.00
   -5   12    1     -0.50      0.00
   -4   12    1     -0.77      0.00
   -3   12    1     -0.92      0.00
   -2   12    1     -0.90      0.00
   -1   12    1     -0.72      0.00
    0   12    1     -0.41      0.00
    1   12    1     -0.04      0.00
    2   12    1      0.32      0.00
    3   12    1      0.59      0.00
    4   12    1      0.75      0.00
    5   12    1      0.77      0.00
    0   13    1     -0.59      0.00
  -15    0    2      1.87      0.00
  -14    0    2      2.25      0.00
  -13    0    2      2.43      0.00
  -12    0    2      2.34      0.00
  -11    0    2      1.98      0.00
  -10    0    2      1.45      0.00
   -9    0    2      0.91      0.00
   -8    0    2      0.58      0.00
   -7    0    2      0.67      0.00
   -6    0    2      1.31      0.00
   -5    0    2      2.48      0.00
   -4    0    2      4.02      0.00
   -3    0    2      5.66      0.00
   -2    0    2      7.09      0.00
   -1    0    2      8.01      0.00
    0    0    2      8.25      0.00
    1    0    2      7.82      0.00
    2    0    2      6.84      0.00
    3    0    2      5.55      0.00
    4    0    2      4.24      0.00
    5    0    2      3.13      0.00
    6    0    2      2.34      0.00
    7    0    2      1.89      0.00
    8    0    2      1.69      0.00
    9    0    2      1.63      0.00
   10    0    2      1.57      0.00
   11    0    2      1.45      0.00
   12    0    2      1.23      0.00
   13    0    2      0.96      0.00
   14    0    2      0.68      0.00
  -15    1    2      0.34      0.00
  -14    1    2      0.26      0.00
  -13    1    2      0.10      0.00
  -12    1    2     -0.13      0.00
  -11    1    2     -0.36      0.00
  -10    1    2     -0.55      0.00
   -9    1    2     -0.68      0.00
   -8    1    2     -0.73      0.00
   -7    1    2     -0.75      0.00
   -6    1    2     -0.76      0.00
   -5    1    2     -0.84      0.00
   -4    1    2     -1.01      0.00
   -3    1    2     -1.27      0.00
   -2    1    2     -1.58      0.00
   -1    1    2     -1.87      0.00
    0    1    2     -2.05      0.00
    1    1    2     -2.08      0.00
    2    1    2     -1.92      0.00
    3    1    2     -1.59      0.00
    4    1    2     -1.17      0.00
    5    1    2     -0.72      0.00
    6    1    2     -0.34      0.00
    7    1    2     -0.06      0.00
    8    1    2      0.09      0.00
    9    1    2      0.14      0.00
   10    1    2      0.11      0.00
   11    1    2      0.05      0.00
   12    1    2      0.00      0.00
   13    1    2     -0.02      0.00
   14    1    2     -0.02      0.00
  -15    2    2      1.31      0.00
  -14    2    2      1.64      0.00
  -13    2    2      1.85      0.00
  -12    2    2      1.90      0.00
  -11    2    2      1.78      0.00
  -10    2    2      1.54      0.00
   -9    2    2      1.31      0.00
   -8    2    2      1.22      0.00
   -7    2    2      1.40      0.00
   -6    2    2      1.93      0.00
   -5    2    2      2.80      0.00
   -4    2    2      3.89      0.00
   -3    2    2      5.01      0.00
   -2    2    2      5.94      0.00
   -1    2    2      6.48      0.00
    0    2    2      6.53      0.00
    1    2    2      6.10      0.00
    2    2    2      5.30      0.00
    3    2    2      4.31      0.00
    4    2    2      3.35      0.00
    5    2    2      2.57      0.00
    6    2    2      2.05      0.00
    7    2    2      1.81      0.00
    8    2    2      1.76      0.00
    9    2    2      1.80      0.00
   10    2    2      1.82      0.00
   11    2    2      1.75      0.00
   12    2    2      1.56      0.00
   13    2    2      1.29      0.00
   14    2    2      0.98      0.00
  -14    3    2      0.59      0.00
  -13    3    2      0.22      0.00
  -12    3    2     -0.28      0.00
  -11    3    2     -0.82      0.00
  -10    3    2     -1.30      0.00
   -9    3    2     -1.64      0.00
   -8    3    2     -1.82      0.00
   -7    3    2     -1.89      0.00
   -6    3    2     -1.92      0.00
   -5    3    2     -2.03      0.00
   -4    3    2     -2.29      0.00
   -3    3    2     -2.69      0.00
   -2    3    2     -3.17      0.00
   -1    3    2     -3.63      0.00
    0    3    2     -3.91      0.00
    1    3    2     -3.92      0.00
    2    3    2     -3.63      0.00
    3    3    2     -3.07      0.00
    4    3    2     -2.35      0.00
    5    3    2     -1.62      0.00
    6    3    2     -0.99      0.00
    7    3    2     -0.55      0.00
    8    3    2     -0.32      0.00
    9    3    2     -0.24      0.00
   10    3    2     -0.25      0.00
   11    3    2     -0.28      0.00
   12    3    2     -0.26      0.00
   13    3    2     -0.20      0.00
   14    3    2     -0.10      0.00
  -14    4    2      0.45      0.00
  -13    4    2      0.64      0.00
  -12    4    2      0.87      0.00
  -11    4    2      1.11      0.00
  -10    4    2      1.37      0.00
   -9    4    2      1.65      0.00
   -8    4    2      1.94      0.00
   -7    4    2      2.26      0.00
   -6    4    2      2.58      0.00
   -5    4    2      2.90      0.00
   -4    4    2      3.17      0.00
   -3    4    2      3.37      0.00
   -2    4    2      3.45      0.00
   -1    4    2      3.38      0.00
    0    4    2      3.16      0.00
    1    4    2      2.81      0.00
    2    4    2      2.38      0.00
    3    4    2      1.95      0.00
    4    4    2      1.58      0.00
    5    4    2      1.35      0.00
    6    4    2      1.26      0.00
    7    4    2      1.32      0.00
    8    4    2      1.48      0.00
    9    4    2      1.67      0.00
   10    4    2      1.83      0.00
   11    4    2      1.89      0.00
   12    4    2      1.83      0.00
   13    4    2      1.64      0.00
   14    4    2      1.35      0.00
  -14    5    2      0.50      0.00
  -13    5    2      0.22      0.00
  -12    5    2     -0.18      0.00
  -11    5    2     -0.64      0.00
  -10    5    2     -1.09      0.00
   -9    5    2     -1.48      0.00
   -8    5    2     -1.76      0.00
   -7    5    2     -1.94      0.00
   -6    5    2     -2.04      0.00
   -5    5    2     -2.10      0.00
   -4    5    2     -2.16      0.00
   -3    5    2     -2.24      0.00
   -2    5    2     -2.32      0.00
   -1    5    2     -2.38      0.00
    0    5    2     -2.38      0.00
    1    5    2     -2.30      0.00
    2    5    2     -2.15      0.00
    3    5    2     -1.94      0.00
    4    5    2     -1.72      0.00
    5    5    2     -1.52      0.00
    6    5    2     -1.37      0.00
    7    5    2     -1.27      0.00
    8    5    2     -1.20      0.00
    9    5    2     -1.11      0.00
   10    5    2     -0.98      0.00
   11    5    2     -0.79      0.00
   12    5    2     -0.54      0.00
   13    5    2     -0.28      0.00
  -13    6    2     -0.13      0.00
  -12    6    2      0.04      0.00
  -11    6    2      0.32      0.00
  -10    6    2      0.68      0.00
   -9    6    2      1.06      0.00
   -8    6    2      1.39      0.00
   -7    6    2      1.64      0.00
   -6    6    2      1.76      0.00
   -5    6    2      1.74      0.00
   -4    6    2      1.62      0.00
   -3    6    2      1.42      0.00
   -2    6    2      1.20      0.00
   -1    6    2      0.98      0.00
    0    6    2      0.80      0.00
    1    6    2      0.65      0.00
    2    6    2      0.53      0.00
    3    6    2      0.43      0.00
    4    6    2      0.35      0.00
    5    6    2      0.31      0.00
    6    6    2      0.32      0.00
    7    6    2      0.39      0.00
    8    6    2      0.54      0.00
    9    6    2      0.74      0.00
   10    6    2      0.95      0.00
   11    6    2      1.13      0.00
   12    6    2      1.22      0.00
   13    6    2      1.19      0.00
  -12    7    2      0.10      0.00
  -11    7    2      0.04      0.00
  -10    7    2     -0.09      0.00
   -9    7    2     -0.30      0.00
   -8    7    2     -0.57      0.00
   -7    7    2     -0.87      0.00
   -6    7    2     -1.14      0.00
   -5    7    2     -1.34      0.00
   -4    7    2     -1.40      0.00
   -3    7    2     -1.32      0.00
   -2    7    2     -1.11      0.00
   -1    7    2     -0.84      0.00
    0    7    2     -0.57      0.00
    1    7    2     -0.37      0.00
    2    7    2     -0.30      0.00
    3    7    2     -0.37      0.00
    4    7    2     -0.54      0.00
    5    7    2     -0.76      0.00
    6    7    2     -0.96      0.00
    7    7    2     -1.07      0.00
    8    7    2     -1.07      0.00
    9    7    2     -0.95      0.00
   10    7    2     -0.74      0.00
   11    7    2     -0.48      0.00
   12    7    2     -0.22      0.00
  -11    8    2      0.13      0.00
  -10    8    2      0.26      0.00
   -9    8    2      0.36      0.00
   -8    8    2      0.40      0.00
   -7    8    2      0.36      0.00
   -6    8    2      0.25      0.00
   -5    8    2      0.10      0.00
   -4    8    2     -0.05      0.00
   -3    8    2     -0.17      0.00
   -2    8    2     -0.22      0.00
   -1    8    2     -0.21      0.00
    0    8    2     -0.17      0.00
    1    8    2     -0.11      0.00
    2    8    2     -0.07      0.00
    3    8    2     -0.07      0.00
    4    8    2     -0.11      0.00
    5    8    2     -0.17      0.00
    6    8    2     -0.22      0.00
    7    8    2     -0.24      0.00
    8    8    2     -0.20      0.00
    9    8    2     -0.11      0.00
   10    8    2      0.01      0.00
   11    8    2      0.13      0.00
  -10    9    2      0.64      0.00
   -9    9    2      0.65      0.00
   -8    9    2      0.47      0.00
   -7    9    2      0.15      0.00
   -6    9    2     -0.27      0.00
   -5    9    2     -0.66      0.00
   -4    9    2     -0.92      0.00
   -3    9    2     -1.01      0.00
   -2    9    2     -0.89      0.00
   -1    9    2     -0.62      0.00
    0    9    2     -0.29      0.00
    1    9    2      0.02      0.00
    2    9    2      0.23      0.00
    3    9    2      0.31      0.00
    4    9    2      0.29      0.00
    5    9    2      0.21      0.00
    6    9    2      0.13      0.00
    7    9    2      0.08      0.00
    8    9    2      0.09      0.00
    9    9    2      0.13      0.00
   10    9    2      0.18      0.00
   -9   10    2      0.32      0.00
   -8   10    2      0.11      0.00
   -7   10    2     -0.17      0.00
   -6   10    2     -0.46      0.00
   -5   10    2     -0.70      0.00
   -4   10    2     -0.84      0.00
   -3   10    2     -0.87      0.00
   -2   10    2     -0.80      0.00
   -1   10    2     -0.67      0.00
    0   10    2     -0.51      0.00
    1   10    2     -0.38      0.00
    2   10    2     -0.28      0.00
    3   10    2     -0.21      0.00
    4   10    2     -0.18      0.00
    5   10    2     -0.16      0.00
    6   10    2     -0.14      0.00
    7   10    2     -0.13      0.00
    8   10    2     -0.14      0.00
    9   10    2     -0.16      0.00
   -8   11    2      0.57      0.00
   -7   11    2      0.33      0.00
   -6   11    2     -0.03      0.00
   -5   11    2     -0.41      0.00
   -4   11    2     -0.73      0.00
   -3   11    2     -0.92      0.00
   -2   11    2     -0.94      0.00
   -1   11    2     -0.79      0.00
    0   11    2     -0.51      0.00
    1   11    2     -0.16      0.00
    2   11    2      0.19      0.00
    3   11    2      0.49      0.00
    4   11    2      0.71      0.00
    5   11    2      0.84      0.00
    6   11    2      0.89      0.00
    7   11    2      0.86      0.00
   -5   12    2     -0.55      0.00
   -4   12    2     -0.67      0.00
   -3   12    2     -0.68      0.00
   -2   12    2     -0.62      0.00
   -1   12    2     -0.51      0.00
    0   12    2     -0.39      0.00
    1   12    2     -0.29      0.00
    2   12    2     -0.20      0.00
    3   12    2     -0.11      0.00
    4   12    2     -0.03      0.00
    5   12    2      0.06      0.00
  -14    1    3      1.65      0.00
  -13    1    3      1.73      0.00
  -12    1    3      1.61      0.00
  -11    1    3      1.30      0.00
  -10    1    3      0.88      0.00
   -9    1    3      0.47      0.00
   -8    1    3      0.20      0.00
   -7    1    3      0.17      0.00
   -6    1    3      0.43      0.00
   -5    1    3      0.93      0.00
   -4    1    3      1.58      0.00
   -3    1    3      2.21      0.00
   -2    1    3      2.67      0.00
   -1    1    3      2.87      0.00
    0    1    3      2.79      0.00
    1    1    3      2.49      0.00
    2    1    3      2.08      0.00
    3    1    3      1.69      0.00
    4    1    3      1.41      0.00
    5    1    3      1.28      0.00
    6    1    3      1.29      0.00
    7    1    3      1.37      0.00
    8    1    3      1.43      0.00
    9    1    3      1.42      0.00
   10    1    3      1.31      0.00
   11    1    3      1.11      0.00
   12    1    3      0.87      0.00
   13    1    3      0.64      0.00
   14    1    3      0.46      0.00
  -14    2    3      0.08      0.00
  -13    2    3     -0.17      0.00
  -12    2    3     -0.48      0.00
  -11    2    3     -0.78      0.00
  -10    2    3     -0.98      0.00
   -9    2    3     -1.06      0.00
   -8    2    3     -1.03      0.00
   -7    2    3     -0.93      0.00
   -6    2    3     -0.87      0.00
   -5    2    3     -0.92      0.00
   -4    2    3     -1.15      0.00
   -3    2    3     -1.54      0.00
   -2    2    3     -2.01      0.00
   -1    2    3     -2.47      0.00
    0    2    3     -2.80      0.00
    1    2    3     -2.92      0.00
    2    2    3     -2.80      0.00
    3    2    3     -2.48      0.00
    4    2    3     -2.04      0.00
    5    2    3     -1.59      0.00
    6    2    3     -1.19      0.00
    7    2    3     -0.88      0.00
    8    2    3     -0.67      0.00
    9    2    3     -0.51      0.00
   10    2    3     -0.37      0.00
   11    2    3     -0.22      0.00
   12    2    3     -0.04      0.00
   13    2    3      0.13      0.00
   14    2    3      0.27      0.00
  -14    3    3      0.75      0.00
  -13    3    3      0.89      0.00
  -12    3    3      1.00      0.00
  -11    3    3      1.08      0.00
  -10    3    3      1.15      0.00
   -9    3    3      1.24      0.00
   -8    3    3      1.36      0.00
   -7    3    3      1.55      0.00
   -6    3    3      1.82      0.00
   -5    3    3      2.14      0.00
   -4    3    3      2.47      0.00
   -3    3    3      2.73      0.00
   -2    3    3      2.88      0.00
   -1    3    3      2.86      0.00
    0    3    3      2.68      0.00
    1    3    3      2.36      0.00
    2    3    3      1.96      0.00
    3    3    3      1.58      0.00
    4    3    3      1.27      0.00
    5    3    3      1.07      0.00
    6    3    3      0.99      0.00
    7    3    3      1.00      0.00
    8    3    3      1.06      0.00
    9    3    3      1.11      0.00
   10    3    3      1.12      0.00
   11    3    3      1.07      0.00
   12    3    3      0.96      0.00
   13    3    3      0.80      0.00
   14    3    3      0.62      0.00
  -14    4    3      0.28      0.00
  -13    4    3     -0.05      0.00
  -12    4    3     -0.49      0.00
  -11    4    3     -0.96      0.00
  -10    4    3     -1.40      0.00
   -9    4    3     -1.73      0.00
   -8    4    3     -1.94      0.00
   -7    4    3     -2.05      0.00
   -6    4    3     -2.11      0.00
   -5    4    3     -2.20      0.00
   -4    4    3     -2.34      0.00
   -3    4    3     -2.54      0.00
   -2    4    3     -2.76      0.00
   -1    4    3     -2.94      0.00
    0    4    3     -3.03      0.00
    1    4    3     -2.98      0.00
    2    4    3     -2.82      0.00
    3    4    3     -2.59      0.00
    4    4    3     -2.35      0.00
    5    4    3     -2.14      0.00
    6    4    3     -2.00      0.00
    7    4    3     -1.91      0.00
    8    4    3     -1.80      0.00
    9    4    3     -1.64      0.00
   10    4    3     -1.37      0.00
   11    4    3     -1.00      0.00
   12    4    3     -0.57      0.00
   13    4    3     -0.14      0.00
  -13    5    3     -0.02      0.00
  -12    5    3      0.22      0.00
  -11    5    3      0.58      0.00
  -10    5    3      1.02      0.00
   -9    5    3      1.49      0.00
   -8    5    3      1.92      0.00
   -7    5    3      2.26      0.00
   -6    5    3      2.50      0.00
   -5    5    3      2.62      0.00
   -4    5    3      2.65      0.00
   -3    5    3      2.61      0.00
   -2    5    3      2.50      0.00
   -1    5    3      2.35      0.00
    0    5    3      2.14      0.00
    1    5    3      1.88      0.00
    2    5    3      1.57      0.00
    3    5    3      1.24      0.00
    4    5    3      0.93      0.00
    5    5    3      0.68      0.00
    6    5    3      0.52      0.00
    7    5    3      0.47      0.00
    8    5    3      0.53      0.00
    9    5    3      0.65      0.00
   10    5    3      0.79      0.00
   11    5    3      0.90      0.00
   12    5    3      0.94      0.00
   13    5    3      0.87      0.00
  -13    6    3      0.21      0.00
  -12    6    3     -0.03      0.00
  -11    6    3     -0.37      0.00
  -10    6    3     -0.79      0.00
   -9    6    3     -1.27      0.00
   -8    6    3     -1.75      0.00
   -7    6    3     -2.19      0.00
   -6    6    3     -2.54      0.00
   -5    6    3     -2.74      0.00
   -4    6    3     -2.77      0.00
   -3    6    3     -2.64      0.00
   -2    6    3     -2.36      0.00
   -1    6    3     -2.01      0.00
    0    6    3     -1.66      0.00
    1    6    3     -1.38      0.00
    2    6    3     -1.24      0.00
    3    6    3     -1.26      0.00
    4    6    3     -1.43      0.00
    5    6    3     -1.69      0.00
    6    6    3     -1.96      0.00
    7    6    3     -2.14      0.00
    8    6    3     -2.17      0.00
    9    6    3     -2.01      0.00
   10    6    3     -1.67      0.00
   11    6    3     -1.21      0.00
   12    6    3     -0.71      0.00
  -12    7    3     -0.12      0.00
  -11    7    3      0.15      0.00
  -10    7    3      0.50      0.00
   -9    7    3      0.86      0.00
   -8    7    3      1.18      0.00
   -7    7    3      1.40      0.00
   -6    7    3      1.52      0.00
   -5    7    3      1.54      0.00
   -4    7    3      1.49      0.00
   -3    7    3      1.41      0.00
   -2    7    3      1.32      0.00
   -1    7    3      1.22      0.00
    0    7    3      1.12      0.00
    1    7    3      1.00      0.00
    2    7    3      0.84      0.00
    3    7    3      0.64      0.00
    4    7    3      0.44      0.00
    5    7    3      0.26      0.00
    6    7    3      0.14      0.00
    7    7    3      0.10      0.00
    8    7    3      0.16      0.00
    9    7    3      0.29      0.00
   10    7    3      0.43      0.00
   11    7    3      0.56      0.00
   12    7    3      0.62      0.00
  -11    8    3      0.37      0.00
  -10    8    3      0.25      0.00
   -9    8    3     -0.04      0.00
   -8    8    3     -0.49      0.00
   -7    8    3     -1.03      0.00
   -6    8    3     -1.54      0.00
   -5    8    3     -1.91      0.00
   -4    8    3     -2.06      0.00
   -3    8    3     -1.95      0.00
   -2    8    3     -1.62      0.00
   -1    8    3     -1.18      0.00
    0    8    3     -0.73      0.00
    1    8    3     -0.40      0.00
    2    8    3     -0.24      0.00
    3    8    3     -0.27      0.00
    4    8    3     -0.45      0.00
    5    8    3     -0.67      0.00
    6    8    3     -0.87      0.00
    7    8    3     -0.96      0.00
    8    8    3     -0.92      0.00
    9    8    3     -0.77      0.00
   10    8    3     -0.55      0.00
   11    8    3     -0.32      0.00
  -10    9    3      0.27      0.00
   -9    9    3      0.32      0.00
   -8    9    3      0.32      0.00
   -7    9    3      0.28      0.00
   -6    9    3      0.23      0.00
   -5    9    3      0.18      0.00
   -4    9    3      0.15      0.00
   -3    9    3      0.14      0.00
   -2    9    3      0.15      0.00
   -1    9    3      0.16      0.00
    0    9    3      0.15      0.00
    1    9    3      0.13      0.00
    2    9    3      0.08      0.00
    3    9    3      0.03      0.00
    4    9    3     -0.01      0.00
    5    9    3     -0.03      0.00
    6    9    3     -0.01      0.00
    7    9    3      0.03      0.00
    8    9    3      0.08      0.00
    9    9    3      0.13      0.00
   10    9    3      0.16      0.00
   -9   10    3      0.59      0.00
   -8   10    3      0.38      0.00
   -7   10    3      0.04      0.00
   -6   10    3     -0.36      0.00
   -5   10    3     -0.72      0.00
   -4   10    3     -0.96      0.00
   -3   10    3     -1.03      0.00
   -2   10    3     -0.92      0.00
   -1   10    3     -0.69      0.00
    0   10    3     -0.41      0.00
    1   10    3     -0.13      0.00
    2   10    3      0.09      0.00
    3   10    3      0.25      0.00
    4   10    3      0.35      0.00
    5   10    3      0.42      0.00
    6   10    3      0.48      0.00
    7   10    3      0.54      0.00
    8   10    3      0.58      0.00
   -7   11    3     -0.03      0.00
   -6   11    3     -0.17      0.00
   -5   11    3     -0.26      0.00
   -4   11    3     -0.27      0.00
   -3   11    3     -0.24      0.00
   -2   11    3     -0.20      0.00
   -1   11    3     -0.16      0.00
    0   11    3     -0.16      0.00
    1   11    3     -0.17      0.00
    2   11    3     -0.18      0.00
    3   11    3     -0.18      0.00
    4   11    3     -0.14      0.00
    5   11    3     -0.07      0.00
    6   11    3      0.01      0.00
    7   11    3      0.06      0.00
   -5   12    3     -0.14      0.00
   -4   12    3     -0.30      0.00
   -3   12    3     -0.39      0.00
   -2   12    3     -0.39      0.00
   -1   12    3     -0.32      0.00
    0   12    3     -0.17      0.00
    1   12    3      0.03      0.00
    2   12    3      0.25      0.00
    3   12    3      0.47      0.00
    4   12    3      0.66      0.00
  -14    0    4      1.24      0.00
  -13    0    4      1.24      0.00
  -12    0    4      1.06      0.00
  -11    0    4      0.73      0.00
  -10    0    4      0.34      0.00
   -9    0    4     -0.01      0.00
   -8    0    4     -0.25      0.00
   -7    0    4     -0.33      0.00
   -6    0    4     -0.27      0.00
   -5    0    4     -0.14      0.00
   -4    0    4     -0.05      0.00
   -3    0    4     -0.07      0.00
   -2    0    4     -0.25      0.00
   -1    0    4     -0.55      0.00
    0    0    4     -0.88      0.00
    1    0    4     -1.13      0.00
    2    0    4     -1.20      0.00
    3    0    4     -1.04      0.00
    4    0    4     -0.66      0.00
    5    0    4     -0.17      0.00
    6    0    4      0.34      0.00
    7    0    4      0.73      0.00
    8    0    4      0.95      0.00
    9    0    4      0.97      0.00
   10    0    4      0.84      0.00
   11    0    4      0.63      0.00
   12    0    4      0.44      0.00
   13    0    4      0.30      0.00
   14    0    4      0.25      0.00
  -14    1    4     -0.09      0.00
  -13    1    4     -0.18      0.00
  -12    1    4     -0.27      0.00
  -11    1    4     -0.34      0.00
  -10    1    4     -0.34      0.00
   -9    1    4     -0.28      0.00
   -8    1    4     -0.16      0.00
   -7    1    4     -0.03      0.00
   -6    1    4      0.07      0.00
   -5    1    4      0.10      0.00
   -4    1    4      0.04      0.00
   -3    1    4     -0.11      0.00
   -2    1    4     -0.31      0.00
   -1    1    4     -0.53      0.00
    0    1    4     -0.72      0.00
    1    1    4     -0.85      0.00
    2    1    4     -0.91      0.00
    3    1    4     -0.91      0.00
    4    1    4     -0.88      0.00
    5    1    4     -0.83      0.00
    6    1    4     -0.79      0.00
    7    1    4     -0.75      0.00
    8    1    4     -0.69      0.00
    9    1    4     -0.59      0.00
   10    1    4     -0.46      0.00
   11    1    4     -0.30      0.00
   12    1    4     -0.13      0.00
   13    1    4      0.02      0.00
   14    1    4      0.13      0.00
  -14    2    4      0.88      0.00
  -13    2    4      0.91      0.00
  -12    2    4      0.85      0.00
  -11    2    4      0.71      0.00
  -10    2    4      0.55      0.00
   -9    2    4      0.40      0.00
   -8    2    4      0.32      0.00
   -7    2    4      0.32      0.00
   -6    2    4      0.40      0.00
   -5    2    4      0.49      0.00
   -4    2    4      0.56      0.00
   -3    2    4      0.54      0.00
   -2    2    4      0.42      0.00
   -1    2    4      0.20      0.00
    0    2    4     -0.04      0.00
    1    2    4     -0.26      0.00
    2    2    4     -0.37      0.00
    3    2    4     -0.34      0.00
    4    2    4     -0.19      0.00
    5    2    4      0.04      0.00
    6    2    4      0.28      0.00
    7    2    4      0.48      0.00
    8    2    4      0.57      0.00
    9    2    4      0.56      0.00
   10    2    4      0.46      0.00
   11    2    4      0.33      0.00
   12    2    4      0.21      0.00
   13    2    4      0.14      0.00
   14    2    4      0.11      0.00
  -14    3    4     -0.06      0.00
  -13    3    4     -0.28      0.00
  -12    3    4     -0.56      0.00
  -11    3    4     -0.81      0.00
  -10    3    4     -0.99      0.00
   -9    3    4     -1.06      0.00
   -8    3    4     -1.02      0.00
   -7    3    4     -0.92      0.00
   -6    3    4     -0.82      0.00
   -5    3    4     -0.79      0.00
   -4    3    4     -0.86      0.00
   -3    3    4     -1.03      0.00
   -2    3    4     -1.25      0.00
   -1    3    4     -1.48      0.00
    0    3    4     -1.66      0.00
    1    3    4     -1.77      0.00
    2    3    4     -1.83      0.00
    3    3    4     -1.86      0.00
    4    3    4     -1.89      0.00
    5    3    4     -1.95      0.00
    6    3    4     -2.01      0.00
    7    3    4     -2.05      0.00
    8    3    4     -1.99      0.00
    9    3    4     -1.79      0.00
   10    3    4     -1.45      0.00
   11    3    4     -1.00      0.00
   12    3    4     -0.51      0.00
   13    3    4     -0.06      0.00
  -14    4    4      0.16      0.00
  -13    4    4      0.22      0.00
  -12    4    4      0.37      0.00
  -11    4    4      0.59      0.00
  -10    4    4      0.85      0.00
   -9    4    4      1.12      0.00
   -8    4    4      1.35      0.00
   -7    4    4      1.53      0.00
   -6    4    4      1.65      0.00
   -5    4    4      1.71      0.00
   -4    4    4      1.72      0.00
   -3    4    4      1.70      0.00
   -2    4    4      1.64      0.00
   -1    4    4      1.55      0.00
    0    4    4      1.42      0.00
    1    4    4      1.24      0.00
    2    4    4      1.03      0.00
    3    4    4      0.79      0.00
    4    4    4      0.55      0.00
    5    4    4      0.34      0.00
    6    4    4      0.17      0.00
    7    4    4      0.06      0.00
    8    4    4      0.01      0.00
    9    4    4      0.00      0.00
   10    4    4      0.01      0.00
   11    4    4      0.04      0.00
   12    4    4      0.06      0.00
   13    4    4      0.06      0.00
  -13    5    4     -0.03      0.00
  -12    5    4     -0.34      0.00
  -11    5    4     -0.75      0.00
  -10    5    4     -1.20      0.00
   -9    5    4     -1.66      0.00
   -8    5    4     -2.06      0.00
   -7    5    4     -2.39      0.00
   -6    5    4     -2.61      0.00
   -5    5    4     -2.71      0.00
   -4    5    4     -2.68      0.00
   -3    5    4     -2.53      0.00
   -2    5    4     -2.30      0.00
   -1    5    4     -2.01      0.00
    0    5    4     -1.74      0.00
    1    5    4     -1.54      0.00
    2    5    4     -1.47      0.00
    3    5    4     -1.55      0.00
    4    5    4     -1.78      0.00
    5    5    4     -2.10      0.00
    6    5    4     -2.42      0.00
    7    5    4     -2.62      0.00
    8    5    4     -2.64      0.00
    9    5    4     -2.41      0.00
   10    5    4     -1.97      0.00
   11    5    4     -1.37      0.00
   12    5    4     -0.72      0.00
   13    5    4     -0.14      0.00
  -12    6    4     -0.01      0.00
  -11    6    4      0.33      0.00
  -10    6    4      0.76      0.00
   -9    6    4      1.21      0.00
   -8    6    4      1.61      0.00
   -7    6    4      1.92      0.00
   -6    6    4      2.10      0.00
   -5    6    4      2.19      0.00
   -4    6    4      2.21      0.00
   -3    6    4      2.19      0.00
   -2    6    4      2.14      0.00
   -1    6    4      2.05      0.00
    0    6    4      1.91      0.00
    1    6    4      1.69      0.00
    2    6    4      1.40      0.00
    3    6    4      1.05      0.00
    4    6    4      0.69      0.00
    5    6    4      0.37      0.00
    6    6    4      0.14      0.00
    7    6    4      0.03      0.00
    8    6    4      0.03      0.00
    9    6    4      0.11      0.00
   10    6    4      0.23      0.00
   11    6    4      0.32      0.00
   12    6    4      0.35      0.00
  -12    7    4      0.08      0.00
  -11    7    4     -0.18      0.00
  -10    7    4     -0.60      0.00
   -9    7    4     -1.17      0.00
   -8    7    4     -1.81      0.00
   -7    7    4     -2.43      0.00
   -6    7    4     -2.93      0.00
   -5    7    4     -3.19      0.00
   -4    7    4     -3.18      0.00
   -3    7    4     -2.90      0.00
   -2    7    4     -2.42      0.00
   -1    7    4     -1.86      0.00
    0    7    4     -1.35      0.00
    1    7    4     -1.01      0.00
    2    7    4     -0.89      0.00
    3    7    4     -1.00      0.00
    4    7    4     -1.27      0.00
    5    7    4     -1.60      0.00
    6    7    4     -1.87      0.00
    7    7    4     -1.98      0.00
    8    7    4     -1.90      0.00
    9    7    4     -1.63      0.00
   10    7    4     -1.22      0.00
   11    7    4     -0.74      0.00
  -11    8    4      0.16      0.00
  -10    8    4      0.40      0.00
   -9    8    4      0.67      0.00
   -8    8    4      0.95      0.00
   -7    8    4      1.20      0.00
   -6    8    4      1.41      0.00
   -5    8    4      1.57      0.00
   -4    8    4      1.66      0.00
   -3    8    4      1.68      0.00
   -2    8    4      1.63      0.00
   -1    8    4      1.49      0.00
    0    8    4      1.29      0.00
    1    8    4      1.03      0.00
    2    8    4      0.75      0.00
    3    8    4      0.49      0.00
    4    8    4      0.29      0.00
    5    8    4      0.19      0.00
    6    8    4      0.19      0.00
    7    8    4      0.26      0.00
    8    8    4      0.38      0.00
    9    8    4      0.50      0.00
   10    8    4      0.57      0.00
  -10    9    4      0.16      0.00
   -9    9    4     -0.14      0.00
   -8    9    4     -0.57      0.00
   -7    9    4     -1.06      0.00
   -6    9    4     -1.49      0.00
   -5    9    4     -1.76      0.00
   -4    9    4     -1.82      0.00
   -3    9    4     -1.67      0.00
   -2    9    4     -1.37      0.00
   -1    9    4     -1.00      0.00
    0    9    4     -0.67      0.00
    1    9    4     -0.46      0.00
    2    9    4     -0.39      0.00
    3    9    4     -0.43      0.00
    4    9    4     -0.53      0.00
    5    9    4     -0.62      0.00
    6    9    4     -0.62      0.00
    7    9    4     -0.53      0.00
    8    9    4     -0.36      0.00
    9    9    4     -0.16      0.00
   -8   10    4      0.27      0.00
   -7   10    4      0.36      0.00
   -6   10    4      0.50      0.00
   -5   10    4      0.66      0.00
   -4   10    4      0.79      0.00
   -3   10    4      0.86      0.00
   -2   10    4      0.82      0.00
   -1   10    4      0.69      0.00
    0   10    4      0.48      0.00
    1   10    4      0.24      0.00
    2   10    4      0.04      0.00
    3   10    4     -0.08      0.00
    4   10    4     -0.10      0.00
    5   10    4     -0.03      0.00
    6   10    4      0.10      0.00
    7   10    4      0.24      0.00
    8   10    4      0.35      0.00
   -7   11    4     -0.05      0.00
   -6   11    4     -0.23      0.00
   -5   11    4     -0.36      0.00
   -4   11    4     -0.40      0.00
   -3   11    4     -0.35      0.00
   -2   11    4     -0.23      0.00
   -1   11    4     -0.09      0.00
    0   11    4      0.05      0.00
    1   11    4      0.15      0.00
    2   11    4      0.21      0.00
    3   11    4      0.26      0.00
    4   11    4      0.29      0.00
    5   11    4      0.35      0.00
    6   11    4      0.41      0.00
   -4   12    4      0.30      0.00
   -3   12    4      0.37      0.00
   -2   12    4      0.37      0.00
   -1   12    4      0.29      0.00
    0   12    4      0.16      0.00
    1   12    4      0.00      0.00
    2   12    4     -0.13      0.00
    3   12    4     -0.20      0.00
  -14    1    5      0.82      0.00
  -13    1    5      0.80      0.00
  -12    1    5      0.65      0.00
  -11    1    5      0.43      0.00
  -10    1    5      0.20      0.00
   -9    1    5      0.04      0.00
   -8    1    5     -0.03      0.00
   -7    1    5     -0.02      0.00
   -6    1    5      0.02      0.00
   -5    1    5     -0.01      0.00
   -4    1    5     -0.19      0.00
   -3    1    5     -0.53      0.00
   -2    1    5     -1.02      0.00
   -1    1    5     -1.56      0.00
    0    1    5     -2.02      0.00
    1    1    5     -2.29      0.00
    2    1    5     -2.29      0.00
    3    1    5     -2.01      0.00
    4    1    5     -1.54      0.00
    5    1    5     -0.98      0.00
    6    1    5     -0.48      0.00
    7    1    5     -0.11      0.00
    8    1    5      0.07      0.00
    9    1    5      0.09      0.00
   10    1    5      0.01      0.00
   11    1    5     -0.10      0.00
   12    1    5     -0.16      0.00
   13    1    5     -0.15      0.00
  -14    2    5     -0.22      0.00
  -13    2    5     -0.32      0.00
  -12    2    5     -0.41      0.00
  -11    2    5     -0.44      0.00
  -10    2    5     -0.40      0.00
   -9    2    5     -0.29      0.00
   -8    2    5     -0.13      0.00
   -7    2    5      0.04      0.00
   -6    2    5      0.17      0.00
   -5    2    5      0.25      0.00
   -4    2    5      0.25      0.00
   -3    2    5      0.19      0.00
   -2    2    5      0.10      0.00
   -1    2    5     -0.01      0.00
    0    2    5     -0.13      0.00
    1    2    5     -0.26      0.00
    2    2    5     -0.43      0.00
    3    2    5     -0.65      0.00
    4    2    5     -0.92      0.00
    5    2    5     -1.21      0.00
    6    2    5     -1.48      0.00
    7    2    5     -1.67      0.00
    8    2    5     -1.72      0.00
    9    2    5     -1.61      0.00
   10    2    5     -1.35      0.00
   11    2    5     -0.99      0.00
   12    2    5     -0.60      0.00
   13    2    5     -0.26      0.00
  -13    3    5      0.33      0.00
  -12    3    5      0.31      0.00
  -11    3    5      0.30      0.00
  -10    3    5      0.30      0.00
   -9    3    5      0.32      0.00
   -8    3    5      0.34      0.00
   -7    3    5      0.36      0.00
   -6    3    5      0.34      0.00
   -5    3    5      0.28      0.00
   -4    3    5      0.17      0.00
   -3    3    5      0.01      0.00
   -2    3    5     -0.17      0.00
   -1    3    5     -0.35      0.00
    0    3    5     -0.50      0.00
    1    3    5     -0.58      0.00
    2    3    5     -0.59      0.00
    3    3    5     -0.53      0.00
    4    3    5     -0.44      0.00
    5    3    5     -0.36      0.00
    6    3    5     -0.31      0.00
    7    3    5     -0.31      0.00
    8    3    5     -0.35      0.00
    9    3    5     -0.42      0.00
   10    3    5     -0.48      0.00
   11    3    5     -0.50      0.00
   12    3    5     -0.48      0.00
   13    3    5     -0.40      0.00
  -13    4    5     -0.24      0.00
  -12    4    5     -0.44      0.00
  -11    4    5     -0.66      0.00
  -10    4    5     -0.88      0.00
   -9    4    5     -1.06      0.00
   -8    4    5     -1.20      0.00
   -7    4    5     -1.29      0.00
   -6    4    5     -1.32      0.00
   -5    4    5     -1.31      0.00
   -4    4    5     -1.23      0.00
   -3    4    5     -1.10      0.00
   -2    4    5     -0.94      0.00
   -1    4    5     -0.76      0.00
    0    4    5     -0.62      0.00
    1    4    5     -0.58      0.00
    2    4    5     -0.67      0.00
    3    4    5     -0.92      0.00
    4    4    5     -1.29      0.00
    5    4    5     -1.73      0.00
    6    4    5     -2.13      0.00
    7    4    5     -2.39      0.00
    8    4    5     -2.43      0.00
    9    4    5     -2.22      0.00
   10    4    5     -1.79      0.00
   11    4    5     -1.22      0.00
   12    4    5     -0.63      0.00
  -13    5    5     -0.14      0.00
  -12    5    5     -0.02      0.00
  -11    5    5      0.19      0.00
  -10    5    5      0.47      0.00
   -9    5    5      0.75      0.00
   -8    5    5      0.98      0.00
   -7    5    5      1.13      0.00
   -6    5    5      1.20      0.00
   -5    5    5      1.22      0.00
   -4    5    5      1.21      0.00
   -3    5    5      1.20      0.00
   -2    5    5      1.20      0.00
   -1    5    5      1.19      0.00
    0    5    5      1.14      0.00
    1    5    5      1.03      0.00
    2    5    5      0.85      0.00
    3    5    5      0.60      0.00
    4    5    5      0.31      0.00
    5    5    5      0.03      0.00
    6    5    5     -0.19      0.00
    7    5    5     -0.35      0.00
    8    5    5     -0.41      0.00
    9    5    5     -0.41      0.00
   10    5    5     -0.36      0.00
   11    5    5     -0.29      0.00
   12    5    5     -0.23      0.00
  -12    6    5     -0.19      0.00
  -11    6    5     -0.54      0.00
  -10    6    5     -1.02      0.00
   -9    6    5     -1.57      0.00
   -8    6    5     -2.13      0.00
   -7    6    5     -2.61      0.00
   -6    6    5     -2.92      0.00
   -5    6    5     -3.02      0.00
   -4    6    5     -2.87      0.00
   -3    6    5     -2.52      0.00
   -2    6    5     -2.04      0.00
   -1    6    5     -1.54      0.00
    0    6    5     -1.12      0.00
    1    6    5     -0.87      0.00
    2    6    5     -0.85      0.00
    3    6    5     -1.03      0.00
    4    6    5     -1.36      0.00
    5    6    5     -1.71      0.00
    6    6    5     -1.99      0.00
    7    6    5     -2.10      0.00
    8    6    5     -1.99      0.00
    9    6    5     -1.66      0.00
   10    6    5     -1.18      0.00
   11    6    5     -0.63      0.00
  -11    7    5      0.18      0.00
  -10    7    5      0.50      0.00
   -9    7    5      0.86      0.00
   -8    7    5      1.23      0.00
   -7    7    5      1.56      0.00
   -6    7    5      1.84      0.00
   -5    7    5      2.05      0.00
   -4    7    5      2.19      0.00
   -3    7    5      2.24      0.00
   -2    7    5      2.19      0.00
   -1    7    5      2.04      0.00
    0    7    5      1.77      0.00
    1    7    5      1.40      0.00
    2    7    5      0.99      0.00
    3    7    5      0.58      0.00
    4    7    5      0.25      0.00
    5    7    5      0.03      0.00
    6    7    5     -0.05      0.00
    7    7    5     -0.01      0.00
    8    7    5      0.11      0.00
    9    7    5      0.26      0.00
   10    7    5      0.37      0.00
   11    7    5      0.41      0.00
  -10    8    5     -0.61      0.00
   -9    8    5     -1.14      0.00
   -8    8    5     -1.71      0.00
   -7    8    5     -2.23      0.00
   -6    8    5     -2.58      0.00
   -5    8    5     -2.69      0.00
   -4    8    5     -2.54      0.00
   -3    8    5     -2.19      0.00
   -2    8    5     -1.72      0.00
   -1    8    5     -1.26      0.00
    0    8    5     -0.92      0.00
    1    8    5     -0.77      0.00
    2    8    5     -0.80      0.00
    3    8    5     -0.98      0.00
    4    8    5     -1.19      0.00
    5    8    5     -1.36      0.00
    6    8    5     -1.40      0.00
    7    8    5     -1.27      0.00
    8    8    5     -1.01      0.00
    9    8    5     -0.65      0.00
   10    8    5     -0.27      0.00
   -9    9    5      0.50      0.00
   -8    9    5      0.77      0.00
   -7    9    5      1.10      0.00
   -6    9    5      1.46      0.00
   -5    9    5      1.80      0.00
   -4    9    5      2.04      0.00
   -3    9    5      2.13      0.00
   -2    9    5      2.03      0.00
   -1    9    5      1.75      0.00
    0    9    5      1.34      0.00
    1    9    5      0.88      0.00
    2    9    5      0.45      0.00
    3    9    5      0.14      0.00
    4    9    5     -0.01      0.00
    5    9    5     -0.01      0.00
    6    9    5      0.12      0.00
    7    9    5      0.31      0.00
    8    9    5      0.48      0.00
    9    9    5      0.60      0.00
   -8   10    5     -0.65      0.00
   -7   10    5     -0.91      0.00
   -6   10    5     -1.07      0.00
   -5   10    5     -1.09      0.00
   -4   10    5     -0.97      0.00
   -3   10    5     -0.74      0.00
   -2   10    5     -0.46      0.00
   -1   10    5     -0.24      0.00
    0   10    5     -0.11      0.00
    1   10    5     -0.11      0.00
    2   10    5     -0.21      0.00
    3   10    5     -0.37      0.00
    4   10    5     -0.51      0.00
    5   10    5     -0.58      0.00
    6   10    5     -0.54      0.00
    7   10    5     -0.41      0.00
   -6   11    5      0.58      0.00
   -5   11    5      0.84      0.00
   -4   11    5      1.05      0.00
   -3   11    5      1.12      0.00
   -2   11    5      1.04      0.00
   -1   11    5      0.81      0.00
    0   11    5      0.50      0.00
    1   11    5      0.18      0.00
    2   11    5     -0.06      0.00
    3   11    5     -0.18      0.00
    4   11    5     -0.17      0.00
    5   11    5     -0.06      0.00
   -1   12    5      0.36      0.00
    0   12    5      0.44      0.00
    1   12    5      0.46      0.00
  -13    0    6      0.63      0.00
  -12    0    6      0.49      0.00
  -11    0    6      0.32      0.00
  -10    0    6      0.19      0.00
   -9    0    6      0.16      0.00
   -8    0    6      0.25      0.00
   -7    0    6      0.40      0.00
   -6    0    6      0.52      0.00
   -5    0    6      0.50      0.00
   -4    0    6      0.26      0.00
   -3    0    6     -0.22      0.00
   -2    0    6     -0.88      0.00
   -1    0    6     -1.60      0.00
    0    0    6     -2.21      0.00
    1    0    6     -2.59      0.00
    2    0    6     -2.67      0.00
    3    0    6     -2.45      0.00
    4    0    6     -2.01      0.00
    5    0    6     -1.50      0.00
    6    0    6     -1.03      0.00
    7    0    6     -0.69      0.00
    8    0    6     -0.51      0.00
    9    0    6     -0.47      0.00
   10    0    6     -0.49      0.00
   11    0    6     -0.51      0.00
   12    0    6     -0.48      0.00
   13    0    6     -0.41      0.00
  -13    1    6     -0.29      0.00
  -12    1    6     -0.30      0.00
  -11    1    6     -0.27      0.00
  -10    1    6     -0.20      0.00
   -9    1    6     -0.11      0.00
   -8    1    6     -0.02      0.00
   -7    1    6      0.05      0.00
   -6    1    6      0.09      0.00
   -5    1    6      0.11      0.00
   -4    1    6      0.11      0.00
   -3    1    6      0.11      0.00
   -2    1    6      0.13      0.00
   -1    1    6      0.16      0.00
    0    1    6      0.19      0.00
    1    1    6      0.19      0.00
    2    1    6      0.14      0.00
    3    1    6      0.03      0.00
    4    1    6     -0.15      0.00
    5    1    6     -0.37      0.00
    6    1    6     -0.58      0.00
    7    1    6     -0.74      0.00
    8    1    6     -0.82      0.00
    9    1    6     -0.81      0.00
   10    1    6     -0.71      0.00
   11    1    6     -0.56      0.00
   12    1    6     -0.39      0.00
   13    1    6     -0.24      0.00
  -13    2    6      0.41      0.00
  -12    2    6      0.30      0.00
  -11    2    6      0.18      0.00
  -10    2    6      0.08      0.00
   -9    2    6      0.05      0.00
   -8    2    6      0.08      0.00
   -7    2    6      0.14      0.00
   -6    2    6      0.17      0.00
   -5    2    6      0.11      0.00
   -4    2    6     -0.08      0.00
   -3    2    6     -0.41      0.00
   -2    2    6     -0.83      0.00
   -1    2    6     -1.26      0.00
    0    2    6     -1.60      0.00
    1    2    6     -1.78      0.00
    2    2    6     -1.77      0.00
    3    2    6     -1.58      0.00
    4    2    6     -1.28      0.00
    5    2    6     -0.96      0.00
    6    2    6     -0.69      0.00
    7    2    6     -0.54      0.00
    8    2    6     -0.49      0.00
    9    2    6     -0.51      0.00
   10    2    6     -0.57      0.00
   11    2    6     -0.59      0.00
   12    2    6     -0.56      0.00
  -13    3    6     -0.49      0.00
  -12    3    6     -0.56      0.00
  -11    3    6     -0.58      0.00
  -10    3    6     -0.55      0.00
   -9    3    6     -0.50      0.00
   -8    3    6     -0.45      0.00
   -7    3    6     -0.42      0.00
   -6    3    6     -0.41      0.00
   -5    3    6     -0.40      0.00
   -4    3    6     -0.36      0.00
   -3    3    6     -0.28      0.00
   -2    3    6     -0.13      0.00
   -1    3    6      0.04      0.00
    0    3    6      0.18      0.00
    1    3    6      0.25      0.00
    2    3    6      0.17      0.00
    3    3    6     -0.07      0.00
    4    3    6     -0.45      0.00
    5    3    6     -0.90      0.00
    6    3    6     -1.32      0.00
    7    3    6     -1.62      0.00
    8    3    6     -1.74      0.00
    9    3    6     -1.64      0.00
   10    3    6     -1.37      0.00
   11    3    6     -0.99      0.00
   12    3    6     -0.59      0.00
  -13    4    6     -0.04      0.00
  -12    4    6     -0.06      0.00
  -11    4    6     -0.05      0.00
  -10    4    6      0.00      0.00
   -9    4    6      0.05      0.00
   -8    4    6      0.08      0.00
   -7    4    6      0.09      0.00
   -6    4    6      0.07      0.00
   -5    4    6      0.02      0.00
   -4    4    6     -0.03      0.00
   -3    4    6     -0.09      0.00
   -2    4    6     -0.13      0.00
   -1    4    6     -0.16      0.00
    0    4    6     -0.17      0.00
    1    4    6     -0.17      0.00
    2    4    6     -0.17      0.00
    3    4    6     -0.18      0.00
    4    4    6     -0.21      0.00
    5    4    6     -0.25      0.00
    6    4    6     -0.31      0.00
    7    4    6     -0.38      0.00
    8    4    6     -0.45      0.00
    9    4    6     -0.50      0.00
   10    4    6     -0.51      0.00
   11    4    6     -0.49      0.00
   12    4    6     -0.43      0.00
  -12    5    6     -0.30      0.00
  -11    5    6     -0.50      0.00
  -10    5    6     -0.76      0.00
   -9    5    6     -1.05      0.00
   -8    5    6     -1.34      0.00
   -7    5    6     -1.59      0.00
   -6    5    6     -1.73      0.00
   -5    5    6     -1.74      0.00
   -4    5    6     -1.59      0.00
   -3    5    6     -1.32      0.00
   -2    5    6     -0.96      0.00
   -1    5    6     -0.60      0.00
    0    5    6     -0.31      0.00
    1    5    6     -0.17      0.00
    2    5    6     -0.22      0.00
    3    5    6     -0.44      0.00
    4    5    6     -0.77      0.00
    5    5    6     -1.12      0.00
    6    5    6     -1.40      0.00
    7    5    6     -1.52      0.00
    8    5    6     -1.44      0.00
    9    5    6     -1.18      0.00
   10    5    6     -0.79      0.00
   11    5    6     -0.36      0.00
  -12    6    6     -0.20      0.00
  -11    6    6     -0.06      0.00
  -10    6    6      0.14      0.00
   -9    6    6      0.37      0.00
   -8    6    6      0.59      0.00
   -7    6    6      0.79      0.00
   -6    6    6      0.96      0.00
   -5    6    6      1.12      0.00
   -4    6    6      1.24      0.00
   -3    6    6      1.33      0.00
   -2    6    6      1.36      0.00
   -1    6    6      1.30      0.00
    0    6    6      1.15      0.00
    1    6    6      0.89      0.00
    2    6    6      0.58      0.00
    3    6    6      0.24      0.00
    4    6    6     -0.06      0.00
    5    6    6     -0.28      0.00
    6    6    6     -0.39      0.00
    7    6    6     -0.39      0.00
    8    6    6     -0.31      0.00
    9    6    6     -0.19      0.00
   10    6    6     -0.08      0.00
   11    6    6      0.00      0.00
  -11    7    6     -0.36      0.00
  -10    7    6     -0.79      0.00
   -9    7    6     -1.31      0.00
   -8    7    6     -1.82      0.00
   -7    7    6     -2.22      0.00
   -6    7    6     -2.42      0.00
   -5    7    6     -2.38      0.00
   -4    7    6     -2.12      0.00
   -3    7    6     -1.71      0.00
   -2    7    6     -1.24      0.00
   -1    7    6     -0.83      0.00
    0    7    6     -0.57      0.00
    1    7    6     -0.50      0.00
    2    7    6     -0.59      0.00
    3    7    6     -0.79      0.00
    4    7    6     -1.02      0.00
    5    7    6     -1.17      0.00
    6    7    6     -1.19      0.00
    7    7    6     -1.05      0.00
    8    7    6     -0.78      0.00
    9    7    6     -0.41      0.00
   10    7    6     -0.04      0.00
  -10    8    6      0.31      0.00
   -9    8    6      0.55      0.00
   -8    8    6      0.87      0.00
   -7    8    6      1.25      0.00
   -6    8    6      1.64      0.00
   -5    8    6      2.00      0.00
   -4    8    6      2.26      0.00
   -3    8    6      2.37      0.00
   -2    8    6      2.28      0.00
   -1    8    6      1.99      0.00
    0    8    6      1.55      0.00
    1    8    6      1.01      0.00
    2    8    6      0.48      0.00
    3    8    6      0.03      0.00
    4    8    6     -0.26      0.00
    5    8    6     -0.38      0.00
    6    8    6     -0.34      0.00
    7    8    6     -0.18      0.00
    8    8    6      0.01      0.00
    9    8    6      0.18      0.00
   -9    9    6     -1.02      0.00
   -8    9    6     -1.40      0.00
   -7    9    6     -1.68      0.00
   -6    9    6     -1.78      0.00
   -5    9    6     -1.66      0.00
   -4    9    6     -1.38      0.00
   -3    9    6     -0.99      0.00
   -2    9    6     -0.61      0.00
   -1    9    6     -0.33      0.00
    0    9    6     -0.21      0.00
    1    9    6     -0.27      0.00
    2    9    6     -0.44      0.00
    3    9    6     -0.67      0.00
    4    9    6     -0.86      0.00
    5    9    6     -0.95      0.00
    6    9    6     -0.90      0.00
    7    9    6     -0.72      0.00
    8    9    6     -0.47      0.00
   -7   10    6      0.81      0.00
   -6   10    6      1.17      0.00
   -5   10    6      1.51      0.00
   -4   10    6      1.75      0.00
   -3   10    6      1.81      0.00
   -2   10    6      1.67      0.00
   -1   10    6      1.35      0.00
    0   10    6      0.93      0.00
    1   10    6      0.49      0.00
    2   10    6      0.13      0.00
    3   10    6     -0.08      0.00
    4   10    6     -0.15      0.00
    5   10    6     -0.08      0.00
    6   10    6      0.04      0.00
   -4   11    6     -0.42      0.00
   -3   11    6     -0.17      0.00
   -2   11    6      0.06      0.00
   -1   11    6      0.23      0.00
    0   11    6      0.30      0.00
    1   11    6      0.25      0.00
    2   11    6      0.12      0.00
    3   11    6     -0.06      0.00
  -13    1    7      0.27      0.00
  -12    1    7      0.12      0.00
  -11    1    7      0.00      0.00
  -10    1    7     -0.03      0.00
   -9    1    7      0.06      0.00
   -8    1    7      0.26      0.00
   -7    1    7      0.49      0.00
   -6    1    7      0.67      0.00
   -5    1    7      0.68      0.00
   -4    1    7      0.47      0.00
   -3    1    7      0.03      0.00
   -2    1    7     -0.56      0.00
   -1    1    7     -1.18      0.00
    0    1    7     -1.70      0.00
    1    1    7     -2.02      0.00
    2    1    7     -2.08      0.00
    3    1    7     -1.90      0.00
    4    1    7     -1.57      0.00
    5    1    7     -1.19      0.00
    6    1    7     -0.84      0.00
    7    1    7     -0.61      0.00
    8    1    7     -0.50      0.00
    9    1    7     -0.47      0.00
   10    1    7     -0.49      0.00
   11    1    7     -0.51      0.00
   12    1    7     -0.49      0.00
  -13    2    7     -0.70      0.00
  -12    2    7     -0.73      0.00
  -11    2    7     -0.68      0.00
  -10    2    7     -0.58      0.00
   -9    2    7     -0.48      0.00
   -8    2    7     -0.42      0.00
   -7    2    7     -0.42      0.00
   -6    2    7     -0.46      0.00
   -5    2    7     -0.52      0.00
   -4    2    7     -0.53      0.00
   -3    2    7     -0.47      0.00
   -2    2    7     -0.31      0.00
   -1    2    7     -0.07      0.00
    0    2    7      0.20      0.00
    1    2    7      0.42      0.00
    2    2    7      0.53      0.00
    3    2    7      0.50      0.00
    4    2    7      0.34      0.00
    5    2    7      0.08      0.00
    6    2    7     -0.21      0.00
    7    2    7     -0.46      0.00
    8    2    7     -0.62      0.00
    9    2    7     -0.66      0.00
   10    2    7     -0.60      0.00
   11    2    7     -0.47      0.00
   12    2    7     -0.32      0.00
  -12    3    7      0.05      0.00
  -11    3    7     -0.03      0.00
  -10    3    7     -0.08      0.00
   -9    3    7     -0.08      0.00
   -8    3    7     -0.05      0.00
   -7    3    7     -0.01      0.00
   -6    3    7      0.02      0.00
   -5    3    7     -0.01      0.00
   -4    3    7     -0.12      0.00
   -3    3    7     -0.30      0.00
   -2    3    7     -0.53      0.00
   -1    3    7     -0.75      0.00
    0    3    7     -0.91      0.00
    1    3    7     -0.97      0.00
    2    3    7     -0.92      0.00
    3    3    7     -0.78      0.00
    4    3    7     -0.58      0.00
    5    3    7     -0.39      0.00
    6    3    7     -0.23      0.00
    7    3    7     -0.15      0.00
    8    3    7     -0.15      0.00
    9    3    7     -0.19      0.00
   10    3    7     -0.25      0.00
   11    3    7     -0.30      0.00
  -12    4    7     -0.61      0.00
  -11    4    7     -0.63      0.00
  -10    4    7     -0.64      0.00
   -9    4    7     -0.68      0.00
   -8    4    7     -0.75      0.00
   -7    4    7     -0.85      0.00
   -6    4    7     -0.95      0.00
   -5    4    7     -1.00      0.00
   -4    4    7     -0.96      0.00
   -3    4    7     -0.80      0.00
   -2    4    7     -0.53      0.00
   -1    4    7     -0.21      0.00
    0    4    7      0.09      0.00
    1    4    7      0.30      0.00
    2    4    7      0.36      0.00
    3    4    7      0.28      0.00
    4    4    7      0.06      0.00
    5    4    7     -0.21      0.00
    6    4    7     -0.46      0.00
    7    4    7     -0.61      0.00
    8    4    7     -0.64      0.00
    9    4    7     -0.55      0.00
   10    4    7     -0.37      0.00
   11    4    7     -0.15      0.00
  -11    5    7     -0.12      0.00
  -10    5    7     -0.10      0.00
   -9    5    7     -0.08      0.00
   -8    5    7     -0.05      0.00
   -7    5    7      0.00      0.00
   -6    5    7      0.06      0.00
   -5    5    7      0.14      0.00
   -4    5    7      0.22      0.00
   -3    5    7      0.30      0.00
   -2    5    7      0.34      0.00
   -1    5    7      0.34      0.00
    0    5    7      0.28      0.00
    1    5    7      0.18      0.00
    2    5    7      0.06      0.00
    3    5    7     -0.07      0.00
    4    5    7     -0.16      0.00
    5    5    7     -0.22      0.00
    6    5    7     -0.23      0.00
    7    5    7     -0.21      0.00
    8    5    7     -0.18      0.00
    9    5    7     -0.13      0.00
   10    5    7     -0.10      0.00
   11    5    7     -0.07      0.00
  -11    6    7     -0.21      0.00
  -10    6    7     -0.46      0.00
   -9    6    7     -0.77      0.00
   -8    6    7     -1.07      0.00
   -7    6    7     -1.31      0.00
   -6    6    7     -1.41      0.00
   -5    6    7     -1.36      0.00
   -4    6    7     -1.17      0.00
   -3    6    7     -0.87      0.00
   -2    6    7     -0.53      0.00
   -1    6    7     -0.25      0.00
    0    6    7     -0.07      0.00
    1    6    7     -0.02      0.00
    2    6    7     -0.10      0.00
    3    6    7     -0.26      0.00
    4    6    7     -0.42      0.00
    5    6    7     -0.54      0.00
    6    6    7     -0.55      0.00
    7    6    7     -0.45      0.00
    8    6    7     -0.25      0.00
    9    6    7     -0.01      0.00
   10    6    7      0.23      0.00
  -10    7    7     -0.02      0.00
   -9    7    7      0.11      0.00
   -8    7    7      0.30      0.00
   -7    7    7      0.54      0.00
   -6    7    7      0.82      0.00
   -5    7    7      1.10      0.00
   -4    7    7      1.35      0.00
   -3    7    7      1.50      0.00
   -2    7    7      1.51      0.00
   -1    7    7      1.36      0.00
    0    7    7      1.06      0.00
    1    7    7      0.66      0.00
    2    7    7      0.22      0.00
    3    7    7     -0.19      0.00
    4    7    7     -0.49      0.00
    5    7    7     -0.65      0.00
    6    7    7     -0.68      0.00
    7    7    7     -0.59      0.00
    8    7    7     -0.45      0.00
    9    7    7     -0.28      0.00
   -9    8    7     -0.89      0.00
   -8    8    7     -1.25      0.00
   -7    8    7     -1.48      0.00
   -6    8    7     -1.51      0.00
   -5    8    7     -1.34      0.00
   -4    8    7     -1.02      0.00
   -3    8    7     -0.63      0.00
   -2    8    7     -0.28      0.00
   -1    8    7     -0.05      0.00
    0    8    7      0.03      0.00
    1    8    7     -0.04      0.00
    2    8    7     -0.20      0.00
    3    8    7     -0.38      0.00
    4    8    7     -0.51      0.00
    5    8    7     -0.54      0.00
    6    8    7     -0.46      0.00
    7    8    7     -0.28      0.00
    8    8    7     -0.06      0.00
   -7    9    7      0.75      0.00
   -6    9    7      1.09      0.00
   -5    9    7      1.40      0.00
   -4    9    7      1.62      0.00
   -3    9    7      1.69      0.00
   -2    9    7      1.57      0.00
   -1    9    7      1.28      0.00
    0    9    7      0.88      0.00
    1    9    7      0.43      0.00
    2    9    7      0.03      0.00
    3    9    7     -0.27      0.00
    4    9    7     -0.44      0.00
    5    9    7     -0.49      0.00
    6    9    7     -0.45      0.00
   -6   10    7     -1.06      0.00
   -5   10    7     -0.87      0.00
   -4   10    7     -0.59      0.00
   -3   10    7     -0.27      0.00
   -2   10    7      0.01      0.00
   -1   10    7      0.19      0.00
    0   10    7      0.25      0.00
    1   10    7      0.19      0.00
    2   10    7      0.05      0.00
    3   10    7     -0.11      0.00
    4   10    7     -0.25      0.00
   -1   11    7      0.37      0.00
    0   11    7      0.11      0.00
  -12    0    8     -0.46      0.00
  -11    0    8     -0.56      0.00
  -10    0    8     -0.51      0.00
   -9    0    8     -0.29      0.00
   -8    0    8      0.04      0.00
   -7    0    8      0.40      0.00
   -6    0    8      0.67      0.00
   -5    0    8      0.73      0.00
   -4    0    8      0.53      0.00
   -3    0    8      0.11      0.00
   -2    0    8     -0.47      0.00
   -1    0    8     -1.06      0.00
    0    0    8     -1.53      0.00
    1    0    8     -1.77      0.00
    2    0    8     -1.75      0.00
    3    0    8     -1.50      0.00
    4    0    8     -1.11      0.00
    5    0    8     -0.69      0.00
    6    0    8     -0.32      0.00
    7    0    8     -0.07      0.00
    8    0    8      0.04      0.00
    9    0    8      0.04      0.00
   10    0    8     -0.02      0.00
   11    0    8     -0.10      0.00
  -12    1    8     -0.47      0.00
  -11    1    8     -0.45      0.00
  -10    1    8     -0.40      0.00
   -9    1    8     -0.36      0.00
   -8    1    8     -0.35      0.00
   -7    1    8     -0.39      0.00
   -6    1    8     -0.45      0.00
   -5    1    8     -0.51      0.00
   -4    1    8     -0.53      0.00
   -3    1    8     -0.48      0.00
   -2    1    8     -0.35      0.00
   -1    1    8     -0.16      0.00
    0    1    8      0.07      0.00
    1    1    8      0.30      0.00
    2    1    8      0.47      0.00
    3    1    8      0.56      0.00
    4    1    8      0.57      0.00
    5    1    8      0.50      0.00
    6    1    8      0.39      0.00
    7    1    8      0.27      0.00
    8    1    8      0.15      0.00
    9    1    8      0.07      0.00
   10    1    8      0.01      0.00
   11    1    8     -0.02      0.00
  -12    2    8     -0.17      0.00
  -11    2    8     -0.26      0.00
  -10    2    8     -0.25      0.00
   -9    2    8     -0.14      0.00
   -8    2    8      0.05      0.00
   -7    2    8      0.26      0.00
   -6    2    8      0.41      0.00
   -5    2    8      0.42      0.00
   -4    2    8      0.26      0.00
   -3    2    8     -0.05      0.00
   -2    2    8     -0.47      0.00
   -1    2    8     -0.89      0.00
    0    2    8     -1.21      0.00
    1    2    8     -1.35      0.00
    2    2    8     -1.30      0.00
    3    2    8     -1.06      0.00
    4    2    8     -0.72      0.00
    5    2    8     -0.35      0.00
    6    2    8     -0.04      0.00
    7    2    8      0.16      0.00
    8    2    8      0.24      0.00
    9    2    8      0.21      0.00
   10    2    8      0.12      0.00
   11    2    8      0.00      0.00
  -12    3    8     -0.86      0.00
  -11    3    8     -0.81      0.00
  -10    3    8     -0.74      0.00
   -9    3    8     -0.69      0.00
   -8    3    8     -0.71      0.00
   -7    3    8     -0.80      0.00
   -6    3    8     -0.93      0.00
   -5    3    8     -1.04      0.00
   -4    3    8     -1.05      0.00
   -3    3    8     -0.94      0.00
   -2    3    8     -0.67      0.00
   -1    3    8     -0.29      0.00
    0    3    8      0.13      0.00
    1    3    8      0.52      0.00
    2    3    8      0.80      0.00
    3    3    8      0.92      0.00
    4    3    8      0.91      0.00
    5    3    8      0.78      0.00
    6    3    8      0.59      0.00
    7    3    8      0.41      0.00
    8    3    8      0.26      0.00
    9    3    8      0.17      0.00
   10    3    8      0.13      0.00
  -11    4    8      0.13      0.00
  -10    4    8      0.09      0.00
   -9    4    8      0.06      0.00
   -8    4    8      0.04      0.00
   -7    4    8      0.05      0.00
   -6    4    8      0.07      0.00
   -5    4    8      0.09      0.00
   -4    4    8      0.07      0.00
   -3    4    8      0.00      0.00
   -2    4    8     -0.10      0.00
   -1    4    8     -0.24      0.00
    0    4    8     -0.36      0.00
    1    4    8     -0.44      0.00
    2    4    8     -0.44      0.00
    3    4    8     -0.37      0.00
    4    4    8     -0.23      0.00
    5    4    8     -0.06      0.00
    6    4    8      0.10      0.00
    7    4    8      0.21      0.00
    8    4    8      0.26      0.00
    9    4    8      0.24      0.00
   10    4    8      0.17      0.00
  -11    5    8     -0.37      0.00
  -10    5    8     -0.42      0.00
   -9    5    8     -0.51      0.00
   -8    5    8     -0.64      0.00
   -7    5    8     -0.77      0.00
   -6    5    8     -0.87      0.00
   -5    5    8     -0.89      0.00
   -4    5    8     -0.81      0.00
   -3    5    8     -0.63      0.00
   -2    5    8     -0.38      0.00
   -1    5    8     -0.11      0.00
    0    5    8      0.12      0.00
    1    5    8      0.28      0.00
    2    5    8      0.34      0.00
    3    5    8      0.33      0.00
    4    5    8      0.26      0.00
    5    5    8      0.18      0.00
    6    5    8      0.13      0.00
    7    5    8      0.13      0.00
    8    5    8      0.18      0.00
    9    5    8      0.26      0.00
   10    5    8      0.33      0.00
  -10    6    8      0.00      0.00
   -9    6    8     -0.03      0.00
   -8    6    8     -0.03      0.00
   -7    6    8      0.03      0.00
   -6    6    8      0.15      0.00
   -5    6    8      0.31      0.00
   -4    6    8      0.48      0.00
   -3    6    8      0.62      0.00
   -2    6    8      0.67      0.00
   -1    6    8      0.61      0.00
    0    6    8      0.46      0.00
    1    6    8      0.23      0.00
    2    6    8     -0.01      0.00
    3    6    8     -0.21      0.00
    4    6    8     -0.35      0.00
    5    6    8     -0.42      0.00
    6    6    8     -0.41      0.00
    7    6    8     -0.35      0.00
    8    6    8     -0.28      0.00
    9    6    8     -0.21      0.00
   -9    7    8     -0.38      0.00
   -8    7    8     -0.61      0.00
   -7    7    8     -0.76      0.00
   -6    7    8     -0.79      0.00
   -5    7    8     -0.67      0.00
   -4    7    8     -0.46      0.00
   -3    7    8     -0.21      0.00
   -2    7    8      0.02      0.00
   -1    7    8      0.16      0.00
    0    7    8      0.21      0.00
    1    7    8      0.16      0.00
    2    7    8      0.06      0.00
    3    7    8     -0.04      0.00
    4    7    8     -0.09      0.00
    5    7    8     -0.08      0.00
    6    7    8      0.00      0.00
    7    7    8      0.11      0.00
    8    7    8      0.24      0.00
   -8    8    8     -0.03      0.00
   -7    8    8      0.15      0.00
   -6    8    8      0.39      0.00
   -5    8    8      0.63      0.00
   -4    8    8      0.84      0.00
   -3    8    8      0.95      0.00
   -2    8    8      0.94      0.00
   -1    8    8      0.79      0.00
    0    8    8      0.54      0.00
    1    8    8      0.22      0.00
    2    8    8     -0.09      0.00
    3    8    8     -0.36      0.00
    4    8    8     -0.55      0.00
    5    8    8     -0.65      0.00
    6    8    8     -0.69      0.00
    7    8    8     -0.66      0.00
   -6    9    8     -0.72      0.00
   -5    9    8     -0.55      0.00
   -4    9    8     -0.29      0.00
   -3    9    8     -0.02      0.00
   -2    9    8      0.20      0.00
   -1    9    8      0.33      0.00
    0    9    8      0.36      0.00
    1    9    8      0.31      0.00
    2    9    8      0.24      0.00
    3    9    8      0.17      0.00
    4    9    8      0.14      0.00
    5    9    8      0.15      0.00
   -3   10    8      0.55      0.00
   -2   10    8      0.40      0.00
   -1   10    8      0.19      0.00
    0   10    8     -0.01      0.00
    1   10    8     -0.18      0.00
    2   10    8     -0.27      0.00
  -11    1    9     -0.93      0.00
  -10    1    9     -0.87      0.00
   -9    1    9     -0.64      0.00
   -8    1    9     -0.30      0.00
   -7    1    9      0.04      0.00
   -6    1    9      0.29      0.00
   -5    1    9      0.34      0.00
   -4    1    9      0.19      0.00
   -3    1    9     -0.16      0.00
   -2    1    9     -0.59      0.00
   -1    1    9     -1.01      0.00
    0    1    9     -1.28      0.00
    1    1    9     -1.33      0.00
    2    1    9     -1.15      0.00
    3    1    9     -0.78      0.00
    4    1    9     -0.30      0.00
    5    1    9      0.17      0.00
    6    1    9      0.55      0.00
    7    1    9      0.78      0.00
    8    1    9      0.85      0.00
    9    1    9      0.78      0.00
   10    1    9      0.61      0.00
  -11    2    9     -0.48      0.00
  -10    2    9     -0.44      0.00
   -9    2    9     -0.43      0.00
   -8    2    9     -0.49      0.00
   -7    2    9     -0.61      0.00
   -6    2    9     -0.76      0.00
   -5    2    9     -0.88      0.00
   -4    2    9     -0.91      0.00
   -3    2    9     -0.82      0.00
   -2    2    9     -0.58      0.00
   -1    2    9     -0.24      0.00
    0    2    9      0.16      0.00
    1    2    9      0.55      0.00
    2    2    9      0.86      0.00
    3    2    9      1.06      0.00
    4    2    9      1.13      0.00
    5    2    9      1.10      0.00
    6    2    9      0.98      0.00
    7    2    9      0.83      0.00
    8    2    9      0.66      0.00
    9    2    9      0.49      0.00
   10    2    9      0.34      0.00
  -11    3    9     -0.01      0.00
  -10    3    9      0.00      0.00
   -9    3    9      0.06      0.00
   -8    3    9      0.15      0.00
   -7    3    9      0.25      0.00
   -6    3    9      0.31      0.00
   -5    3    9      0.29      0.00
   -4    3    9      0.16      0.00
   -3    3    9     -0.07      0.00
   -2    3    9     -0.37      0.00
   -1    3    9     -0.67      0.00
    0    3    9     -0.89      0.00
    1    3    9     -0.97      0.00
    2    3    9     -0.89      0.00
    3    3    9     -0.66      0.00
    4    3    9     -0.33      0.00
    5    3    9      0.03      0.00
    6    3    9      0.34      0.00
    7    3    9      0.55      0.00
    8    3    9      0.63      0.00
    9    3    9      0.58      0.00
  -10    4    9     -0.46      0.00
   -9    4    9     -0.48      0.00
   -8    4    9     -0.57      0.00
   -7    4    9     -0.70      0.00
   -6    4    9     -0.83      0.00
   -5    4    9     -0.91      0.00
   -4    4    9     -0.88      0.00
   -3    4    9     -0.73      0.00
   -2    4    9     -0.46      0.00
   -1    4    9     -0.11      0.00
    0    4    9      0.25      0.00
    1    4    9      0.56      0.00
    2    4    9      0.78      0.00
    3    4    9      0.90      0.00
    4    4    9      0.91      0.00
    5    4    9      0.84      0.00
    6    4    9      0.74      0.00
    7    4    9      0.63      0.00
    8    4    9      0.53      0.00
    9    4    9      0.43      0.00
  -10    5    9      0.41      0.00
   -9    5    9      0.33      0.00
   -8    5    9      0.25      0.00
   -7    5    9      0.21      0.00
   -6    5    9      0.20      0.00
   -5    5    9      0.22      0.00
   -4    5    9      0.23      0.00
   -3    5    9      0.19      0.00
   -2    5    9      0.10      0.00
   -1    5    9     -0.04      0.00
    0    5    9     -0.20      0.00
    1    5    9     -0.34      0.00
    2    5    9     -0.42      0.00
    3    5    9     -0.42      0.00
    4    5    9     -0.33      0.00
    5    5    9     -0.19      0.00
    6    5    9     -0.05      0.00
    7    5    9      0.07      0.00
    8    5    9      0.11      0.00
   -9    6    9     -0.26      0.00
   -8    6    9     -0.38      0.00
   -7    6    9     -0.47      0.00
   -6    6    9     -0.50      0.00
   -5    6    9     -0.45      0.00
   -4    6    9     -0.33      0.00
   -3    6    9     -0.17      0.00
   -2    6    9      0.01      0.00
   -1    6    9      0.16      0.00
    0    6    9      0.27      0.00
    1    6    9      0.31      0.00
    2    6    9      0.31      0.00
    3    6    9      0.28      0.00
    4    6    9      0.24      0.00
    5    6    9      0.21      0.00
    6    6    9      0.21      0.00
    7    6    9      0.22      0.00
    8    6    9      0.23      0.00
   -8    7    9     -0.12      0.00
   -7    7    9     -0.09      0.00
   -6    7    9      0.00      0.00
   -5    7    9      0.13      0.00
   -4    7    9      0.27      0.00
   -3    7    9      0.36      0.00
   -2    7    9      0.38      0.00
   -1    7    9      0.32      0.00
    0    7    9      0.19      0.00
    1    7    9      0.03      0.00
    2    7    9     -0.12      0.00
    3    7    9     -0.24      0.00
    4    7    9     -0.30      0.00
    5    7    9     -0.33      0.00
    6    7    9     -0.34      0.00
   -6    8    9     -0.26      0.00
   -5    8    9     -0.15      0.00
   -4    8    9      0.01      0.00
   -3    8    9      0.17      0.00
   -2    8    9      0.28      0.00
   -1    8    9      0.33      0.00
    0    8    9      0.33      0.00
    1    8    9      0.30      0.00
    2    8    9      0.26      0.00
    3    8    9      0.25      0.00
    4    8    9      0.27      0.00
    5    8    9      0.31      0.00
   -4    9    9      0.15      0.00
   -3    9    9      0.16      0.00
   -2    9    9      0.10      0.00
   -1    9    9      0.01      0.00
    0    9    9     -0.09      0.00
    1    9    9     -0.17      0.00
    2    9    9     -0.22      0.00
  -10    0   10     -1.19      0.00
   -9    0   10     -0.97      0.00
   -8    0   10     -0.65      0.00
   -7    0   10     -0.32      0.00
   -6    0   10     -0.10      0.00
   -5    0   10     -0.03      0.00
   -4    0   10     -0.15      0.00
   -3    0   10     -0.41      0.00
   -2    0   10     -0.73      0.00
   -1    0   10     -0.98      0.00
    0    0   10     -1.08      0.00
    1    0   10     -0.97      0.00
    2    0   10     -0.66      0.00
    3    0   10     -0.21      0.00
    4    0   10      0.30      0.00
    5    0   10      0.77      0.00
    6    0   10      1.11      0.00
    7    0   10      1.28      0.00
    8    0   10      1.27      0.00
    9    0   10      1.12      0.00
  -10    1   10      0.02      0.00
   -9    1   10     -0.01      0.00
   -8    1   10     -0.08      0.00
   -7    1   10     -0.18      0.00
   -6    1   10     -0.28      0.00
   -5    1   10     -0.37      0.00
   -4    1   10     -0.40      0.00
   -3    1   10     -0.36      0.00
   -2    1   10     -0.25      0.00
   -1    1   10     -0.09      0.00
    0    1   10      0.08      0.00
    1    1   10      0.25      0.00
    2    1   10      0.39      0.00
    3    1   10      0.48      0.00
    4    1   10      0.51      0.00
    5    1   10      0.50      0.00
    6    1   10      0.46      0.00
    7    1   10      0.39      0.00
    8    1   10      0.31      0.00
    9    1   10      0.22      0.00
  -10    2   10     -0.57      0.00
   -9    2   10     -0.43      0.00
   -8    2   10     -0.22      0.00
   -7    2   10     -0.02      0.00
   -6    2   10      0.11      0.00
   -5    2   10      0.11      0.00
   -4    2   10     -0.03      0.00
   -3    2   10     -0.29      0.00
   -2    2   10     -0.61      0.00
   -1    2   10     -0.89      0.00
    0    2   10     -1.05      0.00
    1    2   10     -1.04      0.00
    2    2   10     -0.84      0.00
    3    2   10     -0.48      0.00
    4    2   10     -0.05      0.00
    5    2   10      0.37      0.00
    6    2   10      0.71      0.00
    7    2   10      0.90      0.00
    8    2   10      0.94      0.00
   -9    3   10     -0.11      0.00
   -8    3   10     -0.24      0.00
   -7    3   10     -0.42      0.00
   -6    3   10     -0.59      0.00
   -5    3   10     -0.71      0.00
   -4    3   10     -0.72      0.00
   -3    3   10     -0.60      0.00
   -2    3   10     -0.36      0.00
   -1    3   10     -0.04      0.00
    0    3   10      0.29      0.00
    1    3   10      0.59      0.00
    2    3   10      0.80      0.00
    3    3   10      0.91      0.00
    4    3   10      0.92      0.00
    5    3   10      0.86      0.00
    6    3   10      0.75      0.00
    7    3   10      0.62      0.00
    8    3   10      0.48      0.00
   -9    4   10      0.36      0.00
   -8    4   10      0.36      0.00
   -7    4   10      0.35      0.00
   -6    4   10      0.33      0.00
   -5    4   10      0.27      0.00
   -4    4   10      0.14      0.00
   -3    4   10     -0.06      0.00
   -2    4   10     -0.32      0.00
   -1    4   10     -0.58      0.00
    0    4   10     -0.80      0.00
    1    4   10     -0.92      0.00
    2    4   10     -0.89      0.00
    3    4   10     -0.73      0.00
    4    4   10     -0.48      0.00
    5    4   10     -0.18      0.00
    6    4   10      0.09      0.00
    7    4   10      0.27      0.00
   -8    5   10     -0.34      0.00
   -7    5   10     -0.42      0.00
   -6    5   10     -0.47      0.00
   -5    5   10     -0.45      0.00
   -4    5   10     -0.35      0.00
   -3    5   10     -0.18      0.00
   -2    5   10      0.03      0.00
   -1    5   10      0.25      0.00
    0    5   10      0.44      0.00
    1    5   10      0.57      0.00
    2    5   10      0.62      0.00
    3    5   10      0.60      0.00
    4    5   10      0.52      0.00
    5    5   10      0.42      0.00
    6    5   10      0.32      0.00
    7    5   10      0.23      0.00
   -7    6   10      0.16      0.00
   -6    6   10      0.14      0.00
   -5    6   10      0.13      0.00
   -4    6   10      0.12      0.00
   -3    6   10      0.07      0.00
   -2    6   10     -0.04      0.00
   -1    6   10     -0.17      0.00
    0    6   10     -0.32      0.00
    1    6   10     -0.42      0.00
    2    6   10     -0.45      0.00
    3    6   10     -0.40      0.00
    4    6   10     -0.29      0.00
    5    6   10     -0.15      0.00
    6    6   10     -0.03      0.00
   -6    7   10     -0.16      0.00
   -5    7   10     -0.05      0.00
   -4    7   10      0.08      0.00
   -3    7   10      0.20      0.00
   -2    7   10      0.30      0.00
   -1    7   10      0.36      0.00
    0    7   10      0.37      0.00
    1    7   10      0.35      0.00
    2    7   10      0.32      0.00
    3    7   10      0.28      0.00
    4    7   10      0.24      0.00
   -3    8   10     -0.01      0.00
   -2    8   10     -0.03      0.00
   -1    8   10     -0.07      0.00
    0    8   10     -0.11      0.00
    1    8   10     -0.11      0.00
    2    8   10     -0.08      0.00
   -9    1   11     -0.69      0.00
   -8    1   11     -0.52      0.00
   -7    1   11     -0.34      0.00
   -6    1   11     -0.22      0.00
   -5    1   11     -0.21      0.00
   -4    1   11     -0.31      0.00
   -3    1   11     -0.48      0.00
   -2    1   11     -0.68      0.00
   -1    1   11     -0.82      0.00
    0    1   11     -0.84      0.00
    1    1   11     -0.72      0.00
    2    1   11     -0.46      0.00
    3    1   11     -0.11      0.00
    4    1   11      0.27      0.00
    5    1   11      0.60      0.00
    6    1   11      0.82      0.00
    7    1   11      0.92      0.00
   -8    2   11      0.16      0.00
   -7    2   11      0.00      0.00
   -6    2   11     -0.16      0.00
   -5    2   11     -0.28      0.00
   -4    2   11     -0.32      0.00
   -3    2   11     -0.28      0.00
   -2    2   11     -0.18      0.00
   -1    2   11     -0.05      0.00
    0    2   11      0.08      0.00
    1    2   11      0.18      0.00
    2    2   11      0.24      0.00
    3    2   11      0.26      0.00
    4    2   11      0.24      0.00
    5    2   11      0.20      0.00
    6    2   11      0.16      0.00
    7    2   11      0.12      0.00
   -8    3   11      0.02      0.00
   -7    3   11      0.10      0.00
   -6    3   11      0.14      0.00
   -5    3   11      0.11      0.00
   -4    3   11     -0.02      0.00
   -3    3   11     -0.22      0.00
   -2    3   11     -0.47      0.00
   -1    3   11     -0.71      0.00
    0    3   11     -0.88      0.00
    1    3   11     -0.92      0.00
    2    3   11     -0.83      0.00
    3    3   11     -0.62      0.00
    4    3   11     -0.33      0.00
    5    3   11     -0.04      0.00
    6    3   11      0.21      0.00
   -7    4   11     -0.15      0.00
   -6    4   11     -0.23      0.00
   -5    4   11     -0.25      0.00
   -4    4   11     -0.18      0.00
   -3    4   11     -0.05      0.00
   -2    4   11      0.13      0.00
   -1    4   11      0.30      0.00
    0    4   11      0.44      0.00
    1    4   11      0.50      0.00
    2    4   11      0.49      0.00
    3    4   11      0.43      0.00
    4    4   11      0.32      0.00
    5    4   11      0.20      0.00
    6    4   11      0.10      0.00
   -6    5   11      0.26      0.00
   -5    5   11      0.21      0.00
   -4    5   11      0.11      0.00
   -3    5   11     -0.06      0.00
   -2    5   11     -0.28      0.00
   -1    5   11     -0.51      0.00
    0    5   11     -0.71      0.00
    1    5   11     -0.81      0.00
    2    5   11     -0.80      0.00
    3    5   11     -0.66      0.00
    4    5   11     -0.45      0.00
    5    5   11     -0.20      0.00
   -5    6   11      0.00      0.00
   -4    6   11      0.16      0.00
   -3    6   11      0.33      0.00
   -2    6   11      0.47      0.00
   -1    6   11      0.56      0.00
    0    6   11      0.60      0.00
    1    6   11      0.57      0.00
    2    6   11      0.49      0.00
    3    6   11      0.37      0.00
   -2    7   11     -0.18      0.00
   -1    7   11     -0.28      0.00
    0    7   11     -0.35      0.00
   -7    0   12     -0.33      0.00
   -6    0   12     -0.30      0.00
   -5    0   12     -0.32      0.00
   -4    0   12     -0.39      0.00
   -3    0   12     -0.48      0.00
   -2    0   12     -0.57      0.00
   -1    0   12     -0.62      0.00
    0    0   12     -0.60      0.00
    1    0   12     -0.51      0.00
    2    0   12     -0.35      0.00
    3    0   12     -0.17      0.00
    4    0   12      0.02      0.00
    5    0   12      0.17      0.00
   -6    1   12      0.06      0.00
   -5    1   12      0.01      0.00
   -4    1   12     -0.01      0.00
   -3    1   12     -0.02      0.00
   -2    1   12     -0.02      0.00
   -1    1   12     -0.03      0.00
    0    1   12     -0.05      0.00
    1    1   12     -0.08      0.00
    2    1   12     -0.12      0.00
    3    1   12     -0.16      0.00
    4    1   12     -0.18      0.00
    5    1   12     -0.19      0.00
   -6    2   12     -0.10      0.00
   -5    2   12     -0.11      0.00
   -4    2   12     -0.16      0.00
   -3    2   12     -0.27      0.00
   -2    2   12     -0.39      0.00
   -1    2   12     -0.50      0.00
    0    2   12     -0.57      0.00
    1    2   12     -0.56      0.00
    2    2   12     -0.48      0.00
    3    2   12     -0.34      0.00
    4    2   12     -0.18      0.00
   -5    3   12      0.07      0.00
   -4    3   12      0.08      0.00
   -3    3   12      0.12      0.00
   -2    3   12      0.16      0.00
   -1    3   12      0.18      0.00
    0    3   12      0.14      0.00
    1    3   12      0.06      0.00
    2    3   12     -0.06      0.00
    3    3   12     -0.17      0.00
    4    3   12     -0.27      0.00
   -4    4   12      0.13      0.00
   -3    4   12      0.01      0.00
   -2    4   12     -0.17      0.00
   -1    4   12     -0.37      0.00
    0    4   12     -0.53      0.00
    1    4   12     -0.62      0.00
    2    4   12     -0.61      0.00
    3    4   12     -0.52      0.00
   -2    5   12      0.55      0.00
   -1    5   12      0.59      0.00
    0    5   12      0.56      0.00
   -2    1   13     -0.26      0.00
   -1    1   13     -0.29      0.00
    0    1   13     -0.32      0.00
    1    0    0     14.79      0.00
    1    1    0     -0.03      0.00
   15    3    0     -1.11      0.00
   13    7    0      0.34      0.00
   10   10    0      0.08      0.00
    2   13    0      0.54      0.00
    3   13    0      0.67      0.00
   15    2    1     -0.59      0.00
  -15    3    1      0.98      0.00
   14    5    1      1.43      0.00
  -13    7    1      0.09      0.00
   12    8    1      0.29      0.00
   11    9    1     -0.18      0.00
  -10   10    1      0.54      0.00
   10   10    1      0.14      0.00
    6   12    1      0.68      0.00
   -2   13    1     -0.73      0.00
   -1   13    1     -0.67      0.00
    1   13    1     -0.50      0.00
    2   13    1     -0.41      0.00
   15    0    2      0.45      0.00
   15    1    2     -0.02      0.00
  -15    3    2      0.77      0.00
  -13    7    2      0.13      0.00
  -12    8    2      0.00      0.00
  -11    9    2      0.48      0.00
  -10   10    2      0.43      0.00
    8   11    2      0.78      0.00
   -6   12    2     -0.34      0.00
    6   12    2      0.13      0.00
   -2   13    2     -0.55      0.00
   -1   13    2     -0.50      0.00
    0   13    2     -0.34      0.00
    1   13    2     -0.12      0.00
  -15    1    3      1.40      0.00
  -15    2    3      0.22      0.00
   14    4    3      0.20      0.00
  -14    5    3     -0.13      0.00
   13    6    3     -0.24      0.00
  -12    8    3      0.35      0.00
  -11    9    3      0.20      0.00
    9   10    3      0.59      0.00
   -8   11    3      0.14      0.00
    5   12    3      0.81      0.00
  -15    0    4      1.07      0.00
   14    3    4      0.26      0.00
  -13    6    4     -0.21      0.00
   11    8    4      0.58      0.00
   10    9    4      0.03      0.00
   -9   10    4      0.23      0.00
    4   12    4     -0.20      0.00
  -14    3    5      0.35      0.00
   13    4    5     -0.12      0.00
   12    6    5     -0.12      0.00
  -12    7    5     -0.05      0.00
  -11    8    5     -0.22      0.00
  -10    9    5      0.33      0.00
    6   11    5      0.08      0.00
   -3   12    5      0.08      0.00
   -2   12    5      0.23      0.00
    2   12    5      0.44      0.00
  -14    0    6      0.68      0.00
  -14    1    6     -0.24      0.00
  -14    2    6      0.47      0.00
   13    2    6     -0.47      0.00
   12    5    6      0.02      0.00
   -5   11    6     -0.62      0.00
    4   11    6     -0.23      0.00
  -13    3    7      0.13      0.00
   12    3    7     -0.31      0.00
  -12    5    7     -0.13      0.00
   -8    9    7      0.45      0.00
    7    9    7     -0.36      0.00
    5   10    7     -0.32      0.00
   -3   11    7      0.79      0.00
   -2   11    7      0.61      0.00
    1   11    7     -0.07      0.00
    2   11    7     -0.15      0.00
   11    3    8      0.11      0.00
  -12    4    8      0.17      0.00
   -7    9    8     -0.77      0.00
   -4   10    8      0.61      0.00
    3   10    8     -0.29      0.00
   10    3    9      0.44      0.00
  -11    4    9     -0.49      0.00
    9    5    9      0.09      0.00
    7    7    9     -0.34      0.00
   -7    8    9     -0.30      0.00
   -5    9    9      0.09      0.00
    3    9    9     -0.24      0.00
    9    2   10      0.84      0.00
  -10    3   10     -0.07      0.00
    8    4   10      0.34      0.00
   -9    5   10     -0.26      0.00
   -8    6   10      0.22      0.00
    5    7   10      0.21      0.00
   -4    8   10     -0.03      0.00
    3    8   10     -0.03      0.00
   -9    2   11      0.28      0.00
    7    3   11      0.36      0.00
   -8    4   11     -0.03      0.00
   -7    5   11      0.28      0.00
    4    6   11      0.23      0.00
   -3    7   11     -0.07      0.00
    1    7   11     -0.35      0.00
    2    7   11     -0.28      0.00
   -7    1   12      0.12      0.00
   -7    2   12     -0.15      0.00
    5    2   12     -0.02      0.00
   -6    3   12      0.10      0.00
   -5    4   12      0.18      0.00
   -4    5   12      0.31      0.00
   -3    5   12      0.45      0.00
    1    5   12      0.45      0.00
    2    5   12      0.30      0.00
   -3    1   13     -0.23      0.00
    1    1   13     -0.34      0.00
   -3    2   13      0.27      0.00
   -2    2   13      0.23      0.00
   -1    2   13      0.15      0.00
    0    2   13      0.02      0.00
    1    2   13     -0.14      0.00
    0    0    0      0.00      0.00
# SQUEEZE RESULTS (Version =  50315)
# Note: Data are Listed for all Voids in the P1 Unit Cell
# i.e. Centre of Gravity, Solvent Accessible Volume,
# Recovered number of Electrons in the Void and
# Details about the Squeezed Material
loop_
  _platon_squeeze_void_nr
  _platon_squeeze_void_average_x
  _platon_squeeze_void_average_y
  _platon_squeeze_void_average_z
  _platon_squeeze_void_volume
  _platon_squeeze_void_count_electrons
  _platon_squeeze_void_content
   1  0.000  0.000  0.000        59         5 ' '
   2  0.000  0.500  0.500        59         5 ' '
# Missing Reflections Below sin(th)/lambda = 0.25
loop_
  _platon_missing_refln_index_h
  _platon_missing_refln_index_k
  _platon_missing_refln_index_l
  _platon_missing_refln_theta
    1    0    0     1.357
    1    1    0     2.084
_platon_squeeze_void_probe_radius                  1.20
_platon_squeeze_details
)
TITL s1_a      P 21/c       R = 0.08
CELL   16.3900   14.0480   14.0560     90.00     93.64     90.00
SPGR P21/c
# Solvent Accessible Volume =     124.1
# Electrons Found in S.A.V. =      10.0
# Note: Atoms in Void as Cxxx and Qxxx all others
Q101 0.663 0.829 0.108 !       2.63 eA-3
Q102 0.491 0.324 0.405 !       2.31 eA-3
C103 1.005 0.033 0.048 !       1.32 eA-3
Q104 0.717 0.895 0.085 !       1.16 eA-3
Q105 0.248 0.678 0.190 !       0.99 eA-3
Q106 0.591 0.826 0.110 !       0.98 eA-3
Q107 0.583 0.509 0.107 !       0.95 eA-3
Q108 0.439 0.856 0.049 !       0.92 eA-3
Q109 0.498 0.361 0.482 !       0.78 eA-3
Q110 0.575 0.327 0.425 !       0.68 eA-3
Q111 0.600 0.188 0.034 !       0.67 eA-3
Q112 0.872 0.835 0.112 !       0.67 eA-3
Q113 0.648 0.214 0.279 !       0.66 eA-3
Q114 0.946 0.356 0.356 !       0.66 eA-3
Q115 0.246 0.408 0.020 !       0.65 eA-3
Q116 0.350 0.419 0.352 !       0.64 eA-3
Q117 0.921 0.180 0.235 !       0.64 eA-3
Q118 0.569 0.094 0.058 !       0.62 eA-3
Q119 0.507 0.377 0.209 !       0.62 eA-3
Q120 0.193 0.719 0.442 !       0.61 eA-3
Q121 0.828 0.777 0.300 !       0.61 eA-3
Q122 0.473 0.838 0.389 !       0.61 eA-3
Q123 0.238 0.027 0.171 !       0.60 eA-3
Q124 0.948 0.208 0.049 !       0.59 eA-3
Q125 0.094 0.265-0.007 !       0.59 eA-3
Q126 0.565 0.940 0.187 !       0.59 eA-3
Q127 0.740 0.502 0.426 !       0.59 eA-3
Q128 0.581 0.115 0.160 !       0.58 eA-3
Q129 0.814 0.217 0.329 !       0.58 eA-3
Q130 0.771 0.924 0.192 !       0.57 eA-3
Q131 0.944 0.912 0.189 !       0.57 eA-3
Q132 0.190 0.940 0.126 !       0.56 eA-3
Q133 0.656 0.083 0.250 !       0.56 eA-3
Q134 0.928 0.480 0.463 !       0.56 eA-3
Q135 0.499 0.337 0.297 !       0.55 eA-3
Q136 0.749 0.159 0.045 !       0.55 eA-3
Q137 0.294 0.750 0.388 !       0.55 eA-3
Q138 0.572 0.453 0.021 !       0.54 eA-3
Q139 0.021 0.802 0.371 !       0.54 eA-3
Q140 0.138 0.872 0.187 !       0.54 eA-3
Q141 0.789 0.232 0.404 !       0.54 eA-3
Q142 0.708 0.194 0.041 !       0.54 eA-3
Q143 0.481 0.235 0.453 !       0.53 eA-3
Q144 0.522 0.449 0.413 !       0.53 eA-3
Q145 0.273 0.158 0.268 !       0.52 eA-3
Q146 0.663 0.716 0.099 !       0.52 eA-3
Q147 0.015 0.761 0.191 !       0.52 eA-3
Q148 0.397 0.889 0.325 !       0.51 eA-3
Q149 0.667 0.365 0.201 !       0.51 eA-3
Q150 0.716 0.263 0.206 !       0.50 eA-3
Q151 0.250 0.227 0.189 !       0.50 eA-3
)
;
_shelx_fab_checksum              21228
loop_
_space_group_symop_operation_xyz
'x, y, z'
'-x, y+1/2, -z+1/2'
'-x, -y, -z'
'x, -y-1/2, z-1/2'
loop_
_atom_site_label
_atom_site_type_symbol
_atom_site_fract_x
_atom_site_fract_y
_atom_site_fract_z
_atom_site_U_iso_or_equiv
_atom_site_adp_type
_atom_site_occupancy
_atom_site_site_symmetry_order
_atom_site_calc_flag
_atom_site_refinement_flags_posn
_atom_site_refinement_flags_adp
Ru1 Ru 0.58553(8) 0.67029(8) 0.60039(8) 0.0361(5) Uani 1 1 d D .
N1 N 0.4744(6) 0.6504(7) 0.5537(7) 0.034(3) Uani 1 1 d D U
N2 N 0.5960(7) 0.7535(7) 0.4871(7) 0.027(3) Uani 1 1 d D .
N3 N 0.6969(6) 0.6288(7) 0.5961(8) 0.038(3) Uani 1 1 d D U
N4 N 0.5620(8) 0.5412(8) 0.6451(8) 0.034(3) Uani 1 1 d D .
N5 N 0.5820(7) 0.7426(8) 0.6894(7) 0.033(3) Uani 1 1 d . .
C1 C 0.4291(8) 0.5724(8) 0.5814(10) 0.032(4) Uani 1 1 d D .
C2 C 0.3494(10) 0.5832(11) 0.5489(10) 0.033(4) Uani 1 1 d . .
H2A H 0.3060 0.5409 0.5608 0.040 Uiso 1 1 calc R U
C3 C 0.3425(9) 0.6653(10) 0.4961(9) 0.034(4) Uani 1 1 d . .
H3A H 0.2936 0.6910 0.4664 0.040 Uiso 1 1 calc R U
C4 C 0.4228(7) 0.7049(10) 0.4940(9) 0.035(4) Uani 1 1 d D .
C5 C 0.4506(8) 0.7856(9) 0.4454(8) 0.027(4) Uani 1 1 d D .
C6 C 0.5325(8) 0.8024(9) 0.4405(10) 0.030(4) Uani 1 1 d D .
C7 C 0.5702(11) 0.8656(10) 0.3772(9) 0.030(4) Uani 1 1 d . .
H7A H 0.5416 0.9086 0.3349 0.036 Uiso 1 1 calc R U
C8 C 0.6511(10) 0.8559(10) 0.3856(10) 0.030(4) Uani 1 1 d . .
H8A H 0.6894 0.8892 0.3502 0.036 Uiso 1 1 calc R U
C9 C 0.6697(8) 0.7859(10) 0.4580(10) 0.033(4) Uani 1 1 d D .
C10 C 0.7474(9) 0.7529(9) 0.4882(9) 0.034(4) Uani 1 1 d D .
C11 C 0.7599(7) 0.6774(9) 0.5558(9) 0.034(4) Uani 1 1 d D .
C12 C 0.8362(10) 0.6445(11) 0.5949(11) 0.045(5) Uani 1 1 d . .
H12A H 0.8884 0.6695 0.5826 0.054 Uiso 1 1 calc R U
C13 C 0.8208(11) 0.5696(11) 0.6540(10) 0.039(4) Uani 1 1 d . .
H13A H 0.8605 0.5327 0.6897 0.046 Uiso 1 1 calc R U
C14 C 0.7350(8) 0.5574(8) 0.6522(9) 0.030(4) Uani 1 1 d D .
C15 C 0.6954(9) 0.4863(9) 0.7040(8) 0.026(4) Uani 1 1 d D .
C16 C 0.6108(10) 0.4771(10) 0.6967(9) 0.028(4) Uani 1 1 d D .
C17 C 0.5560(11) 0.4058(10) 0.7249(10) 0.033(4) Uani 1 1 d . .
H17A H 0.5715 0.3520 0.7629 0.039 Uiso 1 1 calc R U
C18 C 0.4776(10) 0.4247(10) 0.6900(10) 0.030(4) Uani 1 1 d . .
H18A H 0.4301 0.3876 0.6984 0.036 Uiso 1 1 calc R U
C19 C 0.4822(9) 0.5099(10) 0.6395(9) 0.030(4) Uani 1 1 d D .
C20 C 0.3930(8) 0.8539(8) 0.3980(9) 0.036(4) Uani 1 1 d D .
C21 C 0.3344(8) 0.8259(10) 0.3274(8) 0.035(4) Uani 1 1 d D .
H21A H 0.3293 0.7606 0.3104 0.042 Uiso 1 1 calc R U
C22 C 0.2842(10) 0.8916(11) 0.2827(10) 0.038(4) Uani 1 1 d . .
H22A H 0.2453 0.8709 0.2340 0.046 Uiso 1 1 calc R U
C23 C 0.2879(9) 0.9876(11) 0.3056(10) 0.032(4) Uani 1 1 d . .
C24 C 0.3439(10) 1.0147(12) 0.3776(11) 0.043(4) Uani 1 1 d . .
H24A H 0.3471 1.0797 0.3962 0.051 Uiso 1 1 calc R U
C25 C 0.3949(10) 0.9502(9) 0.4227(10) 0.046(5) Uani 1 1 d D .
H25A H 0.4328 0.9713 0.4722 0.055 Uiso 1 1 calc R U
C26 C 0.8195(8) 0.7986(8) 0.4502(9) 0.036(4) Uani 1 1 d D .
C27 C 0.8354(9) 0.8950(9) 0.4648(10) 0.039(4) Uani 1 1 d D .
H27A H 0.8009 0.9313 0.5028 0.047 Uiso 1 1 calc R U
C28 C 0.9002(10) 0.9387(11) 0.4252(10) 0.036(4) Uani 1 1 d . .
H28A H 0.9104 1.0044 0.4365 0.044 Uiso 1 1 calc R U
C29 C 0.9495(10) 0.8883(12) 0.3699(11) 0.036(4) Uani 1 1 d . .
C30 C 0.9372(10) 0.7930(13) 0.3560(11) 0.046(4) Uani 1 1 d . .
H30A H 0.9728 0.7580 0.3182 0.055 Uiso 1 1 calc R U
C31 C 0.8731(8) 0.7472(10) 0.3966(10) 0.041(4) Uani 1 1 d D .
H31A H 0.8656 0.6806 0.3879 0.049 Uiso 1 1 calc R U
C32 C 0.7435(8) 0.4205(9) 0.7665(8) 0.031(4) Uani 1 1 d D U
C33 C 0.8076(8) 0.3676(10) 0.7328(10) 0.037(4) Uani 1 1 d D .
H33A H 0.8205 0.3736 0.6681 0.044 Uiso 1 1 calc R U
C34 C 0.8534(10) 0.3051(11) 0.7943(12) 0.049(5) Uani 1 1 d . .
H34A H 0.8976 0.2694 0.7720 0.059 Uiso 1 1 calc R U
C35 C 0.8325(10) 0.2973(10) 0.8869(12) 0.041(4) Uani 1 1 d . .
C36 C 0.7697(10) 0.3476(11) 0.9216(11) 0.042(4) Uani 1 1 d . .
H36A H 0.7567 0.3406 0.9861 0.050 Uiso 1 1 calc R U
C37 C 0.7257(9) 0.4085(10) 0.8616(8) 0.039(4) Uani 1 1 d D .
H37A H 0.6818 0.4434 0.8855 0.047 Uiso 1 1 calc R U
C38 C 0.2388(11) 1.0587(12) 0.2537(12) 0.039(4) Uani 1 1 d . .
F1 F 0.1743(6) 1.0234(7) 0.2032(8) 0.072(3) Uani 1 1 d . .
F2 F 0.2053(7) 1.1220(7) 0.3111(7) 0.083(4) Uani 1 1 d . .
F3 F 0.2786(6) 1.1090(7) 0.1940(7) 0.071(3) Uani 1 1 d . .
C39 C 1.0174(11) 0.9347(12) 0.3268(12) 0.043(5) Uani 1 1 d . .
F4 F 1.0347(6) 0.8986(7) 0.2409(8) 0.078(3) Uani 1 1 d . .
F5 F 1.0085(6) 1.0265(8) 0.3105(8) 0.079(3) Uani 1 1 d . .
F6 F 1.0900(7) 0.9278(7) 0.3756(7) 0.072(3) Uani 1 1 d . .
C40 C 0.8810(11) 0.2300(12) 0.9505(13) 0.048(5) Uani 1 1 d . .
F7 F 0.9612(6) 0.2329(7) 0.9399(6) 0.061(3) Uani 1 1 d . .
F8 F 0.8724(6) 0.2424(6) 1.0440(6) 0.059(3) Uani 1 1 d . .
F9 F 0.8603(6) 0.1391(7) 0.9354(6) 0.064(3) Uani 1 1 d . .
loop_
_atom_site_aniso_label
_atom_site_aniso_U_11
_atom_site_aniso_U_22
_atom_site_aniso_U_33
_atom_site_aniso_U_23
_atom_site_aniso_U_13
_atom_site_aniso_U_12
Ru1 0.0659(10) 0.0223(8) 0.0204(8) 0.0016(6) 0.0047(6) -0.0020(7)
N1 0.035(3) 0.034(3) 0.034(3) 0.0012(11) 0.0027(11) 0.0008(11)
N2 0.035(9) 0.024(7) 0.025(7) -0.012(6) 0.016(7) -0.008(7)
N3 0.038(3) 0.038(3) 0.037(3) 0.0013(11) 0.0019(11) -0.0015(11)
N4 0.049(10) 0.023(8) 0.031(8) -0.008(7) 0.002(7) -0.006(8)
N5 0.058(9) 0.024(7) 0.018(7) -0.003(6) 0.013(6) 0.010(6)
C1 0.047(13) 0.024(10) 0.026(9) -0.008(8) 0.011(9) -0.007(9)
C2 0.040(12) 0.034(11) 0.027(9) 0.000(8) 0.009(8) 0.001(8)
C3 0.051(12) 0.022(9) 0.026(9) -0.003(8) -0.006(8) 0.016(9)
C4 0.035(11) 0.047(11) 0.026(9) -0.005(8) 0.017(8) -0.008(9)
C5 0.031(11) 0.036(10) 0.014(8) -0.005(8) 0.013(8) -0.007(9)
C6 0.052(13) 0.016(9) 0.021(9) -0.001(7) -0.001(9) 0.006(9)
C7 0.047(13) 0.029(10) 0.013(9) -0.003(8) 0.001(8) 0.000(9)
C8 0.041(13) 0.026(10) 0.023(10) 0.004(8) 0.001(8) -0.011(8)
C9 0.036(12) 0.032(10) 0.031(10) -0.014(8) -0.005(9) 0.007(9)
C10 0.067(14) 0.030(10) 0.005(8) -0.003(8) 0.006(8) 0.005(10)
C11 0.024(10) 0.035(10) 0.042(10) -0.016(9) -0.010(8) -0.002(8)
C12 0.049(13) 0.045(12) 0.039(10) -0.007(9) -0.002(9) -0.013(9)
C13 0.065(14) 0.028(11) 0.023(10) 0.003(8) 0.000(9) 0.002(9)
C14 0.049(12) 0.019(9) 0.022(9) -0.012(7) 0.010(8) -0.010(8)
C15 0.047(12) 0.017(9) 0.016(9) -0.004(7) 0.014(8) 0.009(9)
C16 0.048(13) 0.024(10) 0.013(9) -0.008(7) 0.011(8) 0.006(10)
C17 0.057(13) 0.019(10) 0.022(9) 0.004(7) 0.002(9) 0.006(10)
C18 0.047(13) 0.009(9) 0.036(10) 0.007(8) 0.011(9) -0.004(8)
C19 0.054(13) 0.026(11) 0.009(8) -0.009(8) 0.005(8) -0.006(9)
C20 0.043(12) 0.043(12) 0.023(9) 0.006(9) 0.000(8) 0.010(9)
C21 0.069(12) 0.014(9) 0.021(9) 0.006(8) 0.007(9) -0.009(9)
C22 0.066(13) 0.036(12) 0.012(9) 0.005(8) -0.006(8) -0.015(10)
C23 0.040(11) 0.029(12) 0.029(10) -0.001(9) 0.006(9) -0.004(9)
C24 0.058(13) 0.039(11) 0.031(10) 0.005(9) 0.002(10) -0.004(10)
C25 0.071(14) 0.034(12) 0.033(11) -0.025(9) 0.009(10) -0.009(10)
C26 0.056(12) 0.029(11) 0.024(9) 0.005(8) 0.001(9) -0.003(9)
C27 0.045(12) 0.044(13) 0.028(10) -0.003(8) 0.006(9) -0.007(9)
C28 0.060(13) 0.027(10) 0.022(9) 0.007(8) 0.009(9) -0.004(10)
C29 0.036(11) 0.039(13) 0.035(10) 0.003(9) 0.012(9) -0.005(10)
C30 0.047(13) 0.043(13) 0.047(11) -0.004(9) 0.003(9) -0.002(10)
C31 0.041(11) 0.034(10) 0.047(11) -0.006(9) -0.001(9) 0.003(10)
C32 0.048(8) 0.019(7) 0.027(8) 0.002(7) -0.001(7) -0.013(7)
C33 0.050(11) 0.044(11) 0.019(9) 0.016(8) 0.013(8) 0.002(9)
C34 0.058(13) 0.042(12) 0.049(13) 0.001(10) 0.015(10) -0.007(9)
C35 0.055(12) 0.016(10) 0.052(13) 0.003(9) 0.009(10) 0.004(9)
C36 0.060(13) 0.034(10) 0.031(10) 0.006(9) 0.002(9) -0.005(10)
C37 0.059(12) 0.026(10) 0.034(11) 0.001(8) 0.008(9) 0.019(9)
C38 0.046(13) 0.029(11) 0.042(11) -0.005(10) 0.004(11) 0.006(10)
F1 0.062(8) 0.049(7) 0.103(9) 0.019(6) -0.018(7) -0.003(6)
F2 0.136(10) 0.069(7) 0.045(6) -0.002(6) -0.002(6) 0.057(7)
F3 0.061(7) 0.067(7) 0.085(8) 0.054(6) 0.004(6) 0.004(6)
C39 0.053(14) 0.039(13) 0.037(12) -0.007(9) -0.008(11) 0.011(10)
F4 0.089(9) 0.077(8) 0.070(8) -0.009(6) 0.027(6) -0.034(6)
F5 0.076(8) 0.055(8) 0.110(9) 0.017(7) 0.033(6) 0.005(6)
F6 0.061(8) 0.079(8) 0.077(8) 0.017(6) 0.005(6) -0.013(6)
C40 0.049(14) 0.036(13) 0.060(15) 0.004(10) 0.018(10) 0.006(10)
F7 0.058(8) 0.074(7) 0.052(6) 0.019(5) 0.002(5) 0.013(6)
F8 0.077(7) 0.063(7) 0.037(6) 0.012(5) 0.001(5) 0.014(5)
F9 0.087(8) 0.044(7) 0.058(7) 0.010(5) -0.007(5) 0.011(5)
loop_
_atom_type_symbol
_atom_type_description
_atom_type_scat_dispersion_real
_atom_type_scat_dispersion_imag
_atom_type_scat_source
C C 0.0040 0.0020 'Calculated using XDISP in WinGX (Farrugia, 1999)'
H H 0.0000 0.0000 'Calculated using XDISP in WinGX (Farrugia, 1999)'
N N 0.0076 0.0040 'Calculated using XDISP in WinGX (Farrugia, 1999)'
F F 0.0211 0.0125 'Calculated using XDISP in WinGX (Farrugia, 1999)'
Ru Ru -1.0018 0.9825 'Calculated using XDISP in WinGX (Farrugia, 1999)'
loop_
_geom_angle_atom_site_label_1
_geom_angle_atom_site_label_2
_geom_angle_atom_site_label_3
_geom_angle
N5 Ru1 N1 106.1(5)
N5 Ru1 N3 107.2(6)
N1 Ru1 N3 146.0(5)
N5 Ru1 N4 108.4(5)
N1 Ru1 N4 76.9(5)
N3 Ru1 N4 86.3(5)
N5 Ru1 N2 105.1(5)
N1 Ru1 N2 86.6(4)
N3 Ru1 N2 91.3(4)
N4 Ru1 N2 145.7(4)
C4 N1 C1 106.8(9)
C4 N1 Ru1 131.1(8)
C1 N1 Ru1 122.0(8)
C9 N2 C6 110.1(10)
C9 N2 Ru1 123.6(10)
C6 N2 Ru1 124.8(9)
C11 N3 C14 105.4(9)
C11 N3 Ru1 126.6(8)
C14 N3 Ru1 126.2(8)
C19 N4 C16 109.8(12)
C19 N4 Ru1 118.7(10)
C16 N4 Ru1 130.7(10)
C2 C1 N1 109.5(11)
C2 C1 C19 141.5(11)
N1 C1 C19 108.8(10)
C1 C2 C3 108.6(13)
C1 C2 H2A 125.7
C3 C2 H2A 125.7
C2 C3 C4 107.1(13)
C2 C3 H3A 126.5
C4 C3 H3A 126.5
N1 C4 C5 122.2(11)
N1 C4 C3 107.4(10)
C5 C4 C3 130.3(11)
C6 C5 C4 120.7(11)
C6 C5 C20 117.8(12)
C4 C5 C20 121.5(12)
C5 C6 N2 127.2(12)
C5 C6 C7 127.2(13)
N2 C6 C7 105.2(11)
C8 C7 C6 110.5(13)
C8 C7 H7A 124.8
C6 C7 H7A 124.8
C7 C8 C9 107.4(12)
C7 C8 H8A 126.3
C9 C8 H8A 126.3
N2 C9 C10 126.9(13)
N2 C9 C8 106.6(11)
C10 C9 C8 126.4(13)
C9 C10 C11 122.5(12)
C9 C10 C26 118.8(12)
C11 C10 C26 118.7(12)
N3 C11 C12 110.2(11)
N3 C11 C10 123.8(11)
C12 C11 C10 125.9(11)
C13 C12 C11 107.0(14)
C13 C12 H12A 126.5
C11 C12 H12A 126.5
C12 C13 C14 107.6(14)
C12 C13 H13A 126.2
C14 C13 H13A 126.2
N3 C14 C13 109.3(10)
N3 C14 C15 126.3(11)
C13 C14 C15 124.3(11)
C16 C15 C14 121.0(11)
C16 C15 C32 118.7(12)
C14 C15 C32 120.3(12)
N4 C16 C15 121.4(13)
N4 C16 C17 104.5(12)
C15 C16 C17 133.8(13)
C18 C17 C16 111.1(13)
C18 C17 H17A 124.5
C16 C17 H17A 124.5
C17 C18 C19 105.5(13)
C17 C18 H18A 127.3
C19 C18 H18A 127.3
N4 C19 C18 109.1(13)
N4 C19 C1 111.9(12)
C18 C19 C1 139.0(13)
C21 C20 C25 117.0(11)
C21 C20 C5 122.1(9)
C25 C20 C5 120.9(9)
C22 C21 C20 120.4(12)
C22 C21 H21A 119.8
C20 C21 H21A 119.8
C21 C22 C23 122.3(14)
C21 C22 H22A 118.8
C23 C22 H22A 118.8
C24 C23 C22 117.3(15)
C24 C23 C38 120.2(15)
C22 C23 C38 122.5(15)
C25 C24 C23 121.3(15)
C25 C24 H24A 119.4
C23 C24 H24A 119.4
C24 C25 C20 121.7(13)
C24 C25 H25A 119.2
C20 C25 H25A 119.2
C27 C26 C31 117.7(11)
C27 C26 C10 121.2(9)
C31 C26 C10 121.1(9)
C28 C27 C26 121.2(12)
C28 C27 H27A 119.4
C26 C27 H27A 119.4
C29 C28 C27 120.2(14)
C29 C28 H28A 119.9
C27 C28 H28A 119.9
C28 C29 C30 120.4(15)
C28 C29 C39 120.2(15)
C30 C29 C39 119.3(16)
C29 C30 C31 120.3(15)
C29 C30 H30A 119.8
C31 C30 H30A 119.8
C30 C31 C26 120.1(13)
C30 C31 H31A 119.9
C26 C31 H31A 119.9
C33 C32 C37 118.0(11)
C33 C32 C15 121.3(9)
C37 C32 C15 120.8(9)
C32 C33 C34 120.4(12)
C32 C33 H33A 119.8
C34 C33 H33A 119.8
C35 C34 C33 118.3(15)
C35 C34 H34A 120.8
C33 C34 H34A 120.8
C36 C35 C34 122.5(15)
C36 C35 C40 119.9(15)
C34 C35 C40 117.6(16)
C35 C36 C37 118.8(14)
C35 C36 H36A 120.6
C37 C36 H36A 120.6
C36 C37 C32 122.0(12)
C36 C37 H37A 119.0
C32 C37 H37A 119.0
F3 C38 F1 105.8(14)
F3 C38 F2 105.6(14)
F1 C38 F2 103.1(14)
F3 C38 C23 114.4(14)
F1 C38 C23 114.1(14)
F2 C38 C23 112.9(14)
F5 C39 F6 104.2(14)
F5 C39 F4 103.7(14)
F6 C39 F4 101.5(13)
F5 C39 C29 115.7(15)
F6 C39 C29 115.7(14)
F4 C39 C29 114.3(14)
F7 C40 F9 104.8(13)
F7 C40 F8 105.7(14)
F9 C40 F8 103.8(13)
F7 C40 C35 113.8(14)
F9 C40 C35 112.9(15)
F8 C40 C35 114.7(14)
loop_
_geom_bond_atom_site_label_1
_geom_bond_atom_site_label_2
_geom_bond_distance
Ru1 N5 1.615(10)
Ru1 N1 1.917(9)
Ru1 N3 1.921(9)
Ru1 N4 1.966(11)
Ru1 N2 1.991(10)
N1 C4 1.384(9)
N1 C1 1.392(9)
N2 C9 1.377(9)
N2 C6 1.379(9)
N3 C11 1.389(9)
N3 C14 1.399(9)
N4 C19 1.377(9)
N4 C16 1.379(9)
C1 C2 1.365(19)
C1 C19 1.451(19)
C2 C3 1.373(19)
C2 H2A 0.9500
C3 C4 1.431(19)
C3 H3A 0.9500
C4 C5 1.414(18)
C5 C6 1.368(17)
C5 C20 1.475(13)
C6 C7 1.425(19)
C7 C8 1.331(18)
C7 H7A 0.9500
C8 C9 1.433(19)
C8 H8A 0.9500
C9 C10 1.397(18)
C10 C11 1.430(18)
C10 C26 1.473(13)
C11 C12 1.411(19)
C12 C13 1.38(2)
C12 H12A 0.9500
C13 C14 1.415(19)
C13 H13A 0.9500
C14 C15 1.417(18)
C15 C16 1.390(18)
C15 C32 1.470(13)
C16 C17 1.42(2)
C17 C18 1.372(19)
C17 H17A 0.9500
C18 C19 1.396(19)
C18 H18A 0.9500
C20 C21 1.394(10)
C20 C25 1.397(10)
C21 C22 1.363(19)
C21 H21A 0.9500
C22 C23 1.39(2)
C22 H22A 0.9500
C23 C24 1.38(2)
C23 C38 1.45(2)
C24 C25 1.362(19)
C24 H24A 0.9500
C25 H25A 0.9500
C26 C27 1.392(10)
C26 C31 1.395(10)
C27 C28 1.375(18)
C27 H27A 0.9500
C28 C29 1.36(2)
C28 H28A 0.9500
C29 C30 1.37(2)
C29 C39 1.45(2)
C30 C31 1.39(2)
C30 H30A 0.9500
C31 H31A 0.9500
C32 C33 1.394(10)
C32 C37 1.396(10)
C33 C34 1.41(2)
C33 H33A 0.9500
C34 C35 1.37(2)
C34 H34A 0.9500
C35 C36 1.36(2)
C35 C40 1.50(2)
C36 C37 1.374(19)
C36 H36A 0.9500
C37 H37A 0.9500
C38 F3 1.302(17)
C38 F1 1.331(17)
C38 F2 1.342(17)
C39 F5 1.316(18)
C39 F6 1.338(17)
C39 F4 1.357(17)
C40 F7 1.333(18)
C40 F9 1.334(18)
C40 F8 1.342(18)
loop_
_geom_torsion_atom_site_label_1
_geom_torsion_atom_site_label_2
_geom_torsion_atom_site_label_3
_geom_torsion_atom_site_label_4
_geom_torsion
C4 N1 C1 C2 -6.5(15)
Ru1 N1 C1 C2 171.2(9)
C4 N1 C1 C19 176.5(11)
Ru1 N1 C1 C19 -5.7(15)
N1 C1 C2 C3 2.9(16)
C19 C1 C2 C3 178.2(17)
C1 C2 C3 C4 1.8(15)
C1 N1 C4 C5 -174.2(12)
Ru1 N1 C4 C5 8(2)
C1 N1 C4 C3 7.5(14)
Ru1 N1 C4 C3 -170.0(9)
C2 C3 C4 N1 -5.9(15)
C2 C3 C4 C5 176.0(14)
N1 C4 C5 C6 13.0(19)
C3 C4 C5 C6 -169.1(13)
N1 C4 C5 C20 -167.5(11)
C3 C4 C5 C20 10(2)
C4 C5 C6 N2 -7(2)
C20 C5 C6 N2 173.2(11)
C4 C5 C6 C7 163.9(13)
C20 C5 C6 C7 -15.7(19)
C9 N2 C6 C5 174.9(12)
Ru1 N2 C6 C5 -18.2(19)
C9 N2 C6 C7 2.2(14)
Ru1 N2 C6 C7 169.1(8)
C5 C6 C7 C8 -173.2(13)
N2 C6 C7 C8 -0.5(15)
C6 C7 C8 C9 -1.3(16)
C6 N2 C9 C10 -179.1(12)
Ru1 N2 C9 C10 13.8(18)
C6 N2 C9 C8 -3.0(14)
Ru1 N2 C9 C8 -170.1(8)
C7 C8 C9 N2 2.6(15)
C7 C8 C9 C10 178.8(13)
N2 C9 C10 C11 0(2)
C8 C9 C10 C11 -175.0(13)
N2 C9 C10 C26 -178.5(11)
C8 C9 C10 C26 6.1(19)
C14 N3 C11 C12 -6.9(15)
Ru1 N3 C11 C12 158.7(10)
C14 N3 C11 C10 176.0(12)
Ru1 N3 C11 C10 -18.4(19)
C9 C10 C11 N3 1(2)
C26 C10 C11 N3 -179.7(11)
C9 C10 C11 C12 -175.3(13)
C26 C10 C11 C12 3.6(19)
N3 C11 C12 C13 4.9(16)
C10 C11 C12 C13 -178.1(13)
C11 C12 C13 C14 -0.8(16)
C11 N3 C14 C13 6.4(14)
Ru1 N3 C14 C13 -159.3(9)
C11 N3 C14 C15 -176.8(12)
Ru1 N3 C14 C15 17.5(19)
C12 C13 C14 N3 -3.6(15)
C12 C13 C14 C15 179.5(12)
N3 C14 C15 C16 5(2)
C13 C14 C15 C16 -178.3(12)
N3 C14 C15 C32 -174.9(11)
C13 C14 C15 C32 1.5(19)
C19 N4 C16 C15 172.8(11)
Ru1 N4 C16 C15 -17.9(18)
C19 N4 C16 C17 -1.6(14)
Ru1 N4 C16 C17 167.7(9)
C14 C15 C16 N4 -5.3(18)
C32 C15 C16 N4 174.9(11)
C14 C15 C16 C17 167.1(14)
C32 C15 C16 C17 -13(2)
N4 C16 C17 C18 1.4(15)
C15 C16 C17 C18 -172.0(14)
C16 C17 C18 C19 -0.6(15)
C16 N4 C19 C18 1.3(14)
Ru1 N4 C19 C18 -169.5(9)
C16 N4 C19 C1 -176.9(11)
Ru1 N4 C19 C1 12.4(14)
C17 C18 C19 N4 -0.4(15)
C17 C18 C19 C1 177.0(16)
C2 C1 C19 N4 -179.6(17)
N1 C1 C19 N4 -4.3(15)
C2 C1 C19 C18 3(3)
N1 C1 C19 C18 178.4(15)
C6 C5 C20 C21 122.2(14)
C4 C5 C20 C21 -57.4(19)
C6 C5 C20 C25 -58.1(18)
C4 C5 C20 C25 122.4(15)
C25 C20 C21 C22 3(2)
C5 C20 C21 C22 -177.5(13)
C20 C21 C22 C23 -1(2)
C21 C22 C23 C24 -1(2)
C21 C22 C23 C38 175.5(14)
C22 C23 C24 C25 2(2)
C38 C23 C24 C25 -175.1(15)
C23 C24 C25 C20 0(2)
C21 C20 C25 C24 -2(2)
C5 C20 C25 C24 177.9(14)
C9 C10 C26 C27 60.5(18)
C11 C10 C26 C27 -118.4(15)
C9 C10 C26 C31 -118.0(15)
C11 C10 C26 C31 63.0(18)
C31 C26 C27 C28 2(2)
C10 C26 C27 C28 -176.6(14)
C26 C27 C28 C29 1(2)
C27 C28 C29 C30 -2(2)
C27 C28 C29 C39 179.1(14)
C28 C29 C30 C31 1(2)
C39 C29 C30 C31 179.8(15)
C29 C30 C31 C26 2(2)
C27 C26 C31 C30 -3(2)
C10 C26 C31 C30 175.5(14)
C16 C15 C32 C33 126.4(14)
C14 C15 C32 C33 -53.4(19)
C16 C15 C32 C37 -52.9(18)
C14 C15 C32 C37 127.3(14)
C37 C32 C33 C34 -1(2)
C15 C32 C33 C34 179.6(13)
C32 C33 C34 C35 1(2)
C33 C34 C35 C36 0(2)
C33 C34 C35 C40 179.3(14)
C34 C35 C36 C37 0(2)
C40 C35 C36 C37 -179.5(14)
C35 C36 C37 C32 0(2)
C33 C32 C37 C36 1(2)
C15 C32 C37 C36 -179.9(14)
C24 C23 C38 F3 73.6(19)
C22 C23 C38 F3 -102.9(18)
C24 C23 C38 F1 -164.4(14)
C22 C23 C38 F1 19(2)
C24 C23 C38 F2 -47(2)
C22 C23 C38 F2 136.3(15)
C28 C29 C39 F5 -27(2)
C30 C29 C39 F5 154.5(15)
C28 C29 C39 F6 95.2(18)
C30 C29 C39 F6 -83.3(19)
C28 C29 C39 F4 -147.5(15)
C30 C29 C39 F4 34(2)
C36 C35 C40 F7 -138.6(15)
C34 C35 C40 F7 42(2)
C36 C35 C40 F9 102.1(18)
C34 C35 C40 F9 -77.4(19)
C36 C35 C40 F8 -17(2)
C34 C35 C40 F8 163.9(14)
