#------------------------------------------------------------------------------
#$Date: 2019-11-10 19:12:35 +0200 (Sun, 10 Nov 2019) $
#$Revision: 226010 $
#$URL: file:///home/coder/svn-repositories/cod/cif/4/51/59/4515932.cif $
#------------------------------------------------------------------------------
#
# This file is available in the Crystallography Open Database (COD),
# http://www.crystallography.net/
#
# All data on this site have been placed in the public domain by the
# contributors.
#
data_4515932
loop_
_publ_author_name
'Alemayehu, Abraham B.'
'McCormick, Laura J.'
'Gagnon, Kevin J.'
'Borisov, Sergey M.'
'Ghosh, Abhik'
_publ_section_title
;
 Stable Platinum(IV) Corroles: Synthesis, Molecular Structure, and
 Room-Temperature Near-IR Phosphorescence.
;
_journal_issue                   8
_journal_name_full               'ACS omega'
_journal_page_first              9360
_journal_page_last               9368
_journal_paper_doi               10.1021/acsomega.8b01149
_journal_volume                  3
_journal_year                    2018
_chemical_formula_sum            'C49 H32 N6 Pt'
_chemical_formula_weight         899.89
_space_group_crystal_system      triclinic
_space_group_IT_number           2
_space_group_name_Hall           '-P 1'
_space_group_name_H-M_alt        'P -1'
_atom_sites_solution_hydrogens   geom
_atom_sites_solution_primary     dual
_atom_sites_solution_secondary   difmap
_audit_creation_method           SHELXL-2018/1
_cell_angle_alpha                109.102(3)
_cell_angle_beta                 95.415(3)
_cell_angle_gamma                90.850(3)
_cell_formula_units_Z            2
_cell_length_a                   9.4792(15)
_cell_length_b                   12.0922(19)
_cell_length_c                   16.675(3)
_cell_measurement_reflns_used    9564
_cell_measurement_temperature    173(2)
_cell_measurement_theta_max      31.71
_cell_measurement_theta_min      2.46
_cell_volume                     1795.9(5)
_computing_cell_refinement       'SAINT V8.38A Bruker-AXS, Madison WI'
_computing_data_collection       'Bruker APEX3 Bruker-AXS, Madison WI'
_computing_data_reduction        'SAINT V8.38A Bruker-AXS, Madison WI'
_computing_structure_refinement  'SHELXL-2018/1 (Sheldrick, 2018)'
_computing_structure_solution    'SHELXT 2014/5 Bruker-AXS, Madison WI'
_diffrn_ambient_temperature      173(2)
_diffrn_detector_area_resol_mean 10.42
_diffrn_measured_fraction_theta_full 0.988
_diffrn_measured_fraction_theta_max 0.986
_diffrn_measurement_device_type  'Bruker D8 with PHOTON 100 detector'
_diffrn_measurement_method       '\f and \w shutterless scans'
_diffrn_radiation_type           synchrotron
_diffrn_radiation_wavelength     0.7293
_diffrn_reflns_av_R_equivalents  0.1151
_diffrn_reflns_av_unetI/netI     0.0855
_diffrn_reflns_Laue_measured_fraction_full 0.988
_diffrn_reflns_Laue_measured_fraction_max 0.986
_diffrn_reflns_limit_h_max       13
_diffrn_reflns_limit_h_min       -13
_diffrn_reflns_limit_k_max       16
_diffrn_reflns_limit_k_min       -17
_diffrn_reflns_limit_l_max       24
_diffrn_reflns_limit_l_min       0
_diffrn_reflns_number            47230
_diffrn_reflns_point_group_measured_fraction_full 0.988
_diffrn_reflns_point_group_measured_fraction_max 0.986
_diffrn_reflns_theta_full        25.950
_diffrn_reflns_theta_max         31.857
_diffrn_reflns_theta_min         2.217
_diffrn_source
;
Advanced Light Source, station 11.3.1
;
_exptl_absorpt_coefficient_mu    4.199
_exptl_absorpt_correction_T_max  0.818
_exptl_absorpt_correction_T_min  0.513
_exptl_absorpt_correction_type   multi-scan
_exptl_absorpt_process_details   'TWINABS-2012/1 - Bruker AXS, Madison WI'
_exptl_crystal_colour            red-brown
_exptl_crystal_density_diffrn    1.664
_exptl_crystal_description       block
_exptl_crystal_F_000             892
_exptl_crystal_size_max          0.070
_exptl_crystal_size_mid          0.060
_exptl_crystal_size_min          0.050
_refine_diff_density_max         3.436
_refine_diff_density_min         -1.496
_refine_diff_density_rms         0.224
_refine_ls_extinction_method     none
_refine_ls_goodness_of_fit_ref   1.033
_refine_ls_hydrogen_treatment    constr
_refine_ls_matrix_type           full
_refine_ls_number_parameters     506
_refine_ls_number_reflns         11271
_refine_ls_number_restraints     0
_refine_ls_restrained_S_all      1.033
_refine_ls_R_factor_all          0.0865
_refine_ls_R_factor_gt           0.0583
_refine_ls_shift/su_max          0.001
_refine_ls_shift/su_mean         0.000
_refine_ls_structure_factor_coef Fsqd
_refine_ls_weighting_details
'w=1/[\s^2^(Fo^2^)+(0.0788P)^2^+3.0660P] where P=(Fo^2^+2Fc^2^)/3'
_refine_ls_weighting_scheme      calc
_refine_ls_wR_factor_gt          0.1336
_refine_ls_wR_factor_ref         0.1471
_reflns_Friedel_coverage         0.000
_reflns_number_gt                8809
_reflns_number_total             11271
_reflns_threshold_expression     'I > 2\s(I)'
_cod_data_source_file            ao8b01149_si_002.cif
_cod_data_source_block           PtTPC1
_cod_database_code               4515932
_shelx_shelxl_version_number     2018/1
_shelx_space_group_comment
;
The symmetry employed for this shelxl refinement is uniquely defined
by the following loop, which should always be used as a source of
symmetry information in preference to the above space-group names.
They are only intended as comments.
;
_shelx_estimated_absorpt_t_min   0.758
_shelx_estimated_absorpt_t_max   0.818
_shelx_res_file
;
TITL PtTPC_a.res in P-1
    twin5.res
    created by SHELXL-2018/1 at 10:32:18 on 14-Mar-2018
REM Old TITL PtTPC in P1
REM SHELXT solution in P-1
REM R1 0.089,  Rweak 0.018,  Alpha 0.041,  Orientation as input
REM Formula found by SHELXT:  C48 N7 Pt
CELL  0.7293  9.4792  12.0922  16.6750  109.102   95.415   90.850
ZERR   2.000   0.0015   0.0019   0.0026    0.003    0.003    0.003
LATT  1
SFAC C H N PT
DISP    H     0.00000    0.00000         0.67
DISP    C     0.00337    0.00172        11.94
DISP    N     0.00655    0.00352        20.61
DISP    Pt   -1.86035    8.77619     36971.55
UNIT 98 64 12 2
TEMP -100
L.S. 10
BOND $H
conf
LIST 4
SIZE 0.07 0.06 0.05
MERG 0
acta
FMAP 2
PLAN 20
WGHT    0.078800    3.066000
BASF   0.24312
FVAR       0.28587
PT1   4    0.275415    0.462394    0.755869    11.00000    0.02138    0.02174 =
         0.01936    0.00318   -0.00115   -0.00295
C1    1    0.491159    0.545107    0.893770    11.00000    0.01828    0.02702 =
         0.02331    0.00625   -0.00052   -0.00663
N1    3    0.463435    0.465732    0.814606    11.00000    0.02198    0.02585 =
         0.01888    0.00701   -0.00009   -0.00113
N2    3    0.308919    0.321657    0.660518    11.00000    0.02527    0.02226 =
         0.02094    0.00707   -0.00500   -0.00125
C2    1    0.621348    0.517298    0.929963    11.00000    0.02629    0.03106 =
         0.02145    0.00509   -0.00227   -0.00534
AFIX  43
H2    2    0.669264    0.558721    0.984549    11.00000   -1.20000
AFIX   0
N3    3    0.083991    0.479700    0.707974    11.00000    0.02686    0.01844 =
         0.02250    0.00300    0.00142   -0.00205
C3    1    0.665358    0.417555    0.870031    11.00000    0.02135    0.03238 =
         0.02507    0.01132    0.00051   -0.00064
AFIX  43
H3    2    0.748906    0.377882    0.877187    11.00000   -1.20000
AFIX   0
C6    1    0.433953    0.263228    0.656136    11.00000    0.02793    0.01862 =
         0.02694    0.01020    0.00236   -0.00158
C5    1    0.550108    0.286772    0.719296    11.00000    0.01965    0.02460 =
         0.02552    0.01069    0.00019   -0.00316
N4    3    0.266205    0.601305    0.855044    11.00000    0.02177    0.02272 =
         0.02454    0.00281   -0.00150    0.00238
C4    1    0.565367    0.384603    0.796486    11.00000    0.02234    0.02790 =
         0.02667    0.01232   -0.00091   -0.00296
C7    1    0.416536    0.171567    0.574918    11.00000    0.02719    0.02441 =
         0.02454    0.00561    0.00033    0.00199
AFIX  43
H7    2    0.486004    0.117518    0.552147    11.00000   -1.20000
AFIX   0
C8    1    0.285173    0.174368    0.535848    11.00000    0.02949    0.02449 =
         0.02204    0.00576    0.00022   -0.00019
AFIX  43
H8    2    0.246255    0.121933    0.481990    11.00000   -1.20000
AFIX   0
C9    1    0.214979    0.271039    0.590526    11.00000    0.02208    0.02463 =
         0.01796    0.00595   -0.00215   -0.00099
C10   1    0.078646    0.308327    0.576832    11.00000    0.02847    0.02010 =
         0.01985    0.00465   -0.00114   -0.00409
C11   1    0.018243    0.407959    0.631988    11.00000    0.02024    0.02158 =
         0.02186    0.00928    0.00014   -0.00476
C12   1   -0.118255    0.452670    0.619980    11.00000    0.02886    0.02482 =
         0.02677    0.00860   -0.00514   -0.00581
AFIX  43
H12   2   -0.187438    0.420030    0.572500    11.00000   -1.20000
AFIX   0
C13   1   -0.131919    0.549897    0.688204    11.00000    0.02729    0.02354 =
         0.02962    0.01078    0.00101    0.00185
AFIX  43
H13   2   -0.212349    0.596666    0.697225    11.00000   -1.20000
AFIX   0
C14   1   -0.000759    0.569154    0.744847    11.00000    0.01866    0.01884 =
         0.03044    0.00718   -0.00560   -0.00011
C15   1    0.033102    0.663201    0.821214    11.00000    0.02298    0.01919 =
         0.03212    0.00777   -0.00128   -0.00200
C16   1    0.163308    0.677962    0.874669    11.00000    0.03076    0.01957 =
         0.02708    0.00563    0.00697   -0.00267
C17   1    0.215143    0.761573    0.956057    11.00000    0.02846    0.02184 =
         0.02605   -0.00069    0.00603   -0.00575
AFIX  43
H17   2    0.167024    0.827860    0.987116    11.00000   -1.20000
AFIX   0
C18   1    0.347094    0.729276    0.981626    11.00000    0.02685    0.02560 =
         0.02458    0.00347    0.00043   -0.00762
AFIX  43
H18   2    0.404886    0.768864    1.033190    11.00000   -1.20000
AFIX   0
C19   1    0.380277    0.625655    0.916318    11.00000    0.02247    0.02810 =
         0.02443    0.00856   -0.00038   -0.00347
C20   1    0.661890    0.200888    0.709395    11.00000    0.02803    0.02330 =
         0.02354    0.01081    0.00205    0.00047
C21   1    0.626966    0.084301    0.698815    11.00000    0.02454    0.03058 =
         0.03642    0.01195    0.00257   -0.00105
AFIX  43
H21   2    0.530362    0.059518    0.695409    11.00000   -1.20000
AFIX   0
C22   1    0.732451    0.003440    0.693161    11.00000    0.04234    0.02719 =
         0.04030    0.01194    0.00250    0.00640
AFIX  43
H22   2    0.707788   -0.075770    0.686402    11.00000   -1.20000
AFIX   0
C23   1    0.871887    0.039046    0.697423    11.00000    0.03301    0.03487 =
         0.02919    0.00961    0.00005    0.00995
AFIX  43
H23   2    0.943381   -0.016307    0.692684    11.00000   -1.20000
AFIX   0
C24   1    0.909228    0.152705    0.708360    11.00000    0.02513    0.04436 =
         0.02826    0.00941    0.00154    0.00325
AFIX  43
H24   2    1.006388    0.176279    0.712261    11.00000   -1.20000
AFIX   0
C25   1    0.805242    0.234579    0.713849    11.00000    0.02895    0.02591 =
         0.02972    0.00791    0.00370    0.00008
AFIX  43
H25   2    0.831744    0.313453    0.720630    11.00000   -1.20000
AFIX   0
C26   1   -0.011089    0.241844    0.496603    11.00000    0.02326    0.02202 =
         0.01812    0.00717   -0.00196    0.00272
C27   1   -0.082836    0.137742    0.487925    11.00000    0.04901    0.02571 =
         0.02929    0.01203   -0.00963   -0.01159
AFIX  43
H27   2   -0.071295    0.106109    0.533186    11.00000   -1.20000
AFIX   0
C28   1   -0.170375    0.078787    0.415624    11.00000    0.04125    0.03204 =
         0.04414    0.01280   -0.00507   -0.00835
AFIX  43
H28   2   -0.220003    0.008092    0.411757    11.00000   -1.20000
AFIX   0
C29   1   -0.186517    0.122421    0.348009    11.00000    0.03811    0.03622 =
         0.02549    0.00362   -0.01070   -0.00065
AFIX  43
H29   2   -0.245669    0.081177    0.297387    11.00000   -1.20000
AFIX   0
C30   1   -0.115940    0.225917    0.355198    11.00000    0.04082    0.03112 =
         0.01987    0.01025   -0.00399    0.00765
AFIX  43
H30   2   -0.128241    0.256942    0.309642    11.00000   -1.20000
AFIX   0
C31   1   -0.026746    0.285801    0.428316    11.00000    0.04166    0.02238 =
         0.02335    0.00805   -0.00302   -0.00018
AFIX  43
H31   2    0.023372    0.356199    0.431989    11.00000   -1.20000
AFIX   0
C32   1   -0.072280    0.755502    0.848876    11.00000    0.03060    0.02036 =
         0.01993    0.00464    0.00275    0.00026
C33   1   -0.204811    0.728934    0.868565    11.00000    0.03118    0.02340 =
         0.03505    0.00977    0.00069   -0.00543
AFIX  43
H33   2   -0.230956    0.650330    0.862761    11.00000   -1.20000
AFIX   0
C34   1   -0.298760    0.815690    0.896466    11.00000    0.02641    0.03503 =
         0.03093    0.00856   -0.00024    0.00036
AFIX  43
H34   2   -0.388479    0.796371    0.910684    11.00000   -1.20000
AFIX   0
C35   1   -0.264811    0.929402    0.904027    11.00000    0.03349    0.02958 =
         0.03423    0.00179    0.00416    0.00709
AFIX  43
H35   2   -0.330747    0.988436    0.922877    11.00000   -1.20000
AFIX   0
C36   1   -0.131390    0.958002    0.883624    11.00000    0.06028    0.02102 =
         0.03499    0.00478    0.01657    0.00099
AFIX  43
H36   2   -0.107363    1.036166    0.887250    11.00000   -1.20000
AFIX   0
C37   1   -0.034876    0.870789    0.858078    11.00000    0.04053    0.02107 =
         0.03161    0.00374    0.01011   -0.00590
AFIX  43
H37   2    0.057023    0.890265    0.846888    11.00000   -1.20000
AFIX   0
N101  3    0.364067    0.572939    0.688024    11.00000    0.02150    0.02523 =
         0.03070    0.01289   -0.00170    0.00153
C102  1    0.434919    0.673346    0.733052    11.00000    0.04461    0.04069 =
         0.03696    0.02001   -0.00918   -0.01978
AFIX  43
H102  2    0.441309    0.696839    0.793552    11.00000   -1.20000
AFIX   0
C103  1    0.499594    0.745077    0.696278    11.00000    0.05935    0.05118 =
         0.04226    0.02402   -0.01189   -0.02669
AFIX  43
H103  2    0.550073    0.815676    0.730694    11.00000   -1.20000
AFIX   0
C104  1    0.489284    0.712051    0.608878    11.00000    0.03711    0.03913 =
         0.05017    0.02412   -0.00049   -0.00832
AFIX  43
H104  2    0.534129    0.758747    0.581663    11.00000   -1.20000
AFIX   0
C105  1    0.414662    0.612490    0.562320    11.00000    0.03282    0.04140 =
         0.03576    0.01818    0.00260    0.00658
AFIX  43
H105  2    0.404428    0.589293    0.501782    11.00000   -1.20000
AFIX   0
C106  1    0.351947    0.542989    0.603620    11.00000    0.02338    0.03567 =
         0.03278    0.00842    0.00174    0.00118
AFIX  43
H106  2    0.299568    0.472811    0.570261    11.00000   -1.20000
AFIX   0
C201  1    0.200377    0.364402    0.822545    11.00000    0.01747    0.02560 =
         0.01970    0.00360   -0.00167    0.00287
N202  3    0.358833    0.014121    0.871508    11.00000    0.05173    0.04578 =
         0.04370    0.01868   -0.00125   -0.00538
C202  1    0.267994    0.263817    0.823997    11.00000    0.02146    0.02571 =
         0.02230    0.00435   -0.00057   -0.00448
AFIX  43
H202  2    0.345250    0.238450    0.791168    11.00000   -1.20000
AFIX   0
C203  1    0.222370    0.200382    0.873585    11.00000    0.02614    0.02832 =
         0.02570    0.01042   -0.00208   -0.00769
C204  1    0.113266    0.234845    0.922847    11.00000    0.02543    0.03822 =
         0.02736    0.01479   -0.00244   -0.00740
AFIX  43
H204  2    0.084174    0.190996    0.956923    11.00000   -1.20000
AFIX   0
C205  1    0.046585    0.334882    0.921774    11.00000    0.02099    0.03665 =
         0.02458    0.00608    0.00157   -0.00161
AFIX  43
H205  2   -0.030563    0.359841    0.954775    11.00000   -1.20000
AFIX   0
C206  1    0.091565    0.400060    0.872458    11.00000    0.02017    0.03189 =
         0.02302    0.00577   -0.00403    0.00075
AFIX  43
H206  2    0.046119    0.469961    0.873562    11.00000   -1.20000
AFIX   0
C207  1    0.298184    0.097141    0.873337    11.00000    0.03258    0.02988 =
         0.02938    0.00741   -0.00338   -0.00486
HKLF 5




REM  PtTPC_a.res in P-1
REM R1 =  0.0583 for    8809 Fo > 4sig(Fo)  and  0.0865 for all   11271 data
REM    506 parameters refined using      0 restraints

END

WGHT      0.0788      3.0660

REM Highest difference peak  3.436,  deepest hole -1.496,  1-sigma level  0.224
Q1    1   0.3473  0.4312  0.7510  11.00000  0.05    3.44
Q2    1   0.2439  0.4207  0.7129  11.00000  0.05    2.99
Q3    1   0.2153  0.4678  0.7192  11.00000  0.05    2.85
Q4    1   0.3075  0.5092  0.7972  11.00000  0.05    2.85
Q5    1   0.3032  0.4984  0.7335  11.00000  0.05    2.16
Q6    1   0.1988  0.4761  0.7857  11.00000  0.05    2.14
Q7    1   0.2307  0.4311  0.7817  11.00000  0.05    1.58
Q8    1   0.3980  0.5053  0.7777  11.00000  0.05    1.22
Q9    1   0.1281  0.4820  0.8111  11.00000  0.05    1.17
Q10   1   0.1596  0.3381  0.7219  11.00000  0.05    1.09
Q11   1   0.1027  0.3864  0.8201  11.00000  0.05    1.07
Q12   1   0.4033  0.4362  0.6960  11.00000  0.05    1.00
Q13   1   0.0636  0.4581  0.8282  11.00000  0.05    0.94
Q14   1   0.6342  0.3722  0.8230  11.00000  0.05    0.93
Q15   1   0.2446  0.3757  0.6535  11.00000  0.05    0.91
Q16   1   0.3147  0.6085  0.6878  11.00000  0.05    0.87
Q17   1   0.0257  0.6127  0.7815  11.00000  0.05    0.87
Q18   1   0.3375  0.3723  0.6593  11.00000  0.05    0.87
Q19   1   0.0610  0.5169  0.6836  11.00000  0.05    0.86
Q20   1   0.4753  0.4614  0.6843  11.00000  0.05    0.84
;
_shelx_res_checksum              4003
_shelx_hkl_file
;
   1   0   0 2.19197 1.10665   1
   2   0   0 1439.83 49.5028  -2
   2   0   0 1439.83 49.5028   1
   3   0   0 402.286 7.30663   1
   4   0   0 544.650 11.4282   1
   5   0   1 583.457 13.8960  -2
   5   0   0 583.457 13.8960   1
   6   0   1 246.357 8.74398  -2
   6   0   0 246.357 8.74398   1
   7   0   1 287.035 8.60500  -2
   7   0   0 287.035 8.60500   1
   8   0   1 130.672 8.91733  -2
   8   0   0 130.672 8.91733   1
   9   0   1 151.958 10.0764  -2
   9   0   0 151.958 10.0764   1
  11   0   2 228.023 13.8052  -2
  11   0   0 228.023 13.8052   1
  12   0   2 21.2640 11.7501  -2
  12   0   0 21.2640 11.7501   1
  13   0   2 74.9689 13.1020  -2
  13   0   0 74.9689 13.1020   1
  13  -1   2 32.9971 12.4596  -2
 -13   1   0 32.9971 12.4596   1
  12  -1   2 -3.1992 11.4966  -2
 -12   1   0 -3.1992 11.4966   1
  11  -1   2 129.702 11.9612  -2
 -11   1   0 129.702 11.9612   1
   9  -1   1 112.281 9.91711  -2
  -9   1   0 112.281 9.91711   1
   8  -1   1 53.4134 6.14510  -2
  -8   1   0 53.4134 6.14510   1
   7  -1   1 413.951 10.7518  -2
  -7   1   0 413.951 10.7518   1
   6  -1   1 176.778 7.95729  -2
  -6   1   0 176.778 7.95729   1
   5  -1   1 945.449 16.8024  -2
  -5   1   0 945.449 16.8024   1
  -4   1   0 172.227 5.02141   1
  -3   1   0 1815.45 47.6403  -2
  -3   1   0 1815.45 47.6403   1
  -2   1   0 395.232 10.5951  -2
  -2   1   0 395.232 10.5951   1
  -1   1   0 773.854 12.9898  -2
  -1   1   0 773.854 12.9898   1
   1   1   0 14.7705 15.1805  -2
   1   1   0 14.7705 15.1805   1
   2   1   0 162.079 6.20331   1
   3   1   0 4.51556 2.23492   1
   4   1   1 1581.24 99.8751  -2
   4   1   0 1581.24 99.8751   1
   5   1   1 272.635 42.4637  -2
   5   1   0 272.635 42.4637   1
   6   1   1 394.721 18.1702  -2
   6   1   0 394.721 18.1702   1
   7   1   1 172.647 13.9453  -2
   7   1   0 172.647 13.9453   1
   8   1   1 187.606 15.1314  -2
   8   1   0 187.606 15.1314   1
   9   1   0 259.193 10.8792   1
  10   1   0 10.6533 5.72030   1
  11   1   2 203.723 13.6757  -2
  11   1   0 203.723 13.6757   1
  12   1   2 -4.9695 11.1381  -2
  12   1   0 -4.9695 11.1381   1
  13   1   2 107.335 13.8562  -2
  13   1   0 107.335 13.8562   1
  13  -2   2 25.0429 12.3878  -2
 -13   2   0 25.0429 12.3878   1
  12  -2   2 42.8315 21.6548  -2
 -12   2   0 42.8315 21.6548   1
  10  -2   1 104.096 17.8682  -2
 -10   2   0 104.096 17.8682   1
   9  -2   1 233.609 11.7338  -2
  -9   2   0 233.609 11.7338   1
   8  -2   1 72.2791 7.61767  -2
  -8   2   0 72.2791 7.61767   1
   7  -2   1 420.108 12.9869  -2
  -7   2   0 420.108 12.9869   1
   6  -2   1 133.214 5.76759  -2
  -6   2   0 133.214 5.76759   1
   5  -2   1 707.551 16.4471  -2
  -5   2   0 707.551 16.4471   1
  -4   2   0 5.69563 2.27548   1
  -3   2   0 1218.10 28.2242  -2
  -3   2   0 1218.10 28.2242   1
  -2   2   0 3623.25 54.3723  -2
  -2   2   0 3623.25 54.3723   1
  -1   2   0 596.603 12.3505  -2
  -1   2   0 596.603 12.3505   1
   0   2   0 401.214 11.3734  -2
   0   2   0 401.214 11.3734   1
   1   2   0 22.9984 15.6839  -2
   1   2   0 22.9984 15.6839   1
   2   2   0 120.347 2.80491   1
   3   2   0 48.4212 1.87190   1
   4   2   1 432.885 43.5426  -2
   4   2   0 432.885 43.5426   1
   5   2   1 405.546 18.0409  -2
   5   2   0 405.546 18.0409   1
   6   2   1 224.890 14.1867  -2
   6   2   0 224.890 14.1867   1
   7   2   1 224.244 14.5978  -2
   7   2   0 224.244 14.5978   1
   8   2   0 184.239 12.7380   1
   9   2   0 307.024 11.5461   1
  10   2   0 73.1232 7.51067   1
  11   2   2 213.118 13.9350  -2
  11   2   0 213.118 13.9350   1
  12   2   2 -2.7212 11.5697  -2
  12   2   0 -2.7212 11.5697   1
  13   2   2 40.8902 13.5250  -2
  13   2   0 40.8902 13.5250   1
  13  -3   2 20.0396 12.4057  -2
 -13   3   0 20.0396 12.4057   1
  12  -3   2 93.0432 13.5557  -2
 -12   3   0 93.0432 13.5557   1
  11  -3   2 48.1789 15.3655  -2
 -11   3   0 48.1789 15.3655   1
  10  -3   1 82.6395 17.2144  -2
 -10   3   0 82.6395 17.2144   1
   9  -3   1 198.098 11.2851  -2
  -9   3   0 198.098 11.2851   1
   8  -3   1 87.0337 7.83574  -2
  -8   3   0 87.0337 7.83574   1
   7  -3   1 148.030 6.86507  -2
  -7   3   0 148.030 6.86507   1
   6  -3   1 211.649 8.41734  -2
  -6   3   0 211.649 8.41734   1
  -5   3   0 861.201 30.5783   1
  -4   3   0 -1.7413 6.44038  -2
  -4   3   0 -1.7413 6.44038   1
  -3   3   0 1268.37 30.3324  -2
  -3   3   0 1268.37 30.3324   1
  -2   3   0 710.656 14.8319  -2
  -2   3   0 710.656 14.8319   1
  -1   3   0 334.901 8.51227  -2
  -1   3   0 334.901 8.51227   1
   0   3   0 888.635 25.0716  -2
   0   3   0 888.635 25.0716   1
   1   3   0 128.040 33.6068  -2
   1   3   0 128.040 33.6068   1
   2   3   0 538.765 9.57283   1
   3   3   0 83.1608 2.78800   1
   4   3   1 725.917 81.0822  -2
   4   3   0 725.917 81.0822   1
   5   3   1 245.758 15.3775  -2
   5   3   0 245.758 15.3775   1
   6   3   1 518.663 22.7043  -2
   6   3   0 518.663 22.7043   1
   7   3   0 80.2612 9.21731   1
   8   3   0 264.385 10.2746   1
   9   3   0 81.4821 7.97080   1
  10   3   0 21.1262 9.47430   1
  11   3   2 170.525 17.8873  -2
  11   3   0 170.525 17.8873   1
  12   3   2 17.5028 12.6025  -2
  12   3   0 17.5028 12.6025   1
  13   3   2 36.6083 19.9728  -2
  13   3   0 36.6083 19.9728   1
  13  -4   2 30.9272 13.9231  -2
 -13   4   0 30.9272 13.9231   1
  10  -4   1 125.570 12.1302  -2
 -10   4   0 125.570 12.1302   1
   9  -4   1 102.891 10.8671  -2
  -9   4   0 102.891 10.8671   1
   8  -4   1 146.901 8.27211  -2
  -8   4   0 146.901 8.27211   1
   7  -4   1 154.834 8.76123  -2
  -7   4   0 154.834 8.76123   1
   6  -4   1 285.731 13.6644  -2
  -6   4   0 285.731 13.6644   1
   5  -4   1 929.779 31.7978  -2
  -5   4   0 929.779 31.7978   1
  -4   4   0 98.1130 8.30535  -2
  -4   4   0 98.1130 8.30535   1
  -3   4   0 352.865 46.4856  -2
  -3   4   0 352.865 46.4856   1
  -2   4   0 183.235 6.33558  -2
  -2   4   0 183.235 6.33558   1
  -1   4   0 1149.27 23.5118  -2
  -1   4   0 1149.27 23.5118   1
   0   4   0 1293.82 36.0476  -2
   0   4   0 1293.82 36.0476   1
   1   4   0 254.186 5.58961   1
   2   4   0 481.737 9.17563   1
   3   4   0 225.808 4.98395   1
   4   4   1 377.960 14.1418  -2
   4   4   0 377.960 14.1418   1
   5   4   0 13.7578 4.87853   1
   6   4   0 449.113 19.5058   1
   7   4   0 11.9347 4.33022   1
   8   4   0 483.880 14.8803   1
  10   4   0 100.534 8.83042   1
  11   4   0 75.5184 12.3325   1
  12   4   2 -10.098 12.8751  -2
  12   4   0 -10.098 12.8751   1
  13   4   0 56.7347 8.53336   1
  13  -5   2 15.3354 12.4633  -2
 -13   5   0 15.3354 12.4633   1
  12  -5   1 127.988 27.0240  -2
 -12   5   0 127.988 27.0240   1
  11  -5   1 25.0781 12.8509  -2
 -11   5   0 25.0781 12.8509   1
  10  -5   1 150.426 11.6801  -2
 -10   5   0 150.426 11.6801   1
   9  -5   1 165.866 10.3667  -2
  -9   5   0 165.866 10.3667   1
   8  -5   1 254.564 10.4890  -2
  -8   5   0 254.564 10.4890   1
   7  -5   1 340.723 10.6561  -2
  -7   5   0 340.723 10.6561   1
   6  -5   1 292.780 9.69395  -2
  -6   5   0 292.780 9.69395   1
  -5   5   0 888.672 30.7369  -2
  -5   5   0 888.672 30.7369   1
  -4   5   0 9.37686 3.91081   1
  -3   5   0 356.656 9.61469  -2
  -3   5   0 356.656 9.61469   1
  -2   5   0 -0.3670 33.4672  -2
  -2   5   0 -0.3670 33.4672   1
  -1   5   0 1161.66 59.5349  -2
  -1   5   0 1161.66 59.5349   1
   0   5   0 125.261 3.48739   1
   1   5   0 667.502 12.4335   1
   2   5   0 58.5056 2.93738   1
   3   5   0 357.116 7.74505   1
   4   5   0 428.945 9.76757   1
   5   5   0 109.306 5.28786   1
   6   5   0 438.519 13.4572   1
   7   5   0 36.9190 5.52331   1
   8   5   0 182.892 9.20451   1
   9   5   0 45.9219 6.52272   1
  10   5   0 182.709 10.4344   1
  11   5   0 16.9723 6.20833   1
  12   5   0 43.7329 8.04003   1
  12  -6   1 77.6206 19.2261  -2
 -12   6   0 77.6206 19.2261   1
  11  -6   1 22.0619 15.4738  -2
 -11   6   0 22.0619 15.4738   1
  10  -6   1 98.6589 12.9163  -2
 -10   6   0 98.6589 12.9163   1
   9  -6   1 117.637 21.8337  -2
  -9   6   0 117.637 21.8337   1
   8  -6   1 348.341 14.3027  -2
  -8   6   0 348.341 14.3027   1
   7  -6   1 243.202 11.6558  -2
  -7   6   0 243.202 11.6558   1
   6  -6   1 172.942 14.5849  -2
  -6   6   0 172.942 14.5849   1
  -5   6   0 620.498 23.6011  -2
  -5   6   0 620.498 23.6011   1
  -4   6   0 166.533 10.6320  -2
  -4   6   0 166.533 10.6320   1
  -3   6   0 753.358 28.6251  -2
  -3   6   0 753.358 28.6251   1
  -2   6   0 112.411 7.09958  -2
  -2   6   0 112.411 7.09958   1
  -1   6   0 1128.34 104.166  -2
  -1   6   0 1128.34 104.166   1
   0   6   0 35.4850 2.75051   1
   1   6   0 679.668 13.0818   1
   2   6   0 150.531 7.05333   1
   3   6   0 318.541 7.96742   1
   4   6   0 169.396 5.73526   1
   5   6   0 129.826 5.48411   1
   6   6   0 404.339 12.6321   1
   7   6   0 22.2535 4.90154   1
   8   6   0 178.153 9.51071   1
   9   6   0 12.3288 5.78674   1
  10   6   0 137.061 9.52720   1
  11   6   0 5.23699 6.35108   1
  12   6   0 55.1805 8.38146   1
  12  -7   1 43.7110 17.6941  -2
 -12   7   0 43.7110 17.6941   1
  11  -7   1 54.1226 15.7319  -2
 -11   7   0 54.1226 15.7319   1
  10  -7   1 167.751 14.4468  -2
 -10   7   0 167.751 14.4468   1
   9  -7   1 106.686 22.6249  -2
  -9   7   0 106.686 22.6249   1
   8  -7   1 231.413 13.0631  -2
  -8   7   0 231.413 13.0631   1
   7  -7   1 72.7545 9.59718  -2
  -7   7   0 72.7545 9.59718   1
  -6   7   0 227.510 15.4232  -2
  -6   7   0 227.510 15.4232   1
  -5   7   0 174.799 12.5603  -2
  -5   7   0 174.799 12.5603   1
  -4   7   0 310.732 15.0105  -2
  -4   7   0 310.732 15.0105   1
  -3   7   0 364.135 15.9622  -2
  -3   7   0 364.135 15.9622   1
  -2   7   0 132.334 7.58138  -2
  -2   7   0 132.334 7.58138   1
  -1   7   0 761.147 15.4397   1
   0   7   0 63.1504 3.67782   1
   1   7   0 912.589 18.3088   1
   2   7   0 224.877 6.56988   1
   3   7   0 508.027 11.5869   1
   4   7   0 72.8568 6.02391   1
   5   7   0 279.533 8.24723   1
   6   7   0 197.412 7.37819   1
   7   7   0 69.3874 6.84215   1
   8   7   0 155.326 9.71844   1
   9   7   0 0.81056 6.83732   1
  10   7   0 129.023 9.86351   1
  11   7   0 -2.3858 6.27835   1
  12   7   0 41.1168 8.12049   1
  12  -8   1 30.3018 17.9239  -2
 -12   8   0 30.3018 17.9239   1
  11  -8   1 29.1700 15.8133  -2
 -11   8   0 29.1700 15.8133   1
  10  -8   1 169.754 15.8309  -2
 -10   8   0 169.754 15.8309   1
   9  -8   1 83.1165 15.4633  -2
  -9   8   0 83.1165 15.4633   1
   8  -8   1 120.458 19.0938  -2
  -8   8   0 120.458 19.0938   1
   7  -8   1 3.78837 15.0734  -2
  -7   8   0 3.78837 15.0734   1
  -6   8   0 236.080 15.9941  -2
  -6   8   0 236.080 15.9941   1
  -5   8   0 40.4838 11.0685  -2
  -5   8   0 40.4838 11.0685   1
  -4   8   0 376.186 17.8532  -2
  -4   8   0 376.186 17.8532   1
  -3   8   0 134.612 11.2197  -2
  -3   8   0 134.612 11.2197   1
  -2   8   0 203.163 6.17388   1
  -1   8   0 300.402 7.75759   1
   0   8   0 47.6812 3.75065   1
   1   8   0 509.057 11.6303   1
   2   8   0 -0.5777 2.52465   1
   3   8   0 410.292 10.6087   1
   4   8   0 105.806 5.84179   1
   5   8   0 418.535 11.0513   1
   6   8   0 274.579 9.18403   1
   7   8   0 152.926 13.6550   1
   8   8   0 97.5073 8.46696   1
   9   8   0 26.8166 6.28328   1
  10   8   0 117.583 10.1475   1
  11   8   0 -9.1766 5.93610   1
  11  -9   1 14.2269 18.4459  -2
 -11   9   0 14.2269 18.4459   1
  10  -9   1 115.467 15.9675  -2
 -10   9   0 115.467 15.9675   1
   9  -9   1 44.6217 13.8029  -2
  -9   9   0 44.6217 13.8029   1
   8  -9   1 101.689 17.8672  -2
  -8   9   0 101.689 17.8672   1
  -7   9   0 0.57142 7.64252   1
  -6   9   0 96.2035 14.0120  -2
  -6   9   0 96.2035 14.0120   1
  -5   9   0 1.28189 11.7372  -2
  -5   9   0 1.28189 11.7372   1
  -4   9   0 179.305 8.63720  -2
  -4   9   0 179.305 8.63720   1
  -3   9   0 33.3566 10.3216  -2
  -3   9   0 33.3566 10.3216   1
  -2   9   0 230.870 7.00541   1
  -1   9   0 351.260 8.99019   1
   0   9   0 110.597 5.22826   1
   1   9   0 217.807 7.08650   1
   2   9   0 2.36451 3.03090   1
   3   9   0 255.894 8.19583   1
   4   9   0 -1.0922 3.41565   1
   5   9   0 242.201 10.5212   1
   6   9   0 92.6473 11.8114   1
   7   9   0 138.737 22.9352   1
   8   9   0 53.7547 6.79402   1
   9   9   0 75.5939 8.32999   1
  10   9   0 92.3450 9.14718   1
  11   9   0 7.00249 6.88911   1
 -11  10   0 20.9796 17.1938   1
  10 -10   1 47.5615 15.1301  -2
 -10  10   0 47.5615 15.1301   1
   9 -10   1 76.4810 22.8494  -2
  -9  10   0 76.4810 22.8494   1
   8 -10   1 95.5777 20.8462  -2
  -8  10   0 95.5777 20.8462   1
   7 -10   1 13.0672 17.2237  -2
  -7  10   0 13.0672 17.2237   1
  -6  10   0 186.254 17.1945  -2
  -6  10   0 186.254 17.1945   1
  -5  10   0 -21.792 12.5193  -2
  -5  10   0 -21.792 12.5193   1
  -4  10   0 113.913 5.86258   1
  -3  10   0 95.0726 5.44578   1
  -2  10   0 98.7159 5.33594   1
  -1  10   0 296.715 8.59390   1
   0  10   0 194.815 6.99211   1
   1  10   0 234.780 7.82389   1
   2  10   0 57.2590 5.06425   1
   3  10   0 212.370 8.03405   1
   4  10   0 18.5527 4.48376   1
   5  10   0 284.795 12.4440   1
   6  10   0 12.8964 5.85811   1
   7  10   0 139.722 14.8181   1
   8  10   0 6.13516 6.05866   1
   9  10   0 40.4181 7.58474   1
  10  10   0 45.6290 7.92904   1
 -10  11   0 20.7328 9.33297   1
   9 -11   1 71.0484 24.2020  -2
  -9  11   0 71.0484 24.2020   1
   8 -11   1 -11.123 20.5283  -2
  -8  11   0 -11.123 20.5283   1
  -7  11   0 -2.1541 15.3967  -2
  -7  11   0 -2.1541 15.3967   1
  -6  11   0 36.3735 10.5006   1
  -5  11   0 12.0314 6.38621   1
  -4  11   0 222.270 14.3246   1
  -3  11   0 -1.2604 4.86293   1
  -2  11   0 214.339 8.12773   1
  -1  11   0 1.25642 3.45216   1
   0  11   0 188.254 7.40786   1
   1  11   0 251.433 8.65726   1
   2  11   0 183.843 7.78127   1
   3  11   0 125.901 7.27394   1
   4  11   0 46.2496 5.85718   1
   5  11   0 118.762 8.06761   1
   6  11   0 9.92874 6.31320   1
   7  11   0 123.034 14.8437   1
   8  11   0 -10.735 9.74952   1
   9  11   0 96.1826 14.7749   1
  -9  12   0 14.2973 8.41277   1
  -8  12   0 13.7584 7.70559   1
  -7  12   0 22.9070 7.67889   1
  -6  12   0 53.4725 8.34434   1
  -5  12   0 35.0420 7.13460   1
  -4  12   0 144.127 10.5394   1
  -3  12   0 1.65786 5.47293   1
  -2  12   0 128.445 9.53801   1
  -1  12   0 -3.2820 5.19623   1
   0  12   0 114.893 7.19983   1
   1  12   0 19.8217 4.75363   1
   2  12   0 85.8620 6.83134   1
   3  12   0 8.45038 5.10637   1
   4  12   0 11.9860 5.21508   1
   5  12   0 123.326 8.82846   1
   6  12   0 3.13495 6.63615   1
   6  12   2 81.4752 17.2896  -2
   7  12   0 81.4752 17.2896   1
   8  12   0 -5.5467 10.8205   1
  -8  13   0 5.92156 7.77895   1
  -7  13   0 35.3939 8.13696   1
  -6  13   0 48.2422 11.5720   1
  -5  13   0 52.8698 8.42936   1
  -4  13   0 95.8340 9.44558   1
  -3  13   0 28.3933 7.03658   1
  -2  13   0 125.504 10.0403   1
  -1  13   0 -6.1429 5.89430   1
   0  13   0 152.171 10.4762   1
   1  13   0 14.7791 6.41313   1
   2  13   0 73.2971 7.67303   1
   3  13   0 3.60999 5.20386   1
   4  13   0 35.9482 6.57814   1
   5  13   0 105.610 8.80441   1
   5  13   2 49.7495 18.3410  -2
   6  13   0 49.7495 18.3410   1
   6  13   2 88.7629 18.7127  -2
   7  13   0 88.7629 18.7127   1
  -7  14   0 52.6565 9.03535   1
  -6  14   0 4.29205 7.29213   1
  -5  14   0 49.2857 8.47753   1
  -4  14   0 15.3068 7.09846   1
  -3  14   0 26.3599 7.60251   1
  -2  14   0 60.9102 8.20427   1
  -1  14   0 4.77799 6.47796   1
   0  14   0 165.317 11.3053   1
   1  14   0 -2.6999 6.42354   1
   2  14   0 134.071 11.0714   1
   2  14   1 15.3912 14.9781  -2
   3  14   0 15.3912 14.9781   1
   4  14   0 138.722 10.1068   1
   5  14   0 76.1187 9.81996   1
   5  14   2 103.081 19.7541  -2
   6  14   0 103.081 19.7541   1
  -6  15   0 -1.0918 7.38102   1
  -5  15   0 45.2123 8.38009   1
  -4  15   0 7.96687 7.05989   1
  -3  15   0 34.6940 7.84947   1
  -2  15   0 45.9991 8.03391   1
  -1  15   0 28.4334 7.89158   1
   0  15   0 112.025 10.8257   1
   1  15   0 -4.6505 6.95227   1
   2  15   0 68.5913 8.81131   1
   2  15   1 -14.860 14.9549  -2
   3  15   0 -14.860 14.9549   1
   3  15   1 194.822 21.6869  -2
   4  15   0 194.822 21.6869   1
   5  15   0 3.77699 9.19850   1
  -3  16   0 45.7749 8.47330   1
  -2  16   0 4.41087 7.48560   1
  -1  16   0 32.3951 8.20856   1
   0  16   0 33.8631 8.67101   1
   1  16   0 2.05937 7.39622   1
   2  16   0 43.3274 9.14516   1
   2  16   0 101.690 18.2834  -2
  -3 -16   1 101.690 18.2834   1
  -2 -16   1 5.95764 7.74059   1
  -1 -16   1 59.7217 9.15809   1
   0 -16   1 22.7587 7.84869   1
   1 -16   1 6.15138 7.30686   1
   2 -16   1 23.4120 7.78066   1
   3 -16   1 -2.3050 7.00097   1
   4 -16   1 59.3160 9.51606   1
   4  15   1 96.9978 18.9865  -2
  -5 -15   1 96.9978 18.9865   1
  -4 -15   1 -5.2219 7.83259   1
   2  15   0 120.927 16.2062  -2
  -3 -15   1 120.927 16.2062   1
  -2 -15   1 6.76451 7.16980   1
  -1 -15   1 99.1677 10.2498   1
   0 -15   1 11.5671 6.90420   1
   1 -15   1 78.8429 9.46978   1
   2 -15   1 21.4144 6.92856   1
   3 -15   1 5.89911 6.74583   1
   4 -15   1 45.6150 7.99135   1
   5 -15   1 10.3884 7.08036   1
   6 -15   1 38.4789 8.51443   1
   6  14   1 44.5006 17.7029  -2
  -7 -14   1 44.5006 17.7029   1
   5  14   1 45.7092 18.0295  -2
  -6 -14   1 45.7092 18.0295   1
  -5 -14   1 113.535 10.9673   1
  -4 -14   1 18.4332 6.58750   1
  -3 -14   1 95.5067 10.0160   1
  -2 -14   1 2.16092 6.72023   1
  -1 -14   1 137.199 10.7422   1
   0 -14   1 9.57413 6.17639   1
   1 -14   1 138.748 10.5056   1
   2 -14   1 37.6456 7.05699   1
   3 -14   1 90.9302 9.56992   1
   4 -14   1 47.4809 8.06169   1
   5 -14   1 54.9312 8.55336   1
   6 -14   1 37.0260 7.86130   1
   7 -14   1 5.96929 7.48790   1
  -8 -13   1 69.3002 15.3556   1
   6  13   1 22.9797 17.0655  -2
  -7 -13   1 22.9797 17.0655   1
  -6 -13   1 80.7585 8.81233   1
  -5 -13   1 15.4995 6.05274   1
  -4 -13   1 50.8345 6.23876   1
  -3 -13   1 46.9856 6.45138   1
  -2 -13   1 22.1553 5.40658   1
  -1 -13   1 166.414 10.5344   1
   0 -13   1 10.6856 5.96544   1
   1 -13   1 63.5714 7.78416   1
   2 -13   1 18.6725 6.11760   1
   3 -13   1 118.288 9.54469   1
   4 -13   1 63.6715 7.93628   1
   5 -13   1 27.7520 7.40743   1
   6 -13   1 48.6086 7.77379   1
   7 -13   1 29.1318 17.8148  -2
   7 -13   1 29.1318 17.8148   1
   8 -13   1 25.4665 8.41287   1
   9 -13   2 24.0571 24.1740  -2
   9 -13   1 24.0571 24.1740   1
  -9 -12   1 -4.9853 10.9941   1
  -8 -12   1 39.3336 12.1493   1
  -7 -12   1 42.1938 7.56697   1
  -6 -12   1 55.1188 7.76670   1
  -5 -12   1 21.7852 5.61907   1
  -4 -12   1 82.1417 6.72905   1
  -3 -12   1 90.3098 6.99064   1
  -2 -12   1 45.9161 7.01654   1
  -1 -12   1 212.207 10.5339   1
   0 -12   1 11.1827 5.44472   1
   1 -12   1 90.6398 8.29544   1
   2 -12   1 4.73485 6.59633   1
   3 -12   1 140.896 9.45173   1
   4 -12   1 22.2919 6.07741   1
   5 -12   1 202.006 17.8712  -2
   5 -12   1 202.006 17.8712   1
   6 -12   1 20.8644 16.0978  -2
   6 -12   1 20.8644 16.0978   1
   7 -12   1 43.8744 17.1399  -2
   7 -12   1 43.8744 17.1399   1
   8 -12   2 48.9632 20.6927  -2
   8 -12   1 48.9632 20.6927   1
   9 -12   2 -19.008 23.3412  -2
   9 -12   1 -19.008 23.3412   1
  -9 -11   1 1.18702 6.31860   1
  -8 -11   1 82.2250 13.0080   1
  -7 -11   1 8.65575 6.51021   1
  -6 -11   1 126.393 9.76079   1
  -5 -11   1 17.1442 5.06199   1
  -4 -11   1 88.8858 7.29939   1
  -3 -11   1 121.068 7.03467   1
  -2 -11   1 164.832 7.40381   1
  -1 -11   1 192.335 7.61140   1
   0 -11   1 124.496 6.40486   1
   1 -11   1 166.707 6.76912   1
   2 -11   1 2.29888 4.82319   1
   3 -11   1 152.873 9.17262   1
   4 -11   1 3.64857 12.2016  -2
   4 -11   1 3.64857 12.2016   1
   5 -11   1 118.966 13.6778   1
   6 -11   1 0.15588 14.0975  -2
   6 -11   1 0.15588 14.0975   1
   7 -11   2 47.4908 18.4883  -2
   7 -11   1 47.4908 18.4883   1
   7 -11   1 47.3479 16.2789  -2
   7 -11   1 47.3479 16.2789   1
   8 -11   2 11.5115 19.7906  -2
   8 -11   1 11.5115 19.7906   1
   8 -11   1 4.20360 16.9267  -2
   8 -11   1 4.20360 16.9267   1
   9 -11   2 24.6680 14.3829  -2
   9 -11   1 24.6680 14.3829   1
  10 -11   2 -8.8172 14.8106  -2
  10 -11   1 -8.8172 14.8106   1
 -10 -10   1 65.9585 8.18087   1
  -9 -10   1 10.3478 6.53803   1
  -8 -10   1 98.3704 8.75202   1
  -7 -10   1 56.7646 9.66044   1
  -6 -10   1 249.525 11.2808   1
  -5 -10   1 4.16001 4.04461   1
  -4 -10   1 132.131 6.93435   1
  -3 -10   1 78.8462 5.78216   1
  -2 -10   1 344.405 9.67358   1
  -1 -10   1 96.8966 5.65341   1
   0 -10   1 209.158 7.04838   1
   1 -10   1 155.989 5.94226   1
   2 -10   1 -1.7442 2.70625   1
   3 -10   1 449.882 20.6408  -2
   3 -10   1 449.882 20.6408   1
   4 -10   1 6.87382 11.4632  -2
   4 -10   1 6.87382 11.4632   1
   5 -10   1 221.468 15.9943  -2
   5 -10   1 221.468 15.9943   1
   6 -10   1 -7.5078 12.5977  -2
   6 -10   1 -7.5078 12.5977   1
   7 -10   2 103.661 18.5340  -2
   7 -10   1 103.661 18.5340   1
   8 -10   2 15.3283 19.4213  -2
   8 -10   1 15.3283 19.4213   1
   9 -10   2 45.9265 13.6421  -2
   9 -10   1 45.9265 13.6421   1
  10 -10   2 63.1420 14.7491  -2
  10 -10   1 63.1420 14.7491   1
  11 -10   2 111.027 33.6494  -2
  11 -10   1 111.027 33.6494   1
 -11  -9   1 142.195 10.9635   1
 -10  -9   1 17.3691 6.67841   1
  -9  -9   1 58.1943 8.00904   1
  -8  -9   1 111.052 9.52626   1
  -7  -9   1 126.412 13.1693   1
  -6  -9   1 293.529 9.70517   1
  -5  -9   1 23.0804 4.59114   1
  -4  -9   1 259.989 8.32369   1
  -3  -9   1 -2.5315 2.91143   1
  -2  -9   1 482.999 11.6149   1
  -1  -9   1 100.822 6.76828   1
   0  -9   1 243.675 7.18434   1
   1  -9   1 194.139 6.21466   1
   2  -9   1 385.281 20.6950  -2
   2  -9   1 385.281 20.6950   1
   3  -9   1 93.5219 5.73450  -2
   3  -9   1 93.5219 5.73450   1
   4  -9   1 4.37428 5.93166  -2
   4  -9   1 4.37428 5.93166   1
   5  -9   1 281.590 10.7240  -2
   5  -9   1 281.590 10.7240   1
   6  -9   1 -9.6706 6.19362   1
   7  -9   2 120.448 17.7224  -2
   7  -9   1 120.448 17.7224   1
   7  -9   1 174.516 17.0044  -2
   7  -9   1 174.516 17.0044   1
   8  -9   2 3.01028 14.4964  -2
   8  -9   1 3.01028 14.4964   1
   9  -9   2 95.8584 13.5917  -2
   9  -9   1 95.8584 13.5917   1
  10  -9   2 83.2134 14.1999  -2
  10  -9   1 83.2134 14.1999   1
  11  -9   2 150.578 16.1760  -2
  11  -9   1 150.578 16.1760   1
 -11  -8   1 62.5748 7.80354   1
 -10  -8   1 5.68783 6.29821   1
  -9  -8   1 120.071 9.45663   1
  -8  -8   1 91.1885 8.19167   1
  -7  -8   1 98.0926 12.3648   1
  -6  -8   1 118.833 6.63599   1
  -5  -8   1 44.9979 4.52271   1
  -4  -8   1 268.308 8.06971   1
  -3  -8   1 34.1100 4.06665   1
  -2  -8   1 801.682 16.7613   1
  -1  -8   1 23.0910 2.91551   1
   0  -8   1 513.309 11.3872   1
   1  -8   1 186.590 5.69571   1
   2  -8   1 358.307 12.1889  -2
   2  -8   1 358.307 12.1889   1
   3  -8   1 423.069 10.1339  -2
   3  -8   1 423.069 10.1339   1
   4  -8   1 72.2941 5.22084  -2
   4  -8   1 72.2941 5.22084   1
   5  -8   1 403.302 18.6962  -2
   5  -8   1 403.302 18.6962   1
   6  -8   1 48.6078 12.6450  -2
   6  -8   1 48.6078 12.6450   1
   6  -8   2 90.4063 14.2158  -2
   6  -8   1 90.4063 14.2158   1
   7  -8   2 60.5891 15.0843  -2
   7  -8   1 60.5891 15.0843   1
   8  -8   2 53.2530 16.2655  -2
   8  -8   1 53.2530 16.2655   1
   9  -8   2 168.941 13.4871  -2
   9  -8   1 168.941 13.4871   1
  10  -8   2 82.1092 15.5886  -2
  10  -8   1 82.1092 15.5886   1
  11  -8   2 101.962 16.9235  -2
  11  -8   1 101.962 16.9235   1
  12  -8   2 72.4873 17.6480  -2
  12  -8   1 72.4873 17.6480   1
 -12  -7   1 10.8876 6.74049   1
 -11  -7   1 65.5034 12.5519   1
 -10  -7   1 -4.1802 5.69175   1
  -9  -7   1 75.7185 7.40070   1
  -8  -7   1 15.8267 6.08147   1
  -7  -7   1 102.550 11.2681   1
  -6  -7   1 161.332 6.72365   1
  -5  -7   1 298.165 8.40237   1
  -4  -7   1 344.137 8.92528   1
  -3  -7   1 33.2712 3.38893   1
  -2  -7   1 1101.70 21.7996   1
  -1  -7   1 9.56776 2.23892   1
   0  -7   1 1102.13 21.5727   1
   1  -7   1 1.75879 5.48408  -2
   1  -7   1 1.75879 5.48408   1
   2  -7   1 120.047 4.63879  -2
   2  -7   1 120.047 4.63879   1
   3  -7   1 254.692 6.96766  -2
   3  -7   1 254.692 6.96766   1
   4  -7   1 403.280 12.9067  -2
   4  -7   1 403.280 12.9067   1
   5  -7   1 258.853 14.8757  -2
   5  -7   1 258.853 14.8757   1
   6  -7   2 262.615 17.7151  -2
   6  -7   1 262.615 17.7151   1
   6  -7   1 293.822 17.0656  -2
   6  -7   1 293.822 17.0656   1
   7  -7   2 139.188 10.4404  -2
   7  -7   1 139.188 10.4404   1
   8  -7   2 70.6060 9.95848  -2
   8  -7   1 70.6060 9.95848   1
   9  -7   2 270.056 14.2208  -2
   9  -7   1 270.056 14.2208   1
  10  -7   2 53.0864 11.1298  -2
  10  -7   1 53.0864 11.1298   1
  11  -7   2 128.478 17.2560  -2
  11  -7   1 128.478 17.2560   1
  12  -7   2 54.4414 16.8172  -2
  12  -7   1 54.4414 16.8172   1
  12   6   1 0.30052 20.5648  -2
 -12  -6   1 0.30052 20.5648   1
 -11  -6   1 142.478 15.5731   1
 -10  -6   1 -3.0667 8.49143   1
  -9  -6   1 150.494 9.47218   1
  -8  -6   1 22.9993 5.66343   1
  -7  -6   1 272.601 10.6641   1
  -6  -6   1 82.8646 5.40818   1
   5   6   0 226.186 9.65461  -2
  -5  -6   1 226.186 9.65461   1
   4   6   0 396.437 12.0909  -2
  -4  -6   1 396.437 12.0909   1
  -3  -6   1 126.531 4.65778   1
  -2  -6   1 472.076 11.3452   1
  -1  -6   1 80.6419 3.49466   1
   0  -6   1 516.804 10.1103   1
   1  -6   1 -5.1522 6.02455  -2
   1  -6   1 -5.1522 6.02455   1
   2  -6   1 321.723 8.32418  -2
   2  -6   1 321.723 8.32418   1
   3  -6   1 128.089 5.58237  -2
   3  -6   1 128.089 5.58237   1
   4  -6   1 412.809 12.7432  -2
   4  -6   1 412.809 12.7432   1
   5  -6   1 210.309 12.7708  -2
   5  -6   1 210.309 12.7708   1
   6  -6   2 157.288 14.5709  -2
   6  -6   1 157.288 14.5709   1
   7  -6   2 333.266 10.8896  -2
   7  -6   1 333.266 10.8896   1
   8  -6   2 103.583 8.51845  -2
   8  -6   1 103.583 8.51845   1
   9  -6   2 268.651 15.8806  -2
   9  -6   1 268.651 15.8806   1
  10  -6   2 35.1978 9.53533  -2
  10  -6   1 35.1978 9.53533   1
  11  -6   2 87.4379 17.3161  -2
  11  -6   1 87.4379 17.3161   1
  12   5   1 32.6634 19.9314  -2
 -12  -5   1 32.6634 19.9314   1
 -11  -5   1 133.884 14.7382   1
 -10  -5   1 0.33520 7.81869   1
  -9  -5   1 103.646 8.48840   1
  -8  -5   1 -3.3951 4.44771   1
  -7  -5   1 307.460 11.0621   1
  -6  -5   1 21.8668 6.98889   1
   5   5   0 420.295 12.0210  -2
  -5  -5   1 420.295 12.0210   1
   4   5   0 316.784 9.82494  -2
  -4  -5   1 316.784 9.82494   1
   3   5   0 701.250 49.3630  -2
  -3  -5   1 701.250 49.3630   1
  -2  -5   1 557.171 10.4937   1
  -1  -5   1 284.857 7.14461   1
   0  -5   1 678.309 65.4777  -2
   0  -5   1 678.309 65.4777   1
   1  -5   1 28.0449 36.7185  -2
   1  -5   1 28.0449 36.7185   1
   2  -5   1 825.439 17.4316  -2
   2  -5   1 825.439 17.4316   1
   3  -5   1 41.1640 30.8076  -2
   3  -5   1 41.1640 30.8076   1
   4  -5   1 583.683 21.1887   1
   5  -5   1 70.3284 8.96786  -2
   5  -5   1 70.3284 8.96786   1
   6  -5   2 373.327 10.5388  -2
   6  -5   1 373.327 10.5388   1
   7  -5   2 579.995 14.3001  -2
   7  -5   1 579.995 14.3001   1
   8  -5   2 178.456 8.73720  -2
   8  -5   1 178.456 8.73720   1
   9  -5   2 286.520 11.2315  -2
   9  -5   1 286.520 11.2315   1
  10  -5   2 81.9104 12.5360  -2
  10  -5   1 81.9104 12.5360   1
  11  -5   2 75.6654 13.8049  -2
  11  -5   1 75.6654 13.8049   1
  13  -5   3 94.8422 28.8892  -2
  13  -5   1 94.8422 28.8892   1
 -13  -4   1 22.6234 7.80857   1
  12   4   1 28.4412 12.2257  -2
 -12  -4   1 28.4412 12.2257   1
  11   4   1 95.8668 19.1751  -2
 -11  -4   1 95.8668 19.1751   1
 -10  -4   1 37.4614 9.71220   1
  -9  -4   1 185.872 9.92363   1
  -8  -4   1 91.0420 7.59819   1
  -7  -4   1 253.609 14.1865   1
   6   4   0 147.426 14.6293  -2
  -6  -4   1 147.426 14.6293   1
   5   4   0 680.904 26.4891  -2
  -5  -4   1 680.904 26.4891   1
   4   4   0 110.270 5.49508  -2
  -4  -4   1 110.270 5.49508   1
   3   4   0 438.376 31.0466  -2
  -3  -4   1 438.376 31.0466   1
  -2  -4   1 254.984 5.57548   1
  -1  -4   1 467.112 51.8760  -2
  -1  -4   1 467.112 51.8760   1
   0  -4   1 1296.43 36.0897  -2
   0  -4   1 1296.43 36.0897   1
   1  -4   1 66.8070 2.63344  -2
   1  -4   1 66.8070 2.63344   1
   2  -4   1 1642.71 30.0238  -2
   2  -4   1 1642.71 30.0238   1
   3  -4   1 152.287 6.30955  -2
   3  -4   1 152.287 6.30955   1
   4  -4   1 637.165 20.6492  -2
   4  -4   1 637.165 20.6492   1
   5  -4   1 -2.3672 4.00288   1
   6  -4   2 600.726 13.9000  -2
   6  -4   1 600.726 13.9000   1
   7  -4   2 175.294 12.0042  -2
   7  -4   1 175.294 12.0042   1
   8  -4   2 181.785 8.14911  -2
   8  -4   1 181.785 8.14911   1
   9  -4   2 187.134 11.7035  -2
   9  -4   1 187.134 11.7035   1
  10  -4   2 76.3721 10.6495  -2
  10  -4   1 76.3721 10.6495   1
  11  -4   3 163.469 21.6895  -2
  11  -4   2 163.469 21.6895   1
  11  -4   1 163.469 21.6895   1
  13  -4   3 95.9537 14.7629  -2
  13  -4   1 95.9537 14.7629   1
  13   3   1 -17.736 12.7921  -2
 -13  -3   1 -17.736 12.7921   1
  12   3   1 97.3071 12.6170  -2
 -12  -3   1 97.3071 12.6170   1
  11   3   1 17.7337 10.6991  -2
 -11  -3   1 17.7337 10.6991   1
 -10  -3   1 153.590 13.9291   1
  -9  -3   1 176.114 9.40936   1
  -8  -3   1 81.8165 10.0124   1
   7   3   0 300.816 17.4943  -2
  -7  -3   1 300.816 17.4943   1
   6   3   0 245.296 14.9562  -2
  -6  -3   1 245.296 14.9562   1
   5   3   0 1339.57 46.5632  -2
  -5  -3   1 1339.57 46.5632   1
   4   3   0 253.684 7.12174  -2
  -4  -3   1 253.684 7.12174   1
   3   3   0 907.738 54.0302  -2
  -3  -3   1 907.738 54.0302   1
  -2  -3   1 30.3003 1.83011   1
  -1  -3   1 613.039 47.7166  -2
  -1  -3   1 613.039 47.7166   1
   0  -3   1 285.988 10.2931  -2
   0  -3   1 285.988 10.2931   1
   1  -3   1 30.5417 1.46176  -2
   1  -3   1 30.5417 1.46176   1
   2  -3   1 215.677 4.93592  -2
   2  -3   1 215.677 4.93592   1
   3  -3   1 499.259 11.6304  -2
   3  -3   1 499.259 11.6304   1
   4  -3   1 1123.48 33.3467  -2
   4  -3   1 1123.48 33.3467   1
   5  -3   2 259.878 13.6549  -2
   5  -3   1 259.878 13.6549   1
   6  -3   2 733.702 26.5153  -2
   6  -3   1 733.702 26.5153   1
   7  -3   2 99.2962 7.33410  -2
   7  -3   1 99.2962 7.33410   1
   8  -3   2 195.459 8.36191  -2
   8  -3   1 195.459 8.36191   1
   9  -3   2 67.3483 8.87578  -2
   9  -3   1 67.3483 8.87578   1
  10  -3   2 68.2791 10.9993  -2
  10  -3   1 68.2791 10.9993   1
  11  -3   3 96.5422 20.9132  -2
  11  -3   2 96.5422 20.9132   1
  11  -3   1 96.5422 20.9132   1
  12  -3   3 27.9638 12.2989  -2
  12  -3   1 27.9638 12.2989   1
  13  -3   3 52.1545 13.3468  -2
  13  -3   1 52.1545 13.3468   1
  13   2   1 -15.665 20.6524  -2
 -13  -2   1 -15.665 20.6524   1
  12   2   1 105.015 12.6653  -2
 -12  -2   1 105.015 12.6653   1
  11   2   1 25.2273 10.8010  -2
 -11  -2   1 25.2273 10.8010   1
  10   2   1 353.003 20.4228  -2
 -10  -2   1 353.003 20.4228   1
  -9  -2   1 72.8127 7.20013   1
   8   2   0 196.498 15.4111  -2
  -8  -2   1 196.498 15.4111   1
   7   2   0 232.987 15.4043  -2
  -7  -2   1 232.987 15.4043   1
   6   2   0 137.712 11.6725  -2
  -6  -2   1 137.712 11.6725   1
   5   2   0 820.683 78.7863  -2
  -5  -2   1 820.683 78.7863   1
   4   2   0 194.528 10.2644  -2
  -4  -2   1 194.528 10.2644   1
  -3  -2   1 905.320 16.0778   1
  -2  -2   1 41.5783 3.10586   1
  -1  -2   1 2818.39 69.7974  -2
  -1  -2   1 2818.39 69.7974   1
   0  -2   1 629.853 15.7159  -2
   0  -2   1 629.853 15.7159   1
   1  -2   1 1421.12 20.5159  -2
   1  -2   1 1421.12 20.5159   1
   2  -2   1 546.180 10.9494  -2
   2  -2   1 546.180 10.9494   1
   3  -2   1 582.449 16.3931  -2
   3  -2   1 582.449 16.3931   1
   4  -2   1 1576.66 24.3166   1
   5  -2   2 158.636 7.57056  -2
   5  -2   1 158.636 7.57056   1
   6  -2   2 362.449 9.35978  -2
   6  -2   1 362.449 9.35978   1
   7  -2   2 215.463 8.95877  -2
   7  -2   1 215.463 8.95877   1
   8  -2   2 100.462 8.34379  -2
   8  -2   1 100.462 8.34379   1
   9  -2   2 54.2948 8.30006  -2
   9  -2   1 54.2948 8.30006   1
  10  -2   2 218.247 12.8562  -2
  10  -2   1 218.247 12.8562   1
  11  -2   3 50.8429 12.0822  -2
  11  -2   1 50.8429 12.0822   1
  12  -2   3 55.7993 12.8117  -2
  12  -2   1 55.7993 12.8117   1
  13  -2   3 22.8626 12.8230  -2
  13  -2   1 22.8626 12.8230   1
  13   1   1 22.1715 12.1338  -2
 -13  -1   1 22.1715 12.1338   1
  12   1   1 134.620 12.6369  -2
 -12  -1   1 134.620 12.6369   1
  11   1   1 32.5116 10.5950  -2
 -11  -1   1 32.5116 10.5950   1
   9   1   0 322.182 21.4185  -2
  -9  -1   1 322.182 21.4185   1
  -9  -1   2 322.182 21.4185   1
   8   1   0 383.575 20.2098  -2
  -8  -1   1 383.575 20.2098   1
   7   1   0 142.163 12.3850  -2
  -7  -1   1 142.163 12.3850   1
   6   1   0 216.304 7.57013  -2
  -6  -1   1 216.304 7.57013   1
   5   1   0 730.261 19.7889  -2
  -5  -1   1 730.261 19.7889   1
   4   1   0 688.400 20.3911  -2
  -4  -1   1 688.400 20.3911   1
  -3  -1   1 833.772 13.0908   1
  -2  -1   1 62.3684 2.44637   1
  -1  -1   1 3037.51 55.2557   1
   1  -1   1 1708.96 29.8953  -2
   1  -1   1 1708.96 29.8953   1
   2  -1   1 2318.97 50.5694  -2
   2  -1   1 2318.97 50.5694   1
   3  -1   1 1007.60 28.7756  -2
   3  -1   1 1007.60 28.7756   1
   4  -1   1 686.033 14.1430   1
   5  -1   2 450.479 11.0103  -2
   5  -1   1 450.479 11.0103   1
   6  -1   2 648.228 13.9949  -2
   6  -1   1 648.228 13.9949   1
   7  -1   2 184.406 8.43253  -2
   7  -1   1 184.406 8.43253   1
   8  -1   2 197.582 10.3184  -2
   8  -1   1 197.582 10.3184   1
   9  -1   2 52.5455 8.23771  -2
   9  -1   1 52.5455 8.23771   1
  10  -1   1 215.555 16.3539   1
  11  -1   3 54.5309 11.4741  -2
  11  -1   1 54.5309 11.4741   1
  12  -1   3 79.0304 12.7142  -2
  12  -1   1 79.0304 12.7142   1
  13  -1   3 13.8309 13.0494  -2
  13  -1   1 13.8309 13.0494   1
  13   0   1 14.0582 11.1926  -2
 -13   0   1 14.0582 11.1926   1
  12   0   1 178.392 13.0038  -2
 -12   0   1 178.392 13.0038   1
  11   0   1 31.5087 10.9247  -2
 -11   0   1 31.5087 10.9247   1
   9   0   0 56.4520 8.91931  -2
  -9   0   1 56.4520 8.91931   1
   8   0   0 302.040 9.71299  -2
  -8   0   1 302.040 9.71299   1
   7   0   0 85.5895 5.39209  -2
  -7   0   1 85.5895 5.39209   1
   6   0   0 283.776 9.43363  -2
  -6   0   1 283.776 9.43363   1
   5   0   0 851.279 17.9765  -2
  -5   0   1 851.279 17.9765   1
   4   0   0 484.487 40.8072  -2
  -4   0   1 484.487 40.8072   1
  -3   0   1 1061.42 16.3506   1
  -2   0   1 -8.4978 10.5407  -2
  -2   0   1 -8.4978 10.5407   1
  -1   0   1 4318.60 133.120  -2
  -1   0   1 4318.60 133.120   1
   1   0   1 3078.54 89.4598  -2
   1   0   1 3078.54 89.4598   1
   2   0   1 1379.97 50.6736  -2
   2   0   1 1379.97 50.6736   1
   3   0   1 332.855 11.9936  -2
   3   0   1 332.855 11.9936   1
   4   0   1 355.570 7.13617   1
   5   0   2 603.705 18.8105  -2
   5   0   1 603.705 18.8105   1
   6   0   2 289.590 9.44079  -2
   6   0   1 289.590 9.44079   1
   7   0   2 226.598 8.93341  -2
   7   0   1 226.598 8.93341   1
   8   0   2 335.472 13.0921  -2
   8   0   1 335.472 13.0921   1
   9   0   2 48.4537 8.61821  -2
   9   0   1 48.4537 8.61821   1
  10   0   1 264.065 12.3320   1
  11   0   3 12.6113 14.7328  -2
  11   0   1 12.6113 14.7328   1
  12   0   3 71.6632 12.4338  -2
  12   0   1 71.6632 12.4338   1
  13   0   3 37.2984 13.5122  -2
  13   0   1 37.2984 13.5122   1
  13  -1   1 23.4969 11.6690  -2
 -13   1   1 23.4969 11.6690   1
  12  -1   1 91.7329 12.5251  -2
 -12   1   1 91.7329 12.5251   1
  11  -1   1 68.2549 11.6228  -2
 -11   1   1 68.2549 11.6228   1
  -9   1   0 45.3648 8.99164  -2
  -9   1   1 45.3648 8.99164   1
  -8   1   0 215.929 8.85003  -2
  -8   1   1 215.929 8.85003   1
  -7   1   0 129.570 7.41053  -2
  -7   1   1 129.570 7.41053   1
  -6   1   0 564.622 12.6658  -2
  -6   1   1 564.622 12.6658   1
  -5   1   0 649.731 12.3693  -2
  -5   1   1 649.731 12.3693   1
  -4   1   0 857.921 28.4029  -2
  -4   1   1 857.921 28.4029   1
  -3   1   1 60.1965 2.47196   1
  -2   1   1 267.130 25.8107  -2
  -2   1   1 267.130 25.8107   1
  -1   1   1 3591.90 76.0526  -2
  -1   1   1 3591.90 76.0526   1
   0   1   1 85.7447 8.05473  -2
   0   1   1 85.7447 8.05473   1
   1   1   1 4266.65 88.6644  -2
   1   1   1 4266.65 88.6644   1
   2   1   1 443.501 41.9866  -2
   2   1   1 443.501 41.9866   1
   3   1   1 727.529 15.8733   1
   4   1   1 735.049 22.3085   1
   5   1   1 1027.80 86.5130   1
   6   1   2 152.783 12.1085  -2
   6   1   1 152.783 12.1085   1
   7   1   2 271.504 16.3703  -2
   7   1   1 271.504 16.3703   1
   8   1   2 317.390 18.5708  -2
   8   1   1 317.390 18.5708   1
   9   1   1 -1.0826 4.74853   1
  10   1   1 240.194 11.4286   1
  11   1   1 2.75290 5.71228   1
  12   1   3 157.443 13.9949  -2
  12   1   1 157.443 13.9949   1
  13   1   3 4.86221 13.0965  -2
  13   1   1 4.86221 13.0965   1
  13  -2   1 76.8358 12.4887  -2
 -13   2   1 76.8358 12.4887   1
  12  -2   1 59.0369 12.3192  -2
 -12   2   1 59.0369 12.3192   1
  -9   2   0 107.242 12.5376  -2
  -9   2   1 107.242 12.5376   1
  -8   2   0 68.0191 7.00874  -2
  -8   2   1 68.0191 7.00874   1
  -7   2   0 108.804 7.27448  -2
  -7   2   1 108.804 7.27448   1
  -6   2   0 396.127 10.1196  -2
  -6   2   1 396.127 10.1196   1
  -5   2   0 303.720 7.85862  -2
  -5   2   1 303.720 7.85862   1
  -4   2   1 357.161 7.60145   1
  -3   2   1 691.379 68.9663  -2
  -3   2   1 691.379 68.9663   1
  -2   2   1 3208.20 71.0459  -2
  -2   2   1 3208.20 71.0459   1
  -1   2   1 999.418 26.0813  -2
  -1   2   1 999.418 26.0813   1
   0   2   1 83.6085 15.2434  -2
   0   2   1 83.6085 15.2434   1
   1   2   1 27.1766 3.83416  -2
   1   2   1 27.1766 3.83416   1
   2   2   1 32.6736 1.87321   1
   3   2   1 482.692 9.79711   1
   4   2   1 15.7332 2.67468   1
   5   2   1 639.475 24.2079   1
   6   2   1 50.8066 7.00721   1
   7   2   1 139.064 7.46827   1
   8   2   1 197.562 13.0611   1
   9   2   1 17.2875 5.11664   1
  10   2   1 185.672 10.2644   1
  11   2   1 16.6953 6.47235   1
  12   2   3 142.948 13.9814  -2
  12   2   1 142.948 13.9814   1
  13   2   3 -15.916 20.7941  -2
  13   2   1 -15.916 20.7941   1
  13  -3   1 99.8193 12.8653  -2
 -13   3   1 99.8193 12.8653   1
  12  -3   1 28.6767 12.0381  -2
 -12   3   1 28.6767 12.0381   1
 -10   3   0 121.864 18.5372  -2
 -10   3   1 121.864 18.5372   1
  -9   3   0 114.716 9.16044  -2
  -9   3   1 114.716 9.16044   1
  -8   3   0 162.162 9.86868  -2
  -8   3   1 162.162 9.86868   1
  -7   3   0 42.5729 5.85019  -2
  -7   3   1 42.5729 5.85019   1
  -6   3   0 602.221 16.7367  -2
  -6   3   1 602.221 16.7367   1
  -5   3   1 3.02665 3.03549   1
  -4   3   1 100.268 3.68576   1
  -3   3   1 248.713 43.4807  -2
  -3   3   1 248.713 43.4807   1
  -2   3   1 660.993 20.1692  -2
  -2   3   1 660.993 20.1692   1
  -1   3   1 1670.55 36.9623  -2
  -1   3   1 1670.55 36.9623   1
   0   3   1 904.708 40.5698  -2
   0   3   1 904.708 40.5698   1
   1   3   1 766.615 12.6605   1
   2   3   1 31.1557 2.14537   1
   3   3   1 770.581 14.9489   1
   4   3   1 -1.7510 1.85764   1
   5   3   1 768.664 19.4213   1
   6   3   1 86.2683 8.62764   1
   7   3   1 294.313 15.3182   1
   8   3   1 55.0317 8.84006   1
   9   3   1 90.9215 7.86895   1
  10   3   1 134.522 9.08500   1
  11   3   1 49.2382 7.46849   1
  12   3   3 104.871 18.8061  -2
  12   3   1 104.871 18.8061   1
  13   3   1 -8.9321 6.24830   1
  13  -4   1 130.836 15.2514  -2
 -13   4   1 130.836 15.2514   1
 -11   4   0 75.8290 13.3992  -2
 -11   4   1 75.8290 13.3992   1
 -10   4   0 60.5109 19.2081  -2
 -10   4   1 60.5109 19.2081   1
  -9   4   0 92.1553 9.27416  -2
  -9   4   1 92.1553 9.27416   1
  -8   4   0 59.7157 7.83809  -2
  -8   4   1 59.7157 7.83809   1
  -7   4   0 103.738 8.74382  -2
  -7   4   1 103.738 8.74382   1
  -6   4   0 470.106 14.4907  -2
  -6   4   1 470.106 14.4907   1
  -5   4   1 14.4875 2.99541   1
  -4   4   1 1185.31 19.9913   1
  -3   4   1 -12.861 44.1625  -2
  -3   4   1 -12.861 44.1625   1
  -2   4   1 908.294 55.7840  -2
  -2   4   1 908.294 55.7840   1
  -1   4   1 560.350 35.9498  -2
  -1   4   1 560.350 35.9498   1
   0   4   1 631.719 11.2482   1
   1   4   1 149.965 3.62063   1
   2   4   1 93.6633 3.11332   1
   3   4   1 234.057 5.42169   1
   4   4   1 90.7623 3.92658   1
   5   4   1 478.881 13.5149   1
   6   4   1 57.7846 7.79214   1
   7   4   1 455.093 14.0602   1
   8   4   1 1.33185 4.57097   1
   9   4   1 121.411 8.68194   1
  10   4   1 50.3339 7.37907   1
  11   4   1 76.9676 8.53811   1
  12   4   1 31.0028 7.10876   1
  13  -5   1 71.0753 17.1580  -2
 -13   5   1 71.0753 17.1580   1
 -12   5   1 -5.9516 12.6041   1
  11  -5   1 204.133 34.5508  -2
 -11   5   1 204.133 34.5508   1
 -11   5   0 145.674 18.8352  -2
 -11   5   1 145.674 18.8352   1
 -10   5   0 93.9986 11.3567  -2
 -10   5   1 93.9986 11.3567   1
  -9   5   0 129.556 10.6381  -2
  -9   5   1 129.556 10.6381   1
  -8   5   0 192.962 11.5991  -2
  -8   5   1 192.962 11.5991   1
  -7   5   0 209.127 10.7793  -2
  -7   5   1 209.127 10.7793   1
  -6   5   0 614.076 17.7229  -2
  -6   5   1 614.076 17.7229   1
  -5   5   1 87.6557 4.88006   1
  -4   5   1 617.490 13.2373   1
  -3   5   1 -11.368 2.35198   1
  -2   5   1 1117.80 36.9575  -2
  -2   5   1 1117.80 36.9575   1
  -1   5   1 299.972 6.38539   1
   0   5   1 933.745 19.1072   1
   1   5   1 617.676 11.5627   1
   2   5   1 503.813 12.0158   1
   3   5   1 214.795 6.31275   1
   4   5   1 72.5757 4.08537   1
   5   5   1 419.622 12.1789   1
   6   5   1 1.45199 3.59538   1
   7   5   1 198.276 9.09050   1
   8   5   1 51.1551 6.37269   1
   9   5   1 112.613 8.68152   1
  10   5   1 25.7673 6.25758   1
  11   5   1 100.785 9.42020   1
  12   5   1 58.8711 8.37626   1
 -12   6   0 30.4157 17.5504  -2
 -12   6   1 30.4157 17.5504   1
  11  -6   1 166.869 31.9531  -2
 -11   6   1 166.869 31.9531   1
 -11   6   0 139.247 18.6969  -2
 -11   6   1 139.247 18.6969   1
 -10   6   0 18.5045 14.1202  -2
 -10   6   1 18.5045 14.1202   1
  -9   6   0 176.565 23.6000  -2
  -9   6   1 176.565 23.6000   1
  -8   6   0 148.636 11.4492  -2
  -8   6   1 148.636 11.4492   1
  -7   6   0 392.622 14.7404  -2
  -7   6   1 392.622 14.7404   1
  -6   6   1 291.393 9.33596   1
  -5   6   1 384.915 10.0365   1
  -4   6   1 354.132 9.10535   1
  -3   6   1 122.975 4.48660   1
  -2   6   1 987.347 19.2894   1
  -1   6   1 17.1150 2.28737   1
   0   6   1 478.284 9.93270   1
   1   6   1 134.339 4.16194   1
   2   6   1 660.698 13.8909   1
   3   6   1 139.682 5.43747   1
   4   6   1 246.063 7.18517   1
   5   6   1 873.875 18.2728   1
   6   6   1 398.677 18.8884   1
   7   6   1 188.079 9.27160   1
   8   6   1 0.71604 5.89101   1
   9   6   1 161.487 9.73540   1
  10   6   1 14.0372 6.11095   1
  11   6   1 105.333 9.57863   1
  12   6   1 10.0292 6.83373   1
 -12   7   1 20.9080 17.3862   1
 -11   7   0 82.4361 17.7083  -2
 -11   7   1 82.4361 17.7083   1
 -10   7   0 51.6026 15.8905  -2
 -10   7   1 51.6026 15.8905   1
  -9   7   0 114.989 22.5778  -2
  -9   7   1 114.989 22.5778   1
  -8   7   0 63.4493 10.7378  -2
  -8   7   1 63.4493 10.7378   1
  -7   7   0 156.575 11.3417  -2
  -7   7   1 156.575 11.3417   1
  -6   7   1 78.8355 6.41139   1
  -5   7   1 238.246 9.64606   1
  -4   7   1 233.003 13.8027  -2
  -4   7   1 233.003 13.8027   1
  -3   7   1 105.946 4.46646   1
  -2   7   1 380.219 8.90449   1
  -1   7   1 25.3032 2.80828   1
   0   7   1 350.309 8.53490   1
   1   7   1 11.9175 2.65040   1
   2   7   1 625.810 13.6037   1
   3   7   1 110.458 5.17951   1
   4   7   1 297.341 8.49680   1
   5   7   1 281.551 8.55871   1
   6   7   1 97.3017 8.74112   1
   7   7   1 129.463 8.51333   1
   8   7   1 38.9988 6.42414   1
   9   7   1 193.996 10.6007   1
  10   7   1 8.19267 5.79781   1
  11   7   1 85.2534 9.28274   1
  12  -8   1 48.8073 41.6323  -2
 -12   8   1 48.8073 41.6323   1
 -11   8   0 48.9824 17.6432  -2
 -11   8   1 48.9824 17.6432   1
  11  -8   1 72.8107 32.1505  -2
 -11   8   1 72.8107 32.1505   1
 -10   8   0 53.0405 14.0713  -2
 -10   8   1 53.0405 14.0713   1
  -9   8   0 138.536 18.5480  -2
  -9   8   1 138.536 18.5480   1
  -8   8   0 39.5155 11.8167  -2
  -8   8   1 39.5155 11.8167   1
  -7   8   0 123.095 17.6800  -2
  -7   8   1 123.095 17.6800   1
  -6   8   1 18.6070 11.7892  -2
  -6   8   1 18.6070 11.7892   1
  -5   8   1 381.966 18.9416  -2
  -5   8   1 381.966 18.9416   1
  -4   8   1 224.171 7.07274   1
  -3   8   1 99.4896 4.72891   1
  -2   8   1 350.581 8.86461   1
  -1   8   1 23.1305 3.09921   1
   0   8   1 267.958 9.57046   1
   1   8   1 2.92074 2.57896   1
   2   8   1 413.521 10.3245   1
   3   8   1 9.13731 3.12656   1
   4   8   1 484.872 12.0819   1
   5   8   1 54.5645 5.14656   1
   6   8   1 90.7526 7.60949   1
   7   8   1 133.601 9.07866   1
   8   8   1 66.3293 7.59561   1
   9   8   1 149.522 10.1107   1
  10   8   1 -0.7679 5.80150   1
  11   8   1 64.7158 7.88783   1
 -11   9   0 31.7349 19.4837  -2
 -11   9   1 31.7349 19.4837   1
 -10   9   0 30.4295 18.2800  -2
 -10   9   1 30.4295 18.2800   1
  -9   9   0 112.547 23.5879  -2
  -9   9   1 112.547 23.5879   1
  -8   9   0 24.4780 20.0039  -2
  -8   9   1 24.4780 20.0039   1
  -7   9   1 143.351 13.7221   1
  -6   9   1 8.37836 4.17412   1
  -5   9   1 137.645 6.52732   1
  -4   9   1 133.965 6.11787   1
  -3   9   1 134.642 5.88155   1
  -2   9   1 50.2927 4.20710   1
  -1   9   1 121.167 6.42785   1
   0   9   1 302.463 8.58918   1
   1   9   1 47.5051 4.27508   1
   2   9   1 363.662 9.90351   1
   3   9   1 29.4457 4.21482   1
   4   9   1 278.812 9.07693   1
   5   9   1 11.1472 4.48700   1
   6   9   1 210.406 10.7178   1
   7   9   1 132.708 14.0571   1
   8   9   1 34.4206 6.53458   1
   9   9   1 66.7355 7.53154   1
  10   9   1 14.7767 7.32366   1
 -11  10   1 20.9483 9.55800   1
 -10  10   1 15.0576 8.08388   1
  -9  10   1 72.1308 9.99345   1
  -8  10   0 25.9099 20.0933  -2
  -8  10   1 25.9099 20.0933   1
  -7  10   1 107.217 10.6164   1
  -6  10   1 -1.1196 4.76587   1
  -5  10   1 126.015 6.59419   1
  -4  10   1 28.6604 4.76026   1
  -3  10   1 121.784 6.07124   1
  -2  10   1 7.72409 4.06379   1
  -1  10   1 115.828 5.90914   1
   0  10   1 247.220 8.09055   1
   1  10   1 92.2055 5.84611   1
   2  10   1 249.409 8.49389   1
   3  10   1 28.9227 4.64228   1
   4  10   1 252.845 9.23537   1
   5  10   1 8.19855 5.01253   1
   6  10   1 199.703 10.9949   1
   7  10   1 36.1162 10.8080   1
   8  10   1 65.0417 12.3414   1
   9  10   1 11.6664 9.77705   1
  10  10   1 40.5521 7.98261   1
 -10  11   1 54.6670 9.79593   1
  -9  11   1 27.4427 8.74841   1
  -8  11   1 24.7226 7.65483   1
  -7  11   1 67.1929 8.90433   1
  -6  11   1 10.2199 6.70219   1
  -5  11   1 160.969 10.2543   1
  -4  11   1 -5.1097 5.09776   1
  -3  11   1 222.827 10.7258   1
  -2  11   1 6.36624 4.20880   1
  -1  11   1 146.917 6.98603   1
   0  11   1 105.503 6.82494   1
   1  11   1 93.5311 6.53682   1
   2  11   1 90.6414 6.46405   1
   3  11   1 50.4528 5.51879   1
   4  11   1 211.293 9.19136   1
   5  11   1 16.0851 5.39638   1
   6  11   1 114.056 9.85794   1
   7  11   1 -9.4424 8.86572   1
   8  11   1 73.5380 13.1915   1
   9  11   1 -6.3369 10.1197   1
  -9  12   1 -4.9280 7.99033   1
  -8  12   1 27.7136 8.24457   1
  -7  12   1 29.1500 7.97438   1
  -6  12   1 22.9953 7.25343   1
  -5  12   1 81.0418 8.63168   1
  -4  12   1 7.25456 6.98758   1
  -3  12   1 226.090 11.4322   1
  -2  12   1 0.21828 5.71789   1
  -1  12   1 160.766 8.41537   1
   0  12   1 16.2620 4.76966   1
   1  12   1 127.028 7.99156   1
   2  12   1 34.4507 5.62514   1
   3  12   1 149.748 8.53973   1
   4  12   1 135.768 8.87880   1
   5  12   1 45.6158 7.27320   1
   6  12   1 67.5875 9.08456   1
   7  12   1 0.87617 11.2146   1
   8  12   1 67.7560 15.1534   1
  -8  13   1 19.1931 8.23178   1
  -7  13   1 11.9674 7.47755   1
  -6  13   1 40.9682 7.92494   1
  -5  13   1 38.8149 8.32149   1
  -4  13   1 12.9180 6.82248   1
  -3  13   1 96.2037 9.03864   1
  -2  13   1 4.59117 6.33111   1
  -1  13   1 152.218 10.4151   1
   0  13   1 0.47975 6.06319   1
   1  13   1 134.497 8.74570   1
   2  13   1 1.14391 5.26738   1
   2  13   2 133.738 16.9701  -2
   3  13   1 133.738 16.9701   1
   4  13   1 90.5290 8.43148   1
   5  13   1 50.2362 8.12946   1
   5  13   3 120.788 19.8268  -2
   6  13   1 120.788 19.8268   1
   7  13   1 18.1289 12.7849   1
  -7  14   1 -5.7541 7.24133   1
  -6  14   1 52.0377 8.92721   1
  -5  14   1 67.0079 9.40148   1
  -4  14   1 40.5711 8.58134   1
  -3  14   1 34.5617 7.60586   1
  -2  14   1 56.4053 8.77051   1
  -1  14   1 82.0050 8.89134   1
   0  14   1 1.24595 6.64106   1
   1  14   1 133.432 11.3031   1
   1  14   2 23.1350 16.1123  -2
   2  14   1 23.1350 16.1123   1
   2  14   2 151.515 18.0104  -2
   3  14   1 151.515 18.0104   1
   3  14   2 28.2528 17.5558  -2
   4  14   1 28.2528 17.5558   1
   5  14   1 39.7894 8.59427   1
   5  14   3 68.3616 18.8892  -2
   6  14   1 68.3616 18.8892   1
  -5  15   1 12.7081 7.82091   1
  -4  15   1 24.0539 8.06728   1
  -3  15   1 23.6722 7.72677   1
  -2  15   1 20.8649 7.88528   1
  -1  15   1 44.3504 8.09586   1
   0  15   1 1.64761 7.37097   1
   1  15   1 78.0901 9.46271   1
   2  15   1 -2.9325 7.27041   1
   2  15   2 85.7601 18.7794  -2
   3  15   1 85.7601 18.7794   1
   3  15   2 28.6159 17.6006  -2
   4  15   1 28.6159 17.6006   1
  -3  16   1 5.23761 11.4921   1
  -2  16   1 29.9748 8.18677   1
  -1  16   1 31.7818 8.61920   1
   0  16   1 10.4498 10.0278   1
   1  16   1 66.6490 9.86336   1
  -3 -16   2 8.23343 7.35147   1
  -2 -16   2 47.0170 8.48694   1
  -1 -16   2 46.5643 9.04195   1
   0 -16   2 38.7652 7.62968   1
   1 -16   2 65.9103 12.7677   1
   2 -16   2 6.70930 7.25706   1
   3 -16   2 21.4727 7.84626   1
   4 -16   2 -1.1338 7.27718   1
   5 -16   2 68.3931 13.6565   1
  -5 -15   2 26.1498 8.99247   1
  -4 -15   2 133.393 12.0563   1
  -3 -15   2 6.07177 7.08426   1
  -2 -15   2 104.742 10.3250   1
  -1 -15   2 13.1847 7.25453   1
   0 -15   2 123.909 10.5352   1
   1 -15   2 37.3845 7.11321   1
   2 -15   2 35.0188 7.73468   1
   3 -15   2 34.7876 7.81888   1
   4 -15   2 11.9081 6.78048   1
   5 -15   2 81.6559 9.87426   1
   6 -15   2 -8.1727 6.88763   1
   6  14   0 42.4457 17.9119  -2
  -7 -14   2 42.4457 17.9119   1
  -6 -14   2 62.5881 8.75057   1
  -5 -14   2 60.3521 8.82169   1
  -4 -14   2 65.7282 7.25913   1
  -3 -14   2 -4.3895 6.16739   1
  -2 -14   2 97.7218 9.66678   1
  -1 -14   2 -2.3578 5.88886   1
   0 -14   2 56.9676 7.69776   1
   1 -14   2 29.6830 6.79448   1
   2 -14   2 94.5760 8.96467   1
   3 -14   2 27.6661 6.80043   1
   4 -14   2 40.7417 7.54555   1
   5 -14   2 73.2344 8.72991   1
   6 -14   2 20.1997 7.59213   1
   7 -14   2 48.0017 19.3181  -2
   7 -14   2 48.0017 19.3181   1
   8 -14   2 4.42652 18.8617  -2
   8 -14   2 4.42652 18.8617   1
   8 -14   3 26.6464 21.9111  -2
   8 -14   2 26.6464 21.9111   1
  -8 -13   2 6.87458 11.5962   1
   6  13   0 49.2539 17.0765  -2
  -7 -13   2 49.2539 17.0765   1
  -6 -13   2 43.3953 7.89195   1
  -5 -13   2 129.077 8.94069   1
  -4 -13   2 53.3654 6.40666   1
  -3 -13   2 23.9094 5.39285   1
  -2 -13   2 138.873 8.36355   1
  -1 -13   2 -3.2649 6.68655   1
   0 -13   2 81.2951 7.66879   1
   1 -13   2 44.9911 6.87124   1
   2 -13   2 122.371 9.44454   1
   3 -13   2 9.63695 5.75101   1
   4 -13   2 58.9268 7.34640   1
   5 -13   2 96.0381 17.2559  -2
   5 -13   2 96.0381 17.2559   1
   6 -13   2 70.8720 16.8628  -2
   6 -13   2 70.8720 16.8628   1
   7 -13   2 75.0196 17.5684  -2
   7 -13   2 75.0196 17.5684   1
   8 -13   2 5.63034 17.6130  -2
   8 -13   2 5.63034 17.6130   1
   8 -13   3 0.80335 20.4910  -2
   8 -13   2 0.80335 20.4910   1
   9 -13   3 16.9610 22.8304  -2
   9 -13   2 16.9610 22.8304   1
  -9 -12   2 29.0370 7.30516   1
  -8 -12   2 6.57536 11.0279   1
  -7 -12   2 141.987 10.8676   1
  -6 -12   2 46.9623 10.3528   1
  -5 -12   2 124.873 8.35380   1
  -4 -12   2 28.7442 5.49232   1
  -3 -12   2 27.0805 5.05775   1
  -2 -12   2 163.207 9.80973   1
  -1 -12   2 31.8070 4.90405   1
   0 -12   1 124.805 13.9513  -2
   0 -12   2 124.805 13.9513   1
   1 -12   2 -3.0174 4.90858   1
   2 -12   2 108.776 8.79831   1
   3 -12   2 -1.7166 5.12494   1
   4 -12   2 142.971 19.0637  -2
   4 -12   2 142.971 19.0637   1
   5 -12   2 43.9149 14.5390  -2
   5 -12   2 43.9149 14.5390   1
   6 -12   2 71.6849 16.3309  -2
   6 -12   2 71.6849 16.3309   1
   7 -12   2 133.281 17.6494  -2
   7 -12   2 133.281 17.6494   1
   8 -12   3 5.31886 18.8438  -2
   8 -12   2 5.31886 18.8438   1
   8 -12   2 -26.586 17.5815  -2
   8 -12   2 -26.586 17.5815   1
   9 -12   3 -0.4597 21.7302  -2
   9 -12   2 -0.4597 21.7302   1
  10 -12   3 -8.1536 27.2113  -2
  10 -12   2 -8.1536 27.2113   1
 -10 -11   2 21.2712 6.77538   1
  -9 -11   2 43.0228 7.70694   1
  -8 -11   2 12.4746 9.95941   1
  -7 -11   2 143.763 10.2581   1
  -6 -11   2 31.7034 6.52496   1
  -5 -11   2 188.379 8.66912   1
  -4 -11   2 103.859 8.90053   1
  -3 -11   2 105.426 6.63450   1
  -2 -11   1 173.284 14.4155  -2
  -2 -11   2 173.284 14.4155   1
  -1 -11   2 67.7965 5.38233   1
   0 -11   2 223.290 7.63513   1
   1 -11   2 9.64170 4.59936   1
   2 -11   2 224.247 18.2157  -2
   2 -11   2 224.247 18.2157   1
   3 -11   2 10.9759 9.04830  -2
   3 -11   2 10.9759 9.04830   1
   4 -11   2 237.911 12.5621  -2
   4 -11   2 237.911 12.5621   1
   6 -11   2 155.854 16.5987  -2
   6 -11   2 155.854 16.5987   1
   7 -11   3 19.4214 17.4589  -2
   7 -11   2 19.4214 17.4589   1
   7 -11   2 30.0795 14.7899  -2
   7 -11   2 30.0795 14.7899   1
   8 -11   2 36.4794 17.7261  -2
   8 -11   2 36.4794 17.7261   1
   8 -11   3 36.6266 19.6873  -2
   8 -11   2 36.6266 19.6873   1
   9 -11   3 41.0587 22.2323  -2
   9 -11   2 41.0587 22.2323   1
  10 -11   3 -11.436 14.5340  -2
  10 -11   2 -11.436 14.5340   1
 -10 -10   2 51.1605 11.6982   1
  -9 -10   2 114.312 9.59999   1
  -8 -10   2 19.5844 9.68861   1
  -7 -10   2 194.088 12.1978   1
  -6 -10   2 0.57066 4.85446   1
  -5 -10   2 227.462 8.64245   1
  -4 -10   2 54.8556 5.16013   1
  -3 -10   2 165.033 6.81966   1
  -2 -10   1 155.213 11.9558  -2
  -2 -10   2 155.213 11.9558   1
  -1 -10   2 141.974 6.21029   1
   0 -10   2 136.931 5.70528   1
   1 -10   2 209.465 6.55238   1
   2 -10   2 241.214 17.6194  -2
   2 -10   2 241.214 17.6194   1
   3 -10   2 79.9274 8.93483  -2
   3 -10   2 79.9274 8.93483   1
   4 -10   2 383.230 14.2918  -2
   4 -10   2 383.230 14.2918   1
   6 -10   2 148.778 16.0548  -2
   6 -10   2 148.778 16.0548   1
   7 -10   2 15.2599 15.3111  -2
   7 -10   2 15.2599 15.3111   1
   8 -10   3 19.3770 18.4475  -2
   8 -10   2 19.3770 18.4475   1
   9 -10   3 84.2559 13.1874  -2
   9 -10   2 84.2559 13.1874   1
  10 -10   3 54.7740 14.3550  -2
  10 -10   2 54.7740 14.3550   1
  11 -10   3 33.2882 14.7275  -2
  11 -10   2 33.2882 14.7275   1
 -11  -9   2 44.7115 8.14702   1
 -10  -9   2 113.371 14.8850   1
  -9  -9   2 72.7999 8.26800   1
  -8  -9   2 28.1897 6.53123   1
  -7  -9   2 256.936 11.6404   1
  -6  -9   2 58.9323 5.64137   1
  -5  -9   2 234.270 8.51292   1
  -4  -9   1 106.553 12.8060  -2
  -4  -9   2 106.553 12.8060   1
  -3  -9   1 467.894 20.7285  -2
  -3  -9   2 467.894 20.7285   1
  -2  -9   1 198.536 12.4553  -2
  -2  -9   2 198.536 12.4553   1
  -1  -9   1 398.061 18.1042  -2
  -1  -9   2 398.061 18.1042   1
   0  -9   2 187.416 6.14026   1
   1  -9   2 118.545 4.69963   1
   2  -9   2 611.473 17.5858  -2
   2  -9   2 611.473 17.5858   1
   3  -9   2 8.80975 7.12438  -2
   3  -9   2 8.80975 7.12438   1
   4  -9   2 587.794 17.5633  -2
   4  -9   2 587.794 17.5633   1
   5  -9   2 -9.4709 8.21260  -2
   5  -9   2 -9.4709 8.21260   1
   6  -9   2 167.245 15.2466  -2
   6  -9   2 167.245 15.2466   1
   7  -9   3 18.3481 14.9908  -2
   7  -9   2 18.3481 14.9908   1
   8  -9   3 89.8273 15.9032  -2
   8  -9   2 89.8273 15.9032   1
   9  -9   3 69.5872 12.4857  -2
   9  -9   2 69.5872 12.4857   1
  10  -9   3 128.360 14.5153  -2
  10  -9   2 128.360 14.5153   1
  11  -9   3 39.8750 13.0674  -2
  11  -9   2 39.8750 13.0674   1
 -11  -8   2 0.73222 8.92305   1
 -10  -8   2 134.474 15.0420   1
  -9  -8   2 -9.8384 7.73745   1
  -8  -8   2 68.0074 7.17812   1
  -7  -8   2 230.402 15.0814   1
  -6  -8   2 193.629 7.50036   1
  -5  -8   1 149.815 15.2133  -2
  -5  -8   2 149.815 15.2133   1
  -4  -8   1 159.051 13.4798  -2
  -4  -8   2 159.051 13.4798   1
  -3  -8   1 626.256 24.3223  -2
  -3  -8   2 626.256 24.3223   1
  -2  -8   1 298.028 13.5934  -2
  -2  -8   2 298.028 13.5934   1
  -1  -8   2 524.931 11.6109   1
   0  -8   2 152.277 5.10069   1
   1  -8   2 920.115 23.3828  -2
   1  -8   2 920.115 23.3828   1
   2  -8   2 396.515 12.6774  -2
   2  -8   2 396.515 12.6774   1
   3  -8   2 330.024 8.13550  -2
   3  -8   2 330.024 8.13550   1
   4  -8   2 393.299 9.80767  -2
   4  -8   2 393.299 9.80767   1
   5  -8   2 113.966 8.98659  -2
   5  -8   2 113.966 8.98659   1
   6  -8   2 412.178 20.0827  -2
   6  -8   2 412.178 20.0827   1
   7  -8   3 19.9686 14.0111  -2
   7  -8   2 19.9686 14.0111   1
   8  -8   3 190.584 18.2369  -2
   8  -8   2 190.584 18.2369   1
   9  -8   3 31.9689 10.6467  -2
   9  -8   2 31.9689 10.6467   1
  10  -8   3 125.884 15.2886  -2
  10  -8   2 125.884 15.2886   1
  11  -8   3 35.2162 14.5079  -2
  11  -8   2 35.2162 14.5079   1
  12  -8   3 39.0426 16.2699  -2
  12  -8   2 39.0426 16.2699   1
  12   7   0 72.0963 20.6013  -2
 -12  -7   2 72.0963 20.6013   1
  11   7   0 -15.188 19.4242  -2
 -11  -7   2 -15.188 19.4242   1
 -10  -7   2 47.7812 11.6601   1
  -9  -7   2 0.77711 7.27037   1
  -8  -7   2 61.4104 6.76471   1
  -7  -7   2 16.0938 7.14792   1
  -6  -7   2 71.8007 5.19916   1
  -5  -7   1 153.559 7.88842  -2
  -5  -7   2 153.559 7.88842   1
  -4  -7   1 111.282 8.69525  -2
  -4  -7   2 111.282 8.69525   1
  -3  -7   1 653.483 17.3585  -2
  -3  -7   2 653.483 17.3585   1
  -2  -7   1 456.560 19.6271  -2
  -2  -7   2 456.560 19.6271   1
  -1  -7   2 602.769 12.6530   1
   0  -7   2 4.35218 2.04474   1
   1  -7   2 654.842 17.1581  -2
   1  -7   2 654.842 17.1581   1
   2  -7   2 89.8945 6.08700  -2
   2  -7   2 89.8945 6.08700   1
   3  -7   2 301.814 8.75634  -2
   3  -7   2 301.814 8.75634   1
   4  -7   2 395.353 12.6908  -2
   4  -7   2 395.353 12.6908   1
   5  -7   2 370.495 13.1106  -2
   5  -7   2 370.495 13.1106   1
   6  -7   3 131.139 14.1058  -2
   6  -7   2 131.139 14.1058   1
   7  -7   3 71.7268 8.89096  -2
   7  -7   2 71.7268 8.89096   1
   8  -7   3 174.492 11.2186  -2
   8  -7   2 174.492 11.2186   1
   9  -7   3 63.0277 10.0170  -2
   9  -7   2 63.0277 10.0170   1
  10  -7   3 167.049 13.2807  -2
  10  -7   2 167.049 13.2807   1
  11  -7   3 66.4954 14.0944  -2
  11  -7   2 66.4954 14.0944   1
  12  -7   3 87.2713 17.6446  -2
  12  -7   2 87.2713 17.6446   1
  12   6   0 94.1263 19.9699  -2
 -12  -6   2 94.1263 19.9699   1
  10   6   0 88.1886 20.0417  -2
 -10  -6   2 88.1886 20.0417   1
  -9  -6   2 78.9085 12.2254   1
  -8  -6   2 133.620 8.49209   1
  -7  -6   2 19.5943 5.02187   1
  -6  -6   2 307.336 9.70976   1
  -5  -6   1 256.609 8.14938  -2
  -5  -6   2 256.609 8.14938   1
  -4  -6   1 340.756 9.00617  -2
  -4  -6   2 340.756 9.00617   1
  -3  -6   1 515.585 11.6672  -2
  -3  -6   2 515.585 11.6672   1
  -2  -6   1 233.158 75.7957  -2
  -2  -6   2 233.158 75.7957   1
  -1  -6   2 1430.14 23.1767   1
   0  -6   2 76.1694 56.7587  -2
   0  -6   2 76.1694 56.7587   1
   1  -6   2 921.778 20.6410  -2
   1  -6   2 921.778 20.6410   1
   2  -6   2 11.7459 2.01746  -2
   2  -6   2 11.7459 2.01746   1
   3  -6   2 226.925 8.08044  -2
   3  -6   2 226.925 8.08044   1
   4  -6   2 235.316 9.24917  -2
   4  -6   2 235.316 9.24917   1
   5  -6   2 266.329 8.56341  -2
   5  -6   2 266.329 8.56341   1
   6  -6   3 107.362 9.79318  -2
   6  -6   2 107.362 9.79318   1
   7  -6   3 49.0884 7.11263  -2
   7  -6   2 49.0884 7.11263   1
   8  -6   3 271.591 10.2781  -2
   8  -6   2 271.591 10.2781   1
   9  -6   3 86.3401 12.7214  -2
   9  -6   2 86.3401 12.7214   1
  10  -6   3 129.587 10.8361  -2
  10  -6   2 129.587 10.8361   1
  11  -6   3 55.1756 14.7307  -2
  11  -6   2 55.1756 14.7307   1
  12   5   0 39.0014 20.7592  -2
 -12  -5   2 39.0014 20.7592   1
  11   5   0 22.4157 18.5658  -2
 -11  -5   2 22.4157 18.5658   1
  10   5   0 68.9773 18.7122  -2
 -10  -5   2 68.9773 18.7122   1
  -9  -5   2 0.04885 7.95350   1
  -8  -5   2 281.711 10.8481   1
  -7  -5   2 0.50418 6.37786   1
  -6  -5   1 868.527 33.5242  -2
  -6  -5   2 868.527 33.5242   1
  -5  -5   1 387.645 9.49009  -2
  -5  -5   2 387.645 9.49009   1
  -4  -5   1 664.471 16.7363  -2
  -4  -5   2 664.471 16.7363   1
  -3  -5   1 813.056 17.7198  -2
  -3  -5   2 813.056 17.7198   1
  -2  -5   1 861.910 76.3224  -2
  -2  -5   2 861.910 76.3224   1
  -1  -5   2 375.130 9.14296   1
   0  -5   2 65.0086 4.86777  -2
   0  -5   2 65.0086 4.86777   1
   1  -5   2 952.417 51.7892  -2
   1  -5   2 952.417 51.7892   1
   2  -5   2 46.4173 2.35630  -2
   2  -5   2 46.4173 2.35630   1
   3  -5   2 134.063 5.74304  -2
   3  -5   2 134.063 5.74304   1
   4  -5   2 83.8049 6.46942  -2
   4  -5   2 83.8049 6.46942   1
   5  -5   2 554.666 21.4051  -2
   5  -5   2 554.666 21.4051   1
   6  -5   3 152.245 8.97137  -2
   6  -5   2 152.245 8.97137   1
   7  -5   3 92.6823 8.65135  -2
   7  -5   2 92.6823 8.65135   1
   8  -5   3 383.222 11.4255  -2
   8  -5   2 383.222 11.4255   1
   9  -5   3 102.037 11.8449  -2
   9  -5   2 102.037 11.8449   1
  10  -5   3 129.516 10.4296  -2
  10  -5   2 129.516 10.4296   1
  11  -5   3 28.9059 12.0259  -2
  11  -5   2 28.9059 12.0259   1
  13  -5   2 -4.9551 8.89670   1
  13   4   0 79.5305 13.8578  -2
 -13  -4   2 79.5305 13.8578   1
  12   4   0 58.3289 12.2610  -2
 -12  -4   2 58.3289 12.2610   1
  11   4   0 41.8095 17.7960  -2
 -11  -4   2 41.8095 17.7960   1
  10   4   0 70.8616 17.7924  -2
 -10  -4   2 70.8616 17.7924   1
  -9  -4   2 79.0557 11.2508   1
  -8  -4   2 243.489 10.1229   1
  -7  -4   1 70.3407 12.8552  -2
  -7  -4   2 70.3407 12.8552   1
  -6  -4   1 725.906 28.8567  -2
  -6  -4   2 725.906 28.8567   1
  -5  -4   1 194.228 6.71381  -2
  -5  -4   2 194.228 6.71381   1
  -4  -4   1 695.600 16.2466  -2
  -4  -4   2 695.600 16.2466   1
  -3  -4   1 323.887 8.32270  -2
  -3  -4   2 323.887 8.32270   1
  -2  -4   2 282.115 6.17945   1
  -1  -4   2 333.625 6.75035   1
   0  -4   2 250.332 8.68722  -2
   0  -4   2 250.332 8.68722   1
   1  -4   2 1317.55 23.1305  -2
   1  -4   2 1317.55 23.1305   1
   2  -4   2 2.15110 18.8150  -2
   2  -4   2 2.15110 18.8150   1
   3  -4   2 714.317 12.8404  -2
   3  -4   2 714.317 12.8404   1
   4  -4   2 160.944 7.12426  -2
   4  -4   2 160.944 7.12426   1
   5  -4   3 1019.93 36.1780  -2
   5  -4   2 1019.93 36.1780   1
   6  -4   3 151.843 6.76238  -2
   6  -4   2 151.843 6.76238   1
   7  -4   3 278.662 15.3251  -2
   7  -4   2 278.662 15.3251   1
   8  -4   3 217.211 8.84614  -2
   8  -4   2 217.211 8.84614   1
   9  -4   3 356.587 12.2038  -2
   9  -4   2 356.587 12.2038   1
  10  -4   3 126.460 11.1739  -2
  10  -4   2 126.460 11.1739   1
  11  -4   3 163.469 21.6895  -2
  11  -4   2 163.469 21.6895   1
  11  -4   1 163.469 21.6895   1
  12  -4   4 75.1624 17.9538  -2
  12  -4   2 75.1624 17.9538   1
  13  -4   4 16.3615 14.0453  -2
  13  -4   2 16.3615 14.0453   1
  13   3   0 51.5251 12.9623  -2
 -13  -3   2 51.5251 12.9623   1
  12   3   0 11.6442 10.8658  -2
 -12  -3   2 11.6442 10.8658   1
  11   3   0 134.807 11.8052  -2
 -11  -3   2 134.807 11.8052   1
  10   3   0 51.6679 15.6982  -2
 -10  -3   2 51.6679 15.6982   1
  -9  -3   2 212.669 14.6151   1
  -8  -3   1 419.414 21.8904  -2
  -8  -3   2 419.414 21.8904   1
  -7  -3   1 91.5483 12.5045  -2
  -7  -3   2 91.5483 12.5045   1
  -6  -3   1 793.163 30.4923  -2
  -6  -3   2 793.163 30.4923   1
  -5  -3   1 372.738 17.3442  -2
  -5  -3   2 372.738 17.3442   1
  -4  -3   1 641.515 18.3007  -2
  -4  -3   2 641.515 18.3007   1
  -3  -3   1 427.833 16.2739  -2
  -3  -3   2 427.833 16.2739   1
  -2  -3   2 28.0280 2.30323   1
  -1  -3   2 1152.55 36.0808  -2
  -1  -3   2 1152.55 36.0808   1
   0  -3   2 334.518 10.5923  -2
   0  -3   2 334.518 10.5923   1
   1  -3   2 76.4483 2.95343  -2
   1  -3   2 76.4483 2.95343   1
   2  -3   2 265.829 5.41240  -2
   2  -3   2 265.829 5.41240   1
   3  -3   2 1283.23 28.5123  -2
   3  -3   2 1283.23 28.5123   1
   4  -3   2 250.259 11.9452  -2
   4  -3   2 250.259 11.9452   1
   5  -3   3 1063.03 21.1476  -2
   5  -3   2 1063.03 21.1476   1
   6  -3   3 299.575 13.9264  -2
   6  -3   2 299.575 13.9264   1
   7  -3   3 296.514 9.10116  -2
   7  -3   2 296.514 9.10116   1
   8  -3   3 88.6499 7.15875  -2
   8  -3   2 88.6499 7.15875   1
   9  -3   3 142.213 10.1350  -2
   9  -3   2 142.213 10.1350   1
  10  -3   3 73.2659 10.5935  -2
  10  -3   2 73.2659 10.5935   1
  11  -3   3 96.5422 20.9132  -2
  11  -3   2 96.5422 20.9132   1
  11  -3   1 96.5422 20.9132   1
  12  -3   4 32.7322 13.1690  -2
  12  -3   2 32.7322 13.1690   1
  13  -3   4 8.23547 13.9099  -2
  13  -3   2 8.23547 13.9099   1
  13   2   0 54.7760 12.2278  -2
 -13  -2   2 54.7760 12.2278   1
  12   2   0 -9.0486 10.6878  -2
 -12  -2   2 -9.0486 10.6878   1
  11   2   0 246.658 13.2448  -2
 -11  -2   2 246.658 13.2448   1
  10   2   0 52.5072 10.6060  -2
 -10  -2   2 52.5072 10.6060   1
   9   2   0 301.233 20.1546  -2
  -9  -2   2 301.233 20.1546   1
  -8  -2   1 268.648 17.3130  -2
  -8  -2   2 268.648 17.3130   1
  -7  -2   1 146.312 12.7967  -2
  -7  -2   2 146.312 12.7967   1
  -6  -2   1 605.165 24.4913  -2
  -6  -2   2 605.165 24.4913   1
  -5  -2   1 340.991 11.2869  -2
  -5  -2   2 340.991 11.2869   1
  -4  -2   1 1151.88 23.2635  -2
  -4  -2   2 1151.88 23.2635   1
  -3  -2   2 -2.2162 1.51854   1
  -2  -2   2 1715.04 24.6744   1
  -1  -2   2 2826.40 85.6487  -2
  -1  -2   2 2826.40 85.6487   1
   0  -2   2 2307.66 48.7937  -2
   0  -2   2 2307.66 48.7937   1
   1  -2   2 337.553 7.00862  -2
   1  -2   2 337.553 7.00862   1
   2  -2   2 1061.59 22.1844  -2
   2  -2   2 1061.59 22.1844   1
   3  -2   2 580.415 19.1902  -2
   3  -2   2 580.415 19.1902   1
   4  -2   2 211.238 5.11188   1
   5  -2   3 652.854 17.1401  -2
   5  -2   2 652.854 17.1401   1
   6  -2   3 155.963 6.21360  -2
   6  -2   2 155.963 6.21360   1
   7  -2   3 480.523 12.0120  -2
   7  -2   2 480.523 12.0120   1
   8  -2   3 55.4703 6.51825  -2
   8  -2   2 55.4703 6.51825   1
   9  -2   3 142.883 10.6963  -2
   9  -2   2 142.883 10.6963   1
  10  -2   3 100.088 15.4096  -2
  10  -2   2 100.088 15.4096   1
  11  -2   2 42.5839 7.18441   1
  12  -2   4 63.9002 13.5513  -2
  12  -2   2 63.9002 13.5513   1
  13  -2   4 4.87207 12.9326  -2
  13  -2   2 4.87207 12.9326   1
  13   1   0 66.8497 12.4178  -2
 -13  -1   2 66.8497 12.4178   1
  12   1   0 20.5237 10.6013  -2
 -12  -1   2 20.5237 10.6013   1
  11   1   0 263.368 13.6841  -2
 -11  -1   2 263.368 13.6841   1
   9   1   0 322.182 21.4185  -2
  -9  -1   1 322.182 21.4185   1
  -9  -1   2 322.182 21.4185   1
  -8  -1   1 134.673 13.9257  -2
  -8  -1   2 134.673 13.9257   1
  -7  -1   1 372.818 12.1195  -2
  -7  -1   2 372.818 12.1195   1
  -6  -1   1 499.601 14.1012  -2
  -6  -1   2 499.601 14.1012   1
  -5  -1   1 308.187 7.97497  -2
  -5  -1   2 308.187 7.97497   1
  -4  -1   1 784.719 21.7012  -2
  -4  -1   2 784.719 21.7012   1
  -3  -1   2 7.67270 1.63127   1
  -2  -1   2 305.747 10.9821  -2
  -2  -1   2 305.747 10.9821   1
  -1  -1   2 59.0556 3.24043  -2
  -1  -1   2 59.0556 3.24043   1
   0  -1   2 4858.23 154.896  -2
   0  -1   2 4858.23 154.896   1
   1  -1   2 86.7657 3.96597  -2
   1  -1   2 86.7657 3.96597   1
   2  -1   2 3778.74 79.9843  -2
   2  -1   2 3778.74 79.9843   1
   3  -1   2 1360.60 42.4503  -2
   3  -1   2 1360.60 42.4503   1
   4  -1   2 650.787 11.6517   1
   5  -1   3 632.669 22.2766  -2
   5  -1   2 632.669 22.2766   1
   6  -1   3 162.034 6.36016  -2
   6  -1   2 162.034 6.36016   1
   7  -1   3 485.274 11.9594  -2
   7  -1   2 485.274 11.9594   1
   8  -1   3 126.938 9.33409  -2
   8  -1   2 126.938 9.33409   1
   9  -1   3 237.879 12.3837  -2
   9  -1   2 237.879 12.3837   1
  10  -1   3 62.1311 14.2167  -2
  10  -1   2 62.1311 14.2167   1
  11  -1   2 89.4676 8.31186   1
  12  -1   4 -13.103 20.8699  -2
  12  -1   2 -13.103 20.8699   1
  13  -1   4 26.2247 13.6400  -2
  13  -1   2 26.2247 13.6400   1
  13   0   0 79.0019 12.0321  -2
 -13   0   2 79.0019 12.0321   1
  12   0   0 18.4753 10.3062  -2
 -12   0   2 18.4753 10.3062   1
  11   0   0 302.085 14.6735  -2
 -11   0   2 302.085 14.6735   1
  -9   0   1 100.718 10.1834  -2
  -9   0   2 100.718 10.1834   1
  -8   0   1 91.1484 6.84999  -2
  -8   0   2 91.1484 6.84999   1
  -7   0   1 255.435 8.58062  -2
  -7   0   2 255.435 8.58062   1
  -6   0   1 340.747 11.0147  -2
  -6   0   2 340.747 11.0147   1
  -5   0   1 685.002 15.2229  -2
  -5   0   2 685.002 15.2229   1
  -4   0   1 812.199 67.1550  -2
  -4   0   2 812.199 67.1550   1
  -3   0   2 5.86591 1.67905   1
  -2   0   2 734.742 30.9131  -2
  -2   0   2 734.742 30.9131   1
  -1   0   2 200.367 8.29012  -2
  -1   0   2 200.367 8.29012   1
   0   0   2 4141.49 87.6166  -2
   0   0   2 4141.49 87.6166   1
   1   0   2 179.305 6.73245  -2
   1   0   2 179.305 6.73245   1
   2   0   2 1908.69 65.5775  -2
   2   0   2 1908.69 65.5775   1
   3   0   2 237.687 5.01563   1
   4   0   2 548.250 10.4450   1
   5   0   2 471.872 9.82646   1
   6   0   3 282.086 8.78333  -2
   6   0   2 282.086 8.78333   1
   7   0   3 543.510 16.5258  -2
   7   0   2 543.510 16.5258   1
   8   0   3 57.7436 10.8307  -2
   8   0   2 57.7436 10.8307   1
   9   0   2 257.057 10.8966   1
  10   0   2 9.27202 5.90378   1
  11   0   2 148.853 10.1647   1
  12   0   4 22.1761 15.1873  -2
  12   0   2 22.1761 15.1873   1
  13   0   4 68.5536 14.2174  -2
  13   0   2 68.5536 14.2174   1
 -13   1   0 77.7116 12.4784  -2
 -13   1   2 77.7116 12.4784   1
 -12   1   0 12.2070 9.82036  -2
 -12   1   2 12.2070 9.82036   1
 -11   1   0 203.295 13.3937  -2
 -11   1   2 203.295 13.3937   1
  -9   1   1 195.041 11.5475  -2
  -9   1   2 195.041 11.5475   1
  -8   1   1 87.9235 8.47601  -2
  -8   1   2 87.9235 8.47601   1
  -7   1   1 421.980 13.5001  -2
  -7   1   2 421.980 13.5001   1
  -6   1   1 437.168 10.7540  -2
  -6   1   2 437.168 10.7540   1
  -5   1   1 484.983 10.5357  -2
  -5   1   2 484.983 10.5357   1
  -4   1   2 259.769 7.02772   1
  -3   1   2 194.283 4.42774   1
  -2   1   2 25.6750 27.4514  -2
  -2   1   2 25.6750 27.4514   1
  -1   1   2 21.3183 4.31735  -2
  -1   1   2 21.3183 4.31735   1
   0   1   2 1734.73 31.6317  -2
   0   1   2 1734.73 31.6317   1
   1   1   2 11.9940 18.6286  -2
   1   1   2 11.9940 18.6286   1
   2   1   2 1872.18 26.8039   1
   3   1   2 8.69194 1.48652   1
   4   1   2 1289.61 21.9959   1
   5   1   2 554.891 14.7524   1
   6   1   2 62.5259 5.41294   1
   7   1   2 274.138 9.83038   1
   8   1   2 48.3132 5.65977   1
   9   1   2 139.551 8.73474   1
  10   1   2 -2.9695 7.67991   1
  11   1   2 129.903 9.72720   1
  12   1   2 6.84459 6.54744   1
  13   1   2 71.4853 8.43881   1
 -13   2   0 49.4704 11.8967  -2
 -13   2   2 49.4704 11.8967   1
 -12   2   0 68.3589 12.7894  -2
 -12   2   2 68.3589 12.7894   1
 -11   2   0 143.716 16.3345  -2
 -11   2   2 143.716 16.3345   1
 -10   2   2 39.1651 13.9104   1
  -9   2   1 175.689 11.5734  -2
  -9   2   2 175.689 11.5734   1
  -8   2   1 4.69990 6.65857  -2
  -8   2   2 4.69990 6.65857   1
  -7   2   1 459.056 12.1693  -2
  -7   2   2 459.056 12.1693   1
  -6   2   1 242.274 9.41641  -2
  -6   2   2 242.274 9.41641   1
  -5   2   1 328.776 14.0804  -2
  -5   2   2 328.776 14.0804   1
  -4   2   2 150.080 4.39728   1
  -3   2   2 1509.77 22.7400   1
  -2   2   2 227.750 34.0249  -2
  -2   2   2 227.750 34.0249   1
  -1   2   2 513.872 17.5582  -2
  -1   2   2 513.872 17.5582   1
   0   2   2 3148.89 132.041  -2
   0   2   2 3148.89 132.041   1
   1   2   2 413.282 7.63426   1
   2   2   2 679.830 11.7331   1
   3   2   2 17.0369 2.08635   1
   4   2   2 563.540 10.9665   1
   5   2   2 327.382 10.0142   1
   6   2   2 303.172 10.1064   1
   7   2   2 85.1976 6.77266   1
   8   2   2 151.385 8.12732   1
   9   2   2 85.4828 7.39943   1
  10   2   2 30.2070 6.39353   1
  11   2   2 123.104 9.90945   1
  12   2   2 -6.9658 6.24327   1
  13   2   2 50.1283 8.04928   1
 -13   3   0 0.82921 13.3624  -2
 -13   3   2 0.82921 13.3624   1
 -12   3   0 64.6055 13.8361  -2
 -12   3   2 64.6055 13.8361   1
 -11   3   2 45.6487 11.1804   1
 -10   3   1 136.613 22.1780  -2
 -10   3   2 136.613 22.1780   1
  -9   3   1 66.8803 13.6084  -2
  -9   3   2 66.8803 13.6084   1
  -8   3   1 277.752 10.7692  -2
  -8   3   2 277.752 10.7692   1
  -7   3   1 107.237 8.92217  -2
  -7   3   2 107.237 8.92217   1
  -6   3   1 172.296 7.16498  -2
  -6   3   2 172.296 7.16498   1
  -5   3   2 312.524 8.03943   1
  -4   3   2 0.49196 2.04847   1
  -3   3   2 454.765 8.86138   1
  -2   3   2 821.561 27.5351  -2
  -2   3   2 821.561 27.5351   1
  -1   3   2 579.362 10.7059   1
   0   3   2 724.773 12.2137   1
   1   3   2 436.321 8.32167   1
   2   3   2 970.363 16.0195   1
   3   3   2 8.15364 3.07261   1
   4   3   2 349.320 8.71491   1
   5   3   2 3.89228 2.95117   1
   6   3   2 229.261 8.79880   1
   7   3   2 18.3423 4.80006   1
   8   3   2 88.9400 7.71575   1
  10   3   2 83.5927 7.96666   1
  11   3   2 118.380 9.81140   1
  12   3   2 24.2853 7.55744   1
  13   3   2 31.3989 11.0485   1
 -13   4   0 9.68657 16.5928  -2
 -13   4   2 9.68657 16.5928   1
 -12   4   2 39.1297 13.2010   1
 -11   4   1 48.7070 13.4839  -2
 -11   4   2 48.7070 13.4839   1
 -10   4   0 90.9149 27.0073  -2
 -10   4   2 90.9149 27.0073   1
 -10   4   1 78.6092 20.1331  -2
 -10   4   2 78.6092 20.1331   1
  -9   4   1 115.703 10.3292  -2
  -9   4   2 115.703 10.3292   1
  -8   4   1 68.1078 8.60740  -2
  -8   4   2 68.1078 8.60740   1
  -7   4   1 353.940 13.7301  -2
  -7   4   2 353.940 13.7301   1
  -6   4   1 119.677 7.60932  -2
  -6   4   2 119.677 7.60932   1
  -5   4   2 934.513 24.5452   1
  -4   4   2 29.4245 2.84715   1
  -3   4   2 157.081 4.65025   1
  -2   4   2 545.554 10.0999   1
  -1   4   2 679.348 12.1753   1
   0   4   2 662.364 11.9651   1
   1   4   2 328.435 7.08103   1
   2   4   2 323.174 9.36533   1
   3   4   2 88.1939 3.41529   1
   4   4   2 292.271 9.03287   1
   5   4   2 4.51795 2.35001   1
   6   4   2 456.323 13.6683   1
   7   4   2 5.21505 4.07983   1
   8   4   2 156.652 8.72393   1
   9   4   2 53.8361 6.84978   1
  10   4   2 159.789 9.59247   1
  11   4   2 93.9466 8.92054   1
  12   4   2 9.03216 6.97600   1
 -13   5   2 -17.409 14.5104   1
 -12   5   2 111.144 11.6832   1
 -11   5   0 75.6162 31.0808  -2
 -11   5   2 75.6162 31.0808   1
 -11   5   1 30.4817 15.7909  -2
 -11   5   2 30.4817 15.7909   1
 -10   5   2 103.862 16.7461   1
  -9   5   1 108.004 12.4881  -2
  -9   5   2 108.004 12.4881   1
  -8   5   1 102.844 10.7206  -2
  -8   5   2 102.844 10.7206   1
  -7   5   1 343.802 13.8793  -2
  -7   5   2 343.802 13.8793   1
  -6   5   2 59.0355 4.94198   1
  -5   5   2 770.760 16.4317   1
  -4   5   2 73.7557 5.51477   1
  -3   5   2 881.253 19.4396   1
  -2   5   2 28.7298 2.33186   1
  -1   5   2 1651.48 26.0980   1
   0   5   2 201.587 4.92602   1
   1   5   2 565.030 11.1500   1
   2   5   2 144.017 4.51005   1
   3   5   2 107.881 5.60600   1
   4   5   2 374.666 9.22149   1
   5   5   2 69.0703 5.65278   1
   6   5   2 278.046 10.1008   1
   7   5   2 12.4389 4.80734   1
   8   5   2 198.848 9.77829   1
   9   5   2 37.0701 6.30815   1
  10   5   2 136.189 9.76012   1
  11   5   2 38.7685 7.72604   1
  12   5   2 40.5382 7.51089   1
 -12   6   2 60.2239 9.35109   1
 -11   6   0 36.0967 32.0336  -2
 -11   6   2 36.0967 32.0336   1
 -11   6   1 55.4588 15.3026  -2
 -11   6   2 55.4588 15.3026   1
 -10   6   1 90.7428 15.9776  -2
 -10   6   2 90.7428 15.9776   1
  -9   6   1 63.0906 11.7627  -2
  -9   6   2 63.0906 11.7627   1
  -8   6   1 152.320 12.2475  -2
  -8   6   2 152.320 12.2475   1
  -7   6   1 296.131 20.9086  -2
  -7   6   2 296.131 20.9086   1
  -6   6   2 411.618 11.0299   1
  -5   6   2 285.163 8.64974   1
  -4   6   2 124.735 6.45133   1
  -3   6   2 587.860 12.6267   1
  -2   6   2 -0.3182 1.89675   1
  -1   6   2 742.675 15.1310   1
   0   6   2 19.5653 2.67734   1
   1   6   2 615.287 13.0550   1
   2   6   2 246.724 6.87512   1
   3   6   2 266.905 9.06240   1
   4   6   2 575.213 12.9847   1
   5   6   2 87.7686 5.42665   1
   6   6   2 465.142 14.3658   1
   7   6   2 17.8675 5.37418   1
   8   6   2 228.322 10.8479   1
   9   6   2 3.23130 5.48437   1
  10   6   2 160.964 10.1027   1
  11   6   2 29.4103 7.22371   1
  12   6   2 60.4973 8.54088   1
 -12   7   2 57.7366 10.4241   1
 -11   7   1 1.08748 17.7506  -2
 -11   7   2 1.08748 17.7506   1
 -11   7   0 -2.6003 32.6762  -2
 -11   7   2 -2.6003 32.6762   1
 -10   7   1 103.919 18.9094  -2
 -10   7   2 103.919 18.9094   1
  -9   7   2 -2.2188 7.30818   1
  -8   7   1 192.431 13.6081  -2
  -8   7   2 192.431 13.6081   1
  -7   7   2 21.3757 5.03848   1
  -6   7   2 376.095 10.9485   1
  -5   7   2 50.9780 5.77263   1
  -4   7   2 65.8375 4.33197   1
  -3   7   2 418.142 9.92199   1
  -2   7   2 30.8752 3.00264   1
  -1   7   2 338.809 8.43943   1
   0   7   2 42.6409 3.50005   1
   1   7   2 303.111 7.96967   1
   2   7   2 23.3855 3.95019   1
   3   7   2 334.777 8.99043   1
   4   7   2 169.538 6.55097   1
   5   7   2 266.983 8.66891   1
   6   7   2 506.961 22.8689   1
   7   7   2 225.805 10.2370   1
   8   7   2 116.644 8.79862   1
   9   7   2 9.88816 5.97822   1
  10   7   2 241.937 11.8142   1
  11   7   2 -5.3463 6.26431   1
 -12   8   0 52.2800 42.3891  -2
 -12   8   2 52.2800 42.3891   1
 -11   8   2 11.9138 8.05268   1
 -10   8   1 75.0383 19.5951  -2
 -10   8   2 75.0383 19.5951   1
  -9   8   2 -6.2777 6.21129   1
  -8   8   2 176.935 11.7482   1
  -7   8   2 20.3311 6.07912   1
  -6   8   2 145.384 9.05813   1
  -5   8   2 116.336 5.99584   1
  -4   8   2 52.2011 4.38888   1
  -3   8   2 36.0189 3.57585   1
  -2   8   2 1.71865 3.13403   1
  -1   8   2 220.855 6.99004   1
   0   8   2 18.6958 3.30764   1
   1   8   2 400.533 12.5026   1
   2   8   2 1.12675 2.96451   1
   3   8   2 444.697 11.2303   1
   4   8   2 36.0855 4.89443   1
   5   8   2 263.096 9.10645   1
   6   8   2 229.808 15.1525   1
   7   8   2 35.2547 6.44946   1
   8   8   2 48.8068 6.69907   1
   9   8   2 5.41416 6.17232   1
  10   8   2 58.2403 7.26444   1
  11   8   2 -5.4824 6.11003   1
 -11   9   2 4.04152 9.21207   1
 -10   9   2 52.4376 8.85172   1
  -9   9   2 5.73703 7.44460   1
  -8   9   2 137.915 11.1038   1
  -7   9   2 -4.6237 5.56829   1
  -6   9   2 137.458 7.19131   1
  -5   9   2 75.3076 5.46129   1
  -4   9   2 115.740 5.91400   1
  -3   9   2 38.4367 4.05380   1
  -2   9   2 184.964 6.73417   1
  -1   9   2 411.656 10.4896   1
   0   9   2 147.897 6.30191   1
   1   9   2 500.220 12.2440   1
   2   9   2 9.10052 3.50236   1
   3   9   2 253.581 8.53363   1
   4   9   2 12.4666 4.10747   1
   5   9   2 237.896 9.11214   1
   6   9   2 58.0175 10.4324   1
   7   9   2 66.4191 7.41507   1
   8   9   2 59.1971 7.30873   1
   9   9   2 36.6797 10.6858   1
  10   9   2 63.4822 13.9117   1
 -10  10   2 6.21924 8.44605   1
  -9  10   2 14.4913 8.55229   1
  -8  10   2 105.794 9.88066   1
  -7  10   2 6.21402 6.68039   1
  -6  10   2 163.353 7.86086   1
  -5  10   2 -0.1098 4.76919   1
  -4  10   2 100.120 6.09859   1
  -3  10   2 8.55574 3.69773   1
  -2  10   2 124.475 6.33752   1
  -1  10   2 70.3558 5.39514   1
   0  10   2 132.778 6.60528   1
   1  10   2 238.770 8.38672   1
   2  10   2 103.064 6.41249   1
   3  10   2 128.000 7.05839   1
   4  10   2 0.45757 4.15604   1
   5  10   2 173.956 8.80539   1
   6  10   2 10.4082 5.82985   1
   7  10   2 65.8824 12.0286   1
   8  10   2 16.5272 10.7470   1
   9  10   2 49.8528 12.0793   1
 -10  11   2 40.9860 10.1079   1
  -9  11   2 33.9324 9.12648   1
  -8  11   2 86.1652 9.80905   1
  -7  11   2 9.58413 6.99155   1
  -6  11   2 93.0903 9.22478   1
  -5  11   2 9.00460 6.25553   1
  -4  11   2 208.172 11.1509   1
  -3  11   2 -4.5896 4.20817   1
  -2  11   2 160.126 7.70753   1
  -1  11   2 59.3173 5.42117   1
   0  11   2 98.4939 6.67462   1
   1  11   2 93.7279 6.56625   1
   2  11   2 73.3403 6.21774   1
   3  11   2 102.170 7.43433   1
   4  11   2 3.96971 4.62636   1
   5  11   2 191.385 10.2976   1
   6  11   2 -3.8414 5.92911   1
   7  11   2 133.231 15.6963   1
   8  11   2 -2.3672 9.80134   1
   9  11   2 80.3957 13.5020   1
  -9  12   2 34.0799 9.02941   1
  -8  12   2 18.0000 8.40823   1
  -7  12   2 43.8621 8.71727   1
  -6  12   2 58.0961 8.09496   1
  -5  12   2 18.6043 6.96751   1
  -4  12   2 132.344 12.0468   1
  -3  12   2 -2.6648 5.78236   1
  -2  12   2 245.070 11.9122   1
  -1  12   2 17.3014 5.05249   1
   0  12   2 169.083 8.65985   1
   1  12   2 40.2854 7.57284   1
   2  12   2 114.595 7.96102   1
   2  12   3 100.287 16.5279  -2
   3  12   2 100.287 16.5279   1
   3  12   3 119.077 16.4829  -2
   4  12   2 119.077 16.4829   1
   5  12   2 116.135 9.22494   1
   6  12   2 -0.1246 6.63728   1
   7  12   2 105.147 14.9975   1
   7  12   4 17.3288 30.4055  -2
   8  12   2 17.3288 30.4055   1
  -8  13   2 15.1341 8.57276   1
  -7  13   2 46.3730 9.09756   1
  -6  13   2 33.5491 8.22657   1
  -5  13   2 30.0373 7.83185   1
  -4  13   2 55.7035 8.14450   1
  -3  13   2 5.35321 6.65282   1
  -2  13   2 137.742 10.6475   1
  -1  13   2 -2.4051 6.14113   1
   0  13   2 161.119 11.0377   1
   1  13   2 12.6971 5.35790   1
   2  13   2 147.299 9.35076   1
   2  13   3 29.0045 15.9865  -2
   3  13   2 29.0045 15.9865   1
   3  13   3 161.416 19.3468  -2
   4  13   2 161.416 19.3468   1
   4  13   3 71.3309 18.8882  -2
   5  13   2 71.3309 18.8882   1
   5  13   4 -0.7626 17.3339  -2
   6  13   2 -0.7626 17.3339   1
   6  13   4 54.1086 30.3807  -2
   7  13   2 54.1086 30.3807   1
  -7  14   2 40.6846 9.20069   1
  -6  14   2 20.0452 8.20246   1
  -5  14   2 37.5603 8.43233   1
  -4  14   2 43.0227 8.51495   1
  -3  14   2 18.2106 7.32135   1
  -2  14   2 33.9295 7.68688   1
  -1  14   2 -1.3553 7.04750   1
   0  14   2 127.525 11.4793   1
   1  14   2 -1.4700 7.15898   1
   2  14   2 115.040 11.0393   1
   2  14   3 -12.008 15.9675  -2
   3  14   2 -12.008 15.9675   1
   3  14   3 82.9479 19.1501  -2
   4  14   2 82.9479 19.1501   1
   4  14   3 73.5420 19.9876  -2
   5  14   2 73.5420 19.9876   1
  -5  15   2 24.5708 8.70737   1
  -4  15   2 52.6410 9.29158   1
  -3  15   2 39.4916 8.61862   1
  -2  15   2 34.7648 8.33846   1
  -1  15   2 22.6949 7.92816   1
   0  15   2 46.4638 8.75079   1
   1  15   2 -6.9831 7.74466   1
   1  15   3 133.223 19.1409  -2
   2  15   2 133.223 19.1409   1
   3  15   2 10.1645 17.1025   1
  -1 -17   3 35.2500 13.7528   1
   0 -17   3 35.9912 8.27656   1
   1 -17   3 -1.8705 7.29591   1
   2 -17   3 11.5090 11.5553   1
  -4 -16   3 26.5566 7.51600   1
  -3 -16   3 76.3923 9.62861   1
  -2 -16   3 36.2198 8.90404   1
  -1 -16   3 76.3024 8.60565   1
   0 -16   3 30.2167 7.50020   1
   1 -16   2 18.0709 15.3589  -2
   1 -16   3 18.0709 15.3589   1
   2 -16   3 39.1933 7.84982   1
   3 -16   3 -5.6837 6.58903   1
   4 -16   3 20.7061 7.32210   1
   5 -16   3 -1.5797 6.85143   1
  -5 -15   1 65.4502 17.7505  -2
  -6 -15   3 65.4502 17.7505   1
  -5 -15   3 81.5309 11.0810   1
  -4 -15   3 15.7592 7.50535   1
  -3 -15   3 62.2284 8.73360   1
  -2 -15   3 7.07908 6.80048   1
  -1 -15   3 86.0273 9.18373   1
   0 -15   3 24.7895 7.04964   1
   1 -15   3 53.6829 7.67200   1
   2 -15   3 49.7983 7.67614   1
   3 -15   3 26.1122 7.49537   1
   4 -15   3 41.2819 8.14740   1
   5 -15   3 12.2968 6.68304   1
   6 -15   3 85.9993 19.3482  -2
   6 -15   3 85.9993 19.3482   1
   7 -15   3 -6.9032 9.93393   1
  -6 -14   1 13.1450 16.6281  -2
  -7 -14   3 13.1450 16.6281   1
  -6 -14   3 43.4264 8.31891   1
  -5 -14   3 64.3473 7.64077   1
  -4 -14   3 0.90195 6.32156   1
  -3 -14   3 131.617 10.5827   1
  -2 -14   3 5.43318 6.08665   1
  -1 -14   3 117.588 9.49237   1
   0 -14   2 38.2381 13.5182  -2
   0 -14   3 38.2381 13.5182   1
   1 -14   3 52.8446 7.49351   1
   2 -14   2 64.1566 13.2262  -2
   2 -14   3 64.1566 13.2262   1
   3 -14   3 38.9575 6.95249   1
   4 -14   3 47.2738 7.34037   1
   5 -14   3 41.2018 16.1414  -2
   5 -14   3 41.2018 16.1414   1
   6 -14   3 108.356 18.9658  -2
   6 -14   3 108.356 18.9658   1
   7 -14   3 8.17323 17.0238  -2
   7 -14   3 8.17323 17.0238   1
   8 -14   4 47.7871 22.3489  -2
   8 -14   3 47.7871 22.3489   1
   8 -14   3 76.6806 19.6288  -2
   8 -14   3 76.6806 19.6288   1
  -8 -13   3 70.7101 14.4723   1
  -7 -13   1 44.9772 16.1124  -2
  -7 -13   3 44.9772 16.1124   1
  -6 -13   3 112.734 10.4639   1
  -5 -13   3 94.2207 7.81138   1
  -4 -13   3 41.6313 5.93112   1
  -3 -13   3 184.412 8.91592   1
  -2 -13   2 110.224 13.8517  -2
  -2 -13   3 110.224 13.8517   1
  -1 -13   2 172.723 16.1508  -2
  -1 -13   3 172.723 16.1508   1
   0 -13   2 35.4747 11.6962  -2
   0 -13   3 35.4747 11.6962   1
   1 -13   2 49.4594 12.7517  -2
   1 -13   3 49.4594 12.7517   1
   2 -13   2 58.3353 12.6579  -2
   2 -13   3 58.3353 12.6579   1
   3 -13   3 103.134 18.0555  -2
   3 -13   3 103.134 18.0555   1
   4 -13   3 110.425 16.0916  -2
   4 -13   3 110.425 16.0916   1
   5 -13   3 90.5130 12.2453  -2
   5 -13   3 90.5130 12.2453   1
   6 -13   3 110.670 18.4278  -2
   6 -13   3 110.670 18.4278   1
   7 -13   3 41.7123 17.2739  -2
   7 -13   3 41.7123 17.2739   1
   8 -13   3 39.1978 17.8753  -2
   8 -13   3 39.1978 17.8753   1
   8 -13   4 11.4252 20.2837  -2
   8 -13   3 11.4252 20.2837   1
   9 -13   3 -7.7548 9.35863   1
  -9 -12   3 -6.3115 6.44217   1
  -8 -12   3 140.892 17.3242   1
  -7 -12   1 10.7762 16.1898  -2
  -7 -12   3 10.7762 16.1898   1
  -6 -12   3 117.534 9.94579   1
  -5 -12   3 71.5923 6.55403   1
  -4 -12   3 47.9395 5.47861   1
  -3 -12   3 90.4373 6.69635   1
  -2 -12   3 4.72824 7.80436   1
  -1 -12   3 130.146 9.91063   1
   0 -12   2 68.0379 11.6124  -2
   0 -12   3 68.0379 11.6124   1
   1 -12   2 67.8959 12.3436  -2
   1 -12   3 67.8959 12.3436   1
   2 -12   3 11.3240 5.50079   1
   4 -12   3 8.45036 15.1853  -2
   4 -12   3 8.45036 15.1853   1
   5 -12   3 121.773 12.1954  -2
   5 -12   3 121.773 12.1954   1
   6 -12   3 66.6004 11.1815  -2
   6 -12   3 66.6004 11.1815   1
   7 -12   4 84.5814 19.2229  -2
   7 -12   3 84.5814 19.2229   1
   7 -12   3 103.886 16.5248  -2
   7 -12   3 103.886 16.5248   1
   8 -12   4 62.0306 19.7382  -2
   8 -12   3 62.0306 19.7382   1
   8 -12   3 57.5487 17.7509  -2
   8 -12   3 57.5487 17.7509   1
   9 -12   4 -10.668 21.7712  -2
   9 -12   3 -10.668 21.7712   1
  10 -12   4 29.4916 14.9188  -2
  10 -12   3 29.4916 14.9188   1
 -10 -11   3 57.3970 7.85527   1
  -9 -11   3 -0.8155 9.86574   1
  -8 -11   3 148.042 16.2205   1
  -7 -11   3 2.91316 5.81243   1
  -6 -11   3 191.104 9.01200   1
  -5 -11   3 23.8912 4.87171   1
  -4 -11   3 108.311 6.89694   1
  -3 -11   2 106.118 13.1859  -2
  -3 -11   3 106.118 13.1859   1
  -2 -11   2 41.2194 10.6991  -2
  -2 -11   3 41.2194 10.6991   1
  -1 -11   2 143.980 13.5041  -2
  -1 -11   3 143.980 13.5041   1
   0 -11   3 110.863 5.68973   1
   1 -11   3 220.704 9.76198   1
   2 -11   3 -20.286 13.0656  -2
   2 -11   3 -20.286 13.0656   1
   3 -11   3 414.322 14.9759  -2
   3 -11   3 414.322 14.9759   1
   4 -11   3 27.6512 9.57990  -2
   4 -11   3 27.6512 9.57990   1
   6 -11   3 50.7673 14.5350  -2
   6 -11   3 50.7673 14.5350   1
   7 -11   4 54.5080 18.3484  -2
   7 -11   3 54.5080 18.3484   1
   7 -11   3 58.2083 16.5113  -2
   7 -11   3 58.2083 16.5113   1
   8 -11   4 32.9182 18.4421  -2
   8 -11   3 32.9182 18.4421   1
   9 -11   4 38.5000 20.5993  -2
   9 -11   3 38.5000 20.5993   1
  10 -11   4 5.04146 13.6554  -2
  10 -11   3 5.04146 13.6554   1
 -10 -10   3 69.6592 13.7642   1
  -9 -10   3 3.59117 9.38985   1
  -8 -10   3 148.726 15.6180   1
  -7 -10   3 23.5099 6.04378   1
  -6 -10   3 258.282 9.55317   1
  -5 -10   3 3.10444 3.98955   1
  -4 -10   2 213.915 12.2406  -2
  -4 -10   3 213.915 12.2406   1
  -3 -10   2 96.1870 9.61448  -2
  -3 -10   3 96.1870 9.61448   1
  -2 -10   2 225.197 10.7350  -2
  -2 -10   3 225.197 10.7350   1
  -1 -10   2 221.676 10.2317  -2
  -1 -10   3 221.676 10.2317   1
   0 -10   3 268.299 7.65487   1
   1 -10   3 598.103 26.2887  -2
   1 -10   3 598.103 26.2887   1
   2 -10   3 -1.4102 7.43321  -2
   2 -10   3 -1.4102 7.43321   1
   3 -10   3 487.866 15.9603  -2
   3 -10   3 487.866 15.9603   1
   4 -10   3 30.6225 8.07753  -2
   4 -10   3 30.6225 8.07753   1
   5 -10   3 365.333 14.1244  -2
   5 -10   3 365.333 14.1244   1
   6 -10   3 32.2689 15.2514  -2
   6 -10   3 32.2689 15.2514   1
   7 -10   3 96.2053 16.4195  -2
   7 -10   3 96.2053 16.4195   1
   8 -10   4 24.4865 17.4803  -2
   8 -10   3 24.4865 17.4803   1
   9 -10   4 57.9976 12.1384  -2
   9 -10   3 57.9976 12.1384   1
  10 -10   4 67.0976 13.2803  -2
  10 -10   3 67.0976 13.2803   1
  11 -10   4 38.2267 13.5303  -2
  11 -10   3 38.2267 13.5303   1
 -11  -9   1 129.339 22.4965  -2
 -11  -9   3 129.339 22.4965   1
 -10  -9   3 -8.1594 8.47177   1
  -9  -9   3 39.6308 10.4295   1
  -8  -9   3 103.953 13.1980   1
  -7  -9   3 52.5478 6.95325   1
  -6  -9   3 343.434 10.2431   1
  -5  -9   2 105.743 13.7847  -2
  -5  -9   3 105.743 13.7847   1
  -4  -9   2 187.941 8.61835  -2
  -4  -9   3 187.941 8.61835   1
  -3  -9   2 167.804 9.01771  -2
  -3  -9   3 167.804 9.01771   1
  -2  -9   2 588.335 13.8611  -2
  -2  -9   3 588.335 13.8611   1
  -1  -9   2 349.976 12.0927  -2
  -1  -9   3 349.976 12.0927   1
   0  -9   3 505.577 11.3188   1
   1  -9   3 250.927 16.1276  -2
   1  -9   3 250.927 16.1276   1
   2  -9   3 287.637 11.2427  -2
   2  -9   3 287.637 11.2427   1
   3  -9   3 296.976 11.2938  -2
   3  -9   3 296.976 11.2938   1
   4  -9   3 31.3989 11.1629  -2
   4  -9   3 31.3989 11.1629   1
   5  -9   3 449.108 15.2500  -2
   5  -9   3 449.108 15.2500   1
   6  -9   3 25.4187 12.1078  -2
   6  -9   3 25.4187 12.1078   1
   7  -9   4 125.292 17.5628  -2
   7  -9   3 125.292 17.5628   1
   8  -9   4 87.4265 15.0559  -2
   8  -9   3 87.4265 15.0559   1
   9  -9   4 76.3136 11.6137  -2
   9  -9   3 76.3136 11.6137   1
  10  -9   4 58.2667 12.3632  -2
  10  -9   3 58.2667 12.3632   1
  11  -9   4 69.6785 14.8202  -2
  11  -9   3 69.6785 14.8202   1
 -11  -8   1 135.651 21.5062  -2
 -11  -8   3 135.651 21.5062   1
 -10  -8   1 -23.350 19.8855  -2
 -10  -8   3 -23.350 19.8855   1
  -9  -8   1 127.389 20.6900  -2
  -9  -8   3 127.389 20.6900   1
  -8  -8   3 89.0646 17.8432   1
  -7  -8   3 42.8994 6.79303   1
  -6  -8   2 255.758 17.1011  -2
  -6  -8   3 255.758 17.1011   1
  -5  -8   2 81.6458 7.50193  -2
  -5  -8   3 81.6458 7.50193   1
  -4  -8   2 169.929 8.78821  -2
  -4  -8   3 169.929 8.78821   1
  -3  -8   2 249.683 13.1423  -2
  -3  -8   3 249.683 13.1423   1
  -2  -8   2 690.651 18.4553  -2
  -2  -8   3 690.651 18.4553   1
  -1  -8   2 278.051 13.0672  -2
  -1  -8   3 278.051 13.0672   1
   0  -8   3 616.843 12.9598   1
   1  -8   3 316.365 11.1317  -2
   1  -8   3 316.365 11.1317   1
   2  -8   3 171.241 8.33630  -2
   2  -8   3 171.241 8.33630   1
   3  -8   3 776.282 20.3180  -2
   3  -8   3 776.282 20.3180   1
   4  -8   3 107.215 4.67946  -2
   4  -8   3 107.215 4.67946   1
   5  -8   3 339.887 12.6575  -2
   5  -8   3 339.887 12.6575   1
   6  -8   3 11.7548 11.1931  -2
   6  -8   3 11.7548 11.1931   1
   7  -8   4 139.947 16.4113  -2
   7  -8   3 139.947 16.4113   1
   8  -8   4 51.7521 10.3702  -2
   8  -8   3 51.7521 10.3702   1
   9  -8   4 99.6444 10.8601  -2
   9  -8   3 99.6444 10.8601   1
  10  -8   4 28.8107 12.4963  -2
  10  -8   3 28.8107 12.4963   1
  11  -8   4 68.5694 13.9840  -2
  11  -8   3 68.5694 13.9840   1
  12  -8   4 28.4121 16.6431  -2
  12  -8   3 28.4121 16.6431   1
 -12  -7   1 -16.824 20.1648  -2
 -12  -7   3 -16.824 20.1648   1
 -11  -7   1 116.997 20.4323  -2
 -11  -7   3 116.997 20.4323   1
 -10  -7   1 -16.156 18.7118  -2
 -10  -7   3 -16.156 18.7118   1
  -9  -7   1 116.276 19.6676  -2
  -9  -7   3 116.276 19.6676   1
  -8  -7   3 83.5804 11.9295   1
  -7  -7   3 154.474 12.2974   1
  -6  -7   2 118.500 7.65062  -2
  -6  -7   3 118.500 7.65062   1
  -5  -7   2 307.211 9.31889  -2
  -5  -7   3 307.211 9.31889   1
  -4  -7   2 298.561 10.8958  -2
  -4  -7   3 298.561 10.8958   1
  -3  -7   2 240.031 7.51790  -2
  -3  -7   3 240.031 7.51790   1
  -2  -7   2 826.904 17.0369  -2
  -2  -7   3 826.904 17.0369   1
  -1  -7   2 245.283 11.5386  -2
  -1  -7   3 245.283 11.5386   1
   0  -7   3 593.120 14.5613   1
   1  -7   3 75.8815 5.93519  -2
   1  -7   3 75.8815 5.93519   1
   2  -7   3 328.148 10.3547  -2
   2  -7   3 328.148 10.3547   1
   3  -7   3 172.353 7.30957  -2
   3  -7   3 172.353 7.30957   1
   4  -7   3 483.303 14.2502  -2
   4  -7   3 483.303 14.2502   1
   5  -7   3 344.963 12.4195  -2
   5  -7   3 344.963 12.4195   1
   7  -7   4 250.884 12.2223  -2
   7  -7   3 250.884 12.2223   1
   8  -7   4 64.8937 10.4360  -2
   8  -7   3 64.8937 10.4360   1
   9  -7   4 161.637 9.90981  -2
   9  -7   3 161.637 9.90981   1
  10  -7   4 31.5708 9.33055  -2
  10  -7   3 31.5708 9.33055   1
  11  -7   4 143.962 14.7361  -2
  11  -7   3 143.962 14.7361   1
  12  -7   4 53.6680 14.2602  -2
  12  -7   3 53.6680 14.2602   1
 -12  -6   1 4.03867 21.1749  -2
 -12  -6   3 4.03867 21.1749   1
 -11  -6   1 87.4920 18.4570  -2
 -11  -6   3 87.4920 18.4570   1
 -10  -6   1 -19.388 16.8513  -2
 -10  -6   3 -19.388 16.8513   1
  -9  -6   1 194.583 19.6498  -2
  -9  -6   3 194.583 19.6498   1
  -8  -6   3 51.9208 9.99572   1
  -7  -6   2 158.638 15.2861  -2
  -7  -6   3 158.638 15.2861   1
  -6  -6   2 90.2952 7.57165  -2
  -6  -6   3 90.2952 7.57165   1
  -5  -6   2 143.443 6.18873  -2
  -5  -6   3 143.443 6.18873   1
  -4  -6   2 521.335 14.2261  -2
  -4  -6   3 521.335 14.2261   1
  -3  -6   2 234.000 6.90083  -2
  -3  -6   3 234.000 6.90083   1
  -2  -6   2 537.205 19.0626  -2
  -2  -6   3 537.205 19.0626   1
  -1  -6   2 967.147 89.6413  -2
  -1  -6   3 967.147 89.6413   1
   0  -6   3 692.618 23.5525  -2
   0  -6   3 692.618 23.5525   1
   1  -6   3 16.6504 3.69875  -2
   1  -6   3 16.6504 3.69875   1
   2  -6   3 95.2865 8.50554  -2
   2  -6   3 95.2865 8.50554   1
   3  -6   3 84.0836 5.29681  -2
   3  -6   3 84.0836 5.29681   1
   4  -6   3 459.844 13.3015  -2
   4  -6   3 459.844 13.3015   1
   5  -6   3 234.553 10.2260  -2
   5  -6   3 234.553 10.2260   1
   6  -6   4 76.0603 9.07379  -2
   6  -6   3 76.0603 9.07379   1
   7  -6   4 89.1720 7.37843  -2
   7  -6   3 89.1720 7.37843   1
   8  -6   4 70.1110 7.72499  -2
   8  -6   3 70.1110 7.72499   1
   9  -6   4 210.367 10.2023  -2
   9  -6   3 210.367 10.2023   1
  10  -6   4 44.1038 9.35438  -2
  10  -6   3 44.1038 9.35438   1
  11  -6   4 159.393 14.4471  -2
  11  -6   3 159.393 14.4471   1
  12  -6   4 52.9122 29.3964  -2
  12  -6   3 52.9122 29.3964   1
 -13  -5   3 50.8273 11.7378   1
 -12  -5   1 33.0879 18.9652  -2
 -12  -5   3 33.0879 18.9652   1
 -11  -5   1 113.405 18.6847  -2
 -11  -5   3 113.405 18.6847   1
 -10  -5   1 -10.484 16.7462  -2
 -10  -5   3 -10.484 16.7462   1
  -8  -5   3 0.46753 6.55964   1
  -7  -5   3 446.337 20.3364   1
  -6  -5   2 245.035 9.24691  -2
  -6  -5   3 245.035 9.24691   1
  -5  -5   2 610.075 13.3414  -2
  -5  -5   3 610.075 13.3414   1
  -4  -5   2 716.643 14.8647  -2
  -4  -5   3 716.643 14.8647   1
  -3  -5   2 507.104 12.4390  -2
  -3  -5   3 507.104 12.4390   1
  -2  -5   2 623.978 68.2600  -2
  -2  -5   3 623.978 68.2600   1
  -1  -5   3 36.6362 2.72053   1
   0  -5   3 1454.16 62.3999  -2
   0  -5   3 1454.16 62.3999   1
   1  -5   3 1.50593 30.5412  -2
   1  -5   3 1.50593 30.5412   1
   2  -5   3 914.817 17.8690  -2
   2  -5   3 914.817 17.8690   1
   3  -5   3 1.68792 2.85877  -2
   3  -5   3 1.68792 2.85877   1
   4  -5   3 686.611 14.2778  -2
   4  -5   3 686.611 14.2778   1
   5  -5   3 138.190 11.3625  -2
   5  -5   3 138.190 11.3625   1
   6  -5   4 192.169 7.77101  -2
   6  -5   3 192.169 7.77101   1
   7  -5   4 82.9682 8.58359  -2
   7  -5   3 82.9682 8.58359   1
   8  -5   4 137.124 8.39296  -2
   8  -5   3 137.124 8.39296   1
   9  -5   4 275.261 14.5987  -2
   9  -5   3 275.261 14.5987   1
  10  -5   4 83.1185 12.3472  -2
  10  -5   3 83.1185 12.3472   1
  11  -5   4 97.7017 13.8192  -2
  11  -5   3 97.7017 13.8192   1
  12  -5   4 73.9598 26.2276  -2
  12  -5   3 73.9598 26.2276   1
  12  -5   5 34.0252 22.9978  -2
  12  -5   4 34.0252 22.9978   1
  12  -5   3 34.0252 22.9978   1
  13  -5   3 63.7206 16.7674   1
 -13  -4   1 14.6228 12.8505  -2
 -13  -4   3 14.6228 12.8505   1
 -12  -4   1 66.6240 11.8653  -2
 -12  -4   3 66.6240 11.8653   1
 -11  -4   1 105.064 17.1452  -2
 -11  -4   3 105.064 17.1452   1
 -10  -4   1 82.5148 16.5192  -2
 -10  -4   3 82.5148 16.5192   1
  -8  -4   3 80.2235 7.02901   1
  -7  -4   2 385.002 20.0650  -2
  -7  -4   3 385.002 20.0650   1
  -6  -4   2 173.647 13.7176  -2
  -6  -4   3 173.647 13.7176   1
  -5  -4   2 553.951 22.4145  -2
  -5  -4   3 553.951 22.4145   1
  -4  -4   2 444.270 11.3297  -2
  -4  -4   3 444.270 11.3297   1
  -3  -4   2 746.061 20.8576  -2
  -3  -4   3 746.061 20.8576   1
  -2  -4   3 283.082 6.32973   1
  -1  -4   3 507.346 9.47779   1
   0  -4   3 91.4982 6.16593  -2
   0  -4   3 91.4982 6.16593   1
   1  -4   3 48.9454 4.30422  -2
   1  -4   3 48.9454 4.30422   1
   2  -4   3 1058.03 17.0733  -2
   2  -4   3 1058.03 17.0733   1
   3  -4   3 245.536 6.39023  -2
   3  -4   3 245.536 6.39023   1
   4  -4   3 945.134 43.0442  -2
   4  -4   3 945.134 43.0442   1
   5  -4   3 54.9563 4.96667   1
   6  -4   4 367.787 12.3470  -2
   6  -4   3 367.787 12.3470   1
   7  -4   4 43.4594 7.08850  -2
   7  -4   3 43.4594 7.08850   1
   8  -4   4 202.501 8.90150  -2
   8  -4   3 202.501 8.90150   1
   9  -4   4 222.424 13.3563  -2
   9  -4   3 222.424 13.3563   1
  10  -4   4 112.410 11.7718  -2
  10  -4   3 112.410 11.7718   1
  11  -4   4 99.8400 13.3391  -2
  11  -4   3 99.8400 13.3391   1
  12  -4   5 0.57042 15.7403  -2
  12  -4   3 0.57042 15.7403   1
  13  -4   3 23.8636 9.17744   1
 -13  -3   1 11.0158 12.3648  -2
 -13  -3   3 11.0158 12.3648   1
 -12  -3   1 100.163 11.9512  -2
 -12  -3   3 100.163 11.9512   1
 -11  -3   1 62.7482 17.4484  -2
 -11  -3   3 62.7482 17.4484   1
 -10  -3   1 112.327 16.4302  -2
 -10  -3   3 112.327 16.4302   1
  -9  -3   1 302.398 20.0349  -2
  -9  -3   3 302.398 20.0349   1
  -8  -3   2 163.292 15.6463  -2
  -8  -3   3 163.292 15.6463   1
  -7  -3   2 448.627 21.4716  -2
  -7  -3   3 448.627 21.4716   1
  -6  -3   2 185.462 13.1390  -2
  -6  -3   3 185.462 13.1390   1
  -5  -3   2 1108.06 39.1033  -2
  -5  -3   3 1108.06 39.1033   1
  -4  -3   2 240.497 7.36763  -2
  -4  -3   3 240.497 7.36763   1
  -3  -3   2 595.761 19.1128  -2
  -3  -3   3 595.761 19.1128   1
  -2  -3   3 284.371 6.24864   1
  -1  -3   3 4409.71 132.967  -2
  -1  -3   3 4409.71 132.967   1
   0  -3   3 881.767 22.5949  -2
   0  -3   3 881.767 22.5949   1
   1  -3   3 192.147 4.32473  -2
   1  -3   3 192.147 4.32473   1
   2  -3   3 1100.24 19.8899  -2
   2  -3   3 1100.24 19.8899   1
   3  -3   3 113.997 22.3625  -2
   3  -3   3 113.997 22.3625   1
   4  -3   3 971.039 31.7100  -2
   4  -3   3 971.039 31.7100   1
   5  -3   4 138.116 8.74553  -2
   5  -3   3 138.116 8.74553   1
   6  -3   4 598.226 23.3994  -2
   6  -3   3 598.226 23.3994   1
   7  -3   4 115.013 6.69434  -2
   7  -3   3 115.013 6.69434   1
   8  -3   4 236.092 9.49078  -2
   8  -3   3 236.092 9.49078   1
   9  -3   4 150.718 10.9190  -2
   9  -3   3 150.718 10.9190   1
  10  -3   4 124.601 11.6459  -2
  10  -3   3 124.601 11.6459   1
  11  -3   4 32.1101 17.5987  -2
  11  -3   3 32.1101 17.5987   1
  12  -3   5 0.68531 15.8808  -2
  12  -3   3 0.68531 15.8808   1
  13  -3   5 24.9792 24.9210  -2
  13  -3   3 24.9792 24.9210   1
 -13  -2   1 -3.1586 12.1862  -2
 -13  -2   3 -3.1586 12.1862   1
 -12  -2   1 103.812 11.8644  -2
 -12  -2   3 103.812 11.8644   1
 -11  -2   1 8.58693 9.54512  -2
 -11  -2   3 8.58693 9.54512   1
 -10  -2   1 122.013 17.2656  -2
 -10  -2   3 122.013 17.2656   1
  -9  -2   1 119.931 15.9438  -2
  -9  -2   3 119.931 15.9438   1
  -8  -2   2 264.617 17.3489  -2
  -8  -2   3 264.617 17.3489   1
  -7  -2   2 260.871 10.2129  -2
  -7  -2   3 260.871 10.2129   1
  -6  -2   2 269.720 9.62056  -2
  -6  -2   3 269.720 9.62056   1
  -5  -2   2 831.206 23.8259  -2
  -5  -2   3 831.206 23.8259   1
  -4  -2   2 383.022 9.49144  -2
  -4  -2   3 383.022 9.49144   1
  -3  -2   3 335.162 7.00325   1
  -2  -2   3 125.471 3.38675   1
  -1  -2   3 9999.99 177.997   1
   0  -2   3 218.947 21.6415  -2
   0  -2   3 218.947 21.6415   1
   1  -2   3 266.132 8.20290  -2
   1  -2   3 266.132 8.20290   1
   2  -2   3 431.987 12.3253  -2
   2  -2   3 431.987 12.3253   1
   3  -2   3 632.870 18.9459  -2
   3  -2   3 632.870 18.9459   1
   4  -2   3 826.136 14.4534   1
   5  -2   3 53.5645 3.42007   1
   6  -2   4 460.886 13.5057  -2
   6  -2   3 460.886 13.5057   1
   7  -2   4 175.363 7.42614  -2
   7  -2   3 175.363 7.42614   1
   8  -2   4 271.409 9.83234  -2
   8  -2   3 271.409 9.83234   1
   9  -2   4 129.334 13.5026  -2
   9  -2   3 129.334 13.5026   1
  10  -2   4 90.9283 15.5717  -2
  10  -2   3 90.9283 15.5717   1
  11  -2   3 50.0728 7.72773   1
  12  -2   3 28.7331 7.31419   1
  13  -2   5 55.8025 14.9509  -2
  13  -2   3 55.8025 14.9509   1
 -13  -1   1 -7.9440 19.5589  -2
 -13  -1   3 -7.9440 19.5589   1
 -12  -1   1 89.6589 10.6474  -2
 -12  -1   3 89.6589 10.6474   1
 -11  -1   1 36.2915 10.2274  -2
 -11  -1   3 36.2915 10.2274   1
  -9  -1   2 100.895 14.2498  -2
  -9  -1   3 100.895 14.2498   1
  -8  -1   2 355.338 19.5752  -2
  -8  -1   3 355.338 19.5752   1
  -7  -1   2 247.849 10.6288  -2
  -7  -1   3 247.849 10.6288   1
  -6  -1   2 459.930 13.8533  -2
  -6  -1   3 459.930 13.8533   1
  -5  -1   2 324.756 13.1556  -2
  -5  -1   3 324.756 13.1556   1
  -4  -1   2 271.421 34.6574  -2
  -4  -1   3 271.421 34.6574   1
  -3  -1   3 297.472 6.00157   1
  -2  -1   3 11.3887 1.40644   1
  -1  -1   3 1120.63 18.0318   1
   0  -1   3 869.630 29.2135  -2
   0  -1   3 869.630 29.2135   1
   1  -1   3 121.078 7.17458  -2
   1  -1   3 121.078 7.17458   1
   2  -1   3 1444.02 35.0018  -2
   2  -1   3 1444.02 35.0018   1
   3  -1   3 1000.53 32.1175  -2
   3  -1   3 1000.53 32.1175   1
   4  -1   3 763.004 16.0702   1
   5  -1   3 127.847 4.35480   1
   6  -1   4 407.793 12.2238  -2
   6  -1   3 407.793 12.2238   1
   7  -1   4 137.721 10.6156  -2
   7  -1   3 137.721 10.6156   1
   8  -1   4 333.623 13.4770  -2
   8  -1   3 333.623 13.4770   1
   9  -1   4 64.3868 15.4870  -2
   9  -1   3 64.3868 15.4870   1
  10  -1   3 117.069 9.17091   1
  11  -1   3 45.3672 7.43519   1
  12  -1   3 63.7919 8.88706   1
  13  -1   5 73.3149 17.7974  -2
  13  -1   3 73.3149 17.7974   1
 -13   0   1 13.4835 11.6970  -2
 -13   0   3 13.4835 11.6970   1
 -12   0   1 55.8867 14.5787  -2
 -12   0   3 55.8867 14.5787   1
 -11   0   1 26.3693 10.7516  -2
 -11   0   3 26.3693 10.7516   1
  -9   0   2 55.9684 9.77735  -2
  -9   0   3 55.9684 9.77735   1
  -8   0   2 396.854 12.0369  -2
  -8   0   3 396.854 12.0369   1
  -7   0   2 266.235 9.03650  -2
  -7   0   3 266.235 9.03650   1
  -6   0   2 352.053 9.44288  -2
  -6   0   3 352.053 9.44288   1
  -5   0   2 438.031 11.8611  -2
  -5   0   3 438.031 11.8611   1
  -4   0   3 28.3792 2.60190   1
  -3   0   3 1704.29 25.0093   1
  -2   0   3 116.643 2.90193   1
  -1   0   3 125.472 7.08837  -2
  -1   0   3 125.472 7.08837   1
   0   0   3 14.8490 23.3411  -2
   0   0   3 14.8490 23.3411   1
   1   0   3 606.940 19.7561  -2
   1   0   3 606.940 19.7561   1
   2   0   3 314.458 6.50457   1
   3   0   3 862.160 14.4792   1
   4   0   3 1159.40 18.8515   1
   5   0   3 232.951 6.09853   1
   6   0   3 639.025 13.3746   1
   7   0   4 159.804 12.9791  -2
   7   0   3 159.804 12.9791   1
   8   0   3 232.455 9.92187   1
   9   0   3 -4.8945 4.91056   1
  10   0   3 177.446 10.5485   1
  11   0   3 10.7944 6.67925   1
  12   0   3 55.2138 7.70057   1
  13   0   3 24.2936 8.24469   1
 -13   1   1 26.0072 12.6165  -2
 -13   1   3 26.0072 12.6165   1
 -12   1   1 113.577 13.2866  -2
 -12   1   3 113.577 13.2866   1
 -11   1   1 56.4486 11.4435  -2
 -11   1   3 56.4486 11.4435   1
  -9   1   2 41.2825 8.62522  -2
  -9   1   3 41.2825 8.62522   1
  -8   1   2 144.104 8.69356  -2
  -8   1   3 144.104 8.69356   1
  -7   1   2 210.281 10.0365  -2
  -7   1   3 210.281 10.0365   1
  -6   1   2 201.496 9.97808  -2
  -6   1   3 201.496 9.97808   1
  -5   1   2 241.505 10.7899  -2
  -5   1   3 241.505 10.7899   1
  -4   1   3 158.739 4.55560   1
  -3   1   3 491.434 8.97720   1
  -2   1   3 209.109 4.62514   1
  -1   1   3 4431.72 131.653  -2
  -1   1   3 4431.72 131.653   1
   0   1   3 223.881 7.83791  -2
   0   1   3 223.881 7.83791   1
   1   1   3 4642.06 192.580  -2
   1   1   3 4642.06 192.580   1
   2   1   3 8.73192 1.53879   1
   3   1   3 1345.94 21.2607   1
   4   1   3 284.837 6.22483   1
   5   1   3 199.535 5.19491   1
   6   1   3 333.554 10.6865   1
   7   1   3 121.741 7.13177   1
   8   1   3 75.7170 6.62142   1
   9   1   3 10.3096 5.46383   1
  10   1   3 214.342 10.7877   1
  11   1   3 -4.1556 5.91869   1
  12   1   3 110.729 10.0093   1
  13   1   3 27.7181 7.97346   1
 -13   2   1 76.9018 13.7414  -2
 -13   2   3 76.9018 13.7414   1
 -12   2   1 59.8027 13.5601  -2
 -12   2   3 59.8027 13.5601   1
 -11   2   1 53.3211 12.5860  -2
 -11   2   3 53.3211 12.5860   1
 -10   2   2 184.259 18.2102  -2
 -10   2   3 184.259 18.2102   1
  -9   2   2 119.214 11.1746  -2
  -9   2   3 119.214 11.1746   1
  -8   2   2 175.917 11.2071  -2
  -8   2   3 175.917 11.2071   1
  -7   2   2 121.187 7.11617  -2
  -7   2   3 121.187 7.11617   1
  -6   2   2 546.998 15.8663  -2
  -6   2   3 546.998 15.8663   1
  -5   2   2 342.457 14.6910  -2
  -5   2   3 342.457 14.6910   1
  -4   2   3 397.918 8.39150   1
  -3   2   3 145.813 4.03482   1
  -2   2   3 220.592 4.87023   1
  -1   2   3 606.162 10.2718   1
   0   2   3 61.2743 2.08155   1
   1   2   3 787.948 13.2966   1
   2   2   3 238.537 6.28947   1
   3   2   3 587.610 10.9641   1
   4   2   3 11.7029 2.28741   1
   5   2   3 351.658 10.6679   1
   6   2   3 42.2586 4.80213   1
   7   2   3 335.155 11.4714   1
   8   2   3 24.7440 5.39202   1
   9   2   3 73.9757 8.72446   1
  10   2   3 163.477 9.93536   1
  11   2   3 1.45434 5.82365   1
  12   2   3 97.7292 9.54757   1
  13   2   3 11.3511 6.99396   1
 -13   3   1 130.251 19.2802  -2
 -13   3   3 130.251 19.2802   1
 -12   3   1 49.4380 13.9290  -2
 -12   3   3 49.4380 13.9290   1
 -11   3   3 110.958 10.1823   1
 -10   3   3 151.840 11.8831   1
  -9   3   2 56.5113 11.2125  -2
  -9   3   3 56.5113 11.2125   1
  -8   3   2 473.808 14.1356  -2
  -8   3   3 473.808 14.1356   1
  -7   3   2 23.6802 7.47857  -2
  -7   3   3 23.6802 7.47857   1
  -6   3   2 562.389 22.2398  -2
  -6   3   3 562.389 22.2398   1
  -5   3   3 37.1488 3.60709   1
  -4   3   3 250.011 6.21817   1
  -3   3   3 211.316 5.12313   1
  -2   3   3 783.279 15.3086   1
  -1   3   3 446.968 8.49164   1
   0   3   3 484.006 9.06876   1
   1   3   3 602.393 10.9857   1
   2   3   3 120.665 3.98490   1
   3   3   3 186.901 5.53691   1
   4   3   3 123.584 5.63806   1
   5   3   3 299.369 7.39221   1
   6   3   3 5.93681 3.62402   1
   7   3   3 145.443 7.94313   1
   8   3   3 103.572 7.79773   1
   9   3   3 151.046 9.21785   1
  10   3   3 126.410 8.97019   1
  11   3   3 4.50283 5.93025   1
  12   3   3 75.6157 8.54734   1
 -13   4   1 77.3421 19.6569  -2
 -13   4   3 77.3421 19.6569   1
 -12   4   1 4.09657 16.5520  -2
 -12   4   3 4.09657 16.5520   1
 -11   4   1 90.2788 31.9961  -2
 -11   4   3 90.2788 31.9961   1
 -10   4   3 97.5215 10.5359   1
  -9   4   2 161.285 16.4414  -2
  -9   4   3 161.285 16.4414   1
  -8   4   2 133.911 11.8466  -2
  -8   4   3 133.911 11.8466   1
  -7   4   2 92.6127 11.0242  -2
  -7   4   3 92.6127 11.0242   1
  -6   4   3 573.789 13.3924   1
  -5   4   3 50.6789 4.23285   1
  -4   4   3 649.842 16.6154   1
  -3   4   3 -3.6576 2.05684   1
  -2   4   3 766.223 13.5330   1
  -1   4   3 143.077 3.89996   1
   0   4   3 834.358 14.5107   1
   1   4   3 876.963 15.3723   1
   2   4   3 143.549 4.15396   1
   3   4   3 391.147 9.39865   1
   4   4   3 -2.4375 2.91521   1
   5   4   3 781.181 16.1596   1
   6   4   3 3.80779 3.65268   1
   7   4   3 197.113 8.92696   1
   8   4   3 152.318 8.74299   1
   9   4   3 88.0579 7.79708   1
  10   4   3 118.965 8.98566   1
  11   4   3 14.8157 6.18163   1
  12   4   3 75.2684 9.48305   1
 -13   5   3 76.0964 18.0829   1
 -12   5   3 18.8029 9.11981   1
 -11   5   1 151.061 34.0874  -2
 -11   5   3 151.061 34.0874   1
 -10   5   3 38.9541 9.15921   1
  -9   5   2 92.7295 15.6738  -2
  -9   5   3 92.7295 15.6738   1
  -8   5   2 86.8909 11.2914  -2
  -8   5   3 86.8909 11.2914   1
  -7   5   2 112.859 12.3966  -2
  -7   5   3 112.859 12.3966   1
  -6   5   3 329.304 9.50105   1
  -5   5   3 45.5664 4.73955   1
  -4   5   3 482.740 11.3855   1
  -3   5   3 1.68975 2.08382   1
  -2   5   3 876.900 15.8412   1
  -1   5   3 85.4774 3.26520   1
   0   5   3 1063.37 18.3781   1
   1   5   3 1176.67 19.9640   1
   2   5   3 256.392 7.15608   1
   3   5   3 244.078 6.92391   1
   4   5   3 96.9961 4.96732   1
   5   5   3 483.135 11.4373   1
   6   5   3 22.1028 4.79444   1
   7   5   3 368.307 12.7621   1
   8   5   3 19.5964 8.72586   1
   9   5   3 208.951 10.5489   1
  10   5   3 24.4267 6.24177   1
  11   5   3 73.5536 8.31550   1
  12   5   3 50.6923 8.04697   1
 -12   6   3 1.94887 8.90789   1
 -11   6   3 154.217 12.4048   1
 -10   6   2 45.3587 15.5828  -2
 -10   6   3 45.3587 15.5828   1
  -9   6   2 116.206 17.1076  -2
  -9   6   3 116.206 17.1076   1
  -8   6   3 40.5626 5.71131   1
  -7   6   3 137.553 7.54967   1
  -6   6   3 181.249 7.64105   1
  -5   6   3 120.058 6.29122   1
  -4   6   3 386.661 9.64286   1
  -3   6   3 54.1451 3.75329   1
  -2   6   3 611.898 16.1288   1
  -1   6   3 9.81584 2.50420   1
   0   6   3 441.984 10.0949   1
   1   6   3 57.8340 3.88586   1
   2   6   3 196.760 6.29916   1
   3   6   3 267.583 7.66423   1
   4   6   3 445.403 11.2227   1
   5   6   3 573.049 16.8014   1
   6   6   3 82.4374 6.85061   1
   7   6   3 153.445 8.71159   1
   8   6   3 -3.9261 4.70914   1
   9   6   3 202.957 10.6959   1
  10   6   3 7.71408 5.97600   1
  11   6   3 67.6846 8.56241   1
 -12   7   1 -20.123 40.2144  -2
 -12   7   3 -20.123 40.2144   1
 -11   7   1 74.1720 30.7297  -2
 -11   7   3 74.1720 30.7297   1
 -10   7   3 2.38100 6.76215   1
  -9   7   3 80.5252 8.01567   1
  -8   7   3 40.1253 6.12363   1
  -7   7   3 84.7592 7.09564   1
  -6   7   3 115.213 8.10942   1
  -5   7   3 140.113 6.30102   1
  -4   7   3 162.965 6.13809   1
  -3   7   3 105.805 4.84008   1
  -2   7   3 553.390 12.3144   1
  -1   7   3 6.99549 2.67669   1
   0   7   3 371.133 9.26651   1
   1   7   3 -2.1862 2.72821   1
   2   7   3 275.806 8.01677   1
   3   7   3 66.8250 5.33623   1
   4   7   3 210.936 7.58970   1
   5   7   3 550.983 13.9646   1
   6   7   3 15.1815 4.93199   1
   8   7   3 28.4167 6.18964   1
   9   7   3 163.916 15.6847   1
  10   7   3 -3.1468 5.94341   1
  11   7   3 103.988 9.88846   1
 -11   8   3 87.4706 10.2998   1
 -10   8   3 11.3660 7.93121   1
  -9   8   3 128.954 10.3623   1
  -8   8   3 -0.4635 6.04281   1
  -7   8   3 127.795 9.41628   1
  -6   8   3 15.0144 4.21460   1
  -5   8   3 96.8930 5.79557   1
  -4   8   3 107.936 5.60375   1
  -3   8   3 76.3205 4.81470   1
  -2   8   3 385.224 9.77917   1
  -1   8   3 122.444 5.45405   1
   0   8   3 318.245 9.25323   1
   1   8   3 0.55764 2.86358   1
   2   8   3 497.870 12.2012   1
   3   8   3 3.29785 3.33881   1
   4   8   3 316.412 9.65689   1
   5   8   3 86.1149 6.58105   1
   6   8   3 116.321 12.4583   1
   7   8   3 46.4196 6.73306   1
   8   8   3 29.9836 6.17216   1
   9   8   3 131.234 14.9919   1
  10   8   3 -7.7146 8.79675   1
 -11   9   3 47.1997 11.2164   1
 -10   9   3 5.91070 8.76241   1
  -9   9   3 50.7948 8.68870   1
  -8   9   3 9.72151 6.38708   1
  -7   9   3 99.8287 7.28829   1
  -6   9   3 7.09453 4.43530   1
  -5   9   3 184.110 7.44994   1
  -4   9   3 65.9575 5.22830   1
  -3   9   3 109.803 6.27439   1
  -2   9   3 9.99740 3.62285   1
  -1   9   3 36.4008 4.22092   1
   0   9   3 307.213 9.01977   1
   1   9   3 17.0801 3.99131   1
   2   9   3 232.980 8.15320   1
   3   9   3 63.5343 5.44916   1
   4   9   3 223.596 8.68888   1
   5   9   3 3.92799 4.59927   1
   6   9   3 134.614 15.6876   1
   7   9   3 17.9299 5.90500   1
   8   9   3 81.8904 13.9556   1
   9   9   3 59.9186 11.4554   1
  10   9   3 5.60446 10.9404   1
 -10  10   3 9.70712 8.67518   1
  -9  10   3 78.5683 10.2240   1
  -8  10   3 11.3638 7.56575   1
  -7  10   3 109.526 8.00658   1
  -6  10   3 0.98332 4.59741   1
  -5  10   3 144.591 7.32567   1
  -4  10   3 40.3833 4.80636   1
  -3  10   3 216.544 8.03145   1
  -2  10   3 26.3331 4.25548   1
  -1  10   3 133.493 6.61470   1
   0  10   3 275.878 9.03319   1
   1  10   3 69.2149 5.68548   1
   2  10   3 75.2351 6.30927   1
   2  10   4 36.9840 13.3718  -2
   3  10   3 36.9840 13.3718   1
   4  10   3 215.279 9.22101   1
   5  10   3 0.58989 5.06356   1
   6  10   3 113.534 14.4575   1
   7  10   3 3.52664 9.39586   1
   7  10   5 85.2135 25.8701  -2
   8  10   3 85.2135 25.8701   1
   8  10   5 45.8596 25.2003  -2
   9  10   3 45.8596 25.2003   1
 -10  11   3 81.5721 11.2001   1
  -9  11   3 2.92820 8.31528   1
  -8  11   3 27.3269 8.28493   1
  -7  11   3 138.438 11.2825   1
  -6  11   3 17.2849 7.68367   1
  -5  11   3 106.907 9.82828   1
  -4  11   3 3.09647 4.61656   1
  -3  11   3 189.607 8.36476   1
  -2  11   3 40.6154 5.36937   1
  -1  11   3 185.532 8.16933   1
   0  11   3 129.544 7.39333   1
   1  11   3 57.4164 5.98471   1
   2  11   3 61.2922 6.11764   1
   3  11   3 33.4592 6.79361   1
   3  11   4 369.768 23.1062  -2
   4  11   3 369.768 23.1062   1
   5  11   3 2.85411 5.62332   1
   6  11   3 109.223 14.9074   1
   8  11   3 67.8120 13.6004   1
  -9  12   3 4.84003 8.92819   1
  -8  12   3 45.6247 9.40303   1
  -7  12   3 37.7728 8.45357   1
  -6  12   3 11.6206 7.20493   1
  -5  12   3 51.4475 8.47438   1
  -4  12   3 -11.755 7.51044   1
  -3  12   3 147.741 10.3451   1
  -2  12   3 5.24414 4.91483   1
  -1  12   3 245.047 9.83967   1
   0  12   3 56.9847 6.22924   1
   1  12   3 147.210 9.29199   1
   2  12   3 67.4897 6.78114   1
   2  12   4 165.117 18.4480  -2
   3  12   3 165.117 18.4480   1
   3  12   4 235.668 20.3370  -2
   4  12   3 235.668 20.3370   1
   4  12   4 41.4890 17.5352  -2
   5  12   3 41.4890 17.5352   1
   6  12   3 133.091 17.2133   1
  -8  13   3 42.6402 9.64045   1
  -7  13   3 11.6694 8.49076   1
  -6  13   3 15.3155 8.06044   1
  -5  13   3 80.8251 13.5973   1
  -4  13   3 20.8571 7.47523   1
  -3  13   3 93.5798 9.86739   1
  -2  13   3 -2.0637 6.60348   1
  -1  13   3 94.1052 9.14024   1
   0  13   3 -3.2418 6.40171   1
   1  13   3 84.6270 7.73763   1
   2  13   3 19.3763 6.26285   1
   2  13   4 192.116 20.6080  -2
   3  13   3 192.116 20.6080   1
   3  13   4 54.7752 19.2304  -2
   4  13   3 54.7752 19.2304   1
   4  13   4 67.9254 19.4113  -2
   5  13   3 67.9254 19.4113   1
   6  13   3 62.6560 14.6878   1
  -6  14   3 26.0644 8.84735   1
  -5  14   3 57.3196 9.71155   1
  -4  14   3 54.3822 9.51207   1
  -3  14   3 51.5476 8.82583   1
  -2  14   3 7.03215 7.77011   1
  -1  14   3 76.6445 9.33095   1
   0  14   3 -1.4542 7.27460   1
   1  14   3 81.3453 9.95106   1
   2  14   3 -2.8582 6.90860   1
   2  14   4 75.5152 19.5194  -2
   3  14   3 75.5152 19.5194   1
   3  14   4 34.7816 19.9002  -2
   4  14   3 34.7816 19.9002   1
   5  14   3 29.8648 14.8707   1
  -4  15   3 42.5286 9.21085   1
  -3  15   3 12.7835 8.35961   1
  -2  15   3 8.12927 7.99903   1
  -1  15   3 34.5435 8.57445   1
   0  15   3 -3.6155 7.60183   1
   1  15   3 87.4800 10.3384   1
   2  15   3 -4.1571 8.85789   1
   3  15   3 37.8539 19.1479   1
  -1 -17   4 46.0546 9.08649   1
   0 -17   4 18.8890 7.44118   1
   1 -17   4 42.1316 8.10819   1
   2 -17   4 -4.4722 6.65443   1
  -4 -16   4 31.8418 8.69161   1
  -3 -16   4 13.6955 13.8398   1
  -2 -16   4 61.2658 8.46446   1
  -1 -16   4 18.9954 7.58723   1
   0 -16   3 57.7210 15.8580  -2
   0 -16   4 57.7210 15.8580   1
   1 -16   3 61.4133 16.2689  -2
   1 -16   4 61.4133 16.2689   1
   2 -16   3 43.8868 15.5286  -2
   2 -16   4 43.8868 15.5286   1
   3 -16   4 33.1909 7.84114   1
   4 -16   4 -0.7271 6.64878   1
   5 -16   4 32.8867 7.93879   1
  -5 -15   4 -1.5744 15.2039   1
  -4 -15   4 35.1945 8.36897   1
  -3 -15   4 2.49572 6.61842   1
  -2 -15   4 128.124 10.3550   1
  -1 -15   3 61.4417 14.0814  -2
  -1 -15   4 61.4417 14.0814   1
   0 -15   3 30.2855 13.0931  -2
   0 -15   4 30.2855 13.0931   1
   1 -15   3 101.594 16.1597  -2
   1 -15   4 101.594 16.1597   1
   2 -15   3 64.4004 14.7551  -2
   2 -15   4 64.4004 14.7551   1
   3 -15   3 98.9810 17.4484  -2
   3 -15   4 98.9810 17.4484   1
   4 -15   4 1.03859 6.26121   1
   5 -15   4 90.0860 17.6980  -2
   5 -15   4 90.0860 17.6980   1
   6 -15   4 -2.8271 12.1738  -2
   6 -15   4 -2.8271 12.1738   1
   7 -15   4 77.0646 18.8748  -2
   7 -15   4 77.0646 18.8748   1
  -7 -14   2 33.3037 16.1194  -2
  -7 -14   4 33.3037 16.1194   1
  -6 -14   2 54.1138 16.8056  -2
  -6 -14   4 54.1138 16.8056   1
  -5 -14   4 17.5562 6.53585   1
  -4 -14   4 123.207 11.2795   1
  -3 -14   4 1.59223 6.35572   1
  -2 -14   4 173.866 10.8392   1
  -1 -14   3 63.1833 12.5869  -2
  -1 -14   4 63.1833 12.5869   1
   0 -14   3 62.7590 14.5528  -2
   0 -14   4 62.7590 14.5528   1
   1 -14   3 58.9747 13.8079  -2
   1 -14   4 58.9747 13.8079   1
   2 -14   3 104.337 15.8713  -2
   2 -14   4 104.337 15.8713   1
   3 -14   4 15.0420 17.7284  -2
   3 -14   4 15.0420 17.7284   1
   4 -14   4 45.7532 11.6858  -2
   4 -14   4 45.7532 11.6858   1
   5 -14   4 26.4396 11.3662  -2
   5 -14   4 26.4396 11.3662   1
   6 -14   4 8.64060 11.2611  -2
   6 -14   4 8.64060 11.2611   1
   7 -14   4 84.4403 17.8879  -2
   7 -14   4 84.4403 17.8879   1
   8 -14   5 -33.138 19.2952  -2
   8 -14   4 -33.138 19.2952   1
   8 -14   4 -2.6790 16.8153  -2
   8 -14   4 -2.6790 16.8153   1
  -8 -13   4 10.1893 11.8812   1
  -7 -13   2 101.011 17.0575  -2
  -7 -13   4 101.011 17.0575   1
  -6 -13   2 54.5112 16.2777  -2
  -6 -13   4 54.5112 16.2777   1
  -5 -13   4 35.0590 5.89008   1
  -4 -13   4 157.827 8.63028   1
  -3 -13   4 34.3340 5.50915   1
  -2 -13   3 212.935 17.0728  -2
  -2 -13   4 212.935 17.0728   1
  -1 -13   3 77.8394 11.6571  -2
  -1 -13   4 77.8394 11.6571   1
   0 -13   3 111.432 14.2005  -2
   0 -13   4 111.432 14.2005   1
   1 -13   3 16.8808 12.0116  -2
   1 -13   4 16.8808 12.0116   1
   2 -13   3 71.2376 14.4952  -2
   2 -13   4 71.2376 14.4952   1
   3 -13   4 11.9377 8.27764   1
   4 -13   4 132.469 11.5688  -2
   4 -13   4 132.469 11.5688   1
   5 -13   4 24.3602 10.3159  -2
   5 -13   4 24.3602 10.3159   1
   6 -13   4 84.7943 16.3991  -2
   6 -13   4 84.7943 16.3991   1
   7 -13   4 92.2996 17.1312  -2
   7 -13   4 92.2996 17.1312   1
   8 -13   5 6.67711 19.8195  -2
   8 -13   4 6.67711 19.8195   1
   8 -13   4 -3.2393 16.1080  -2
   8 -13   4 -3.2393 16.1080   1
   9 -13   5 -12.994 21.2963  -2
   9 -13   4 -12.994 21.2963   1
  -9 -12   4 97.8438 15.9749   1
  -8 -12   4 -5.1582 10.1097   1
  -7 -12   2 190.677 18.2223  -2
  -7 -12   4 190.677 18.2223   1
  -6 -12   2 70.8259 16.0604  -2
  -6 -12   4 70.8259 16.0604   1
  -5 -12   4 99.5279 7.56101   1
  -4 -12   4 92.0262 6.91027   1
  -3 -12   3 216.463 17.0144  -2
  -3 -12   4 216.463 17.0144   1
  -2 -12   4 90.9915 7.84885   1
  -1 -12   3 116.186 10.2428  -2
  -1 -12   4 116.186 10.2428   1
   0 -12   3 114.197 10.1550  -2
   0 -12   4 114.197 10.1550   1
   1 -12   3 0.11357 11.0959  -2
   1 -12   4 0.11357 11.0959   1
   2 -12   3 200.652 16.6394  -2
   2 -12   4 200.652 16.6394   1
   2 -12   4 281.165 20.1370  -2
   2 -12   4 281.165 20.1370   1
   4 -12   4 106.191 10.6884  -2
   4 -12   4 106.191 10.6884   1
   5 -12   4 69.0856 10.6221  -2
   5 -12   4 69.0856 10.6221   1
   6 -12   4 77.8348 10.9447  -2
   6 -12   4 77.8348 10.9447   1
   7 -12   4 89.0454 16.7405  -2
   7 -12   4 89.0454 16.7405   1
   8 -12   5 44.2622 20.4346  -2
   8 -12   4 44.2622 20.4346   1
   9 -12   5 52.8278 21.5847  -2
   9 -12   4 52.8278 21.5847   1
  10 -12   5 4.55517 24.0371  -2
  10 -12   4 4.55517 24.0371   1
 -10 -11   4 18.4188 11.4948   1
  -9 -11   4 103.999 15.0016   1
  -8 -11   4 -12.513 8.75897   1
  -7 -11   2 282.034 20.1764  -2
  -7 -11   4 282.034 20.1764   1
  -6 -11   2 50.7619 14.7909  -2
  -6 -11   4 50.7619 14.7909   1
  -5 -11   4 175.969 8.09175   1
  -4 -11   3 64.1475 18.5100  -2
  -4 -11   4 64.1475 18.5100   1
  -3 -11   3 158.313 9.26172  -2
  -3 -11   4 158.313 9.26172   1
  -2 -11   3 114.976 8.06716  -2
  -2 -11   4 114.976 8.06716   1
  -1 -11   3 45.6600 7.95675  -2
  -1 -11   4 45.6600 7.95675   1
   0 -11   3 211.456 11.0031  -2
   0 -11   4 211.456 11.0031   1
   1 -11   3 80.7147 10.4753  -2
   1 -11   4 80.7147 10.4753   1
   2 -11   4 181.104 10.8937  -2
   2 -11   4 181.104 10.8937   1
   3 -11   4 42.4125 8.77615  -2
   3 -11   4 42.4125 8.77615   1
   4 -11   4 165.999 10.7762  -2
   4 -11   4 165.999 10.7762   1
   6 -11   4 102.114 10.9652  -2
   6 -11   4 102.114 10.9652   1
   7 -11   4 35.5252 15.4236  -2
   7 -11   4 35.5252 15.4236   1
   8 -11   5 53.5814 19.2925  -2
   8 -11   4 53.5814 19.2925   1
   9 -11   5 93.0957 21.6621  -2
   9 -11   4 93.0957 21.6621   1
  10 -11   5 21.2044 13.1502  -2
  10 -11   4 21.2044 13.1502   1
 -11 -10   4 37.4977 12.0348   1
 -10 -10   2 110.936 22.6238  -2
 -10 -10   4 110.936 22.6238   1
  -9 -10   2 101.783 22.5257  -2
  -9 -10   4 101.783 22.5257   1
  -8 -10   4 20.9844 9.83918   1
  -7 -10   2 273.940 19.5803  -2
  -7 -10   4 273.940 19.5803   1
  -6 -10   4 1.54084 4.18806   1
  -5 -10   3 297.770 19.4375  -2
  -5 -10   4 297.770 19.4375   1
  -4 -10   3 99.1053 8.21163  -2
  -4 -10   4 99.1053 8.21163   1
  -3 -10   3 275.267 9.56344  -2
  -3 -10   4 275.267 9.56344   1
  -2 -10   3 203.582 8.22256  -2
  -2 -10   4 203.582 8.22256   1
  -1 -10   3 206.140 7.98458  -2
  -1 -10   4 206.140 7.98458   1
   0 -10   3 517.626 16.1167  -2
   0 -10   4 517.626 16.1167   1
   1 -10   4 65.4422 8.84581   1
   2 -10   4 590.687 17.3553  -2
   2 -10   4 590.687 17.3553   1
   3 -10   4 34.4922 8.03353  -2
   3 -10   4 34.4922 8.03353   1
   4 -10   4 595.427 17.3590  -2
   4 -10   4 595.427 17.3590   1
   5 -10   4 6.33034 7.96120  -2
   5 -10   4 6.33034 7.96120   1
   6 -10   4 149.368 17.3456  -2
   6 -10   4 149.368 17.3456   1
   8 -10   5 93.7162 19.5625  -2
   8 -10   4 93.7162 19.5625   1
   9 -10   5 56.1142 11.9646  -2
   9 -10   4 56.1142 11.9646   1
  10 -10   5 42.3379 11.9011  -2
  10 -10   4 42.3379 11.9011   1
  11 -10   5 31.9500 12.6031  -2
  11 -10   4 31.9500 12.6031   1
 -11  -9   2 6.48476 22.9938  -2
 -11  -9   4 6.48476 22.9938   1
 -10  -9   2 82.3267 20.8472  -2
 -10  -9   4 82.3267 20.8472   1
  -8  -9   4 30.2263 9.44561   1
  -7  -9   2 287.327 19.9178  -2
  -7  -9   4 287.327 19.9178   1
  -6  -9   4 56.8339 5.11274   1
  -5  -9   3 166.350 11.2062  -2
  -5  -9   4 166.350 11.2062   1
  -4  -9   3 82.2313 7.02244  -2
  -4  -9   4 82.2313 7.02244   1
  -3  -9   3 301.080 11.1864  -2
  -3  -9   4 301.080 11.1864   1
  -2  -9   3 281.112 10.3528  -2
  -2  -9   4 281.112 10.3528   1
  -1  -9   3 649.493 14.5108  -2
  -1  -9   4 649.493 14.5108   1
   0  -9   3 429.213 13.6497  -2
   0  -9   4 429.213 13.6497   1
   1  -9   4 157.551 8.81030  -2
   1  -9   4 157.551 8.81030   1
   2  -9   4 506.169 15.1459  -2
   2  -9   4 506.169 15.1459   1
   3  -9   4 128.603 8.05169  -2
   3  -9   4 128.603 8.05169   1
   4  -9   4 549.704 15.8325  -2
   4  -9   4 549.704 15.8325   1
   5  -9   4 88.4895 8.73477  -2
   5  -9   4 88.4895 8.73477   1
   6  -9   4 292.919 17.8564  -2
   6  -9   4 292.919 17.8564   1
   8  -9   5 185.837 17.4624  -2
   8  -9   4 185.837 17.4624   1
   9  -9   5 74.2999 11.9153  -2
   9  -9   4 74.2999 11.9153   1
  10  -9   5 73.0748 11.6127  -2
  10  -9   4 73.0748 11.6127   1
  11  -9   5 141.445 13.6304  -2
  11  -9   4 141.445 13.6304   1
 -12  -8   4 126.937 10.7232   1
 -11  -8   2 18.4310 20.8192  -2
 -11  -8   4 18.4310 20.8192   1
 -10  -8   2 113.968 20.0370  -2
 -10  -8   4 113.968 20.0370   1
  -9  -8   2 37.0881 18.4576  -2
  -9  -8   4 37.0881 18.4576   1
  -7  -8   4 206.207 14.4210   1
  -6  -8   3 59.4028 10.1281  -2
  -6  -8   4 59.4028 10.1281   1
  -5  -8   3 175.620 8.07210  -2
  -5  -8   4 175.620 8.07210   1
  -4  -8   3 53.2777 6.30553  -2
  -4  -8   4 53.2777 6.30553   1
  -3  -8   3 317.620 10.9728  -2
  -3  -8   4 317.620 10.9728   1
  -2  -8   3 309.263 10.4214  -2
  -2  -8   4 309.263 10.4214   1
  -1  -8   3 539.319 15.5147  -2
  -1  -8   4 539.319 15.5147   1
   0  -8   3 314.895 16.1658  -2
   0  -8   4 314.895 16.1658   1
   1  -8   4 222.884 11.2668  -2
   1  -8   4 222.884 11.2668   1
   2  -8   4 125.460 7.13096  -2
   2  -8   4 125.460 7.13096   1
   3  -8   4 256.951 9.37805  -2
   3  -8   4 256.951 9.37805   1
   4  -8   4 322.615 10.9650  -2
   4  -8   4 322.615 10.9650   1
   5  -8   4 22.8959 7.63418  -2
   5  -8   4 22.8959 7.63418   1
   7  -8   5 39.6019 15.1313  -2
   7  -8   4 39.6019 15.1313   1
   8  -8   5 147.652 11.9083  -2
   8  -8   4 147.652 11.9083   1
   9  -8   5 22.1317 8.75138  -2
   9  -8   4 22.1317 8.75138   1
  10  -8   5 81.9800 13.7153  -2
  10  -8   4 81.9800 13.7153   1
  11  -8   5 74.8926 13.6963  -2
  11  -8   4 74.8926 13.6963   1
  12  -8   5 24.6600 16.0287  -2
  12  -8   4 24.6600 16.0287   1
 -12  -7   2 95.9653 21.7548  -2
 -12  -7   4 95.9653 21.7548   1
 -11  -7   2 -0.5657 19.1931  -2
 -11  -7   4 -0.5657 19.1931   1
 -10  -7   2 122.005 18.3576  -2
 -10  -7   4 122.005 18.3576   1
  -9  -7   2 19.2550 16.1197  -2
  -9  -7   4 19.2550 16.1197   1
  -8  -7   2 172.327 19.2459  -2
  -8  -7   4 172.327 19.2459   1
  -7  -7   4 134.598 12.2421   1
  -6  -7   3 46.7235 6.52475  -2
  -6  -7   4 46.7235 6.52475   1
  -5  -7   3 276.393 11.2543  -2
  -5  -7   4 276.393 11.2543   1
  -4  -7   3 187.179 6.71371  -2
  -4  -7   4 187.179 6.71371   1
  -3  -7   3 401.654 9.88828  -2
  -3  -7   4 401.654 9.88828   1
  -2  -7   3 289.624 10.0288  -2
  -2  -7   4 289.624 10.0288   1
  -1  -7   3 686.157 17.9469  -2
  -1  -7   4 686.157 17.9469   1
   0  -7   4 26.0017 7.72126  -2
   0  -7   4 26.0017 7.72126   1
   1  -7   4 682.390 17.3023  -2
   1  -7   4 682.390 17.3023   1
   2  -7   4 167.780 6.96218  -2
   2  -7   4 167.780 6.96218   1
   3  -7   4 355.936 10.7016  -2
   3  -7   4 355.936 10.7016   1
   4  -7   4 193.747 8.52977  -2
   4  -7   4 193.747 8.52977   1
   5  -7   4 50.6841 6.03849  -2
   5  -7   4 50.6841 6.03849   1
   7  -7   5 58.4653 8.42456  -2
   7  -7   4 58.4653 8.42456   1
   8  -7   5 197.179 12.8571  -2
   8  -7   4 197.179 12.8571   1
   9  -7   5 28.8549 8.31763  -2
   9  -7   4 28.8549 8.31763   1
  10  -7   5 113.991 11.0311  -2
  10  -7   4 113.991 11.0311   1
  11  -7   5 74.3123 14.8964  -2
  11  -7   4 74.3123 14.8964   1
  12  -7   5 88.5083 14.3766  -2
  12  -7   4 88.5083 14.3766   1
 -12  -6   2 72.9669 19.4472  -2
 -12  -6   4 72.9669 19.4472   1
 -11  -6   2 11.1754 19.1171  -2
 -11  -6   4 11.1754 19.1171   1
 -10  -6   2 107.411 17.9041  -2
 -10  -6   4 107.411 17.9041   1
  -9  -6   2 6.74339 15.6671  -2
  -9  -6   4 6.74339 15.6671   1
  -8  -6   2 88.1242 15.4163  -2
  -8  -6   4 88.1242 15.4163   1
  -7  -6   4 51.9433 8.37402   1
  -6  -6   3 501.699 12.2561  -2
  -6  -6   4 501.699 12.2561   1
  -5  -6   3 113.748 5.94394  -2
  -5  -6   4 113.748 5.94394   1
  -4  -6   3 382.747 11.3027  -2
  -4  -6   4 382.747 11.3027   1
  -3  -6   3 350.435 10.8629  -2
  -3  -6   4 350.435 10.8629   1
  -2  -6   3 336.004 39.3275  -2
  -2  -6   4 336.004 39.3275   1
  -1  -6   4 1110.27 18.8069   1
   0  -6   4 -22.133 6.13659  -2
   0  -6   4 -22.133 6.13659   1
   1  -6   4 1215.78 27.3045  -2
   1  -6   4 1215.78 27.3045   1
   2  -6   4 64.5278 36.4388  -2
   2  -6   4 64.5278 36.4388   1
   3  -6   4 333.507 7.67273  -2
   3  -6   4 333.507 7.67273   1
   4  -6   4 142.692 5.43561  -2
   4  -6   4 142.692 5.43561   1
   5  -6   4 274.809 8.43796  -2
   5  -6   4 274.809 8.43796   1
   6  -6   5 75.8885 9.11668  -2
   6  -6   4 75.8885 9.11668   1
   7  -6   5 69.2954 7.51026  -2
   7  -6   4 69.2954 7.51026   1
   8  -6   5 210.838 9.82962  -2
   8  -6   4 210.838 9.82962   1
   9  -6   5 30.8848 8.16714  -2
   9  -6   4 30.8848 8.16714   1
  10  -6   5 111.573 10.7980  -2
  10  -6   4 111.573 10.7980   1
  11  -6   5 30.3696 12.4667  -2
  11  -6   4 30.3696 12.4667   1
  12  -6   5 94.9504 15.5481  -2
  12  -6   4 94.9504 15.5481   1
 -13  -5   4 19.5758 7.46568   1
 -12  -5   2 66.8626 18.1826  -2
 -12  -5   4 66.8626 18.1826   1
 -11  -5   2 76.0230 17.9612  -2
 -11  -5   4 76.0230 17.9612   1
 -10  -5   2 179.932 18.6172  -2
 -10  -5   4 179.932 18.6172   1
  -8  -5   2 197.538 16.8817  -2
  -8  -5   4 197.538 16.8817   1
  -7  -5   3 103.622 13.8861  -2
  -7  -5   4 103.622 13.8861   1
  -6  -5   3 606.756 25.8535  -2
  -6  -5   4 606.756 25.8535   1
  -5  -5   3 317.964 10.9747  -2
  -5  -5   4 317.964 10.9747   1
  -4  -5   3 348.663 11.0069  -2
  -4  -5   4 348.663 11.0069   1
  -3  -5   3 251.940 10.1917  -2
  -3  -5   4 251.940 10.1917   1
  -2  -5   3 420.963 14.7152  -2
  -2  -5   4 420.963 14.7152   1
  -1  -5   4 355.183 9.26132   1
   0  -5   4 52.2699 34.8430  -2
   0  -5   4 52.2699 34.8430   1
   1  -5   4 999.265 42.7345  -2
   1  -5   4 999.265 42.7345   1
   2  -5   4 -1.2957 1.99275  -2
   2  -5   4 -1.2957 1.99275   1
   3  -5   4 304.621 8.22330  -2
   3  -5   4 304.621 8.22330   1
   4  -5   4 361.040 10.2868  -2
   4  -5   4 361.040 10.2868   1
   5  -5   4 247.751 12.3908  -2
   5  -5   4 247.751 12.3908   1
   6  -5   5 85.6261 8.36600  -2
   6  -5   4 85.6261 8.36600   1
   7  -5   5 131.637 7.65273  -2
   7  -5   4 131.637 7.65273   1
   8  -5   5 147.440 8.61330  -2
   8  -5   4 147.440 8.61330   1
   9  -5   5 30.9545 11.6498  -2
   9  -5   4 30.9545 11.6498   1
  10  -5   5 162.593 11.9633  -2
  10  -5   4 162.593 11.9633   1
  11  -5   5 19.9667 12.5711  -2
  11  -5   4 19.9667 12.5711   1
  12  -5   5 34.0252 22.9978  -2
  12  -5   4 34.0252 22.9978   1
  12  -5   3 34.0252 22.9978   1
  12  -5   5 37.5656 25.0188  -2
  12  -5   4 37.5656 25.0188   1
 -13  -4   2 100.626 14.0471  -2
 -13  -4   4 100.626 14.0471   1
 -12  -4   2 133.765 12.8809  -2
 -12  -4   4 133.765 12.8809   1
 -11  -4   2 104.026 17.5672  -2
 -11  -4   4 104.026 17.5672   1
 -10  -4   2 140.323 17.4391  -2
 -10  -4   4 140.323 17.4391   1
  -8  -4   2 283.405 18.6888  -2
  -8  -4   4 283.405 18.6888   1
  -7  -4   3 88.8849 13.5386  -2
  -7  -4   4 88.8849 13.5386   1
  -6  -4   3 630.522 26.1358  -2
  -6  -4   4 630.522 26.1358   1
  -5  -4   3 142.101 9.85607  -2
  -5  -4   4 142.101 9.85607   1
  -4  -4   3 970.887 21.0978  -2
  -4  -4   4 970.887 21.0978   1
  -3  -4   3 389.064 33.0298  -2
  -3  -4   4 389.064 33.0298   1
  -2  -4   4 1804.08 27.4613   1
  -1  -4   4 1901.49 29.7859   1
   0  -4   4 0.28713 4.85362  -2
   0  -4   4 0.28713 4.85362   1
   1  -4   4 1440.99 26.7032  -2
   1  -4   4 1440.99 26.7032   1
   2  -4   4 13.8908 19.7486  -2
   2  -4   4 13.8908 19.7486   1
   3  -4   4 1818.06 31.9916  -2
   3  -4   4 1818.06 31.9916   1
   4  -4   4 14.8389 34.9102  -2
   4  -4   4 14.8389 34.9102   1
   5  -4   4 393.240 9.39684   1
   6  -4   5 260.855 10.3370  -2
   6  -4   4 260.855 10.3370   1
   7  -4   5 151.194 9.37319  -2
   7  -4   4 151.194 9.37319   1
   8  -4   5 192.184 9.21129  -2
   8  -4   4 192.184 9.21129   1
   9  -4   5 203.173 13.6496  -2
   9  -4   4 203.173 13.6496   1
  10  -4   5 174.755 13.2268  -2
  10  -4   4 174.755 13.2268   1
  11  -4   5 76.3010 13.1678  -2
  11  -4   4 76.3010 13.1678   1
  12  -4   4 45.5505 8.80755   1
  13  -4   4 1.69174 8.53993   1
 -13  -3   2 89.9631 13.5653  -2
 -13  -3   4 89.9631 13.5653   1
 -12  -3   2 54.7762 11.7045  -2
 -12  -3   4 54.7762 11.7045   1
 -11  -3   2 59.9117 13.0006  -2
 -11  -3   4 59.9117 13.0006   1
 -10  -3   2 49.2392 16.1877  -2
 -10  -3   4 49.2392 16.1877   1
  -9  -3   2 230.815 18.3860  -2
  -9  -3   4 230.815 18.3860   1
  -8  -3   4 186.604 12.8969   1
  -7  -3   3 113.598 8.39626  -2
  -7  -3   4 113.598 8.39626   1
  -6  -3   3 476.282 14.5302  -2
  -6  -3   4 476.282 14.5302   1
  -5  -3   3 418.692 16.3516  -2
  -5  -3   4 418.692 16.3516   1
  -4  -3   3 504.579 10.9783  -2
  -4  -3   4 504.579 10.9783   1
  -3  -3   3 367.239 50.1540  -2
  -3  -3   4 367.239 50.1540   1
  -2  -3   4 2775.52 39.6284   1
  -1  -3   4 1919.34 29.5497   1
   0  -3   4 978.323 45.1877  -2
   0  -3   4 978.323 45.1877   1
   1  -3   4 1243.60 26.0096  -2
   1  -3   4 1243.60 26.0096   1
   2  -3   4 -12.331 4.41627  -2
   2  -3   4 -12.331 4.41627   1
   3  -3   4 1591.51 47.9960  -2
   3  -3   4 1591.51 47.9960   1
   4  -3   4 78.9281 8.06359  -2
   4  -3   4 78.9281 8.06359   1
   5  -3   4 502.321 11.0913   1
   6  -3   5 175.431 10.7150  -2
   6  -3   4 175.431 10.7150   1
   7  -3   5 211.919 10.2602  -2
   7  -3   4 211.919 10.2602   1
   8  -3   5 93.9203 7.88925  -2
   8  -3   4 93.9203 7.88925   1
   9  -3   5 172.909 17.5131  -2
   9  -3   4 172.909 17.5131   1
  10  -3   5 151.608 16.6580  -2
  10  -3   4 151.608 16.6580   1
  11  -3   4 51.5013 8.23268   1
  12  -3   4 38.8761 8.08341   1
  13  -3   4 0.89689 7.62122   1
 -13  -2   2 74.3580 13.6598  -2
 -13  -2   4 74.3580 13.6598   1
 -12  -2   2 -3.3163 10.8324  -2
 -12  -2   4 -3.3163 10.8324   1
 -11  -2   2 76.2962 15.8637  -2
 -11  -2   4 76.2962 15.8637   1
 -10  -2   2 27.8840 15.6011  -2
 -10  -2   4 27.8840 15.6011   1
  -9  -2   2 111.154 15.2704  -2
  -9  -2   4 111.154 15.2704   1
  -8  -2   3 141.400 16.0180  -2
  -8  -2   4 141.400 16.0180   1
  -7  -2   3 175.216 9.79510  -2
  -7  -2   4 175.216 9.79510   1
  -6  -2   3 940.633 24.4621  -2
  -6  -2   4 940.633 24.4621   1
  -5  -2   3 381.238 15.5235  -2
  -5  -2   4 381.238 15.5235   1
  -4  -2   3 1908.58 44.1660  -2
  -4  -2   4 1908.58 44.1660   1
  -3  -2   4 14.0326 2.00947   1
  -2  -2   4 1081.63 17.3494   1
  -1  -2   4 1360.70 21.5804   1
   0  -2   4 483.758 16.7567  -2
   0  -2   4 483.758 16.7567   1
   1  -2   4 1434.61 76.3211  -2
   1  -2   4 1434.61 76.3211   1
   2  -2   4 565.950 15.5127  -2
   2  -2   4 565.950 15.5127   1
   3  -2   4 858.479 75.4886  -2
   3  -2   4 858.479 75.4886   1
   4  -2   4 298.662 7.74725   1
   5  -2   4 367.909 8.73306   1
   6  -2   4 -0.0874 2.77545   1
   7  -2   4 638.550 14.2209   1
   8  -2   5 123.476 13.7061  -2
   8  -2   4 123.476 13.7061   1
   9  -2   4 328.807 18.6172   1
  10  -2   4 60.2485 9.53224   1
  11  -2   4 18.0624 6.79201   1
  12  -2   4 52.2682 8.83745   1
  13  -2   4 6.65043 7.83614   1
 -13  -1   2 45.3454 12.7331  -2
 -13  -1   4 45.3454 12.7331   1
 -12  -1   2 8.52862 10.8372  -2
 -12  -1   4 8.52862 10.8372   1
 -11  -1   2 201.327 13.2317  -2
 -11  -1   4 201.327 13.2317   1
 -10  -1   2 40.1862 10.8243  -2
 -10  -1   4 40.1862 10.8243   1
  -9  -1   2 96.3546 15.5822  -2
  -9  -1   4 96.3546 15.5822   1
  -8  -1   3 175.330 11.2947  -2
  -8  -1   4 175.330 11.2947   1
  -7  -1   3 338.172 13.2250  -2
  -7  -1   4 338.172 13.2250   1
  -6  -1   3 461.775 14.5701  -2
  -6  -1   4 461.775 14.5701   1
  -5  -1   3 272.479 12.4128  -2
  -5  -1   4 272.479 12.4128   1
  -4  -1   4 415.847 10.6953   1
  -3  -1   4 -0.7359 2.15776   1
  -2  -1   4 365.945 7.10264   1
  -1  -1   4 20.8321 1.70115   1
   0  -1   4 1280.77 42.8282  -2
   0  -1   4 1280.77 42.8282   1
   1  -1   4 406.740 15.9986  -2
   1  -1   4 406.740 15.9986   1
   2  -1   4 359.901 7.16981   1
   3  -1   4 1210.60 19.8595   1
   4  -1   4 361.479 8.08912   1
   5  -1   4 220.195 7.27834   1
   6  -1   4 1.64375 2.50114   1
   7  -1   4 501.405 11.7004   1
   8  -1   4 45.1103 4.38609   1
   9  -1   4 263.976 11.3005   1
  10  -1   4 21.9095 6.31215   1
  11  -1   4 76.2204 8.51805   1
  12  -1   4 29.3584 7.35964   1
  13  -1   4 30.9846 7.88583   1
 -13   0   2 58.1627 13.9566  -2
 -13   0   4 58.1627 13.9566   1
 -12   0   2 -5.3178 11.9678  -2
 -12   0   4 -5.3178 11.9678   1
 -11   0   2 330.740 16.0088  -2
 -11   0   4 330.740 16.0088   1
 -10   0   2 2.42704 13.1865  -2
 -10   0   4 2.42704 13.1865   1
  -9   0   3 97.8594 14.2732  -2
  -9   0   4 97.8594 14.2732   1
  -8   0   3 191.348 11.1915  -2
  -8   0   4 191.348 11.1915   1
  -7   0   3 381.651 13.4083  -2
  -7   0   4 381.651 13.4083   1
  -6   0   3 404.434 13.9833  -2
  -6   0   4 404.434 13.9833   1
  -5   0   3 195.433 47.7685  -2
  -5   0   4 195.433 47.7685   1
  -4   0   4 492.802 9.86688   1
  -3   0   4 105.140 3.44639   1
  -2   0   4 573.671 9.53398   1
  -1   0   4 178.944 5.33409   1
   0   0   4 24.3850 1.44424   1
   1   0   4 987.562 16.0096   1
   2   0   4 337.088 6.43411   1
   3   0   4 554.379 10.4629   1
   4   0   4 448.633 9.49118   1
   5   0   4 358.893 10.7638   1
   6   0   4 74.0860 3.92184   1
   7   0   4 439.882 10.2773   1
   8   0   4 -5.2752 4.11913   1
   9   0   4 202.981 10.2365   1
  10   0   4 3.37316 5.80736   1
  11   0   4 130.847 10.1717   1
  12   0   4 25.8478 7.59850   1
  13   0   4 27.8299 7.69408   1
 -13   1   2 49.8200 13.6452  -2
 -13   1   4 49.8200 13.6452   1
 -12   1   2 20.5046 13.2536  -2
 -12   1   4 20.5046 13.2536   1
 -11   1   2 231.153 15.2021  -2
 -11   1   4 231.153 15.2021   1
 -10   1   4 27.1091 7.41136   1
  -9   1   3 311.007 18.4820  -2
  -9   1   4 311.007 18.4820   1
  -8   1   3 17.7031 7.43298  -2
  -8   1   4 17.7031 7.43298   1
  -7   1   3 599.580 14.9479  -2
  -7   1   4 599.580 14.9479   1
  -6   1   3 114.367 12.6519  -2
  -6   1   4 114.367 12.6519   1
  -5   1   4 72.2918 10.0964   1
  -4   1   4 338.956 7.22277   1
  -3   1   4 173.207 4.20455   1
  -2   1   4 1656.19 28.0041   1
  -1   1   4 164.384 3.45944   1
   0   1   4 847.579 16.5086   1
   1   1   4 316.973 6.61666   1
   2   1   4 1924.31 29.0694   1
   3   1   4 18.0960 2.67050   1
   4   1   4 777.458 14.3584   1
   5   1   4 370.144 8.87426   1
   6   1   4 310.393 7.50443   1
   7   1   4 202.757 8.68586   1
   8   1   4 87.3636 7.44652   1
   9   1   4 144.213 13.1188   1
  10   1   4 8.52269 6.31251   1
  11   1   4 103.808 9.85121   1
  12   1   4 6.54802 6.78339   1
  13   1   4 41.3332 14.8091   1
 -13   2   2 26.9289 16.7292  -2
 -13   2   4 26.9289 16.7292   1
 -12   2   2 51.8089 13.8718  -2
 -12   2   4 51.8089 13.8718   1
 -11   2   2 172.096 18.5813  -2
 -11   2   4 172.096 18.5813   1
 -10   2   4 46.3582 8.34955   1
  -9   2   4 187.433 8.84830   1
  -8   2   3 18.4655 9.96502  -2
  -8   2   4 18.4655 9.96502   1
  -7   2   3 217.441 14.6701  -2
  -7   2   4 217.441 14.6701   1
  -6   2   4 118.751 7.32323   1
  -5   2   4 409.587 10.2466   1
  -4   2   4 22.4276 2.49083   1
  -3   2   4 255.849 5.92985   1
  -2   2   4 479.679 8.72466   1
  -1   2   4 170.528 4.06796   1
   0   2   4 877.900 14.6363   1
   1   2   4 178.058 4.16786   1
   2   2   4 1007.41 19.6007   1
   3   2   4 78.2622 3.83148   1
   4   2   4 726.071 14.8674   1
   5   2   4 66.9242 4.24340   1
   6   2   4 289.744 10.1489   1
   7   2   4 77.8784 6.61214   1
   8   2   4 74.9927 6.92261   1
   9   2   4 140.759 9.17006   1
  10   2   4 9.57499 5.52196   1
  11   2   4 102.757 9.81684   1
  12   2   4 -9.0961 6.85476   1
 -13   3   2 4.06267 17.4621  -2
 -13   3   4 4.06267 17.4621   1
 -12   3   4 57.4546 9.53751   1
 -11   3   4 122.547 10.9168   1
 -10   3   4 37.9851 7.87479   1
  -9   3   4 161.683 8.76205   1
  -8   3   3 95.0894 10.9421  -2
  -8   3   4 95.0894 10.9421   1
  -7   3   3 283.992 16.4107  -2
  -7   3   4 283.992 16.4107   1
  -6   3   4 10.3171 3.22892   1
  -5   3   4 585.829 13.2334   1
  -4   3   4 104.006 4.28479   1
  -3   3   4 838.967 14.9239   1
  -2   3   4 614.508 11.0360   1
  -1   3   4 670.451 12.0535   1
   0   3   4 1301.96 20.8043   1
   1   3   4 515.570 10.2476   1
   2   3   4 341.527 6.98536   1
   3   3   4 49.3526 3.34426   1
   4   3   4 362.652 8.81668   1
   5   3   4 15.1211 3.15682   1
   6   3   4 156.098 7.69839   1
   7   3   4 81.7101 6.73812   1
   8   3   4 75.2120 7.24737   1
   9   3   4 103.515 8.31823   1
  10   3   4 27.6389 6.30993   1
  11   3   4 126.343 10.0312   1
  12   3   4 9.40920 7.02770   1
 -13   4   4 8.21509 9.21016   1
 -12   4   4 116.322 11.0247   1
 -11   4   2 67.4962 30.5071  -2
 -11   4   4 67.4962 30.5071   1
 -10   4   4 58.9931 9.42379   1
  -9   4   3 119.527 15.8696  -2
  -9   4   4 119.527 15.8696   1
  -8   4   3 23.3816 13.1796  -2
  -8   4   4 23.3816 13.1796   1
  -7   4   3 558.248 23.9454  -2
  -7   4   4 558.248 23.9454   1
  -6   4   4 129.803 6.12920   1
  -5   4   4 330.014 8.90933   1
  -4   4   4 -1.6435 3.65130   1
  -3   4   4 685.414 15.1628   1
  -2   4   4 124.552 4.08183   1
  -1   4   4 804.037 14.3413   1
   0   4   4 952.149 19.2021   1
   1   4   4 390.431 9.82299   1
   2   4   4 454.109 9.74061   1
   3   4   4 3.23854 2.36186   1
   4   4   4 859.684 17.6886   1
   5   4   4 5.58320 2.97980   1
   6   4   4 284.858 10.4398   1
   7   4   4 53.9579 5.93803   1
   8   4   4 118.813 8.61662   1
   9   4   4 143.228 9.25567   1
  10   4   4 56.9962 7.15890   1
  11   4   4 55.8949 7.54237   1
  12   4   4 -1.1808 6.92244   1
 -12   5   4 48.6855 9.72558   1
 -11   5   4 22.6958 7.38256   1
 -10   5   4 33.9360 9.96295   1
  -9   5   4 16.7666 5.53884   1
  -8   5   4 53.1463 6.13117   1
  -7   5   4 115.290 6.92395   1
  -6   5   4 81.5570 6.00868   1
  -5   5   4 505.572 12.5417   1
  -4   5   4 56.2334 5.09103   1
  -3   5   4 752.560 19.8280   1
  -2   5   4 15.5634 2.33854   1
  -1   5   4 521.398 11.2789   1
   0   5   4 263.103 6.87527   1
   1   5   4 308.724 7.79736   1
   2   5   4 300.174 7.86110   1
   3   5   4 88.7774 5.55398   1
   4   5   4 690.105 18.9617   1
   5   5   4 -1.1801 3.44752   1
   6   5   4 557.314 16.2568   1
   7   5   4 2.66215 4.26880   1
   8   5   4 308.668 12.3546   1
   9   5   4 51.4869 7.07016   1
  10   5   4 103.896 8.88443   1
  11   5   4 24.6492 6.79851   1
  12   5   4 23.2363 7.57144   1
 -12   6   4 52.0103 9.96722   1
 -11   6   4 8.92905 8.19783   1
 -10   6   4 93.0009 8.59328   1
  -9   6   4 40.8095 6.33363   1
  -8   6   4 109.781 7.92052   1
  -7   6   4 102.018 7.07790   1
  -6   6   4 68.3295 5.55388   1
  -5   6   4 331.587 11.3064   1
  -4   6   4 73.5771 10.5713   1
  -3   6   4 379.638 9.28352   1
  -2   6   4 23.4235 2.92777   1
  -1   6   4 490.755 11.0412   1
   0   6   4 125.482 4.97595   1
   1   6   4 453.152 10.6444   1
   2   6   4 127.736 5.39879   1
   3   6   4 524.710 12.3744   1
   4   6   4 195.795 7.10006   1
   5   6   4 4.69256 4.82214   1
   6   6   4 342.122 12.1332   1
   7   6   4 5.19610 5.07191   1
   8   6   4 218.717 10.6487   1
   9   6   4 -1.3933 5.39214   1
  10   6   4 98.6926 14.0253   1
  11   6   4 19.5922 6.37517   1
 -12   7   2 150.787 39.5977  -2
 -12   7   4 150.787 39.5977   1
 -11   7   4 5.44834 7.95371   1
 -10   7   4 105.401 9.61984   1
  -9   7   4 -3.5084 6.56465   1
  -8   7   4 125.866 8.80938   1
  -7   7   4 78.3940 6.98454   1
  -6   7   4 175.506 9.13483   1
  -5   7   4 234.056 7.74828   1
  -4   7   4 141.090 5.94166   1
  -3   7   4 171.881 6.46880   1
  -2   7   4 6.30998 2.72845   1
  -1   7   4 587.488 13.2948   1
   0   7   4 10.3803 2.88496   1
   1   7   4 322.780 8.80454   1
   2   7   4 2.11859 2.91404   1
   3   7   4 223.533 7.66837   1
   4   7   4 197.117 7.79940   1
   5   7   4 291.355 12.0232   1
   6   7   4 219.681 9.98273   1
   7   7   4 24.7901 5.64694   1
   8   7   4 135.028 9.42363   1
   9   7   4 -4.0087 8.81447   1
  10   7   4 75.6307 12.5809   1
  11   7   4 5.19039 10.9341   1
 -11   8   4 4.45418 8.93575   1
 -10   8   4 70.7529 9.36523   1
  -9   8   4 -4.2350 7.43364   1
  -8   8   4 89.7479 9.38881   1
  -7   8   4 33.6766 5.32812   1
  -6   8   4 203.070 8.00742   1
  -5   8   4 98.9783 6.14857   1
  -4   8   4 92.5963 5.41992   1
  -3   8   4 7.04039 3.17727   1
  -2   8   4 21.6850 3.41277   1
  -1   8   4 441.464 10.9487   1
   0   8   4 11.4676 3.41337   1
   1   8   4 457.483 11.5243   1
   2   8   4 5.13329 3.41400   1
   3   8   4 182.380 7.45405   1
   4   8   4 73.9165 6.10098   1
   5   8   4 113.756 9.00568   1
   6   8   4 117.318 12.3931   1
   7   8   4 63.5773 7.77050   1
   8   8   4 109.474 9.38001   1
   9   8   4 19.0325 10.6908   1
  10   8   4 54.5359 12.4398   1
 -11   9   4 26.4512 10.6201   1
 -10   9   4 41.7501 9.30942   1
  -9   9   4 2.42737 6.07595   1
  -8   9   4 87.0204 9.71489   1
  -7   9   4 -6.2069 4.72556   1
  -6   9   4 241.703 9.03820   1
  -5   9   4 17.6059 4.22106   1
  -4   9   4 187.770 7.34938   1
  -3   9   4 86.4160 5.62978   1
  -2   9   4 135.726 6.30780   1
  -1   9   4 212.861 7.57749   1
   0   9   4 33.6617 4.42355   1
   1   9   4 89.4856 5.93363   1
   2   9   4 3.19927 3.55331   1
   3   9   4 322.146 10.1084   1
   4   9   4 2.50092 4.31941   1
   5   9   4 137.892 8.27990   1
   6   9   4 13.1210 9.23032   1
   7   9   4 111.626 9.32447   1
   8   9   4 89.0339 14.4071   1
   8   9   6 2.85604 25.2079  -2
   9   9   4 2.85604 25.2079   1
 -10  10   4 25.3994 9.66498   1
  -9  10   4 18.6627 8.58502   1
  -8  10   4 93.7260 8.30525   1
  -7  10   4 -1.7704 5.30698   1
  -6  10   4 117.246 7.49062   1
  -5  10   4 5.71865 4.40760   1
  -4  10   4 175.556 7.84181   1
  -3  10   4 6.78452 4.22129   1
  -2  10   4 95.3589 6.45383   1
  -1  10   4 116.756 6.70155   1
   0  10   4 70.3634 5.74005   1
   1  10   4 95.0745 6.73247   1
   2  10   4 58.4907 5.60882   1
   2  10   5 368.683 21.8724  -2
   3  10   4 368.683 21.8724   1
   4  10   4 1.97582 6.04036   1
   5  10   4 158.658 9.37676   1
   6  10   4 20.4407 9.69179   1
   7  10   4 73.2382 12.5576   1
   8  10   4 61.8050 13.7332   1
   9  10   4 44.9965 12.0134   1
  -9  11   4 12.5235 8.62874   1
  -8  11   4 71.7048 10.1522   1
  -7  11   4 31.4982 8.16726   1
  -6  11   4 79.7939 13.4074   1
  -5  11   4 -0.9806 5.04520   1
  -4  11   4 131.313 8.08407   1
  -3  11   4 -3.8869 4.50354   1
  -2  11   4 165.366 8.09686   1
  -1  11   4 117.313 7.86608   1
   0  11   4 118.084 7.67091   1
   1  11   4 151.239 8.13563   1
   2  11   4 76.6209 6.71269   1
   3  11   4 230.805 12.9049   1
   3  11   5 31.7884 16.3538  -2
   4  11   4 31.7884 16.3538   1
   4  11   5 299.109 22.0203  -2
   5  11   4 299.109 22.0203   1
   6  11   4 -4.5913 9.60008   1
   7  11   4 134.404 16.2376   1
   7  11   6 25.0586 27.2688  -2
   8  11   4 25.0586 27.2688   1
  -8  12   4 0.07307 8.36359   1
  -7  12   4 41.5469 9.30283   1
  -6  12   4 74.6166 9.38894   1
  -5  12   4 24.7917 7.91016   1
  -4  12   4 63.7262 12.8084   1
  -3  12   4 -0.0801 5.79506   1
  -2  12   4 174.509 9.12428   1
  -1  12   4 25.4595 5.78452   1
   0  12   4 126.241 8.68183   1
   1  12   4 65.8256 6.79839   1
   2  12   4 109.061 8.37200   1
   2  12   5 195.081 20.0116  -2
   3  12   4 195.081 20.0116   1
   3  12   5 10.6349 14.7546  -2
   4  12   4 10.6349 14.7546   1
   4  12   5 178.274 20.8777  -2
   5  12   4 178.274 20.8777   1
   6  12   4 -2.1628 10.5934   1
   7  12   4 76.5064 14.6501   1
  -7  13   4 15.6295 8.63047   1
  -6  13   4 27.6434 9.03591   1
  -5  13   4 5.64270 8.05643   1
  -4  13   4 66.2346 9.44884   1
  -3  13   4 0.27622 7.13464   1
  -2  13   4 117.680 10.9730   1
  -1  13   4 5.85949 6.99119   1
   0  13   4 127.125 8.89822   1
   1  13   4 3.06066 5.89739   1
   2  13   4 137.208 9.57452   1
   2  13   5 82.1582 19.3745  -2
   3  13   4 82.1582 19.3745   1
   3  13   5 124.937 17.4095  -2
   4  13   4 124.937 17.4095   1
   4  13   5 44.7195 20.2050  -2
   5  13   4 44.7195 20.2050   1
   6  13   4 35.3357 13.5852   1
  -6  14   4 24.1012 12.5004   1
  -5  14   4 20.3649 8.86868   1
  -4  14   4 67.9146 10.3563   1
  -3  14   4 18.7207 8.16420   1
  -2  14   4 64.2765 9.59566   1
  -1  14   4 0.53698 7.66385   1
   0  14   4 70.8720 9.53431   1
   1  14   4 -8.5429 7.65812   1
   2  14   4 60.4820 8.56034   1
   2  14   5 32.7478 20.5019  -2
   3  14   4 32.7478 20.5019   1
   3  14   5 102.323 21.9432  -2
   4  14   4 102.323 21.9432   1
  -3  15   4 7.76965 8.05671   1
  -2  15   4 30.6303 8.78702   1
  -1  15   4 -6.5731 8.30439   1
   0  15   4 56.8411 9.95514   1
   1  15   4 -0.6732 8.96326   1
  -2 -17   5 24.0525 8.10454   1
  -1 -17   5 43.1384 8.54815   1
   0 -17   4 89.9635 17.8830  -2
   0 -17   5 89.9635 17.8830   1
   1 -17   4 30.2093 15.9323  -2
   1 -17   5 30.2093 15.9323   1
   2 -17   4 35.2701 17.0855  -2
   2 -17   5 35.2701 17.0855   1
   3 -17   5 8.58280 10.0525   1
  -4 -16   5 48.4338 9.24811   1
  -3 -16   5 103.862 10.6347   1
  -2 -16   5 14.9367 7.40519   1
  -1 -16   5 28.5410 6.96716   1
   0 -16   4 60.8215 15.5741  -2
   0 -16   5 60.8215 15.5741   1
   1 -16   4 51.3500 15.8590  -2
   1 -16   5 51.3500 15.8590   1
   2 -16   4 90.4442 17.2294  -2
   2 -16   5 90.4442 17.2294   1
   3 -16   4 21.6195 16.3437  -2
   3 -16   5 21.6195 16.3437   1
   4 -16   5 66.7802 20.4438  -2
   4 -16   5 66.7802 20.4438   1
   5 -16   5 -15.030 16.3216  -2
   5 -16   5 -15.030 16.3216   1
  -6 -15   3 46.9940 18.0360  -2
  -6 -15   5 46.9940 18.0360   1
  -5 -15   3 64.9016 17.0242  -2
  -5 -15   5 64.9016 17.0242   1
  -4 -15   5 -1.0986 6.24955   1
  -3 -15   5 97.8281 8.86166   1
  -2 -15   5 0.19643 6.17630   1
  -1 -15   4 77.8462 16.0275  -2
  -1 -15   5 77.8462 16.0275   1
   0 -15   4 38.3056 15.2410  -2
   0 -15   5 38.3056 15.2410   1
   1 -15   4 79.4118 14.1389  -2
   1 -15   5 79.4118 14.1389   1
   2 -15   4 54.2665 14.8939  -2
   2 -15   5 54.2665 14.8939   1
   3 -15   5 -4.4708 17.8921  -2
   3 -15   5 -4.4708 17.8921   1
   3 -15   4 63.3240 15.6933  -2
   3 -15   5 63.3240 15.6933   1
   4 -15   5 48.9365 17.7541  -2
   4 -15   5 48.9365 17.7541   1
   5 -15   5 -6.1139 11.2574  -2
   5 -15   5 -6.1139 11.2574   1
   6 -15   5 44.2687 12.3473  -2
   6 -15   5 44.2687 12.3473   1
   7 -15   5 19.1099 12.7795  -2
   7 -15   5 19.1099 12.7795   1
  -7 -14   3 72.0922 17.6264  -2
  -7 -14   5 72.0922 17.6264   1
  -6 -14   3 16.8338 15.4594  -2
  -6 -14   5 16.8338 15.4594   1
  -5 -14   3 66.5537 15.8773  -2
  -5 -14   5 66.5537 15.8773   1
  -4 -14   5 5.84388 6.74732   1
  -3 -14   5 131.644 10.3062   1
  -2 -14   4 70.2337 12.9650  -2
  -2 -14   5 70.2337 12.9650   1
  -1 -14   4 72.2213 13.9147  -2
  -1 -14   5 72.2213 13.9147   1
   0 -14   4 39.4938 10.0285  -2
   0 -14   5 39.4938 10.0285   1
   1 -14   4 62.5021 10.5398  -2
   1 -14   5 62.5021 10.5398   1
   2 -14   4 89.4897 14.9063  -2
   2 -14   5 89.4897 14.9063   1
   3 -14   5 22.9211 16.7275  -2
   3 -14   5 22.9211 16.7275   1
   3 -14   4 44.4971 14.3459  -2
   3 -14   5 44.4971 14.3459   1
   4 -14   5 52.1673 11.2944  -2
   4 -14   5 52.1673 11.2944   1
   5 -14   5 -8.7184 10.3226  -2
   5 -14   5 -8.7184 10.3226   1
   6 -14   5 203.280 13.5844  -2
   6 -14   5 203.280 13.5844   1
   7 -14   5 -5.9281 11.7084  -2
   7 -14   5 -5.9281 11.7084   1
   8 -14   5 69.8136 17.6959  -2
   8 -14   5 69.8136 17.6959   1
  -8 -13   5 145.214 18.1614   1
  -7 -13   3 65.7634 15.9266  -2
  -7 -13   5 65.7634 15.9266   1
  -6 -13   3 119.218 17.4619  -2
  -6 -13   5 119.218 17.4619   1
  -5 -13   3 138.000 17.6956  -2
  -5 -13   5 138.000 17.6956   1
  -4 -13   5 35.5726 5.56497   1
  -3 -13   4 112.481 12.3946  -2
  -3 -13   5 112.481 12.3946   1
  -2 -13   4 76.4549 10.2548  -2
  -2 -13   5 76.4549 10.2548   1
  -1 -13   4 238.510 17.4642  -2
  -1 -13   5 238.510 17.4642   1
   0 -13   4 60.9778 11.1543  -2
   0 -13   5 60.9778 11.1543   1
   1 -13   4 70.7132 10.9127  -2
   1 -13   5 70.7132 10.9127   1
   2 -13   4 35.4079 13.1874  -2
   2 -13   5 35.4079 13.1874   1
   3 -13   5 80.0877 16.7450  -2
   3 -13   5 80.0877 16.7450   1
   4 -13   5 1.87089 9.31861  -2
   4 -13   5 1.87089 9.31861   1
   5 -13   5 59.7823 10.4903  -2
   5 -13   5 59.7823 10.4903   1
   6 -13   5 70.2718 15.1850  -2
   6 -13   5 70.2718 15.1850   1
   7 -13   5 43.4799 14.9744  -2
   7 -13   5 43.4799 14.9744   1
   8 -13   5 100.371 19.0388  -2
   8 -13   5 100.371 19.0388   1
   9 -13   6 -35.252 21.9930  -2
   9 -13   5 -35.252 21.9930   1
  -9 -12   5 -1.9170 11.1231   1
  -8 -12   5 130.870 16.4129   1
  -7 -12   3 14.8273 14.1442  -2
  -7 -12   5 14.8273 14.1442   1
  -6 -12   3 146.406 17.4792  -2
  -6 -12   5 146.406 17.4792   1
  -5 -12   3 62.5331 14.6460  -2
  -5 -12   5 62.5331 14.6460   1
  -4 -12   4 130.654 12.1211  -2
  -4 -12   5 130.654 12.1211   1
  -3 -12   4 170.078 13.1002  -2
  -3 -12   5 170.078 13.1002   1
  -2 -12   4 40.9029 10.7259  -2
  -2 -12   5 40.9029 10.7259   1
  -1 -12   4 271.192 12.4975  -2
  -1 -12   5 271.192 12.4975   1
   0 -12   4 32.3024 8.50178  -2
   0 -12   5 32.3024 8.50178   1
   1 -12   4 105.610 13.7382  -2
   1 -12   5 105.610 13.7382   1
   2 -12   5 2.44785 13.7043  -2
   2 -12   5 2.44785 13.7043   1
   4 -12   5 94.4981 10.1313  -2
   4 -12   5 94.4981 10.1313   1
   5 -12   5 92.7075 9.05797  -2
   5 -12   5 92.7075 9.05797   1
   6 -12   5 83.0470 10.3517  -2
   6 -12   5 83.0470 10.3517   1
   7 -12   5 51.9069 15.4385  -2
   7 -12   5 51.9069 15.4385   1
   9 -12   6 -3.5439 20.1200  -2
   9 -12   5 -3.5439 20.1200   1
  10 -12   5 15.4740 13.9067   1
 -10 -11   3 83.1863 23.7269  -2
 -10 -11   5 83.1863 23.7269   1
  -9 -11   3 19.5038 24.5706  -2
  -9 -11   5 19.5038 24.5706   1
  -8 -11   3 196.501 23.5995  -2
  -8 -11   5 196.501 23.5995   1
  -7 -11   3 2.07109 14.4435  -2
  -7 -11   5 2.07109 14.4435   1
  -6 -11   3 228.942 18.1249  -2
  -6 -11   5 228.942 18.1249   1
  -5 -11   4 28.5795 17.3282  -2
  -5 -11   5 28.5795 17.3282   1
  -4 -11   4 268.382 13.9663  -2
  -4 -11   5 268.382 13.9663   1
  -3 -11   4 180.457 8.90432  -2
  -3 -11   5 180.457 8.90432   1
  -2 -11   4 99.3173 8.71907  -2
  -2 -11   5 99.3173 8.71907   1
  -1 -11   4 154.260 7.46735  -2
  -1 -11   5 154.260 7.46735   1
   0 -11   4 62.2486 8.11540  -2
   0 -11   5 62.2486 8.11540   1
   1 -11   4 348.708 18.5626  -2
   1 -11   5 348.708 18.5626   1
   2 -11   5 -13.837 11.5079  -2
   2 -11   5 -13.837 11.5079   1
   3 -11   5 433.097 14.7777  -2
   3 -11   5 433.097 14.7777   1
   4 -11   5 -6.1185 7.31311  -2
   4 -11   5 -6.1185 7.31311   1
   6 -11   5 88.6504 10.6845  -2
   6 -11   5 88.6504 10.6845   1
   7 -11   5 124.285 16.0341  -2
   7 -11   5 124.285 16.0341   1
   9 -11   6 94.0346 13.3353  -2
   9 -11   5 94.0346 13.3353   1
  10 -11   6 56.4965 12.3022  -2
  10 -11   5 56.4965 12.3022   1
 -11 -10   5 37.9033 7.80102   1
 -10 -10   3 8.15787 22.7703  -2
 -10 -10   5 8.15787 22.7703   1
  -9 -10   3 18.3181 21.7575  -2
  -9 -10   5 18.3181 21.7575   1
  -8 -10   3 132.641 20.5846  -2
  -8 -10   5 132.641 20.5846   1
  -7 -10   3 -0.4403 13.6005  -2
  -7 -10   5 -0.4403 13.6005   1
  -6 -10   3 248.533 19.1157  -2
  -6 -10   5 248.533 19.1157   1
  -5 -10   4 83.6740 10.7482  -2
  -5 -10   5 83.6740 10.7482   1
  -4 -10   4 325.419 10.8575  -2
  -4 -10   5 325.419 10.8575   1
  -3 -10   4 210.194 10.1130  -2
  -3 -10   5 210.194 10.1130   1
  -2 -10   4 133.707 8.37387  -2
  -2 -10   5 133.707 8.37387   1
  -1 -10   4 245.805 8.09896  -2
  -1 -10   5 245.805 8.09896   1
   0 -10   4 234.254 10.5003  -2
   0 -10   5 234.254 10.5003   1
   1 -10   4 247.399 15.9190  -2
   1 -10   5 247.399 15.9190   1
   2 -10   5 12.9386 6.21285  -2
   2 -10   5 12.9386 6.21285   1
   3 -10   5 286.038 11.3271  -2
   3 -10   5 286.038 11.3271   1
   4 -10   5 29.8418 6.76800  -2
   4 -10   5 29.8418 6.76800   1
   5 -10   5 301.256 12.1053  -2
   5 -10   5 301.256 12.1053   1
   6 -10   5 45.3328 15.0786  -2
   6 -10   5 45.3328 15.0786   1
   8 -10   6 27.1158 19.6229  -2
   8 -10   5 27.1158 19.6229   1
   9 -10   6 63.0400 12.3049  -2
   9 -10   5 63.0400 12.3049   1
  10 -10   6 60.0459 12.4714  -2
  10 -10   5 60.0459 12.4714   1
  11 -10   6 -6.9391 11.7821  -2
  11 -10   5 -6.9391 11.7821   1
 -11  -9   3 79.9810 24.0635  -2
 -11  -9   5 79.9810 24.0635   1
 -10  -9   3 40.9210 20.6147  -2
 -10  -9   5 40.9210 20.6147   1
  -9  -9   3 43.4308 19.0915  -2
  -9  -9   5 43.4308 19.0915   1
  -8  -9   3 151.181 19.5970  -2
  -8  -9   5 151.181 19.5970   1
  -7  -9   3 41.8478 17.0971  -2
  -7  -9   5 41.8478 17.0971   1
  -6  -9   5 211.638 14.3242   1
  -5  -9   4 92.8795 7.52088  -2
  -5  -9   5 92.8795 7.52088   1
  -4  -9   4 351.931 10.3014  -2
  -4  -9   5 351.931 10.3014   1
  -3  -9   4 106.311 11.0221  -2
  -3  -9   5 106.311 11.0221   1
  -2  -9   4 202.346 9.22118  -2
  -2  -9   5 202.346 9.22118   1
  -1  -9   4 387.890 12.6317  -2
  -1  -9   5 387.890 12.6317   1
   0  -9   4 443.052 14.1600  -2
   0  -9   5 443.052 14.1600   1
   1  -9   5 79.6845 8.05988  -2
   1  -9   5 79.6845 8.05988   1
   2  -9   5 164.757 8.22984  -2
   2  -9   5 164.757 8.22984   1
   3  -9   5 557.354 15.7231  -2
   3  -9   5 557.354 15.7231   1
   4  -9   5 63.7807 6.71237  -2
   4  -9   5 63.7807 6.71237   1
   5  -9   5 438.285 14.6721  -2
   5  -9   5 438.285 14.6721   1
   6  -9   5 107.666 13.5574  -2
   6  -9   5 107.666 13.5574   1
   8  -9   6 77.6141 15.0633  -2
   8  -9   5 77.6141 15.0633   1
   9  -9   6 57.0554 12.3399  -2
   9  -9   5 57.0554 12.3399   1
  10  -9   6 74.4826 22.7122  -2
  10  -9   5 74.4826 22.7122   1
  11  -9   6 27.8807 12.5581  -2
  11  -9   5 27.8807 12.5581   1
 -12  -8   5 4.61794 6.43913   1
 -11  -8   3 73.1156 20.7611  -2
 -11  -8   5 73.1156 20.7611   1
 -10  -8   3 86.1579 19.6640  -2
 -10  -8   5 86.1579 19.6640   1
  -9  -8   3 121.499 18.1431  -2
  -9  -8   5 121.499 18.1431   1
  -7  -8   3 160.787 11.8747  -2
  -7  -8   5 160.787 11.8747   1
  -6  -8   4 205.531 16.3585  -2
  -6  -8   5 205.531 16.3585   1
  -5  -8   4 84.2914 8.34530  -2
  -5  -8   5 84.2914 8.34530   1
  -4  -8   4 169.919 8.88418  -2
  -4  -8   5 169.919 8.88418   1
  -3  -8   4 89.0467 6.62227  -2
  -3  -8   5 89.0467 6.62227   1
  -2  -8   4 634.046 13.9157  -2
  -2  -8   5 634.046 13.9157   1
  -1  -8   4 246.861 9.18316  -2
  -1  -8   5 246.861 9.18316   1
   0  -8   4 432.182 13.6513  -2
   0  -8   5 432.182 13.6513   1
   1  -8   5 149.246 7.98330  -2
   1  -8   5 149.246 7.98330   1
   2  -8   5 134.461 6.75260  -2
   2  -8   5 134.461 6.75260   1
   3  -8   5 470.349 13.4606  -2
   3  -8   5 470.349 13.4606   1
   4  -8   5 117.925 6.97769  -2
   4  -8   5 117.925 6.97769   1
   5  -8   5 315.258 12.1810  -2
   5  -8   5 315.258 12.1810   1
   6  -8   5 1.79551 17.0645  -2
   6  -8   5 1.79551 17.0645   1
   8  -8   6 47.9181 8.81826  -2
   8  -8   5 47.9181 8.81826   1
   9  -8   6 78.2263 10.2052  -2
   9  -8   5 78.2263 10.2052   1
  10  -8   6 33.0132 13.9308  -2
  10  -8   5 33.0132 13.9308   1
  11  -8   6 93.2507 14.8597  -2
  11  -8   5 93.2507 14.8597   1
  12  -8   5 56.5367 13.0059   1
 -12  -7   3 -0.0402 20.2646  -2
 -12  -7   5 -0.0402 20.2646   1
 -11  -7   3 109.030 19.9537  -2
 -11  -7   5 109.030 19.9537   1
 -10  -7   3 4.99670 16.7830  -2
 -10  -7   5 4.99670 16.7830   1
  -9  -7   3 210.311 19.0774  -2
  -9  -7   5 210.311 19.0774   1
  -8  -7   3 40.5469 15.3471  -2
  -8  -7   5 40.5469 15.3471   1
  -7  -7   3 305.079 19.6185  -2
  -7  -7   5 305.079 19.6185   1
  -6  -7   4 265.952 11.9847  -2
  -6  -7   5 265.952 11.9847   1
  -5  -7   4 134.388 6.76798  -2
  -5  -7   5 134.388 6.76798   1
  -4  -7   4 279.383 7.99498  -2
  -4  -7   5 279.383 7.99498   1
  -3  -7   4 141.691 6.87346  -2
  -3  -7   5 141.691 6.87346   1
  -2  -7   4 381.842 9.42372  -2
  -2  -7   5 381.842 9.42372   1
  -1  -7   4 352.343 14.5363  -2
  -1  -7   5 352.343 14.5363   1
   0  -7   5 779.313 27.2226  -2
   0  -7   5 779.313 27.2226   1
   1  -7   5 75.5132 5.93417  -2
   1  -7   5 75.5132 5.93417   1
   2  -7   5 440.362 12.5365  -2
   2  -7   5 440.362 12.5365   1
   3  -7   5 168.234 7.11644  -2
   3  -7   5 168.234 7.11644   1
   4  -7   5 217.143 6.62716  -2
   4  -7   5 217.143 6.62716   1
   5  -7   5 300.112 8.74594  -2
   5  -7   5 300.112 8.74594   1
   7  -7   6 273.562 13.2000  -2
   7  -7   5 273.562 13.2000   1
   8  -7   6 26.3535 12.1889  -2
   8  -7   5 26.3535 12.1889   1
   9  -7   6 111.560 11.7791  -2
   9  -7   5 111.560 11.7791   1
  10  -7   6 24.8517 10.1561  -2
  10  -7   5 24.8517 10.1561   1
  11  -7   6 108.841 17.5671  -2
  11  -7   5 108.841 17.5671   1
  12  -7   6 15.2845 16.5033  -2
  12  -7   5 15.2845 16.5033   1
 -12  -6   3 30.3802 19.5596  -2
 -12  -6   5 30.3802 19.5596   1
 -11  -6   3 93.0077 18.6226  -2
 -11  -6   5 93.0077 18.6226   1
 -10  -6   3 -7.8579 15.8978  -2
 -10  -6   5 -7.8579 15.8978   1
  -9  -6   3 207.977 18.9147  -2
  -9  -6   5 207.977 18.9147   1
  -8  -6   3 21.9101 14.8896  -2
  -8  -6   5 21.9101 14.8896   1
  -7  -6   5 153.162 7.19533   1
  -6  -6   4 220.614 10.8192  -2
  -6  -6   5 220.614 10.8192   1
  -5  -6   4 111.346 7.93728  -2
  -5  -6   5 111.346 7.93728   1
  -4  -6   4 351.535 15.4874  -2
  -4  -6   5 351.535 15.4874   1
  -3  -6   4 115.234 9.27406  -2
  -3  -6   5 115.234 9.27406   1
  -2  -6   4 450.386 44.8513  -2
  -2  -6   5 450.386 44.8513   1
  -1  -6   5 33.1983 2.92682   1
   0  -6   5 1084.02 32.6545  -2
   0  -6   5 1084.02 32.6545   1
   1  -6   5 53.5091 6.98493  -2
   1  -6   5 53.5091 6.98493   1
   2  -6   5 650.527 38.9265  -2
   2  -6   5 650.527 38.9265   1
   3  -6   5 70.3435 3.76633  -2
   3  -6   5 70.3435 3.76633   1
   4  -6   5 546.429 12.1179  -2
   4  -6   5 546.429 12.1179   1
   5  -6   5 82.0450 5.55115  -2
   5  -6   5 82.0450 5.55115   1
   6  -6   6 127.993 14.2187  -2
   6  -6   5 127.993 14.2187  -2
   6  -6   5 127.993 14.2187   1
   7  -6   6 121.215 8.42878  -2
   7  -6   5 121.215 8.42878   1
   8  -6   6 97.2505 11.4635  -2
   8  -6   5 97.2505 11.4635   1
   9  -6   6 117.082 10.1775  -2
   9  -6   5 117.082 10.1775   1
  10  -6   6 38.3700 10.7166  -2
  10  -6   5 38.3700 10.7166   1
  11  -6   6 101.027 14.3052  -2
  11  -6   5 101.027 14.3052   1
  12  -6   6 -3.9379 14.2948  -2
  12  -6   5 -3.9379 14.2948   1
 -13  -5   3 74.5878 22.7241  -2
 -13  -5   5 74.5878 22.7241   1
 -12  -5   3 66.9387 19.9945  -2
 -12  -5   5 66.9387 19.9945   1
 -11  -5   3 121.566 18.0778  -2
 -11  -5   5 121.566 18.0778   1
 -10  -5   3 17.9282 16.0603  -2
 -10  -5   5 17.9282 16.0603   1
  -8  -5   3 34.7771 13.9959  -2
  -8  -5   5 34.7771 13.9959   1
  -7  -5   4 300.075 18.7204  -2
  -7  -5   5 300.075 18.7204   1
  -6  -5   4 185.345 14.9321  -2
  -6  -5   5 185.345 14.9321   1
  -5  -5   4 508.838 14.8273  -2
  -5  -5   5 508.838 14.8273   1
  -4  -5   4 110.666 9.94307  -2
  -4  -5   5 110.666 9.94307   1
  -3  -5   4 112.207 8.36348  -2
  -3  -5   5 112.207 8.36348   1
  -2  -5   4 1905.05 65.9256  -2
  -2  -5   5 1905.05 65.9256   1
  -1  -5   5 270.314 7.07265   1
   0  -5   5 1443.00 66.1608  -2
   0  -5   5 1443.00 66.1608   1
   1  -5   5 80.9162 28.8810  -2
   1  -5   5 80.9162 28.8810   1
   2  -5   5 646.950 13.7304  -2
   2  -5   5 646.950 13.7304   1
   3  -5   5 148.900 5.98839  -2
   3  -5   5 148.900 5.98839   1
   4  -5   5 540.941 14.3788  -2
   4  -5   5 540.941 14.3788   1
   5  -5   5 516.653 20.8406  -2
   5  -5   5 516.653 20.8406   1
   6  -5   6 139.050 12.9622  -2
   6  -5   5 139.050 12.9622   1
   7  -5   6 60.1477 8.98938  -2
   7  -5   5 60.1477 8.98938   1
   8  -5   6 62.1403 8.36966  -2
   8  -5   5 62.1403 8.36966   1
   9  -5   6 138.309 10.2797  -2
   9  -5   5 138.309 10.2797   1
  10  -5   6 -1.0148 11.2562  -2
  10  -5   5 -1.0148 11.2562   1
  11  -5   6 73.7698 14.1596  -2
  11  -5   5 73.7698 14.1596   1
  12  -5   6 13.5637 26.9451  -2
  12  -5   5 13.5637 26.9451   1
 -13  -4   3 6.78973 13.6395  -2
 -13  -4   5 6.78973 13.6395   1
 -12  -4   3 68.8566 12.2919  -2
 -12  -4   5 68.8566 12.2919   1
 -11  -4   3 64.0826 12.9640  -2
 -11  -4   5 64.0826 12.9640   1
 -10  -4   3 11.6243 14.4279  -2
 -10  -4   5 11.6243 14.4279   1
  -8  -4   3 29.1039 14.2477  -2
  -8  -4   5 29.1039 14.2477   1
  -7  -4   4 518.274 24.4267  -2
  -7  -4   5 518.274 24.4267   1
  -6  -4   4 168.084 14.5573  -2
  -6  -4   5 168.084 14.5573   1
  -5  -4   4 831.744 21.4342  -2
  -5  -4   5 831.744 21.4342   1
  -4  -4   4 390.077 10.7947  -2
  -4  -4   5 390.077 10.7947   1
  -3  -4   4 1481.64 68.5509  -2
  -3  -4   5 1481.64 68.5509   1
  -2  -4   5 2347.89 35.2364   1
  -1  -4   5 1030.37 17.2719   1
   0  -4   5 1007.42 52.8128  -2
   0  -4   5 1007.42 52.8128   1
   1  -4   5 17.2144 4.64291  -2
   1  -4   5 17.2144 4.64291   1
   2  -4   5 648.802 17.6957  -2
   2  -4   5 648.802 17.6957   1
   3  -4   5 28.5053 6.14382  -2
   3  -4   5 28.5053 6.14382   1
   4  -4   5 640.707 23.1823  -2
   4  -4   5 640.707 23.1823   1
   5  -4   5 207.494 6.45983   1
   6  -4   5 403.627 10.0732   1
   7  -4   5 60.6670 6.00558   1
   8  -4   6 156.895 11.1202  -2
   8  -4   5 156.895 11.1202   1
   9  -4   6 259.291 11.6191  -2
   9  -4   5 259.291 11.6191   1
  10  -4   6 90.3109 15.2573  -2
  10  -4   5 90.3109 15.2573   1
  11  -4   6 133.325 21.7208  -2
  11  -4   5 133.325 21.7208   1
  12  -4   5 8.89854 7.81017   1
 -13  -3   3 46.6070 13.5722  -2
 -13  -3   5 46.6070 13.5722   1
 -12  -3   3 167.494 13.7861  -2
 -12  -3   5 167.494 13.7861   1
 -11  -3   3 68.5329 18.0696  -2
 -11  -3   5 68.5329 18.0696   1
 -10  -3   3 14.5581 15.7754  -2
 -10  -3   5 14.5581 15.7754   1
  -9  -3   3 208.289 18.1578  -2
  -9  -3   5 208.289 18.1578   1
  -8  -3   5 95.6717 6.48228   1
  -7  -3   4 459.618 15.7351  -2
  -7  -3   5 459.618 15.7351   1
  -6  -3   4 168.312 9.25928  -2
  -6  -3   5 168.312 9.25928   1
  -5  -3   4 554.265 16.4697  -2
  -5  -3   5 554.265 16.4697   1
  -4  -3   4 238.163 8.26943  -2
  -4  -3   5 238.163 8.26943   1
  -3  -3   5 823.580 15.5877   1
  -2  -3   5 915.520 15.6159   1
  -1  -3   5 1722.22 26.3421   1
   0  -3   5 258.986 49.5652  -2
   0  -3   5 258.986 49.5652   1
   1  -3   5 115.035 24.0892  -2
   1  -3   5 115.035 24.0892   1
   2  -3   5 1261.46 28.7534  -2
   2  -3   5 1261.46 28.7534   1
   3  -3   5 242.005 10.3384  -2
   3  -3   5 242.005 10.3384   1
   4  -3   5 867.701 23.4504   1
   5  -3   5 4.93956 2.59749   1
   6  -3   5 583.125 13.0217   1
   7  -3   5 153.042 6.41879   1
   8  -3   5 308.435 9.44929   1
   9  -3   5 156.891 9.10602   1
  10  -3   5 117.817 13.5450   1
  11  -3   5 57.5678 8.37012   1
  12  -3   5 6.51007 7.76692   1
  13  -3   5 71.7484 15.2794   1
 -13  -2   3 41.0677 23.4088  -2
 -13  -2   5 41.0677 23.4088   1
 -12  -2   3 146.961 13.4552  -2
 -12  -2   5 146.961 13.4552   1
 -11  -2   3 82.2330 11.8443  -2
 -11  -2   5 82.2330 11.8443   1
 -10  -2   3 35.3010 16.6158  -2
 -10  -2   5 35.3010 16.6158   1
  -9  -2   5 68.3170 10.3052   1
  -8  -2   5 156.230 7.37951   1
  -7  -2   4 402.014 14.9594  -2
  -7  -2   5 402.014 14.9594   1
  -6  -2   4 411.822 13.7521  -2
  -6  -2   5 411.822 13.7521   1
  -5  -2   4 561.872 16.6136  -2
  -5  -2   5 561.872 16.6136   1
  -4  -2   4 769.262 81.2610  -2
  -4  -2   5 769.262 81.2610   1
  -3  -2   5 161.539 4.52283   1
  -2  -2   5 402.919 8.16808   1
  -1  -2   5 490.736 9.45470   1
   0  -2   5 2.12815 6.78395  -2
   0  -2   5 2.12815 6.78395   1
   1  -2   5 355.594 15.0214  -2
   1  -2   5 355.594 15.0214   1
   2  -2   5 696.022 68.3395  -2
   2  -2   5 696.022 68.3395   1
   3  -2   5 128.343 5.27004   1
   4  -2   5 891.285 16.5489   1
   5  -2   5 3.77950 3.07385   1
   6  -2   5 542.458 12.2106   1
   7  -2   5 7.41897 3.26123   1
   8  -2   5 153.552 6.80635   1
   9  -2   5 62.3558 10.4097   1
  10  -2   5 80.9745 8.97107   1
  11  -2   5 35.4808 7.17178   1
  12  -2   5 8.69475 7.23409   1
  13  -2   5 46.0827 9.02326   1
 -13  -1   3 20.2591 12.8155  -2
 -13  -1   5 20.2591 12.8155   1
 -12  -1   3 144.350 13.9244  -2
 -12  -1   5 144.350 13.9244   1
 -11  -1   3 13.1956 11.8820  -2
 -11  -1   5 13.1956 11.8820   1
 -10  -1   3 86.9313 12.1157  -2
 -10  -1   5 86.9313 12.1157   1
  -9  -1   5 75.3272 6.98446   1
  -8  -1   4 185.452 17.4170  -2
  -8  -1   5 185.452 17.4170   1
  -7  -1   4 311.638 19.0629  -2
  -7  -1   5 311.638 19.0629   1
  -6  -1   4 215.584 10.5949  -2
  -6  -1   5 215.584 10.5949   1
  -5  -1   5 691.398 18.7572   1
  -4  -1   5 107.170 3.90511   1
  -3  -1   5 823.130 14.8370   1
  -2  -1   5 14.5587 1.83961   1
  -1  -1   5 371.187 7.10965   1
   0  -1   5 826.031 13.9786   1
   1  -1   5 1166.14 18.9631   1
   2  -1   5 493.998 9.61954   1
   3  -1   5 474.650 9.87149   1
   4  -1   5 688.754 13.4102   1
   5  -1   5 1.87790 2.52786   1
   6  -1   5 586.502 12.9049   1
   7  -1   5 2.30740 2.95021   1
   8  -1   5 299.614 9.18200   1
   9  -1   5 24.3678 8.17647   1
  10  -1   5 92.0541 8.31776   1
  11  -1   5 62.5819 8.51886   1
  12  -1   5 18.1660 8.02573   1
  13  -1   5 83.6219 10.1947   1
 -13   0   3 11.3763 13.4416  -2
 -13   0   5 11.3763 13.4416   1
 -12   0   3 59.5053 13.7533  -2
 -12   0   5 59.5053 13.7533   1
 -11   0   3 26.9044 12.0745  -2
 -11   0   5 26.9044 12.0745   1
 -10   0   5 68.6985 11.5424   1
  -9   0   5 8.32512 5.00369   1
  -8   0   5 299.949 9.72109   1
  -7   0   4 294.909 12.4874  -2
  -7   0   5 294.909 12.4874   1
  -6   0   5 175.307 8.49037   1
  -5   0   5 176.866 7.87311   1
  -4   0   5 88.5844 3.62214   1
  -3   0   5 346.667 7.05853   1
  -2   0   5 8.05370 1.69567   1
  -1   0   5 1118.82 20.5221   1
   0   0   5 496.317 9.00882   1
   1   0   5 508.340 9.54716   1
   2   0   5 46.1032 2.55918   1
   3   0   5 458.526 9.68950   1
   4   0   5 723.338 13.8255   1
   5   0   5 406.195 9.80156   1
   6   0   5 290.173 10.1751   1
   7   0   5 33.9604 3.67191   1
   8   0   5 171.099 9.04044   1
   9   0   5 -5.5865 6.96930   1
  10   0   5 130.554 9.54149   1
  11   0   5 -6.8912 5.92408   1
  12   0   5 58.6511 8.92467   1
 -13   1   3 20.0380 17.7842  -2
 -13   1   5 20.0380 17.7842   1
 -12   1   3 138.209 19.9564  -2
 -12   1   5 138.209 19.9564   1
 -11   1   5 -5.5952 6.12477   1
 -10   1   5 170.219 9.35229   1
  -9   1   5 33.2840 5.16448   1
  -8   1   5 138.343 7.22391   1
  -7   1   4 359.248 16.8715  -2
  -7   1   5 359.248 16.8715   1
  -6   1   5 237.701 7.47526   1
  -5   1   5 132.419 7.15190   1
  -4   1   5 65.0260 3.33761   1
  -3   1   5 914.022 17.2639   1
  -2   1   5 66.4536 2.60828   1
  -1   1   5 1492.54 22.5509   1
   0   1   5 64.6576 2.20138   1
   1   1   5 581.893 10.9546   1
   2   1   5 254.531 5.77182   1
   3   1   5 280.296 6.38256   1
   4   1   5 226.212 6.48414   1
   5   1   5 206.074 6.52143   1
   6   1   5 186.135 8.04960   1
   7   1   5 45.6585 5.67508   1
   8   1   5 163.590 8.82653   1
   9   1   5 14.0311 6.46372   1
  10   1   5 147.309 10.0992   1
  11   1   5 -10.623 5.61365   1
  12   1   5 55.8803 8.37599   1
 -13   2   3 22.5674 18.3382  -2
 -13   2   5 22.5674 18.3382   1
 -12   2   5 42.0158 8.59836   1
 -11   2   5 8.38408 7.04117   1
 -10   2   5 219.616 10.0939   1
  -9   2   5 27.1350 5.38698   1
  -8   2   5 481.156 12.8315   1
  -7   2   5 22.6380 5.44185   1
  -6   2   5 840.323 18.0732   1
  -5   2   5 26.6973 3.84458   1
  -4   2   5 202.011 5.75501   1
  -3   2   5 1046.08 19.4089   1
  -2   2   5 635.181 13.5659   1
  -1   2   5 906.449 15.1123   1
   0   2   5 24.9332 2.21463   1
   1   2   5 927.221 24.5910   1
   2   2   5 26.2549 2.60337   1
   3   2   5 1371.63 22.9578   1
   4   2   5 28.1867 4.22383   1
   5   2   5 445.692 10.5882   1
   6   2   5 181.706 6.50318   1
   7   2   5 63.3505 6.36902   1
   8   2   5 121.448 8.09425   1
   9   2   5 96.0760 8.74253   1
  10   2   5 102.969 9.33141   1
  11   2   5 -3.0484 6.08171   1
  12   2   5 80.7280 10.0665   1
 -13   3   5 52.2330 10.4931   1
 -12   3   5 25.8540 8.64077   1
 -11   3   5 67.3283 7.85935   1
 -10   3   5 104.898 8.16871   1
  -9   3   5 27.7163 5.46218   1
  -8   3   5 201.551 8.59204   1
  -7   3   5 -0.1701 3.64664   1
  -6   3   5 404.418 11.4009   1
  -5   3   5 6.11262 3.01747   1
  -4   3   5 1023.01 20.5656   1
  -3   3   5 159.678 5.20307   1
  -2   3   5 796.415 14.0580   1
  -1   3   5 488.406 9.76357   1
   0   3   5 191.842 4.76722   1
   1   3   5 578.643 11.1305   1
   2   3   5 13.2191 2.94161   1
   3   3   5 744.612 15.3804   1
   4   3   5 -1.7750 2.41312   1
   5   3   5 366.018 9.38204   1
   6   3   5 57.5206 4.27146   1
   7   3   5 124.033 7.80607   1
   8   3   5 106.270 7.90315   1
   9   3   5 104.400 8.66136   1
  10   3   5 121.038 9.46790   1
  11   3   5 3.43811 6.15513   1
  12   3   5 58.0910 8.26296   1
 -13   4   5 56.3692 10.2203   1
 -12   4   5 31.9677 9.08005   1
 -11   4   5 59.4900 8.75947   1
 -10   4   5 41.6635 6.85382   1
  -9   4   5 55.3601 6.71748   1
  -8   4   5 122.019 7.82429   1
  -7   4   5 161.938 7.58799   1
  -6   4   5 230.902 7.90702   1
  -5   4   5 -4.6382 2.91255   1
  -4   4   5 626.820 14.0056   1
  -3   4   5 203.033 5.94959   1
  -2   4   5 464.085 8.83073   1
  -1   4   5 238.588 5.45207   1
   0   4   5 463.935 9.43040   1
   1   4   5 763.987 14.5582   1
   2   4   5 281.094 7.42972   1
   3   4   5 681.382 18.4406   1
   4   4   5 0.61928 3.47447   1
   5   4   5 480.813 11.5509   1
   6   4   5 3.19048 3.30184   1
   7   4   5 240.622 10.2928   1
   8   4   5 81.5776 8.89586   1
   9   4   5 93.3388 8.54932   1
  10   4   5 93.3130 8.68484   1
  11   4   5 13.3481 6.81171   1
  12   4   5 63.1143 8.34161   1
 -12   5   5 -9.7426 8.66047   1
 -11   5   5 74.6573 9.01735   1
 -10   5   5 14.8730 10.0182   1
  -9   5   5 49.3563 6.44412   1
  -8   5   5 81.0530 6.92670   1
  -7   5   5 112.339 7.20200   1
  -6   5   5 239.156 8.54189   1
  -5   5   5 -2.8250 3.72789   1
  -4   5   5 340.420 8.81721   1
  -3   5   5 104.451 4.59271   1
  -2   5   5 443.003 10.0994   1
  -1   5   5 34.4640 3.00521   1
   0   5   5 163.288 5.31490   1
   1   5   5 222.894 6.70483   1
   2   5   5 164.854 5.82906   1
   3   5   5 296.462 8.30977   1
   4   5   5 14.8597 4.78017   1
   5   5   5 594.784 13.8473   1
   6   5   5 56.3164 5.68388   1
   7   5   5 178.286 9.31560   1
   8   5   5 38.5741 6.62221   1
   9   5   5 192.532 15.5435   1
  10   5   5 38.2885 10.2652   1
  11   5   5 16.1439 10.7571   1
 -12   6   5 9.53233 9.09674   1
 -11   6   5 56.8185 9.20106   1
 -10   6   5 18.7109 7.56143   1
  -9   6   5 132.835 9.17952   1
  -8   6   5 62.2611 6.72268   1
  -7   6   5 41.7062 5.83228   1
  -6   6   5 347.999 12.4245   1
  -5   6   5 1.95655 3.10742   1
  -4   6   5 258.057 7.74251   1
  -3   6   5 1.58762 2.55264   1
  -2   6   5 578.424 12.9186   1
  -1   6   5 21.7082 2.88977   1
   0   6   5 505.240 11.5481   1
   1   6   5 54.7461 4.07415   1
   2   6   5 356.240 9.43134   1
   3   6   5 145.696 7.30814   1
   4   6   5 137.463 8.43975   1
   5   6   5 498.578 12.5847   1
   6   6   5 -4.9702 4.07508   1
   7   6   5 191.152 10.0129   1
   8   6   5 30.6514 6.29301   1
   9   6   5 129.819 14.3019   1
  10   6   5 28.1899 10.3475   1
  11   6   5 87.2048 14.6667   1
 -12   7   5 -1.1170 9.39818   1
 -11   7   5 21.0782 8.57005   1
 -10   7   5 8.03717 7.49501   1
  -9   7   5 160.054 10.5273   1
  -8   7   5 23.0773 6.24133   1
  -7   7   5 122.629 9.35303   1
  -6   7   5 176.332 7.57843   1
  -5   7   5 60.6810 5.06123   1
  -4   7   5 105.105 5.54175   1
  -3   7   5 135.883 5.77003   1
  -2   7   5 407.298 13.0071   1
  -1   7   5 20.7554 3.65165   1
   0   7   5 522.626 12.2152   1
   1   7   5 -2.6179 2.75616   1
   2   7   5 286.682 8.72084   1
   3   7   5 122.532 6.38448   1
   4   7   5 299.389 9.46585   1
   5   7   5 187.331 8.04760   1
   6   7   5 14.2148 5.31741   1
   7   7   5 170.043 9.94084   1
   8   7   5 22.2276 8.62062   1
   9   7   5 110.684 14.8290   1
   9   7   7 0.95917 23.8302  -2
  10   7   5 0.95917 23.8302   1
 -11   8   5 90.6446 11.0293   1
 -10   8   5 0.02526 8.43899   1
  -9   8   5 85.2494 10.1795   1
  -8   8   5 8.33956 6.75078   1
  -7   8   5 162.574 8.15769   1
  -6   8   5 14.7887 4.59345   1
  -5   8   5 124.326 6.51107   1
  -4   8   5 78.8781 5.47368   1
  -3   8   5 104.124 5.64761   1
  -2   8   5 118.778 5.77566   1
  -1   8   5 1.54092 3.11739   1
   0   8   5 308.580 9.04211   1
   1   8   5 64.3624 5.23344   1
   2   8   5 84.4288 5.88604   1
   3   8   5 88.0196 6.34165   1
   3   8   6 270.682 17.6971  -2
   4   8   5 270.682 17.6971   1
   5   8   5 119.173 10.1835   1
   6   8   5 128.287 9.70024   1
   7   8   5 63.4514 7.79068   1
   8   8   5 66.1959 12.0389   1
   8   8   7 130.610 23.4327  -2
   9   8   5 130.610 23.4327   1
   9   8   7 -7.4253 24.2241  -2
  10   8   5 -7.4253 24.2241   1
 -10   9   5 1.37841 7.47176   1
  -9   9   5 95.6117 8.40677   1
  -8   9   5 -1.4752 5.66537   1
  -7   9   5 148.369 8.42303   1
  -6   9   5 16.9171 4.94415   1
  -5   9   5 178.746 7.89635   1
  -4   9   5 37.0265 4.92468   1
  -3   9   5 78.5310 5.81658   1
  -2   9   5 98.4079 6.10245   1
  -1   9   5 0.34804 3.56428   1
   0   9   5 191.411 7.59120   1
   1   9   5 34.6788 4.70677   1
   2   9   5 237.157 8.76367   1
   2   9   6 30.2918 14.5660  -2
   3   9   5 30.2918 14.5660   1
   3   9   6 361.083 20.8996  -2
   4   9   5 361.083 20.8996   1
   5   9   5 63.3758 8.15666   1
   6   9   5 121.438 9.39726   1
   7   9   5 43.3568 7.59263   1
   7   9   7 43.8649 21.9027  -2
   8   9   5 43.8649 21.9027   1
   8   9   7 37.2880 23.9803  -2
   9   9   5 37.2880 23.9803   1
 -10  10   5 35.4142 10.6263   1
  -9  10   5 25.9806 9.47704   1
  -8  10   5 13.3021 6.42423   1
  -7  10   5 92.0252 7.59549   1
  -6  10   5 4.58885 4.95166   1
  -5  10   5 107.513 7.40614   1
  -4  10   5 11.4702 4.53145   1
  -3  10   5 220.091 8.68439   1
  -2  10   5 185.082 8.05787   1
  -1  10   5 326.316 10.3514   1
   0  10   5 108.979 7.10276   1
   1  10   5 42.8665 5.32112   1
   2  10   5 281.824 10.0173   1
   3  10   5 3.61345 6.15727   1
   4  10   5 280.264 15.3897   1
   5  10   5 40.8760 15.9306   1
   6  10   5 166.262 11.0115   1
   7  10   5 29.9625 10.3504   1
   7  10   7 -2.3533 16.8226  -2
   8  10   5 -2.3533 16.8226   1
  -9  11   5 6.53530 9.28020   1
  -8  11   5 25.7941 9.09478   1
  -7  11   5 106.038 10.8218   1
  -6  11   5 11.8769 6.67854   1
  -5  11   5 84.3109 7.13806   1
  -4  11   5 0.86111 5.81466   1
  -3  11   5 106.918 7.57064   1
  -2  11   5 35.4008 5.69672   1
  -1  11   5 106.909 7.58364   1
   0  11   5 115.549 7.80775   1
   1  11   5 134.149 8.19873   1
   2  11   5 144.144 8.79926   1
   2  11   6 71.6057 18.5248  -2
   3  11   5 71.6057 18.5248   1
   3  11   6 230.575 16.7269  -2
   4  11   5 230.575 16.7269   1
   5  11   5 -2.3987 9.17251   1
   6  11   5 80.4190 9.37481   1
   6  11   7 34.8419 25.5821  -2
   7  11   5 34.8419 25.5821   1
  -8  12   5 30.8363 9.20283   1
  -7  12   5 57.9378 10.3494   1
  -6  12   5 14.4285 7.84036   1
  -5  12   5 62.9887 12.7117   1
  -4  12   5 -4.9238 10.3683   1
  -3  12   5 126.166 8.78932   1
  -2  12   5 3.66554 5.47843   1
  -1  12   5 103.810 7.90079   1
   0  12   5 63.5973 9.02872   1
   1  12   5 94.1015 7.76337   1
   2  12   5 77.3170 7.78041   1
   2  12   6 42.6494 19.0658  -2
   3  12   5 42.6494 19.0658   1
   3  12   6 177.667 21.5333  -2
   4  12   5 177.667 21.5333   1
   5  12   5 22.9514 11.7844   1
   6  12   5 98.4319 9.94724   1
  -8  12   5 46.4912 26.6462  -2
  -7  13   5 46.4912 26.6462   1
  -7  12   5 64.0014 23.7073  -2
  -6  13   5 64.0014 23.7073   1
  -5  13   5 69.2811 9.93348   1
  -4  13   5 29.6891 8.73343   1
  -3  13   5 53.7928 9.14215   1
  -2  13   5 -5.5529 7.05605   1
  -1  13   5 97.6257 8.33426   1
   0  13   5 1.01177 6.18966   1
   1  13   5 127.680 9.81247   1
   2  13   5 31.0937 7.39319   1
   2  13   6 119.131 21.6312  -2
   3  13   5 119.131 21.6312   1
   3  13   6 110.535 21.9313  -2
   4  13   5 110.535 21.9313   1
   5  13   5 47.4463 15.1740   1
  -5  14   5 21.4317 8.88627   1
  -4  14   5 10.3134 8.84978   1
  -3  14   5 35.9912 9.10579   1
  -2  14   5 -7.8809 7.92791   1
  -1  14   5 86.4243 10.3942   1
   0  14   5 -7.8025 8.15401   1
   1  14   5 58.8589 10.3279   1
   2  14   5 20.0522 7.79167   1
   3  14   5 17.4044 8.09122   1
  -2 -17   6 17.8376 7.78484   1
  -1 -17   6 27.8546 7.70763   1
   0 -17   5 54.6591 15.3378  -2
   0 -17   6 54.6591 15.3378   1
   1 -17   5 83.3352 16.9542  -2
   1 -17   6 83.3352 16.9542   1
   2 -17   5 -3.5023 14.4676  -2
   2 -17   6 -3.5023 14.4676   1
   3 -17   6 43.0211 7.74831   1
  -5 -16   6 -12.658 7.39803   1
  -4 -16   4 50.7156 15.4560  -2
  -4 -16   6 50.7156 15.4560   1
  -3 -16   6 1.37132 7.04039   1
  -2 -16   6 39.4572 7.94922   1
  -1 -16   5 48.8802 14.6862  -2
  -1 -16   6 48.8802 14.6862   1
   0 -16   5 21.7114 8.43866  -2
   0 -16   6 21.7114 8.43866   1
   1 -16   5 30.6724 11.4294  -2
   1 -16   6 30.6724 11.4294   1
   2 -16   5 48.2025 14.9462  -2
   2 -16   6 48.2025 14.9462   1
   3 -16   6 89.2562 20.2012  -2
   3 -16   6 89.2562 20.2012   1
   3 -16   5 99.4156 18.1824  -2
   3 -16   6 99.4156 18.1824   1
   4 -16   6 -12.713 17.3342  -2
   4 -16   6 -12.713 17.3342   1
   5 -16   6 34.4741 12.1540  -2
   5 -16   6 34.4741 12.1540   1
  -6 -15   4 61.5687 17.6033  -2
  -6 -15   6 61.5687 17.6033   1
  -5 -15   4 6.23901 15.9379  -2
  -5 -15   6 6.23901 15.9379   1
  -4 -15   4 153.003 18.2624  -2
  -4 -15   6 153.003 18.2624   1
  -3 -15   6 -1.9226 6.34535   1
  -2 -15   5 179.017 14.5839  -2
  -2 -15   6 179.017 14.5839   1
  -1 -15   5 31.3536 10.8930  -2
  -1 -15   6 31.3536 10.8930   1
   0 -15   5 9.43337 8.65725  -2
   0 -15   6 9.43337 8.65725   1
   1 -15   5 45.2705 10.9113  -2
   1 -15   6 45.2705 10.9113   1
   2 -15   5 56.4796 14.9387  -2
   2 -15   6 56.4796 14.9387   1
   3 -15   5 78.2061 15.2942  -2
   3 -15   6 78.2061 15.2942   1
   4 -15   6 4.78265 10.8915  -2
   4 -15   6 4.78265 10.8915   1
   5 -15   6 41.2682 11.2628  -2
   5 -15   6 41.2682 11.2628   1
   6 -15   6 -7.7433 10.7688  -2
   6 -15   6 -7.7433 10.7688   1
   7 -15   6 13.5391 11.5582  -2
   7 -15   6 13.5391 11.5582   1
  -7 -14   4 8.36646 15.5437  -2
  -7 -14   6 8.36646 15.5437   1
  -6 -14   4 108.120 16.5704  -2
  -6 -14   6 108.120 16.5704   1
  -5 -14   4 7.66628 14.6818  -2
  -5 -14   6 7.66628 14.6818   1
  -4 -14   4 130.216 16.6038  -2
  -4 -14   6 130.216 16.6038   1
  -3 -14   5 70.0724 12.2347  -2
  -3 -14   6 70.0724 12.2347   1
  -2 -14   5 131.503 11.8343  -2
  -2 -14   6 131.503 11.8343   1
  -1 -14   5 57.8273 12.2054  -2
  -1 -14   6 57.8273 12.2054   1
   0 -14   5 105.291 10.8692  -2
   0 -14   6 105.291 10.8692   1
   1 -14   5 27.0163 10.1257  -2
   1 -14   6 27.0163 10.1257   1
   2 -14   5 115.257 15.2763  -2
   2 -14   6 115.257 15.2763   1
   4 -14   6 17.6775 9.86793  -2
   4 -14   6 17.6775 9.86793   1
   5 -14   6 56.3872 10.6684  -2
   5 -14   6 56.3872 10.6684   1
   6 -14   6 16.9379 10.1485  -2
   6 -14   6 16.9379 10.1485   1
   7 -14   6 60.3013 12.1278  -2
   7 -14   6 60.3013 12.1278   1
   8 -14   6 6.37222 15.8720  -2
   8 -14   6 6.37222 15.8720   1
  -8 -13   4 -15.200 15.1325  -2
  -8 -13   6 -15.200 15.1325   1
  -7 -13   4 71.7082 15.9579  -2
  -7 -13   6 71.7082 15.9579   1
  -6 -13   4 77.4220 16.0828  -2
  -6 -13   6 77.4220 16.0828   1
  -5 -13   4 63.4074 13.1918  -2
  -5 -13   6 63.4074 13.1918   1
  -4 -13   6 114.778 8.03664   1
  -3 -13   5 36.0267 10.2075  -2
  -3 -13   6 36.0267 10.2075   1
  -2 -13   5 123.735 11.2675  -2
  -2 -13   6 123.735 11.2675   1
  -1 -13   5 126.169 13.5020  -2
  -1 -13   6 126.169 13.5020   1
   0 -13   5 126.305 13.8126  -2
   0 -13   6 126.305 13.8126   1
   1 -13   5 48.6888 9.77120  -2
   1 -13   6 48.6888 9.77120   1
   2 -13   5 102.760 14.9184  -2
   2 -13   6 102.760 14.9184   1
   3 -13   6 49.6030 14.9902  -2
   3 -13   6 49.6030 14.9902   1
   4 -13   6 52.5552 9.75024  -2
   4 -13   6 52.5552 9.75024   1
   5 -13   6 62.2691 9.04086  -2
   5 -13   6 62.2691 9.04086   1
   6 -13   6 0.32655 9.35245  -2
   6 -13   6 0.32655 9.35245   1
   7 -13   6 117.221 12.5785  -2
   7 -13   6 117.221 12.5785   1
   8 -13   6 32.2493 17.0818  -2
   8 -13   6 32.2493 17.0818   1
   9 -13   7 64.1080 24.1270  -2
   9 -13   6 64.1080 24.1270   1
  -9 -12   4 83.0353 26.1060  -2
  -9 -12   6 83.0353 26.1060   1
  -8 -12   4 0.52756 26.4257  -2
  -8 -12   6 0.52756 26.4257   1
  -7 -12   4 248.381 15.7046  -2
  -7 -12   6 248.381 15.7046   1
  -6 -12   4 27.3286 15.1994  -2
  -6 -12   6 27.3286 15.1994   1
  -5 -12   4 182.849 13.2455  -2
  -5 -12   6 182.849 13.2455   1
  -4 -12   5 159.415 13.0117  -2
  -4 -12   6 159.415 13.0117   1
  -3 -12   5 149.621 16.4716  -2
  -3 -12   6 149.621 16.4716   1
  -2 -12   5 210.771 17.2199  -2
  -2 -12   6 210.771 17.2199   1
  -1 -12   5 152.861 9.99926  -2
  -1 -12   6 152.861 9.99926   1
   0 -12   5 226.181 11.6905  -2
   0 -12   6 226.181 11.6905   1
   1 -12   5 44.2390 11.0581  -2
   1 -12   6 44.2390 11.0581   1
   4 -12   6 202.682 11.0289  -2
   4 -12   6 202.682 11.0289   1
   5 -12   6 34.3894 7.92608  -2
   5 -12   6 34.3894 7.92608   1
   6 -12   6 43.9880 9.73870  -2
   6 -12   6 43.9880 9.73870   1
   7 -12   6 108.603 16.3308  -2
   7 -12   6 108.603 16.3308   1
   9 -12   7 122.341 23.9455  -2
   9 -12   6 122.341 23.9455   1
 -10 -11   4 -31.015 24.7502  -2
 -10 -11   6 -31.015 24.7502   1
  -9 -11   4 80.3948 23.3987  -2
  -9 -11   6 80.3948 23.3987   1
  -8 -11   4 -27.183 21.0878  -2
  -8 -11   6 -27.183 21.0878   1
  -7 -11   4 260.293 19.3103  -2
  -7 -11   6 260.293 19.3103   1
  -6 -11   4 -2.0364 9.41934  -2
  -6 -11   6 -2.0364 9.41934   1
  -5 -11   6 103.784 11.9814   1
  -4 -11   5 146.618 11.7668  -2
  -4 -11   6 146.618 11.7668   1
  -3 -11   5 265.492 11.7933  -2
  -3 -11   6 265.492 11.7933   1
  -2 -11   5 255.714 11.2355  -2
  -2 -11   6 255.714 11.2355   1
  -1 -11   5 89.9157 8.29122  -2
  -1 -11   6 89.9157 8.29122   1
   0 -11   5 201.089 10.8331  -2
   0 -11   6 201.089 10.8331   1
   1 -11   5 172.250 12.7666  -2
   1 -11   6 172.250 12.7666   1
   2 -11   6 155.424 14.4141  -2
   2 -11   6 155.424 14.4141   1
   3 -11   6 13.0010 6.80231  -2
   3 -11   6 13.0010 6.80231   1
   4 -11   6 244.647 10.5341  -2
   4 -11   6 244.647 10.5341   1
   6 -11   6 144.643 11.3578  -2
   6 -11   6 144.643 11.3578   1
   7 -11   6 135.569 16.7275  -2
   7 -11   6 135.569 16.7275   1
   9 -11   7 97.5699 13.9809  -2
   9 -11   6 97.5699 13.9809   1
  10 -11   7 40.5393 12.8067  -2
  10 -11   6 40.5393 12.8067   1
 -11 -10   4 45.3939 22.7211  -2
 -11 -10   6 45.3939 22.7211   1
 -10 -10   4 4.87116 21.9404  -2
 -10 -10   6 4.87116 21.9404   1
  -9 -10   4 114.606 21.2720  -2
  -9 -10   6 114.606 21.2720   1
  -8 -10   4 35.8624 19.9978  -2
  -8 -10   6 35.8624 19.9978   1
  -7 -10   4 205.095 13.6178  -2
  -7 -10   6 205.095 13.6178   1
  -6 -10   4 -9.9482 10.9183  -2
  -6 -10   6 -9.9482 10.9183   1
  -5 -10   5 148.496 11.5534  -2
  -5 -10   6 148.496 11.5534   1
  -4 -10   5 163.403 8.68890  -2
  -4 -10   6 163.403 8.68890   1
  -3 -10   5 274.285 11.3987  -2
  -3 -10   6 274.285 11.3987   1
  -2 -10   5 142.049 8.58343  -2
  -2 -10   6 142.049 8.58343   1
  -1 -10   5 164.571 9.03017  -2
  -1 -10   6 164.571 9.03017   1
   0 -10   5 176.555 9.95932  -2
   0 -10   6 176.555 9.95932   1
   2 -10   6 848.722 22.2142  -2
   2 -10   6 848.722 22.2142   1
   3 -10   6 67.3871 7.09907  -2
   3 -10   6 67.3871 7.09907   1
   4 -10   6 335.285 11.7574  -2
   4 -10   6 335.285 11.7574   1
   5 -10   6 14.5933 6.90576  -2
   5 -10   6 14.5933 6.90576   1
   6 -10   6 184.063 18.0942  -2
   6 -10   6 184.063 18.0942   1
   9 -10   7 51.2723 12.8762  -2
   9 -10   6 51.2723 12.8762   1
  10 -10   7 36.5057 12.5612  -2
  10 -10   6 36.5057 12.5612   1
  11 -10   6 35.4595 10.8753   1
 -11  -9   4 -5.8155 20.5166  -2
 -11  -9   6 -5.8155 20.5166   1
 -10  -9   4 39.5684 20.9940  -2
 -10  -9   6 39.5684 20.9940   1
  -9  -9   4 110.200 18.6809  -2
  -9  -9   6 110.200 18.6809   1
  -8  -9   4 58.4731 19.1192  -2
  -8  -9   6 58.4731 19.1192   1
  -7  -9   4 161.484 18.4080  -2
  -7  -9   6 161.484 18.4080   1
  -6  -9   6 30.2585 7.89798   1
  -5  -9   5 289.205 10.1513  -2
  -5  -9   6 289.205 10.1513   1
  -4  -9   5 120.003 8.97504  -2
  -4  -9   6 120.003 8.97504   1
  -3  -9   5 257.049 8.38207  -2
  -3  -9   6 257.049 8.38207   1
  -2  -9   5 124.886 6.22179  -2
  -2  -9   6 124.886 6.22179   1
  -1  -9   5 314.401 8.71747  -2
  -1  -9   6 314.401 8.71747   1
   0  -9   5 310.448 11.3472  -2
   0  -9   6 310.448 11.3472   1
   1  -9   6 59.2367 7.58231  -2
   1  -9   6 59.2367 7.58231   1
   2  -9   6 212.396 9.69829  -2
   2  -9   6 212.396 9.69829   1
   3  -9   6 71.7385 6.71574  -2
   3  -9   6 71.7385 6.71574   1
   4  -9   6 296.140 10.7303  -2
   4  -9   6 296.140 10.7303   1
   5  -9   6 50.9722 7.41729  -2
   5  -9   6 50.9722 7.41729   1
   6  -9   6 216.249 13.4947  -2
   6  -9   6 216.249 13.4947   1
   8  -9   7 144.065 17.0575  -2
   8  -9   6 144.065 17.0575   1
   9  -9   7 40.9418 11.2183  -2
   9  -9   6 40.9418 11.2183   1
  10  -9   7 40.7392 12.4471  -2
  10  -9   6 40.7392 12.4471   1
  11  -9   7 42.9792 14.3181  -2
  11  -9   6 42.9792 14.3181   1
 -12  -8   4 43.2342 22.2110  -2
 -12  -8   6 43.2342 22.2110   1
 -11  -8   4 17.4747 19.9435  -2
 -11  -8   6 17.4747 19.9435   1
 -10  -8   4 114.579 20.3273  -2
 -10  -8   6 114.579 20.3273   1
  -9  -8   4 65.7625 16.8023  -2
  -9  -8   6 65.7625 16.8023   1
  -7  -8   4 265.280 13.6590  -2
  -7  -8   6 265.280 13.6590   1
  -6  -8   5 74.5942 10.4673  -2
  -6  -8   6 74.5942 10.4673   1
  -5  -8   5 706.630 20.1764  -2
  -5  -8   6 706.630 20.1764   1
  -4  -8   5 48.4279 5.37575  -2
  -4  -8   6 48.4279 5.37575   1
  -3  -8   5 333.521 9.14680  -2
  -3  -8   6 333.521 9.14680   1
  -2  -8   5 217.699 9.06512  -2
  -2  -8   6 217.699 9.06512   1
  -1  -8   5 313.732 8.59182  -2
  -1  -8   6 313.732 8.59182   1
   0  -8   6 255.497 9.10094   1
   1  -8   6 372.994 11.9723  -2
   1  -8   6 372.994 11.9723   1
   2  -8   6 40.4595 6.08997  -2
   2  -8   6 40.4595 6.08997   1
   3  -8   6 292.822 9.92968  -2
   3  -8   6 292.822 9.92968   1
   4  -8   6 448.384 13.8888  -2
   4  -8   6 448.384 13.8888   1
   5  -8   6 17.1697 6.50255  -2
   5  -8   6 17.1697 6.50255   1
   6  -8   6 138.826 11.0294  -2
   6  -8   6 138.826 11.0294   1
   8  -8   7 171.091 11.2487  -2
   8  -8   6 171.091 11.2487   1
   9  -8   7 28.2932 11.4593  -2
   9  -8   6 28.2932 11.4593   1
  10  -8   7 79.5705 16.1565  -2
  10  -8   6 79.5705 16.1565   1
  11  -8   7 82.8622 17.3351  -2
  11  -8   6 82.8622 17.3351   1
 -12  -7   4 116.114 22.6629  -2
 -12  -7   6 116.114 22.6629   1
 -11  -7   4 -14.274 17.7352  -2
 -11  -7   6 -14.274 17.7352   1
 -10  -7   4 231.187 19.9627  -2
 -10  -7   6 231.187 19.9627   1
  -9  -7   4 18.4475 16.6891  -2
  -9  -7   6 18.4475 16.6891   1
  -8  -7   4 307.780 21.3920  -2
  -8  -7   6 307.780 21.3920   1
  -7  -7   4 197.777 17.4596  -2
  -7  -7   6 197.777 17.4596   1
  -6  -7   5 201.963 11.5727  -2
  -6  -7   6 201.963 11.5727   1
  -5  -7   5 292.202 11.7192  -2
  -5  -7   6 292.202 11.7192   1
  -4  -7   5 134.448 7.90628  -2
  -4  -7   6 134.448 7.90628   1
  -3  -7   5 188.072 8.36670  -2
  -3  -7   6 188.072 8.36670   1
  -2  -7   5 149.789 7.47872  -2
  -2  -7   6 149.789 7.47872   1
  -1  -7   6 381.956 9.27100   1
   0  -7   6 13.1783 7.58886  -2
   0  -7   6 13.1783 7.58886   1
   1  -7   6 754.947 26.2850  -2
   1  -7   6 754.947 26.2850   1
   2  -7   6 137.348 6.59256  -2
   2  -7   6 137.348 6.59256   1
   3  -7   6 403.126 12.2310  -2
   3  -7   6 403.126 12.2310   1
   4  -7   6 453.840 12.6074  -2
   4  -7   6 453.840 12.6074   1
   5  -7   6 51.2748 6.18969  -2
   5  -7   6 51.2748 6.18969   1
   6  -7   6 42.2355 8.85108  -2
   6  -7   6 42.2355 8.85108   1
   7  -7   7 51.0165 9.78259  -2
   7  -7   6 51.0165 9.78259   1
   8  -7   7 212.396 11.0814  -2
   8  -7   6 212.396 11.0814   1
   9  -7   7 23.9900 10.5686  -2
   9  -7   6 23.9900 10.5686   1
  10  -7   7 89.7321 11.8621  -2
  10  -7   6 89.7321 11.8621   1
  11  -7   7 -6.2708 13.4571  -2
  11  -7   6 -6.2708 13.4571   1
  12  -7   7 37.0276 18.0916  -2
  12  -7   6 37.0276 18.0916   1
 -12  -6   4 103.513 21.8691  -2
 -12  -6   6 103.513 21.8691   1
 -11  -6   4 36.2863 18.9969  -2
 -11  -6   6 36.2863 18.9969   1
 -10  -6   4 160.480 14.9266  -2
 -10  -6   6 160.480 14.9266   1
  -9  -6   4 -5.0769 15.6114  -2
  -9  -6   6 -5.0769 15.6114   1
  -8  -6   4 172.856 17.4528  -2
  -8  -6   6 172.856 17.4528   1
  -7  -6   5 126.740 16.4575  -2
  -7  -6   6 126.740 16.4575   1
  -6  -6   5 315.888 12.9499  -2
  -6  -6   6 315.888 12.9499   1
  -5  -6   5 236.155 10.4872  -2
  -5  -6   6 236.155 10.4872   1
  -4  -6   5 263.779 13.2733  -2
  -4  -6   6 263.779 13.2733   1
  -3  -6   5 371.293 16.7025  -2
  -3  -6   6 371.293 16.7025   1
  -2  -6   6 4.08789 3.23935   1
  -1  -6   6 165.099 4.58261   1
   0  -6   6 15.1754 7.10513  -2
   0  -6   6 15.1754 7.10513   1
   1  -6   6 1048.43 21.3789  -2
   1  -6   6 1048.43 21.3789   1
   2  -6   6 305.315 8.45596  -2
   2  -6   6 305.315 8.45596   1
   3  -6   6 986.592 19.4898  -2
   3  -6   6 986.592 19.4898   1
   4  -6   6 388.294 9.84625  -2
   4  -6   6 388.294 9.84625   1
   5  -6   6 175.819 12.9214  -2
   5  -6   6 175.819 12.9214   1
   6  -6   6 74.4619 5.18310   1
   7  -6   6 74.7935 5.66435   1
   8  -6   7 235.207 14.2663  -2
   8  -6   6 235.207 14.2663   1
   9  -6   7 27.7423 9.24063  -2
   9  -6   6 27.7423 9.24063   1
  10  -6   7 105.178 12.1334  -2
  10  -6   6 105.178 12.1334   1
  11  -6   7 -0.5142 13.3363  -2
  11  -6   6 -0.5142 13.3363   1
  12  -6   7 49.3802 29.9428  -2
  12  -6   6 49.3802 29.9428   1
 -13  -5   4 27.5703 22.1911  -2
 -13  -5   6 27.5703 22.1911   1
 -12  -5   4 72.7220 20.7952  -2
 -12  -5   6 72.7220 20.7952   1
 -11  -5   4 32.4372 18.4322  -2
 -11  -5   6 32.4372 18.4322   1
 -10  -5   4 204.792 18.7468  -2
 -10  -5   6 204.792 18.7468   1
  -8  -5   4 154.723 16.3066  -2
  -8  -5   6 154.723 16.3066   1
  -7  -5   6 140.316 7.98325   1
  -6  -5   5 299.821 18.1231  -2
  -6  -5   6 299.821 18.1231   1
  -5  -5   5 322.008 11.5171  -2
  -5  -5   6 322.008 11.5171   1
  -3  -5   5 518.719 19.0088  -2
  -3  -5   6 518.719 19.0088   1
  -2  -5   6 675.904 13.1932   1
  -1  -5   6 820.714 18.0130   1
   0  -5   6 135.046 61.5862  -2
   0  -5   6 135.046 61.5862   1
   1  -5   6 1175.22 30.0586  -2
   1  -5   6 1175.22 30.0586   1
   2  -5   6 91.9764 5.27645  -2
   2  -5   6 91.9764 5.27645   1
   3  -5   6 1000.01 23.6873  -2
   3  -5   6 1000.01 23.6873   1
   4  -5   6 45.3535 8.66487  -2
   4  -5   6 45.3535 8.66487   1
   5  -5   6 223.099 13.8979  -2
   5  -5   6 223.099 13.8979   1
   6  -5   6 118.129 7.35040   1
   7  -5   6 92.1013 5.99575   1
   8  -5   7 167.819 18.2786  -2
   8  -5   6 167.819 18.2786   1
   9  -5   7 69.5142 10.0604  -2
   9  -5   6 69.5142 10.0604   1
  10  -5   7 67.1954 16.2692  -2
  10  -5   6 67.1954 16.2692   1
  11  -5   7 34.8376 23.0889  -2
  11  -5   6 34.8376 23.0889   1
  12  -5   7 87.4369 27.5081  -2
  12  -5   6 87.4369 27.5081   1
 -13  -4   4 107.637 15.4451  -2
 -13  -4   6 107.637 15.4451   1
 -12  -4   4 103.074 13.7373  -2
 -12  -4   6 103.074 13.7373   1
 -11  -4   4 31.7208 17.2391  -2
 -11  -4   6 31.7208 17.2391   1
 -10  -4   4 98.8740 17.6917  -2
 -10  -4   6 98.8740 17.6917   1
  -8  -4   6 182.296 7.91451   1
  -7  -4   5 149.950 16.2180  -2
  -7  -4   6 149.950 16.2180   1
  -6  -4   5 703.445 20.5509  -2
  -6  -4   6 703.445 20.5509   1
  -5  -4   5 389.812 13.6832  -2
  -5  -4   6 389.812 13.6832   1
  -4  -4   5 220.526 7.66334  -2
  -4  -4   6 220.526 7.66334   1
  -3  -4   6 420.513 11.1761   1
  -2  -4   6 1495.34 24.4374   1
  -1  -4   6 1937.64 30.1719   1
   0  -4   6 199.742 4.63021   1
   1  -4   6 1309.34 63.7133  -2
   1  -4   6 1309.34 63.7133   1
   2  -4   6 85.4947 27.0370  -2
   2  -4   6 85.4947 27.0370   1
   3  -4   6 981.495 26.4771  -2
   3  -4   6 981.495 26.4771   1
   4  -4   6 -0.1871 3.23034   1
   5  -4   6 348.958 8.92385   1
   6  -4   6 242.293 9.18082   1
   7  -4   6 76.4740 5.35865   1
   8  -4   6 213.904 8.32378   1
   9  -4   6 8.24461 4.80921   1
  10  -4   6 134.555 10.1349   1
  11  -4   7 0.54680 21.2957  -2
  11  -4   6 0.54680 21.2957   1
  12  -4   6 109.703 11.3228   1
 -13  -3   4 56.2384 22.8859  -2
 -13  -3   6 56.2384 22.8859   1
 -12  -3   4 101.925 13.5374  -2
 -12  -3   6 101.925 13.5374   1
 -11  -3   4 31.0764 12.1554  -2
 -11  -3   6 31.0764 12.1554   1
 -10  -3   4 72.0397 17.5321  -2
 -10  -3   6 72.0397 17.5321   1
  -9  -3   4 98.7472 17.5259  -2
  -9  -3   6 98.7472 17.5259   1
  -8  -3   6 239.227 8.80310   1
  -7  -3   6 20.4568 4.17901   1
  -6  -3   5 374.707 14.1998  -2
  -6  -3   6 374.707 14.1998   1
  -5  -3   5 179.628 15.8365  -2
  -5  -3   6 179.628 15.8365   1
  -4  -3   6 538.688 13.7514   1
  -3  -3   6 16.2326 2.67412   1
  -2  -3   6 1588.99 27.4054   1
  -1  -3   6 221.757 5.07590   1
   0  -3   6 151.113 3.93796   1
   1  -3   6 1533.33 96.2507  -2
   1  -3   6 1533.33 96.2507   1
   2  -3   6 140.779 41.5007  -2
   2  -3   6 140.779 41.5007   1
   3  -3   6 1582.57 50.0407  -2
   3  -3   6 1582.57 50.0407   1
   4  -3   6 21.3738 3.16303   1
   5  -3   6 634.978 16.7880   1
   6  -3   6 77.6071 5.17011   1
   7  -3   6 192.432 7.18515   1
   8  -3   6 125.683 6.76335   1
   9  -3   6 108.961 7.45696   1
  10  -3   6 196.906 11.5421   1
  11  -3   6 69.1639 9.33511   1
  12  -3   6 79.1880 9.64760   1
 -13  -2   4 62.1593 14.3857  -2
 -13  -2   6 62.1593 14.3857   1
 -12  -2   4 48.2893 13.3897  -2
 -12  -2   6 48.2893 13.3897   1
 -11  -2   4 71.6848 12.3462  -2
 -11  -2   6 71.6848 12.3462   1
 -10  -2   4 74.2750 12.3450  -2
 -10  -2   6 74.2750 12.3450   1
  -9  -2   6 56.1423 6.97940   1
  -8  -2   6 361.678 11.6378   1
  -7  -2   6 59.8709 6.01065   1
  -6  -2   6 334.214 9.35003   1
  -5  -2   6 41.0581 4.90128   1
  -4  -2   6 869.056 19.9956   1
  -3  -2   6 33.0771 2.48962   1
  -2  -2   6 448.028 9.38343   1
  -1  -2   6 39.0310 2.45396   1
   0  -2   6 137.834 3.46975   1
   1  -2   6 30.3116 2.30753   1
   2  -2   6 346.142 7.38638   1
   3  -2   6 1397.02 23.3667   1
   4  -2   6 17.6631 3.00186   1
   5  -2   6 618.276 13.7667   1
   6  -2   6 10.7188 3.25340   1
   7  -2   6 224.788 7.84061   1
   8  -2   6 99.6555 6.53083   1
   9  -2   6 278.892 11.9733   1
  10  -2   6 55.7244 7.56823   1
  11  -2   6 74.3615 8.85411   1
  12  -2   6 18.3837 8.13720   1
 -13  -1   4 71.9708 18.6393  -2
 -13  -1   6 71.9708 18.6393   1
 -12  -1   4 14.0109 13.0629  -2
 -12  -1   6 14.0109 13.0629   1
 -11  -1   4 173.064 14.7687  -2
 -11  -1   6 173.064 14.7687   1
 -10  -1   6 -6.2858 5.74686   1
  -9  -1   6 109.464 7.48049   1
  -8  -1   6 120.867 7.02615   1
  -7  -1   6 79.8640 5.69364   1
  -6  -1   6 196.552 7.93453   1
  -5  -1   6 132.430 5.40645   1
  -4  -1   6 615.198 12.6303   1
  -3  -1   6 8.07959 1.90308   1
  -2  -1   6 933.143 15.7521   1
  -1  -1   6 31.5593 2.03209   1
   0  -1   6 947.605 16.0174   1
   1  -1   6 190.448 4.16261   1
   2  -1   6 335.595 7.43316   1
   3  -1   6 898.078 19.4113   1
   4  -1   6 28.1859 3.37979   1
   5  -1   6 389.293 9.81724   1
   6  -1   6 40.0067 5.38580   1
   7  -1   6 117.700 5.73515   1
   8  -1   6 -1.6026 4.39054   1
   9  -1   6 169.268 10.0009   1
  10  -1   6 25.5365 6.86405   1
  11  -1   6 85.5338 8.96744   1
  12  -1   6 41.6427 8.40686   1
 -13   0   4 81.7579 20.7300  -2
 -13   0   6 81.7579 20.7300   1
 -12   0   4 -12.839 16.9022  -2
 -12   0   6 -12.839 16.9022   1
 -11   0   6 127.104 10.6439   1
 -10   0   6 4.12834 7.52087   1
  -9   0   6 145.357 8.17788   1
  -8   0   6 48.6604 5.55992   1
  -7   0   6 312.092 9.65357   1
  -6   0   6 197.742 6.95015   1
  -5   0   6 146.597 5.62556   1
  -4   0   6 413.457 8.44960   1
  -3   0   6 27.3727 2.34365   1
  -2   0   6 415.811 7.80263   1
  -1   0   6 59.6459 3.49594   1
   0   0   6 766.872 13.3849   1
   1   0   6 560.870 10.5770   1
   2   0   6 590.960 11.2669   1
   3   0   6 346.273 9.37724   1
   4   0   6 239.246 6.88903   1
   5   0   6 190.045 6.51854   1
   6   0   6 82.1108 5.41707   1
   7   0   6 165.063 6.29445   1
   8   0   6 15.7206 5.24391   1
   9   0   6 251.792 15.7219   1
  10   0   6 1.66682 5.73674   1
  11   0   6 67.5082 8.47905   1
  12   0   6 30.0183 7.84688   1
 -13   1   6 54.3416 9.74707   1
 -12   1   6 6.63680 7.67199   1
 -11   1   6 87.5624 9.12195   1
 -10   1   6 2.74525 5.63564   1
  -9   1   6 276.122 10.0995   1
  -8   1   6 40.3885 5.36858   1
  -7   1   6 560.094 13.5508   1
  -6   1   6 130.561 5.86766   1
  -5   1   6 153.532 5.80729   1
  -4   1   6 322.653 8.62311   1
  -3   1   6 58.5158 3.02284   1
  -2   1   6 779.450 14.4369   1
  -1   1   6 108.932 4.61264   1
   0   1   6 991.445 16.7904   1
   1   1   6 45.9037 2.51433   1
   2   1   6 46.8432 3.24055   1
   3   1   6 537.159 12.6988   1
   4   1   6 633.110 14.0386   1
   5   1   6 148.827 5.96726   1
   6   1   6 142.623 6.25075   1
   7   1   6 142.456 8.10686   1
   8   1   6 31.2688 6.09628   1
   9   1   6 248.995 11.4661   1
  10   1   6 -9.1385 5.35554   1
  11   1   6 88.7928 8.98598   1
  12   1   6 1.69991 6.73225   1
 -13   2   6 30.8035 9.14827   1
 -12   2   6 20.0273 8.11016   1
 -11   2   6 122.668 9.77396   1
 -10   2   6 27.6826 6.54393   1
  -9   2   6 170.843 8.70670   1
  -8   2   6 40.4254 5.46587   1
  -7   2   6 352.310 10.2071   1
  -6   2   6 87.2186 5.59770   1
  -5   2   6 279.896 7.97975   1
  -4   2   6 108.960 5.05226   1
  -3   2   6 376.134 8.08425   1
  -2   2   6 831.882 13.9793   1
  -1   2   6 226.404 4.69929   1
   0   2   6 1825.43 32.8619   1
   1   2   6 10.7155 2.55455   1
   2   2   6 802.824 15.0394   1
   3   2   6 57.6347 3.75222   1
   4   2   6 782.753 16.4050   1
   5   2   6 64.8598 4.90208   1
   6   2   6 85.8489 5.54718   1
   7   2   6 283.932 10.8808   1
   8   2   6 55.7561 6.69177   1
   9   2   6 181.562 9.88940   1
  10   2   6 5.87362 6.12963   1
  11   2   6 122.386 10.5271   1
  12   2   6 -3.6901 6.84837   1
 -13   3   6 21.6202 9.47891   1
 -12   3   6 45.0890 9.89171   1
 -11   3   6 54.9364 8.06888   1
 -10   3   6 58.9419 7.31665   1
  -9   3   6 109.678 7.90861   1
  -8   3   6 -0.7709 4.27657   1
  -7   3   6 475.169 12.6214   1
  -6   3   6 0.86983 3.62587   1
  -5   3   6 514.111 12.5041   1
  -4   3   6 125.795 5.12278   1
  -3   3   6 633.029 16.1192   1
  -2   3   6 489.361 10.8803   1
  -1   3   6 535.564 10.4922   1
   0   3   6 773.604 13.9377   1
   1   3   6 40.3417 2.83642   1
   2   3   6 913.518 18.4147   1
   3   3   6 20.9142 3.03402   1
   4   3   6 771.371 16.3812   1
   5   3   6 -1.1982 3.15175   1
   6   3   6 258.016 8.31177   1
   7   3   6 118.474 7.95233   1
   8   3   6 193.132 9.87338   1
   9   3   6 94.2369 8.73199   1
  10   3   6 35.1238 6.94423   1
  11   3   6 69.8532 8.27444   1
  12   3   6 -6.1473 6.46980   1
 -12   4   6 89.1832 10.9069   1
 -11   4   6 41.2089 7.77347   1
 -10   4   6 69.1675 7.79421   1
  -9   4   6 106.846 8.31359   1
  -8   4   6 27.3774 5.37706   1
  -7   4   6 174.648 7.91541   1
  -6   4   6 0.52512 3.64178   1
  -5   4   6 299.115 8.92477   1
  -4   4   6 9.43992 3.19684   1
  -3   4   6 368.221 8.81042   1
  -2   4   6 44.0126 3.26042   1
  -1   4   6 249.963 6.56374   1
   0   4   6 347.541 10.8298   1
   1   4   6 87.0704 4.13154   1
   2   4   6 509.867 14.9349   1
   3   4   6 58.4683 4.52798   1
   4   4   6 523.120 13.0763   1
   5   4   6 31.2836 4.28418   1
   6   4   6 174.820 7.27492   1
   7   4   6 38.2251 6.02113   1
   8   4   6 246.451 11.2467   1
   9   4   6 61.6552 10.3351   1
  10   4   6 39.9792 11.6006   1
  10   4   8 135.967 18.8292  -2
  11   4   6 135.967 18.8292   1
 -12   5   6 57.3853 9.40335   1
 -11   5   6 12.8333 7.73991   1
 -10   5   6 41.6264 7.48099   1
  -9   5   6 83.0490 7.70447   1
  -8   5   6 19.6643 5.56239   1
  -7   5   6 202.928 8.78119   1
  -6   5   6 9.14518 4.14407   1
  -5   5   6 212.834 8.74681   1
  -4   5   6 0.72824 2.72647   1
  -3   5   6 426.217 10.1732   1
  -2   5   6 48.4257 3.41188   1
  -1   5   6 325.591 8.14940   1
   0   5   6 223.633 6.55700   1
   1   5   6 387.580 9.56297   1
   2   5   6 199.102 7.01413   1
   3   5   6 261.895 10.2366   1
   4   5   6 613.834 14.1380   1
   5   5   6 29.1493 4.54735   1
   6   5   6 336.731 10.4612   1
   7   5   6 6.53756 5.04467   1
   8   5   6 249.246 11.3969   1
   9   5   6 52.6384 10.5463   1
  10   5   6 46.8794 10.9696   1
  10   5   8 109.488 17.2316  -2
  11   5   6 109.488 17.2316   1
 -12   6   6 50.3006 10.3120   1
 -11   6   6 6.19693 7.81398   1
 -10   6   6 91.3207 9.52123   1
  -9   6   6 3.94408 6.85918   1
  -8   6   6 36.5100 6.43464   1
  -7   6   6 87.3028 6.93133   1
  -6   6   6 -0.9704 4.62418   1
  -5   6   6 139.657 6.34353   1
  -4   6   6 14.4877 3.36827   1
  -3   6   6 387.135 9.79190   1
  -2   6   6 -1.6222 2.40785   1
  -1   6   6 542.318 12.2961   1
   0   6   6 141.864 5.61701   1
   1   6   6 455.466 14.4084   1
   2   6   6 119.656 5.88125   1
   3   6   6 156.768 6.66111   1
   4   6   6 125.932 8.73435   1
   5   6   6 16.1815 4.19655   1
   6   6   6 108.706 8.49871   1
   7   6   6 9.59746 5.86042   1
   8   6   6 135.736 14.4457   1
   9   6   6 15.5515 8.79674   1
   9   6   8 122.985 23.4515  -2
  10   6   6 122.985 23.4515   1
  11   6   6 2.46084 9.72610   1
 -11   7   6 3.48394 8.96797   1
 -10   7   6 63.8617 9.33577   1
  -9   7   6 0.16455 7.51456   1
  -8   7   6 131.537 10.4625   1
  -7   7   6 57.0434 7.71589   1
  -6   7   6 94.9279 6.33973   1
  -5   7   6 318.241 9.39421   1
  -4   7   6 110.640 5.81875   1
  -3   7   6 140.664 6.06965   1
  -2   7   6 0.02568 3.28965   1
  -1   7   6 400.019 10.9759   1
   0   7   6 13.0659 3.34645   1
   1   7   6 276.765 8.41610   1
   2   7   6 142.754 6.56208   1
   3   7   6 244.423 8.54866   1
   4   7   6 79.0373 7.58760   1
   5   7   6 114.412 7.07183   1
   6   7   6 93.4777 8.28298   1
   7   7   6 13.1495 5.68390   1
   8   7   6 191.757 16.2981   1
   8   7   8 25.8019 21.9228  -2
   9   7   6 25.8019 21.9228   1
   9   7   8 81.1616 23.9960  -2
  10   7   6 81.1616 23.9960   1
 -11   8   6 2.28134 10.2439   1
 -10   8   6 33.8161 9.70015   1
  -9   8   6 -4.9400 10.3565   1
  -8   8   6 127.297 8.55174   1
  -7   8   6 13.7820 5.11035   1
  -6   8   6 154.558 7.76364   1
  -5   8   6 156.647 7.40567   1
  -4   8   6 283.496 9.02765   1
  -3   8   6 73.6905 5.42611   1
  -2   8   6 80.0950 5.49801   1
  -1   8   6 297.617 8.87940   1
   0   8   6 69.3162 5.36713   1
   1   8   6 97.6389 6.05939   1
   2   8   6 29.9025 4.64724   1
   3   8   6 188.278 8.21595   1
   3   8   7 74.4063 14.0181  -2
   4   8   6 74.4063 14.0181   1
   5   8   6 88.6985 8.57260   1
   6   8   6 99.6046 8.72324   1
   7   8   6 55.3304 7.42419   1
   7   8   8 215.770 24.6686  -2
   8   8   6 215.770 24.6686   1
   8   8   8 -4.9174 22.6717  -2
   9   8   6 -4.9174 22.6717   1
 -10   9   6 37.5189 8.26204   1
  -9   9   6 -0.8445 6.54058   1
  -8   9   6 114.793 8.76605   1
  -7   9   6 -3.4399 5.16153   1
  -6   9   6 97.3098 7.10066   1
  -5   9   6 32.6856 5.05755   1
  -4   9   6 137.903 7.29162   1
  -3   9   6 80.3606 5.92629   1
  -2   9   6 88.7275 6.29430   1
  -1   9   6 192.851 7.77314   1
   0   9   6 4.86694 3.89570   1
   1   9   6 183.657 7.93085   1
   2   9   6 4.93353 4.13108   1
   2   9   7 328.342 20.8408  -2
   3   9   6 328.342 20.8408   1
   3   9   7 24.7251 14.8438  -2
   4   9   6 24.7251 14.8438   1
   4   9   7 272.176 28.4036  -2
   5   9   6 272.176 28.4036   1
   6   9   6 47.1502 7.09420   1
   7   9   6 73.7780 8.23136   1
   7   9   8 118.351 23.8276  -2
   8   9   6 118.351 23.8276   1
   8   9   8 12.7550 24.3834  -2
   9   9   6 12.7550 24.3834   1
  -9  10   6 40.7195 8.39400   1
  -8  10   6 94.1216 8.57958   1
  -7  10   6 -2.8305 5.50714   1
  -6  10   6 89.1666 7.41451   1
  -5  10   6 -2.2454 4.74394   1
  -4  10   6 111.929 7.38776   1
  -3  10   6 38.3058 5.44739   1
  -2  10   6 111.081 7.26623   1
  -1  10   6 138.058 7.97340   1
   0  10   6 42.3339 5.51496   1
   1  10   6 225.846 9.20771   1
   2  10   6 10.4774 4.77607   1
   2  10   7 358.833 22.7206  -2
   3  10   6 358.833 22.7206   1
   3  10   7 10.6455 24.0611  -2
   4  10   6 10.6455 24.0611   1
   5  10   6 175.753 15.8628   1
   6  10   6 25.6597 6.88715   1
   7  10   6 139.786 10.7073   1
   7  10   8 19.3972 23.3677  -2
   8  10   6 19.3972 23.3677   1
  -9  11   6 19.1163 10.1688   1
  -8  11   6 45.1020 10.1503   1
  -7  11   6 2.99404 8.08917   1
  -6  11   6 92.9731 8.22993   1
  -5  11   6 3.40132 5.60642   1
  -4  11   6 79.3197 7.10681   1
  -3  11   6 4.81805 5.27093   1
  -2  11   6 116.264 7.99080   1
  -1  11   6 73.3589 6.71816   1
   0  11   6 144.298 8.58381   1
   1  11   6 101.815 7.99298   1
   2  11   6 27.5689 6.89913   1
   2  11   7 206.064 22.1654  -2
   3  11   6 206.064 22.1654   1
   3  11   7 30.6645 15.5945  -2
   4  11   6 30.6645 15.5945   1
   5  11   6 146.208 16.3014   1
   6  11   6 20.5322 6.96311   1
   7  11   6 76.8645 8.74103   1
  -8  12   6 38.8708 13.7240   1
  -7  12   6 0.74191 8.70716   1
  -6  12   6 82.4343 9.98494   1
  -5  12   6 10.1595 8.27203   1
  -4  12   6 73.5460 11.2966   1
  -3  12   6 -5.2580 5.91509   1
  -2  12   6 69.8236 7.16913   1
  -1  12   6 36.1195 6.35012   1
   0  12   6 118.657 9.65198   1
   1  12   6 50.1869 7.06562   1
   2  12   6 57.3850 7.64932   1
   2  12   7 123.270 21.9459  -2
   3  12   6 123.270 21.9459   1
   3  12   7 24.5488 21.3245  -2
   4  12   6 24.5488 21.3245   1
   5  12   6 126.649 17.3691   1
   6  12   6 2.56500 7.25943   1
  -6  13   6 22.8055 9.15198   1
  -5  13   6 -1.0414 8.33295   1
  -4  13   6 42.6124 9.71277   1
  -3  13   6 -5.3193 7.76799   1
  -2  13   6 98.8496 10.4561   1
  -1  13   6 8.80035 6.50950   1
   0  13   6 134.990 12.0307   1
   1  13   6 22.0207 7.33060   1
   2  13   6 74.0424 8.55087   1
   3  13   6 63.5260 8.30103   1
   3  13   7 3.72806 22.5195  -2
   4  13   6 3.72806 22.5195   1
  -4  14   6 10.8169 8.93840   1
  -3  14   6 0.46881 8.51214   1
  -2  14   6 39.5626 9.71286   1
  -1  14   6 2.40197 8.92680   1
   0  14   6 61.6594 10.7398   1
   1  14   6 3.17728 7.86565   1
   2  14   6 74.5939 9.42718   1
  -2 -17   7 36.8925 8.72629   1
  -1 -17   6 12.1111 14.3439  -2
  -1 -17   7 12.1111 14.3439   1
   0 -17   6 41.9843 10.7504  -2
   0 -17   7 41.9843 10.7504   1
   1 -17   6 31.4279 10.3378  -2
   1 -17   7 31.4279 10.3378   1
   2 -17   6 103.752 12.8093  -2
   2 -17   7 103.752 12.8093   1
   3 -17   6 -1.9033 15.0516  -2
   3 -17   7 -1.9033 15.0516   1
  -5 -16   7 74.0848 9.80318   1
  -4 -16   5 11.7755 14.7323  -2
  -4 -16   7 11.7755 14.7323   1
  -3 -16   5 125.090 16.8171  -2
  -3 -16   7 125.090 16.8171   1
  -2 -16   6 33.7150 12.5436  -2
  -2 -16   7 33.7150 12.5436   1
  -1 -16   6 12.7882 11.5172  -2
  -1 -16   7 12.7882 11.5172   1
   0 -16   6 14.5499 9.38700  -2
   0 -16   7 14.5499 9.38700   1
   1 -16   6 69.1711 11.6449  -2
   1 -16   7 69.1711 11.6449   1
   2 -16   6 18.8036 11.5760  -2
   2 -16   7 18.8036 11.5760   1
   3 -16   6 32.8639 15.6498  -2
   3 -16   7 32.8639 15.6498   1
   4 -16   7 57.4159 18.7632  -2
   4 -16   7 57.4159 18.7632   1
   5 -16   7 2.57320 11.0884  -2
   5 -16   7 2.57320 11.0884   1
  -6 -15   5 17.9045 15.8383  -2
  -6 -15   7 17.9045 15.8383   1
  -5 -15   5 87.3022 14.8783  -2
  -5 -15   7 87.3022 14.8783   1
  -4 -15   5 -3.0355 12.7676  -2
  -4 -15   7 -3.0355 12.7676   1
  -3 -15   7 34.6963 8.97941   1
  -2 -15   6 50.7726 11.5099  -2
  -2 -15   7 50.7726 11.5099   1
  -1 -15   6 83.9322 11.2108  -2
  -1 -15   7 83.9322 11.2108   1
   0 -15   6 -8.1589 8.54293  -2
   0 -15   7 -8.1589 8.54293   1
   1 -15   6 67.9540 10.9267  -2
   1 -15   7 67.9540 10.9267   1
   2 -15   6 39.8766 14.9361  -2
   2 -15   7 39.8766 14.9361   1
   3 -15   6 66.7982 15.5952  -2
   3 -15   7 66.7982 15.5952   1
   4 -15   7 61.4295 11.0930  -2
   4 -15   7 61.4295 11.0930   1
   5 -15   7 2.98917 9.92717  -2
   5 -15   7 2.98917 9.92717   1
   6 -15   7 33.6218 9.52698  -2
   6 -15   7 33.6218 9.52698   1
   7 -15   7 -15.650 10.3831  -2
   7 -15   7 -15.650 10.3831   1
  -8 -14   7 32.6218 9.31382   1
  -7 -14   5 123.146 15.5772  -2
  -7 -14   7 123.146 15.5772   1
  -6 -14   5 39.6707 15.6306  -2
  -6 -14   7 39.6707 15.6306   1
  -5 -14   5 100.383 16.3564  -2
  -5 -14   7 100.383 16.3564   1
  -4 -14   5 17.9959 14.8728  -2
  -4 -14   7 17.9959 14.8728   1
  -3 -14   6 61.3197 14.9871  -2
  -3 -14   7 61.3197 14.9871   1
  -2 -14   6 39.7521 9.61165  -2
  -2 -14   7 39.7521 9.61165   1
  -1 -14   6 121.730 11.2325  -2
  -1 -14   7 121.730 11.2325   1
   0 -14   6 49.3108 9.24344  -2
   0 -14   7 49.3108 9.24344   1
   1 -14   6 79.5435 10.7286  -2
   1 -14   7 79.5435 10.7286   1
   2 -14   6 140.209 15.7599  -2
   2 -14   7 140.209 15.7599   1
   4 -14   7 118.102 11.2616  -2
   4 -14   7 118.102 11.2616   1
   5 -14   7 -9.1036 8.21374  -2
   5 -14   7 -9.1036 8.21374   1
   6 -14   7 59.4017 9.35248  -2
   6 -14   7 59.4017 9.35248   1
   7 -14   7 -7.4764 10.7993  -2
   7 -14   7 -7.4764 10.7993   1
   8 -14   7 72.1632 16.7225  -2
   8 -14   7 72.1632 16.7225   1
  -8 -13   5 118.056 15.1923  -2
  -8 -13   7 118.056 15.1923   1
  -7 -13   5 87.8472 13.9104  -2
  -7 -13   7 87.8472 13.9104   1
  -6 -13   5 76.2191 13.6310  -2
  -6 -13   7 76.2191 13.6310   1
  -5 -13   5 117.721 11.5923  -2
  -5 -13   7 117.721 11.5923   1
  -4 -13   6 92.9984 15.5323  -2
  -4 -13   7 92.9984 15.5323   1
  -3 -13   6 100.623 11.1734  -2
  -3 -13   7 100.623 11.1734   1
  -2 -13   6 27.7940 8.68599  -2
  -2 -13   7 27.7940 8.68599   1
  -1 -13   6 256.468 16.0188  -2
  -1 -13   7 256.468 16.0188   1
   0 -13   6 66.8033 11.8711  -2
   0 -13   7 66.8033 11.8711   1
   1 -13   6 175.473 11.9854  -2
   1 -13   7 175.473 11.9854   1
   2 -13   6 122.887 15.3566  -2
   2 -13   7 122.887 15.3566   1
   3 -13   7 83.0428 15.0137  -2
   3 -13   7 83.0428 15.0137   1
   4 -13   7 50.6972 8.20467  -2
   4 -13   7 50.6972 8.20467   1
   5 -13   7 10.8592 7.96688  -2
   5 -13   7 10.8592 7.96688   1
   6 -13   7 67.8948 9.47929  -2
   6 -13   7 67.8948 9.47929   1
   7 -13   7 8.87352 10.9963  -2
   7 -13   7 8.87352 10.9963   1
   9 -13   8 36.5498 24.2061  -2
   9 -13   7 36.5498 24.2061   1
  -9 -12   5 -6.6384 25.7117  -2
  -9 -12   7 -6.6384 25.7117   1
  -8 -12   5 161.990 14.5326  -2
  -8 -12   7 161.990 14.5326   1
  -7 -12   5 9.75970 12.4473  -2
  -7 -12   7 9.75970 12.4473   1
  -6 -12   5 115.338 11.2846  -2
  -6 -12   7 115.338 11.2846   1
  -5 -12   5 83.7622 12.2685  -2
  -5 -12   7 83.7622 12.2685   1
  -4 -12   6 151.081 10.2060  -2
  -4 -12   7 151.081 10.2060   1
  -3 -12   6 213.067 16.9720  -2
  -3 -12   7 213.067 16.9720   1
  -2 -12   6 96.6358 13.6894  -2
  -2 -12   7 96.6358 13.6894   1
  -1 -12   6 372.785 13.6243  -2
  -1 -12   7 372.785 13.6243   1
   0 -12   6 102.085 8.88048  -2
   0 -12   7 102.085 8.88048   1
   1 -12   6 147.815 14.7522  -2
   1 -12   7 147.815 14.7522   1
   4 -12   7 5.05763 7.34744  -2
   4 -12   7 5.05763 7.34744   1
   5 -12   7 51.4989 7.54627  -2
   5 -12   7 51.4989 7.54627   1
   6 -12   7 60.3566 9.47992  -2
   6 -12   7 60.3566 9.47992   1
   7 -12   7 55.3356 14.7439  -2
   7 -12   7 55.3356 14.7439   1
   9 -12   8 -14.938 23.1243  -2
   9 -12   7 -14.938 23.1243   1
 -10 -11   5 39.0783 25.2435  -2
 -10 -11   7 39.0783 25.2435   1
  -9 -11   5 5.78772 23.2911  -2
  -9 -11   7 5.78772 23.2911   1
  -8 -11   5 162.109 22.5108  -2
  -8 -11   7 162.109 22.5108   1
  -7 -11   5 -14.305 14.1843  -2
  -7 -11   7 -14.305 14.1843   1
  -6 -11   5 145.892 10.6403  -2
  -6 -11   7 145.892 10.6403   1
  -5 -11   7 58.5702 9.44442   1
  -4 -11   6 203.593 10.0567  -2
  -4 -11   7 203.593 10.0567   1
  -3 -11   6 165.575 10.2161  -2
  -3 -11   7 165.575 10.2161   1
  -2 -11   6 285.894 11.6530  -2
  -2 -11   7 285.894 11.6530   1
  -1 -11   6 217.432 10.6084  -2
  -1 -11   7 217.432 10.6084   1
   0 -11   6 120.016 9.20449  -2
   0 -11   7 120.016 9.20449   1
   1 -11   6 150.116 14.4358  -2
   1 -11   7 150.116 14.4358   1
   2 -11   7 11.8348 8.19069  -2
   2 -11   7 11.8348 8.19069   1
   3 -11   7 345.812 12.5995  -2
   3 -11   7 345.812 12.5995   1
   4 -11   7 11.2236 7.59734  -2
   4 -11   7 11.2236 7.59734   1
   5 -11   7 67.0972 9.61265  -2
   5 -11   7 67.0972 9.61265   1
   6 -11   7 41.6411 8.76644  -2
   6 -11   7 41.6411 8.76644   1
   7 -11   7 102.614 12.5823  -2
   7 -11   7 102.614 12.5823   1
   9 -11   8 53.2473 13.2341  -2
   9 -11   7 53.2473 13.2341   1
  10 -11   8 78.6445 14.3206  -2
  10 -11   7 78.6445 14.3206   1
 -11 -10   5 37.5321 23.7366  -2
 -11 -10   7 37.5321 23.7366   1
 -10 -10   5 96.1199 22.3454  -2
 -10 -10   7 96.1199 22.3454   1
  -9 -10   5 -0.5971 19.9244  -2
  -9 -10   7 -0.5971 19.9244   1
  -8 -10   5 166.694 21.5626  -2
  -8 -10   7 166.694 21.5626   1
  -7 -10   5 25.1742 11.5978  -2
  -7 -10   7 25.1742 11.5978   1
  -6 -10   5 174.841 12.2497  -2
  -6 -10   7 174.841 12.2497   1
  -5 -10   6 47.2075 8.14839  -2
  -5 -10   7 47.2075 8.14839   1
  -4 -10   6 216.108 9.30070  -2
  -4 -10   7 216.108 9.30070   1
  -3 -10   6 196.207 9.69335  -2
  -3 -10   7 196.207 9.69335   1
  -2 -10   6 185.636 9.24196  -2
  -2 -10   7 185.636 9.24196   1
  -1 -10   6 139.775 8.71083  -2
  -1 -10   7 139.775 8.71083   1
   0 -10   6 46.0653 6.96055  -2
   0 -10   7 46.0653 6.96055   1
   1 -10   7 162.242 14.2964  -2
   1 -10   7 162.242 14.2964   1
   2 -10   7 15.1660 7.46306  -2
   2 -10   7 15.1660 7.46306   1
   3 -10   7 164.900 9.30993  -2
   3 -10   7 164.900 9.30993   1
   4 -10   7 15.4900 6.85711  -2
   4 -10   7 15.4900 6.85711   1
   5 -10   7 125.691 9.04993  -2
   5 -10   7 125.691 9.04993   1
   6 -10   7 56.4233 8.85536  -2
   6 -10   7 56.4233 8.85536   1
   7 -10   7 118.522 13.0202  -2
   7 -10   7 118.522 13.0202   1
   9 -10   8 55.4232 13.2735  -2
   9 -10   7 55.4232 13.2735   1
  10 -10   8 83.8632 14.0844  -2
  10 -10   7 83.8632 14.0844   1
 -11  -9   5 32.5987 22.8064  -2
 -11  -9   7 32.5987 22.8064   1
 -10  -9   5 89.8556 21.2680  -2
 -10  -9   7 89.8556 21.2680   1
  -9  -9   5 85.8705 18.4312  -2
  -9  -9   7 85.8705 18.4312   1
  -8  -9   5 146.980 20.3445  -2
  -8  -9   7 146.980 20.3445   1
  -7  -9   5 -12.214 16.2733  -2
  -7  -9   7 -12.214 16.2733   1
  -6  -9   7 299.417 16.3097   1
  -5  -9   6 77.9062 7.80519  -2
  -5  -9   7 77.9062 7.80519   1
  -4  -9   6 259.428 8.99835  -2
  -4  -9   7 259.428 8.99835   1
  -3  -9   6 103.923 7.33979  -2
  -3  -9   7 103.923 7.33979   1
  -2  -9   6 355.001 9.89262  -2
  -2  -9   7 355.001 9.89262   1
  -1  -9   6 207.920 9.25310  -2
  -1  -9   7 207.920 9.25310   1
   0  -9   6 150.285 8.71214  -2
   0  -9   7 150.285 8.71214   1
   1  -9   7 354.624 12.5501  -2
   1  -9   7 354.624 12.5501   1
   2  -9   7 77.6844 7.73620  -2
   2  -9   7 77.6844 7.73620   1
   3  -9   7 560.773 16.0099  -2
   3  -9   7 560.773 16.0099   1
   4  -9   7 25.4996 7.16082  -2
   4  -9   7 25.4996 7.16082   1
   5  -9   7 262.613 11.5482  -2
   5  -9   7 262.613 11.5482   1
   6  -9   7 73.6620 8.89733  -2
   6  -9   7 73.6620 8.89733   1
   8  -9   8 81.1525 15.8546  -2
   8  -9   7 81.1525 15.8546   1
   9  -9   8 76.0229 13.6337  -2
   9  -9   7 76.0229 13.6337   1
  10  -9   8 53.3254 13.7741  -2
  10  -9   7 53.3254 13.7741   1
  11  -9   8 47.0175 14.0739  -2
  11  -9   7 47.0175 14.0739   1
 -11  -8   5 45.9639 20.9898  -2
 -11  -8   7 45.9639 20.9898   1
 -10  -8   5 36.9638 14.0793  -2
 -10  -8   7 36.9638 14.0793   1
  -9  -8   5 79.5695 17.5065  -2
  -9  -8   7 79.5695 17.5065   1
  -7  -8   5 191.357 12.5521  -2
  -7  -8   7 191.357 12.5521   1
  -6  -8   6 153.194 17.2364  -2
  -6  -8   7 153.194 17.2364   1
  -5  -8   6 212.979 11.6675  -2
  -5  -8   7 212.979 11.6675   1
  -4  -8   6 93.2855 8.26508  -2
  -4  -8   7 93.2855 8.26508   1
  -3  -8   6 135.952 8.13965  -2
  -3  -8   7 135.952 8.13965   1
  -2  -8   6 305.646 10.7817  -2
  -2  -8   7 305.646 10.7817   1
  -1  -8   6 299.688 14.7822  -2
  -1  -8   7 299.688 14.7822   1
   0  -8   7 350.900 9.58274   1
   1  -8   7 144.393 11.2995  -2
   1  -8   7 144.393 11.2995   1
   2  -8   7 230.406 9.60984  -2
   2  -8   7 230.406 9.60984   1
   3  -8   7 273.565 10.5067  -2
   3  -8   7 273.565 10.5067   1
   4  -8   7 145.049 5.98459  -2
   4  -8   7 145.049 5.98459   1
   5  -8   7 212.500 8.42193  -2
   5  -8   7 212.500 8.42193   1
   6  -8   7 33.9987 9.23541  -2
   6  -8   7 33.9987 9.23541   1
   7  -8   7 252.961 11.3443   1
   8  -8   8 17.1233 11.3098  -2
   8  -8   7 17.1233 11.3098   1
   9  -8   8 50.7317 12.7265  -2
   9  -8   7 50.7317 12.7265   1
  10  -8   8 68.9677 15.3581  -2
  10  -8   7 68.9677 15.3581   1
  11  -8   8 20.0769 16.7944  -2
  11  -8   7 20.0769 16.7944   1
 -12  -7   5 32.0524 22.0412  -2
 -12  -7   7 32.0524 22.0412   1
 -11  -7   5 145.282 20.9512  -2
 -11  -7   7 145.282 20.9512   1
 -10  -7   5 46.4608 17.7484  -2
 -10  -7   7 46.4608 17.7484   1
  -9  -7   5 152.699 18.4398  -2
  -9  -7   7 152.699 18.4398   1
  -8  -7   5 140.699 17.8120  -2
  -8  -7   7 140.699 17.8120   1
  -7  -7   5 234.491 18.0660  -2
  -7  -7   7 234.491 18.0660   1
  -6  -7   6 321.703 20.0630  -2
  -6  -7   7 321.703 20.0630   1
  -5  -7   6 101.463 12.0594  -2
  -5  -7   7 101.463 12.0594   1
  -4  -7   6 332.540 11.6316  -2
  -4  -7   7 332.540 11.6316   1
  -3  -7   6 40.1191 10.9682  -2
  -3  -7   7 40.1191 10.9682   1
  -2  -7   6 245.339 12.6481  -2
  -2  -7   7 245.339 12.6481   1
  -1  -7   7 50.2734 4.07578   1
   0  -7   7 555.938 20.9322  -2
   0  -7   7 555.938 20.9322   1
   1  -7   7 111.968 9.40322  -2
   1  -7   7 111.968 9.40322   1
   2  -7   7 429.059 11.1796  -2
   2  -7   7 429.059 11.1796   1
   3  -7   7 548.174 12.0812  -2
   3  -7   7 548.174 12.0812   1
   4  -7   7 96.4523 6.00180  -2
   4  -7   7 96.4523 6.00180   1
   5  -7   7 269.032 9.09925  -2
   5  -7   7 269.032 9.09925   1
   6  -7   7 37.4858 12.3130  -2
   6  -7   7 37.4858 12.3130   1
   7  -7   7 148.561 7.45571   1
   8  -7   8 52.6980 14.1308  -2
   8  -7   7 52.6980 14.1308   1
   9  -7   8 130.056 17.4164  -2
   9  -7   7 130.056 17.4164   1
  10  -7   8 14.2046 11.6607  -2
  10  -7   7 14.2046 11.6607   1
  11  -7   8 49.9703 13.9369  -2
  11  -7   7 49.9703 13.9369   1
  12  -7   7 30.0897 9.35453   1
 -12  -6   5 84.5376 22.5499  -2
 -12  -6   7 84.5376 22.5499   1
 -11  -6   5 145.947 21.2065  -2
 -11  -6   7 145.947 21.2065   1
 -10  -6   5 4.94558 16.8996  -2
 -10  -6   7 4.94558 16.8996   1
  -9  -6   5 233.614 20.0438  -2
  -9  -6   7 233.614 20.0438   1
  -8  -6   5 33.0314 15.5425  -2
  -8  -6   7 33.0314 15.5425   1
  -7  -6   7 206.640 11.0371   1
  -6  -6   6 227.758 18.0798  -2
  -6  -6   7 227.758 18.0798   1
  -5  -6   6 250.252 11.2785  -2
  -5  -6   7 250.252 11.2785   1
  -4  -6   6 280.386 14.2949  -2
  -4  -6   7 280.386 14.2949   1
  -3  -6   6 282.575 15.4206  -2
  -3  -6   7 282.575 15.4206   1
  -2  -6   7 1239.37 24.4738   1
  -1  -6   7 24.2032 3.18355   1
   0  -6   7 737.774 14.0800   1
   1  -6   7 5.84208 2.04571   1
   2  -6   7 1078.38 35.4940  -2
   2  -6   7 1078.38 35.4940   1
   3  -6   7 156.111 7.08159  -2
   3  -6   7 156.111 7.08159   1
   4  -6   7 143.599 6.58810  -2
   4  -6   7 143.599 6.58810   1
   5  -6   7 354.359 17.6240  -2
   5  -6   7 354.359 17.6240   1
   6  -6   7 40.5707 4.44413   1
   7  -6   7 122.047 6.85499   1
   8  -6   7 -1.5347 4.65960   1
   9  -6   8 186.864 23.1783  -2
   9  -6   7 186.864 23.1783   1
  10  -6   8 3.65935 15.0683  -2
  10  -6   7 3.65935 15.0683   1
  11  -6   8 98.3079 27.2220  -2
  11  -6   7 98.3079 27.2220   1
  12  -6   8 46.2025 32.1900  -2
  12  -6   7 46.2025 32.1900   1
 -12  -5   5 -12.216 21.7173  -2
 -12  -5   7 -12.216 21.7173   1
 -11  -5   5 71.9554 19.5574  -2
 -11  -5   7 71.9554 19.5574   1
 -10  -5   5 10.2001 17.8417  -2
 -10  -5   7 10.2001 17.8417   1
  -8  -5   5 3.31446 15.2829  -2
  -8  -5   7 3.31446 15.2829   1
  -7  -5   7 192.947 8.00769   1
  -6  -5   6 121.193 14.9275  -2
  -6  -5   7 121.193 14.9275   1
  -5  -5   6 301.350 11.6612  -2
  -5  -5   7 301.350 11.6612   1
  -3  -5   7 392.185 9.69351   1
  -2  -5   7 1608.93 26.6561   1
  -1  -5   7 171.779 5.13797   1
   0  -5   7 709.223 13.4747   1
   1  -5   7 66.3732 63.2380  -2
   1  -5   7 66.3732 63.2380   1
   2  -5   7 1555.10 38.6313  -2
   2  -5   7 1555.10 38.6313   1
   3  -5   7 74.7557 8.66004  -2
   3  -5   7 74.7557 8.66004   1
   4  -5   7 417.787 17.8994  -2
   4  -5   7 417.787 17.8994   1
   5  -5   7 240.380 14.9167  -2
   5  -5   7 240.380 14.9167   1
   6  -5   7 170.853 6.73593   1
   7  -5   7 131.153 6.80289   1
   8  -5   7 30.7241 5.34385   1
   9  -5   8 139.526 21.0865  -2
   9  -5   7 139.526 21.0865   1
  10  -5   7 -1.2263 6.79182   1
  11  -5   7 95.6239 10.4729   1
  12  -5   7 32.8089 9.54333   1
 -13  -4   5 83.5057 23.3593  -2
 -13  -4   7 83.5057 23.3593   1
 -12  -4   5 54.9080 14.3472  -2
 -12  -4   7 54.9080 14.3472   1
 -11  -4   5 78.8610 19.3487  -2
 -11  -4   7 78.8610 19.3487   1
 -10  -4   5 31.9429 18.1457  -2
 -10  -4   7 31.9429 18.1457   1
  -8  -4   7 -0.2359 4.82620   1
  -7  -4   6 479.516 25.4602  -2
  -7  -4   7 479.516 25.4602   1
  -6  -4   7 55.7408 6.38671   1
  -5  -4   7 438.130 10.9342   1
  -4  -4   7 55.0380 4.12566   1
  -3  -4   7 211.500 5.88307   1
  -2  -4   7 809.904 15.4724   1
  -1  -4   7 311.191 6.71389   1
   0  -4   7 767.773 14.2206   1
   1  -4   7 120.426 3.50469   1
   2  -4   7 938.933 63.4888  -2
   2  -4   7 938.933 63.4888   1
   3  -4   7 1.60709 2.76710   1
   4  -4   7 238.473 13.5487  -2
   4  -4   7 238.473 13.5487   1
   5  -4   7 78.1588 6.05995   1
   6  -4   7 315.896 8.98098   1
   7  -4   7 244.399 8.34196   1
   8  -4   7 212.845 8.51956   1
   9  -4   7 111.087 7.80632   1
  10  -4   7 10.6472 7.22636   1
  11  -4   7 87.5385 9.75375   1
  12  -4   7 -0.0938 8.10914   1
 -13  -3   7 12.3040 7.56726   1
 -12  -3   5 109.732 20.0144  -2
 -12  -3   7 109.732 20.0144   1
 -11  -3   5 103.941 13.8511  -2
 -11  -3   7 103.941 13.8511   1
 -10  -3   7 26.1250 10.4452   1
  -9  -3   7 167.533 8.98789   1
  -8  -3   7 11.0389 4.63501   1
  -7  -3   7 351.079 10.2831   1
  -6  -3   7 -2.9825 3.43300   1
  -5  -3   7 493.508 15.1059   1
  -4  -3   7 17.9684 3.18911   1
  -3  -3   7 414.695 8.81539   1
  -2  -3   7 413.638 8.87413   1
  -1  -3   7 282.546 6.76443   1
   0  -3   7 599.445 11.4389   1
   1  -3   7 93.2804 3.19150   1
   2  -3   7 907.068 16.5600   1
   3  -3   7 12.0172 2.31308   1
   4  -3   7 362.691 9.27512   1
   5  -3   7 78.4266 5.16703   1
   6  -3   7 404.031 12.8632   1
   7  -3   7 161.226 6.84537   1
   8  -3   7 124.003 7.16825   1
   9  -3   7 129.127 9.67816   1
  10  -3   7 13.0281 6.78133   1
  11  -3   7 100.603 10.2272   1
  12  -3   7 -6.2936 7.53525   1
 -13  -2   7 4.21688 7.76222   1
 -12  -2   5 124.279 21.2594  -2
 -12  -2   7 124.279 21.2594   1
 -11  -2   5 26.2338 16.5398  -2
 -11  -2   7 26.2338 16.5398   1
 -10  -2   7 102.247 9.21766   1
  -9  -2   7 124.267 7.77733   1
  -8  -2   7 67.3755 6.16930   1
  -7  -2   7 298.294 9.34691   1
  -6  -2   7 23.6949 3.84640   1
  -5  -2   7 255.602 7.59250   1
  -4  -2   7 1.20710 2.26224   1
  -3  -2   7 888.789 15.6953   1
  -2  -2   7 130.673 4.87251   1
  -1  -2   7 737.348 15.6072   1
   0  -2   7 487.897 9.52093   1
   1  -2   7 435.188 9.23497   1
   2  -2   7 541.099 12.5779   1
   3  -2   7 111.520 4.66118   1
   4  -2   7 675.826 14.6650   1
   5  -2   7 -3.0539 3.02942   1
   6  -2   7 460.371 13.8272   1
   7  -2   7 -5.2538 3.32386   1
   8  -2   7 140.990 7.54263   1
   9  -2   7 75.4279 7.63331   1
  10  -2   7 124.445 10.1775   1
  11  -2   7 95.4166 10.2104   1
  12  -2   7 16.2460 7.92782   1
 -13  -2   5 -8.2490 16.8025  -2
 -13  -1   7 -8.2490 16.8025   1
 -12  -1   7 97.6506 10.1793   1
 -11  -1   7 11.1947 9.64071   1
 -10  -1   7 118.124 8.22118   1
  -9  -1   7 29.9914 5.69086   1
  -8  -1   7 95.1195 6.76130   1
  -7  -1   7 238.688 8.61112   1
  -6  -1   7 73.4712 5.18715   1
  -5  -1   7 371.982 10.1444   1
  -4  -1   7 53.4785 3.78004   1
  -3  -1   7 888.796 15.4947   1
  -2  -1   7 125.238 5.82313   1
  -1  -1   7 421.519 8.51222   1
   0  -1   7 231.316 5.08256   1
   1  -1   7 469.838 9.15865   1
   2  -1   7 51.4390 3.11097   1
   3  -1   7 186.632 5.27327   1
   4  -1   7 313.286 10.8910   1
   5  -1   7 153.460 6.27038   1
   6  -1   7 279.516 8.76457   1
   7  -1   7 14.6823 3.86051   1
   8  -1   7 286.920 11.2834   1
   9  -1   7 24.5990 8.55522   1
  10  -1   7 127.028 9.77015   1
  11  -1   7 24.5796 7.19906   1
  12  -1   7 -11.694 7.00764   1
 -13   0   7 2.93904 8.42389   1
 -12   0   7 96.5714 10.3483   1
 -11   0   7 -6.3750 6.81484   1
 -10   0   7 174.486 9.63788   1
  -9   0   7 48.0895 6.34097   1
  -8   0   7 114.564 7.20306   1
  -7   0   7 268.545 8.89692   1
  -6   0   7 138.880 6.17552   1
  -5   0   7 225.766 7.00576   1
  -4   0   7 52.6773 3.80179   1
  -3   0   7 509.587 9.14439   1
  -2   0   7 27.1873 6.54834   1
  -1   0   7 633.751 14.5289   1
   0   0   7 212.148 4.84246   1
   1   0   7 459.807 8.55942   1
   2   0   7 66.6373 3.47965   1
   3   0   7 200.286 7.45471   1
   4   0   7 292.736 10.3229   1
   5   0   7 84.6788 5.30852   1
   6   0   7 255.101 8.27228   1
   7   0   7 1.89122 4.45262   1
   8   0   7 286.083 11.6232   1
   9   0   7 -2.3635 5.45105   1
  10   0   7 104.521 9.15035   1
  11   0   7 8.41650 7.03987   1
  12   0   7 20.5393 7.27871   1
 -13   1   7 6.43356 8.53565   1
 -12   1   7 130.417 11.9719   1
 -11   1   7 -4.2182 6.92060   1
 -10   1   7 154.078 9.33543   1
  -9   1   7 47.0462 6.35585   1
  -8   1   7 242.487 9.12169   1
  -7   1   7 104.333 6.53440   1
  -6   1   7 474.692 11.9285   1
  -5   1   7 154.006 6.06069   1
  -4   1   7 203.366 6.49123   1
  -3   1   7 575.480 12.2160   1
  -2   1   7 176.619 6.01132   1
  -1   1   7 1344.95 25.6330   1
   0   1   7 45.3977 2.27525   1
   1   1   7 318.698 6.73804   1
   2   1   7 178.737 5.71751   1
   3   1   7 395.767 9.49647   1
   4   1   7 226.772 7.00169   1
   5   1   7 173.570 6.62283   1
   6   1   7 258.404 8.35034   1
   7   1   7 5.15925 4.33099   1
   8   1   7 306.629 12.2255   1
   9   1   7 -7.6710 5.43344   1
  10   1   7 105.609 9.30775   1
  11   1   7 -2.1929 6.14582   1
  12   1   7 60.9728 8.77550   1
 -13   2   7 41.4225 10.2197   1
 -12   2   7 63.0893 9.49829   1
 -11   2   7 14.5602 7.23874   1
 -10   2   7 117.075 9.08553   1
  -9   2   7 -2.2734 5.18057   1
  -8   2   7 518.287 13.8780   1
  -7   2   7 11.0819 4.40723   1
  -6   2   7 326.661 9.45367   1
  -5   2   7 54.4298 4.39363   1
  -4   2   7 198.210 6.21249   1
  -3   2   7 264.717 7.85978   1
  -2   2   7 469.475 9.80545   1
  -1   2   7 1570.44 29.8922   1
   0   2   7 45.8511 2.53520   1
   1   2   7 781.854 16.9508   1
   2   2   7 50.8566 3.44444   1
   3   2   7 1149.78 22.8583   1
   4   2   7 327.014 8.86718   1
   5   2   7 599.617 13.7696   1
   6   2   7 107.200 6.16975   1
   7   2   7 115.167 7.86114   1
   8   2   7 191.487 10.1843   1
   9   2   7 22.8144 6.07116   1
  10   2   7 95.8458 9.40303   1
  11   2   7 -11.966 5.86400   1
  12   2   7 99.5637 9.57949   1
 -13   3   7 18.8796 13.5268   1
 -12   3   7 49.9664 9.56300   1
 -11   3   7 16.8292 7.24600   1
 -10   3   7 86.5837 8.65215   1
  -9   3   7 7.48387 5.55708   1
  -8   3   7 124.730 8.01118   1
  -7   3   7 -0.4005 4.22348   1
  -6   3   7 215.388 7.81081   1
  -5   3   7 4.59163 3.49894   1
  -4   3   7 320.792 10.0260   1
  -3   3   7 136.799 4.69369   1
  -2   3   7 263.037 6.64476   1
  -1   3   7 400.417 9.09342   1
   0   3   7 40.2223 3.19416   1
   1   3   7 607.625 16.8729   1
   2   3   7 21.4052 4.32989   1
   3   3   7 1300.39 25.6960   1
   4   3   7 34.4532 4.07513   1
   5   3   7 451.510 11.4129   1
   6   3   7 14.9984 4.04669   1
   7   3   7 238.188 10.3888   1
   8   3   7 163.419 14.2741   1
   9   3   7 87.8383 8.13596   1
   9   3   9 79.4530 17.3021  -2
  10   3   7 79.4530 17.3021   1
  10   3   9 14.4097 15.2750  -2
  11   3   7 14.4097 15.2750   1
 -12   4   7 17.4232 8.85325   1
 -11   4   7 50.4604 9.02232   1
 -10   4   7 116.112 9.63528   1
  -9   4   7 46.1927 6.66083   1
  -8   4   7 113.323 7.76026   1
  -7   4   7 -7.2743 5.00059   1
  -6   4   7 192.108 8.47816   1
  -5   4   7 -2.0857 3.70027   1
  -4   4   7 362.490 9.26911   1
  -3   4   7 329.080 8.33969   1
  -2   4   7 656.709 13.8757   1
  -1   4   7 289.227 7.40499   1
   0   4   7 397.588 9.38352   1
   1   4   7 264.534 7.28971   1
   2   4   7 120.698 7.50779   1
   3   4   7 466.375 11.2395   1
   4   4   7 25.4884 3.95831   1
   5   4   7 224.107 7.88873   1
   6   4   7 0.02089 3.87317   1
   7   4   7 114.913 9.56151   1
   8   4   7 60.9130 7.17123   1
   9   4   7 78.8528 12.4194   1
   9   4   9 102.511 13.2799  -2
  10   4   7 102.511 13.2799   1
  10   4   9 13.6831 12.8416  -2
  11   4   7 13.6831 12.8416   1
 -12   5   7 5.20130 8.75091   1
 -11   5   7 60.2814 9.16288   1
 -10   5   7 13.2499 7.06322   1
  -9   5   7 39.8963 7.34813   1
  -8   5   7 106.574 7.97226   1
  -7   5   7 54.8333 6.00244   1
  -6   5   7 170.556 8.91876   1
  -5   5   7 18.9570 3.54934   1
  -4   5   7 181.798 8.68911   1
  -3   5   7 21.9174 3.24069   1
  -2   5   7 561.547 12.5429   1
  -1   5   7 209.271 6.44599   1
   0   5   7 323.223 8.54801   1
   1   5   7 159.858 5.90017   1
   2   5   7 68.6010 6.71214   1
   3   5   7 290.068 8.60045   1
   4   5   7 46.4505 5.34466   1
   5   5   7 201.130 7.91293   1
   6   5   7 -0.3255 4.32748   1
   7   5   7 175.732 9.66290   1
   8   5   7 65.6440 7.79669   1
   9   5   7 76.3086 12.2071   1
   9   5   9 92.4031 22.0092  -2
  10   5   7 92.4031 22.0092   1
  10   5   9 41.8052 15.7829  -2
  11   5   7 41.8052 15.7829   1
 -12   6   7 22.0777 10.2992   1
 -11   6   7 35.0212 9.07814   1
 -10   6   7 11.5426 10.4952   1
  -9   6   7 17.7369 7.10043   1
  -8   6   7 80.0982 8.84603   1
  -7   6   7 121.892 9.28406   1
  -6   6   7 192.279 7.83864   1
  -5   6   7 36.7560 4.41264   1
  -4   6   7 89.9741 5.37215   1
  -3   6   7 -0.1831 2.69773   1
  -2   6   7 571.834 13.0117   1
  -1   6   7 83.5119 4.83428   1
   0   6   7 328.938 8.97375   1
   1   6   7 46.3765 5.34173   1
   2   6   7 100.063 5.64198   1
   3   6   7 140.734 8.65028   1
   4   6   7 95.0098 6.27103   1
   5   6   7 224.643 8.54783   1
   6   6   7 43.0679 6.40268   1
   7   6   7 353.130 13.3334   1
   8   6   7 -4.5100 7.52282   1
   8   6   9 140.050 21.4653  -2
   9   6   7 140.050 21.4653   1
   9   6   9 -4.6384 22.3549  -2
  10   6   7 -4.6384 22.3549   1
 -11   7   7 54.8282 10.1794   1
 -10   7   7 10.9120 9.40269   1
  -9   7   7 100.906 10.3700   1
  -8   7   7 27.9851 7.73824   1
  -7   7   7 135.729 7.98054   1
  -6   7   7 100.005 6.62701   1
  -5   7   7 74.4984 5.76491   1
  -4   7   7 198.254 7.38429   1
  -3   7   7 26.6169 4.40589   1
  -2   7   7 357.297 9.76639   1
  -1   7   7 -1.5519 4.10853   1
   0   7   7 86.0379 5.39041   1
   1   7   7 39.3837 4.50830   1
   2   7   7 223.689 8.12871   1
   3   7   7 71.9691 7.95159   1
   4   7   7 108.725 9.35726   1
   5   7   7 94.7084 8.95246   1
   6   7   7 67.9642 8.00477   1
   7   7   7 123.311 9.24845   1
   8   7   7 12.2182 9.13674   1
   8   7   9 176.298 23.1849  -2
   9   7   7 176.298 23.1849   1
   9   7   9 -33.269 23.4200  -2
  10   7   7 -33.269 23.4200   1
 -11   8   7 56.2089 12.6824   1
 -10   8   7 -5.0796 7.11631   1
  -9   8   7 119.352 9.59778   1
  -8   8   7 14.3257 6.01796   1
  -7   8   7 132.349 8.12477   1
  -6   8   7 70.6283 6.27506   1
  -5   8   7 182.644 7.98782   1
  -4   8   7 236.154 8.54890   1
  -3   8   7 67.5681 5.99019   1
  -2   8   7 358.682 10.1499   1
  -1   8   7 4.34599 4.84844   1
   0   8   7 181.999 7.46847   1
   1   8   7 2.17030 3.80472   1
   2   8   7 223.692 8.63375   1
   2   8   8 79.4354 15.4951  -2
   3   8   7 79.4354 15.4951   1
   3   8   8 405.239 28.0945  -2
   4   8   7 405.239 28.0945   1
   4   8   8 178.865 24.5893  -2
   5   8   7 178.865 24.5893   1
   6   8   7 95.9585 8.79848   1
   7   8   7 149.003 10.2437   1
   8   8   7 14.9185 10.9256   1
   8   8   9 59.5330 15.4293  -2
   9   8   7 59.5330 15.4293   1
 -10   9   7 -0.3529 7.71545   1
  -9   9   7 89.4503 9.00630   1
  -8   9   7 7.95059 7.21740   1
  -7   9   7 88.5729 7.70317   1
  -6   9   7 12.3110 5.17280   1
  -5   9   7 122.172 7.62414   1
  -4   9   7 35.0889 5.21065   1
  -3   9   7 111.228 6.95896   1
  -2   9   7 109.982 6.93779   1
  -1   9   7 71.5039 5.78980   1
   0   9   7 257.983 9.26835   1
   1   9   7 96.6103 6.97774   1
   2   9   7 247.779 9.68087   1
   2   9   8 -28.855 16.5063  -2
   3   9   7 -28.855 16.5063   1
   3   9   8 330.850 29.2618  -2
   4   9   7 330.850 29.2618   1
   4   9   8 64.7210 27.0376  -2
   5   9   7 64.7210 27.0376   1
   6   9   7 103.445 9.33835   1
   7   9   7 96.5763 9.19840   1
   7   9   9 43.5389 23.1564  -2
   8   9   7 43.5389 23.1564   1
  -9  10   7 31.0657 8.07917   1
  -8  10   7 3.06676 6.85624   1
  -7  10   7 108.377 8.64052   1
  -6  10   7 3.70572 5.59671   1
  -5  10   7 88.0850 7.26770   1
  -4  10   7 25.2398 5.41214   1
  -3  10   7 136.244 7.99096   1
  -2  10   7 61.5439 6.22494   1
  -1  10   7 51.4321 5.95454   1
   0  10   7 112.744 7.66550   1
   1  10   7 13.1484 5.21901   1
   2  10   7 183.202 9.24677   1
   3  10   7 -5.9025 6.85307   1
   3  10   8 234.424 31.0095  -2
   4  10   7 234.424 31.0095   1
   5  10   7 28.5902 6.97338   1
   6  10   7 134.103 10.8319   1
   7  10   7 46.0577 7.68265   1
  -8  11   7 7.17956 12.0964   1
  -7  11   7 84.7089 16.3046   1
  -7  10   7 17.9618 22.8902  -2
  -6  11   7 17.9618 22.8902   1
  -5  11   7 92.5647 8.00835   1
  -4  11   7 -6.0562 5.46639   1
  -3  11   7 90.1386 7.82622   1
  -2  11   7 38.9746 6.19280   1
  -1  11   7 129.493 8.53905   1
   0  11   7 51.0886 6.64296   1
   1  11   7 74.5812 7.60856   1
   2  11   7 114.104 9.93589   1
   2  11   8 -3.8697 19.7840  -2
   3  11   7 -3.8697 19.7840   1
   4  11   7 147.647 16.1243   1
   5  11   7 -2.2678 6.52959   1
   6  11   7 99.5947 10.1064   1
  -7  12   7 18.5769 12.3501   1
  -6  12   7 0.04230 11.1231   1
  -5  12   7 66.7163 10.4232   1
  -4  12   7 7.72897 7.16416   1
  -3  12   7 49.7026 7.16400   1
  -2  12   7 8.66761 6.36754   1
  -1  12   7 108.554 9.21707   1
   0  12   7 46.3840 7.84306   1
   1  12   7 48.4821 7.45778   1
   2  12   7 106.524 9.32042   1
   3  12   7 30.3752 7.57424   1
   4  12   7 162.908 14.0546   1
   5  12   7 6.63604 7.72400   1
  -5  13   7 35.7698 12.7917   1
  -4  13   7 0.07161 8.64364   1
  -3  13   7 62.1255 10.2973   1
  -2  13   7 -2.0831 8.01897   1
  -1  13   7 89.3587 8.63076   1
   0  13   7 6.01214 7.11924   1
   1  13   7 85.8783 9.05047   1
   2  13   7 50.5064 8.65520   1
   3  13   7 26.2280 8.22583   1
  -2  14   7 -4.2850 9.40571   1
  -1  14   7 56.2771 11.1382   1
   0  14   7 3.91249 9.45951   1
  -3 -17   8 33.8228 13.8449   1
  -2 -17   7 -7.5856 25.9032  -2
  -2 -17   8 -7.5856 25.9032   1
  -1 -17   7 53.3121 15.0992  -2
  -1 -17   8 53.3121 15.0992   1
   0 -17   7 14.0452 10.5506  -2
   0 -17   8 14.0452 10.5506   1
   1 -17   7 40.0529 10.0411  -2
   1 -17   8 40.0529 10.0411   1
   2 -17   7 31.8800 11.0444  -2
   2 -17   8 31.8800 11.0444   1
   3 -17   7 28.5329 16.5232  -2
   3 -17   8 28.5329 16.5232   1
  -5 -16   6 -7.1347 15.4829  -2
  -5 -16   8 -7.1347 15.4829   1
  -4 -16   6 45.6403 13.6380  -2
  -4 -16   8 45.6403 13.6380   1
  -2 -16   7 110.197 13.9702  -2
  -2 -16   8 110.197 13.9702   1
  -1 -16   7 28.0376 11.0553  -2
  -1 -16   8 28.0376 11.0553   1
   0 -16   7 20.3726 10.0957  -2
   0 -16   8 20.3726 10.0957   1
   1 -16   7 94.6915 11.2963  -2
   1 -16   8 94.6915 11.2963   1
   2 -16   7 24.0623 10.9181  -2
   2 -16   8 24.0623 10.9181   1
   3 -16   7 44.1173 15.3180  -2
   3 -16   8 44.1173 15.3180   1
   4 -16   8 10.1403 16.5909  -2
   4 -16   8 10.1403 16.5909   1
   5 -16   8 129.370 12.3170  -2
   5 -16   8 129.370 12.3170   1
  -6 -15   6 39.6226 15.9694  -2
  -6 -15   8 39.6226 15.9694   1
  -5 -15   6 11.0768 13.3971  -2
  -5 -15   8 11.0768 13.3971   1
  -4 -15   6 113.154 16.8373  -2
  -4 -15   8 113.154 16.8373   1
  -3 -15   7 40.0295 15.1752  -2
  -3 -15   8 40.0295 15.1752   1
  -2 -15   7 107.363 12.4002  -2
  -2 -15   8 107.363 12.4002   1
  -1 -15   7 39.3847 10.1780  -2
  -1 -15   8 39.3847 10.1780   1
   0 -15   7 53.9198 10.1731  -2
   0 -15   8 53.9198 10.1731   1
   1 -15   7 55.3980 10.0894  -2
   1 -15   8 55.3980 10.0894   1
   2 -15   7 29.8858 14.7325  -2
   2 -15   8 29.8858 14.7325   1
   3 -15   7 40.3136 15.5210  -2
   3 -15   8 40.3136 15.5210   1
   4 -15   8 -3.8116 8.39507  -2
   4 -15   8 -3.8116 8.39507   1
   5 -15   8 60.3716 9.98264  -2
   5 -15   8 60.3716 9.98264   1
   6 -15   8 -5.8747 8.86697  -2
   6 -15   8 -5.8747 8.86697   1
   7 -15   8 -2.5208 15.4404  -2
   7 -15   8 -2.5208 15.4404   1
  -8 -14   8 51.4469 9.28851   1
  -7 -14   6 33.8755 14.8465  -2
  -7 -14   8 33.8755 14.8465   1
  -6 -14   6 96.0911 16.8446  -2
  -6 -14   8 96.0911 16.8446   1
  -5 -14   6 15.3236 14.9660  -2
  -5 -14   8 15.3236 14.9660   1
  -4 -14   6 172.032 17.8963  -2
  -4 -14   8 172.032 17.8963   1
  -3 -14   7 14.1753 13.1763  -2
  -3 -14   8 14.1753 13.1763   1
  -2 -14   7 140.101 11.6789  -2
  -2 -14   8 140.101 11.6789   1
  -1 -14   7 54.7885 9.25946  -2
  -1 -14   8 54.7885 9.25946   1
   0 -14   7 94.4116 9.60695  -2
   0 -14   8 94.4116 9.60695   1
   1 -14   7 57.6027 9.80598  -2
   1 -14   8 57.6027 9.80598   1
   2 -14   7 51.9265 13.3164  -2
   2 -14   8 51.9265 13.3164   1
   3 -14   8 134.317 17.4340  -2
   3 -14   8 134.317 17.4340   1
   4 -14   8 5.86377 6.19341  -2
   4 -14   8 5.86377 6.19341   1
   5 -14   8 41.3543 7.98650  -2
   5 -14   8 41.3543 7.98650   1
   6 -14   8 5.71586 8.83747  -2
   6 -14   8 5.71586 8.83747   1
   7 -14   8 57.3490 11.5862  -2
   7 -14   8 57.3490 11.5862   1
   8 -14   8 31.9634 13.0204  -2
   8 -14   8 31.9634 13.0204   1
  -8 -13   6 18.3032 13.9672  -2
  -8 -13   8 18.3032 13.9672   1
  -7 -13   6 85.0625 14.0587  -2
  -7 -13   8 85.0625 14.0587   1
  -6 -13   6 76.7781 11.5740  -2
  -6 -13   8 76.7781 11.5740   1
  -5 -13   6 50.7891 13.4789  -2
  -5 -13   8 50.7891 13.4789   1
  -4 -13   8 121.312 11.9393   1
  -3 -13   7 44.8601 9.86182  -2
  -3 -13   8 44.8601 9.86182   1
  -2 -13   7 167.381 14.5677  -2
  -2 -13   8 167.381 14.5677   1
  -1 -13   7 113.153 12.2125  -2
  -1 -13   8 113.153 12.2125   1
   0 -13   7 154.937 14.4639  -2
   0 -13   8 154.937 14.4639   1
   1 -13   7 100.295 12.4056  -2
   1 -13   8 100.295 12.4056   1
   2 -13   7 120.622 15.2960  -2
   2 -13   8 120.622 15.2960   1
   3 -13   8 65.9461 8.72468  -2
   3 -13   8 65.9461 8.72468   1
   4 -13   8 46.0288 8.35096  -2
   4 -13   8 46.0288 8.35096   1
   5 -13   8 106.235 9.14591  -2
   5 -13   8 106.235 9.14591   1
   6 -13   8 5.55556 8.68834  -2
   6 -13   8 5.55556 8.68834   1
   7 -13   8 101.305 11.9179  -2
   7 -13   8 101.305 11.9179   1
   9 -13   8 18.0358 12.7192   1
  -9 -12   6 111.485 25.3001  -2
  -9 -12   8 111.485 25.3001   1
  -8 -12   6 7.42773 12.4808  -2
  -8 -12   8 7.42773 12.4808   1
  -7 -12   6 128.786 23.9303  -2
  -7 -12   8 128.786 23.9303   1
  -6 -12   6 45.7618 10.5120  -2
  -6 -12   8 45.7618 10.5120   1
  -5 -12   6 114.124 12.6832  -2
  -5 -12   8 114.124 12.6832   1
  -4 -12   7 151.892 10.4289  -2
  -4 -12   8 151.892 10.4289   1
  -3 -12   7 75.0953 14.4694  -2
  -3 -12   8 75.0953 14.4694   1
  -2 -12   7 283.780 18.4445  -2
  -2 -12   8 283.780 18.4445   1
  -1 -12   7 145.269 9.24948  -2
  -1 -12   8 145.269 9.24948   1
   0 -12   7 179.713 11.1056  -2
   0 -12   8 179.713 11.1056   1
   3 -12   8 25.3245 8.84460  -2
   3 -12   8 25.3245 8.84460   1
   4 -12   8 129.527 9.19073  -2
   4 -12   8 129.527 9.19073   1
   5 -12   8 54.8232 8.11048  -2
   5 -12   8 54.8232 8.11048   1
   6 -12   8 43.5409 8.92718  -2
   6 -12   8 43.5409 8.92718   1
   7 -12   8 44.6634 9.64960  -2
   7 -12   8 44.6634 9.64960   1
   8 -12   8 15.1873 11.5861  -2
   8 -12   8 15.1873 11.5861   1
   9 -12   9 145.810 18.9676  -2
   9 -12   8 145.810 18.9676   1
 -10 -11   6 -25.058 23.9141  -2
 -10 -11   8 -25.058 23.9141   1
  -9 -11   6 95.2223 22.2870  -2
  -9 -11   8 95.2223 22.2870   1
  -8 -11   6 -11.034 11.9407  -2
  -8 -11   8 -11.034 11.9407   1
  -7 -11   6 117.448 16.5454  -2
  -7 -11   8 117.448 16.5454   1
  -6 -11   6 35.7573 9.60800  -2
  -6 -11   8 35.7573 9.60800   1
  -5 -11   7 177.405 17.5962  -2
  -5 -11   8 177.405 17.5962   1
  -4 -11   7 121.671 9.12758  -2
  -4 -11   8 121.671 9.12758   1
  -3 -11   7 153.367 9.86434  -2
  -3 -11   8 153.367 9.86434   1
  -2 -11   7 314.393 12.3351  -2
  -2 -11   8 314.393 12.3351   1
  -1 -11   7 195.811 10.0604  -2
  -1 -11   8 195.811 10.0604   1
   0 -11   7 56.0642 11.5896  -2
   0 -11   8 56.0642 11.5896   1
   1 -11   7 72.4968 11.0885  -2
   1 -11   8 72.4968 11.0885   1
   2 -11   8 330.127 13.4108  -2
   2 -11   8 330.127 13.4108   1
   3 -11   8 12.8037 8.31626  -2
   3 -11   8 12.8037 8.31626   1
   5 -11   8 58.9360 11.4285  -2
   5 -11   8 58.9360 11.4285   1
   6 -11   8 78.4247 8.93377  -2
   6 -11   8 78.4247 8.93377   1
   7 -11   8 70.4609 9.93515  -2
   7 -11   8 70.4609 9.93515   1
   9 -11   9 88.0588 14.1721  -2
   9 -11   8 88.0588 14.1721   1
  10 -11   9 13.7217 12.7572  -2
  10 -11   8 13.7217 12.7572   1
 -11 -10   6 90.3661 25.7471  -2
 -11 -10   8 90.3661 25.7471   1
 -10 -10   6 25.9437 22.2612  -2
 -10 -10   8 25.9437 22.2612   1
  -9 -10   6 57.8223 15.4866  -2
  -9 -10   8 57.8223 15.4866   1
  -8 -10   6 -2.9370 18.9177  -2
  -8 -10   8 -2.9370 18.9177   1
  -7 -10   6 183.724 13.4467  -2
  -7 -10   8 183.724 13.4467   1
  -6 -10   6 2.99965 16.8658  -2
  -6 -10   8 2.99965 16.8658   1
  -5 -10   7 124.285 9.00825  -2
  -5 -10   8 124.285 9.00825   1
  -4 -10   7 110.932 9.04892  -2
  -4 -10   8 110.932 9.04892   1
  -3 -10   7 237.356 10.6438  -2
  -3 -10   8 237.356 10.6438   1
  -2 -10   7 151.562 8.94707  -2
  -2 -10   8 151.562 8.94707   1
  -1 -10   7 119.356 8.50864  -2
  -1 -10   8 119.356 8.50864   1
   0 -10   7 113.598 8.86443  -2
   0 -10   8 113.598 8.86443   1
   1 -10   8 7.15482 10.9386  -2
   1 -10   8 7.15482 10.9386   1
   2 -10   8 391.568 14.0018  -2
   2 -10   8 391.568 14.0018   1
   3 -10   8 7.30908 6.39986  -2
   3 -10   8 7.30908 6.39986   1
   4 -10   8 154.038 9.77025  -2
   4 -10   8 154.038 9.77025   1
   5 -10   8 43.4687 13.5537  -2
   5 -10   8 43.4687 13.5537   1
   6 -10   8 106.839 14.6074  -2
   6 -10   8 106.839 14.6074   1
   7 -10   8 88.4364 10.2230  -2
   7 -10   8 88.4364 10.2230   1
   9 -10   9 62.9332 14.2095  -2
   9 -10   8 62.9332 14.2095   1
  10 -10   9 49.4260 13.8915  -2
  10 -10   8 49.4260 13.8915   1
 -11  -9   6 60.6578 24.0261  -2
 -11  -9   8 60.6578 24.0261   1
 -10  -9   6 48.6389 21.1307  -2
 -10  -9   8 48.6389 21.1307   1
  -9  -9   6 41.4452 18.6469  -2
  -9  -9   8 41.4452 18.6469   1
  -8  -9   6 75.8711 19.0687  -2
  -8  -9   8 75.8711 19.0687   1
  -7  -9   6 237.208 13.8028  -2
  -7  -9   8 237.208 13.8028   1
  -6  -9   8 -6.7260 6.84345   1
  -5  -9   7 169.806 17.1148  -2
  -5  -9   8 169.806 17.1148   1
  -4  -9   7 140.179 12.6975  -2
  -4  -9   8 140.179 12.6975   1
  -3  -9   7 364.446 12.8035  -2
  -3  -9   8 364.446 12.8035   1
  -2  -9   7 183.879 11.9043  -2
  -2  -9   8 183.879 11.9043   1
  -1  -9   7 149.550 12.2055  -2
  -1  -9   8 149.550 12.2055   1
   0  -9   7 256.350 15.0173  -2
   0  -9   8 256.350 15.0173   1
   1  -9   8 11.3637 7.00799  -2
   1  -9   8 11.3637 7.00799   1
   2  -9   8 285.859 11.2106  -2
   2  -9   8 285.859 11.2106   1
   3  -9   8 -7.2178 8.96304  -2
   3  -9   8 -7.2178 8.96304   1
   4  -9   8 210.552 10.6743  -2
   4  -9   8 210.552 10.6743   1
   5  -9   8 -9.2281 12.9123  -2
   5  -9   8 -9.2281 12.9123   1
   6  -9   8 281.797 19.3318  -2
   6  -9   8 281.797 19.3318   1
   7  -9   8 53.1716 11.5144  -2
   7  -9   8 53.1716 11.5144   1
   8  -9   9 96.5214 17.7241  -2
   8  -9   8 96.5214 17.7241   1
   9  -9   9 13.3142 13.7854  -2
   9  -9   8 13.3142 13.7854   1
  10  -9   9 22.5447 14.4619  -2
  10  -9   8 22.5447 14.4619   1
  11  -9   9 -4.6174 15.2147  -2
  11  -9   8 -4.6174 15.2147   1
 -11  -8   6 22.3279 21.7465  -2
 -11  -8   8 22.3279 21.7465   1
 -10  -8   6 140.849 20.1445  -2
 -10  -8   8 140.849 20.1445   1
  -9  -8   6 47.5522 18.1229  -2
  -9  -8   8 47.5522 18.1229   1
  -7  -8   6 250.783 20.0480  -2
  -7  -8   8 250.783 20.0480   1
  -6  -8   8 0.88074 4.47369   1
  -5  -8   7 327.072 13.4829  -2
  -5  -8   8 327.072 13.4829   1
  -4  -8   7 60.8971 8.49803  -2
  -4  -8   8 60.8971 8.49803   1
  -3  -8   7 311.270 11.6383  -2
  -3  -8   8 311.270 11.6383   1
  -1  -8   7 364.714 17.0993  -2
  -1  -8   8 364.714 17.0993   1
   0  -8   8 156.639 5.27833   1
   1  -8   8 206.444 13.1986  -2
   1  -8   8 206.444 13.1986   1
   2  -8   8 517.550 21.0268  -2
   2  -8   8 517.550 21.0268   1
   3  -8   8 303.897 11.5611  -2
   3  -8   8 303.897 11.5611   1
   4  -8   8 426.383 14.3419  -2
   4  -8   8 426.383 14.3419   1
   5  -8   8 11.2082 6.91874  -2
   5  -8   8 11.2082 6.91874   1
   6  -8   8 239.474 12.4300  -2
   6  -8   8 239.474 12.4300   1
   7  -8   8 -4.1456 8.07182   1
   8  -8   9 144.273 17.7150  -2
   8  -8   8 144.273 17.7150   1
   9  -8   9 39.3884 13.4064  -2
   9  -8   8 39.3884 13.4064   1
  10  -8   9 61.3229 18.1084  -2
  10  -8   8 61.3229 18.1084   1
  11  -8   9 -7.3912 15.4191  -2
  11  -8   8 -7.3912 15.4191   1
 -12  -7   6 117.701 24.7785  -2
 -12  -7   8 117.701 24.7785   1
 -11  -7   6 7.53226 21.1895  -2
 -11  -7   8 7.53226 21.1895   1
 -10  -7   6 159.818 21.5780  -2
 -10  -7   8 159.818 21.5780   1
  -9  -7   6 84.2935 18.5117  -2
  -9  -7   8 84.2935 18.5117   1
  -8  -7   6 158.465 19.0105  -2
  -8  -7   8 158.465 19.0105   1
  -7  -7   8 132.271 7.97686   1
  -6  -7   8 141.770 8.40956   1
  -5  -7   7 60.4129 9.53970  -2
  -5  -7   8 60.4129 9.53970   1
  -4  -7   7 255.164 10.9503  -2
  -4  -7   8 255.164 10.9503   1
  -3  -7   7 978.534 34.2111  -2
  -3  -7   8 978.534 34.2111   1
  -2  -7   7 117.647 9.44548  -2
  -2  -7   8 117.647 9.44548   1
  -1  -7   8 316.310 8.72148   1
   0  -7   8 85.1791 4.01586   1
   1  -7   8 322.560 14.8502  -2
   1  -7   8 322.560 14.8502   1
   2  -7   8 381.495 16.8267  -2
   2  -7   8 381.495 16.8267   1
   3  -7   8 353.263 16.4486  -2
   3  -7   8 353.263 16.4486   1
   4  -7   8 522.782 16.0638  -2
   4  -7   8 522.782 16.0638   1
   5  -7   8 41.3315 8.51831  -2
   5  -7   8 41.3315 8.51831   1
   6  -7   8 130.676 14.7977  -2
   6  -7   8 130.676 14.7977   1
   7  -7   8 22.2384 4.80772   1
   8  -7   8 117.259 7.99945   1
   9  -7   9 26.9644 21.7867  -2
   9  -7   8 26.9644 21.7867   1
  10  -7   9 43.3590 14.1092  -2
  10  -7   8 43.3590 14.1092   1
  11  -7   8 23.8067 9.13260   1
 -12  -6   8 92.3341 14.8246   1
 -11  -6   6 7.21143 21.8574  -2
 -11  -6   8 7.21143 21.8574   1
 -10  -6   6 218.596 22.4572  -2
 -10  -6   8 218.596 22.4572   1
  -9  -6   6 30.6626 17.4542  -2
  -9  -6   8 30.6626 17.4542   1
  -8  -6   6 282.393 21.2208  -2
  -8  -6   8 282.393 21.2208   1
  -7  -6   8 85.7369 8.88142   1
  -6  -6   8 188.430 7.77074   1
  -5  -6   7 309.756 19.7236  -2
  -5  -6   8 309.756 19.7236   1
  -4  -6   8 158.473 6.94638   1
  -3  -6   8 1918.70 36.9732   1
  -2  -6   8 60.8386 4.71733   1
  -1  -6   8 196.353 6.47085   1
   0  -6   8 73.3787 3.71958   1
   1  -6   8 532.635 14.6542   1
   2  -6   8 81.2704 8.32252  -2
   2  -6   8 81.2704 8.32252   1
   3  -6   8 532.062 20.7295  -2
   3  -6   8 532.062 20.7295   1
   4  -6   8 472.760 19.9099  -2
   4  -6   8 472.760 19.9099   1
   5  -6   8 209.580 14.5663  -2
   5  -6   8 209.580 14.5663   1
   6  -6   8 96.9782 5.89581   1
   7  -6   8 4.66177 4.28352   1
   8  -6   8 243.983 9.62985   1
   9  -6   8 5.20998 5.42756   1
  10  -6   8 107.551 9.07559   1
  11  -6   8 2.54058 7.96514   1
  12  -6   8 85.7476 11.2761   1
 -12  -5   8 31.1009 12.1906   1
 -11  -5   6 3.22830 20.4223  -2
 -11  -5   8 3.22830 20.4223   1
 -10  -5   6 179.999 21.9067  -2
 -10  -5   8 179.999 21.9067   1
  -9  -5   8 22.0582 8.65829   1
  -8  -5   8 195.055 8.74180   1
  -7  -5   8 -1.9373 4.10897   1
  -6  -5   8 209.675 10.5942   1
  -5  -5   8 147.558 6.45687   1
  -4  -5   8 131.089 7.55454   1
  -3  -5   8 733.280 15.8077   1
  -2  -5   8 217.414 8.31540   1
  -1  -5   8 362.605 7.96630   1
   0  -5   8 1.44280 1.83518   1
   1  -5   8 871.796 16.6324   1
   2  -5   8 6.03825 2.33103   1
   3  -5   8 541.786 20.7147  -2
   3  -5   8 541.786 20.7147   1
   4  -5   8 17.9447 3.54926   1
   5  -5   8 249.011 9.38203   1
   6  -5   8 103.495 6.02856   1
   7  -5   8 95.8960 6.46392   1
   8  -5   8 200.939 10.8318   1
   9  -5   8 -4.0516 5.35507   1
  10  -5   8 116.824 11.6761   1
  11  -5   8 -2.2002 7.78373   1
  12  -5   8 101.255 11.2780   1
 -13  -4   8 40.6209 8.71414   1
 -12  -4   8 72.9859 8.90518   1
 -11  -4   8 -2.9827 6.25133   1
 -10  -4   8 95.4431 9.29868   1
  -9  -4   8 15.9530 5.66841   1
  -8  -4   8 171.923 8.30126   1
  -7  -4   8 8.71394 4.44431   1
  -6  -4   8 236.212 8.09888   1
  -5  -4   8 261.464 10.7456   1
  -4  -4   8 107.143 5.15229   1
  -3  -4   8 302.443 8.07857   1
  -2  -4   8 140.111 4.81535   1
  -1  -4   8 289.811 8.15314   1
   0  -4   8 108.617 3.80809   1
   1  -4   8 669.890 12.8000   1
   2  -4   8 41.6608 3.02619   1
   3  -4   8 579.518 16.8549   1
   4  -4   8 59.4540 4.69469   1
   5  -4   8 298.832 8.97451   1
   6  -4   8 195.865 9.07016   1
   7  -4   8 85.6743 6.20970   1
   8  -4   8 197.529 8.58150   1
   9  -4   8 4.30660 5.34462   1
  10  -4   8 145.884 11.2976   1
  11  -4   8 5.97955 7.57890   1
  12  -4   8 78.4794 10.5049   1
 -13  -4   6 63.0105 20.9102  -2
 -13  -3   8 63.0105 20.9102   1
 -12  -3   8 54.7405 9.06297   1
 -11  -3   8 27.3264 7.75055   1
 -10  -3   8 85.8482 8.42829   1
  -9  -3   8 33.0671 7.00038   1
  -8  -3   8 273.296 11.0913   1
  -7  -3   8 4.89865 4.06596   1
  -6  -3   8 438.826 11.2805   1
  -5  -3   8 1.68165 4.72588   1
  -4  -3   8 731.757 15.6989   1
  -3  -3   8 25.0858 3.31940   1
  -2  -3   8 285.643 6.78655   1
  -1  -3   8 788.184 17.8062   1
   0  -3   8 426.108 8.74693   1
   1  -3   8 520.907 10.4823   1
   2  -3   8 17.5369 4.34943   1
   3  -3   8 434.263 10.3903   1
   4  -3   8 -2.4992 3.34303   1
   5  -3   8 461.519 11.8783   1
   6  -3   8 48.3449 5.87214   1
   7  -3   8 180.244 7.59795   1
   8  -3   8 103.192 7.17048   1
   9  -3   8 99.5294 9.61380   1
  10  -3   8 143.374 10.8531   1
  11  -3   8 6.10684 7.39099   1
  12  -3   8 120.851 11.2078   1
 -13  -3   6 75.0282 20.9181  -2
 -13  -2   8 75.0282 20.9181   1
 -12  -2   8 16.2460 8.14221   1
 -11  -2   8 82.9201 9.19515   1
 -10  -2   8 36.3225 7.44633   1
  -9  -2   8 102.349 9.27191   1
  -8  -2   8 249.110 9.22354   1
  -7  -2   8 4.21175 3.92353   1
  -6  -2   8 180.691 12.5861   1
  -5  -2   8 -2.2488 2.73777   1
  -4  -2   8 446.562 10.6136   1
  -3  -2   8 64.2809 3.50854   1
  -2  -2   8 589.945 11.7964   1
  -1  -2   8 53.5240 2.81508   1
   0  -2   8 166.519 5.25057   1
   1  -2   8 57.5954 2.97090   1
   2  -2   8 55.5166 3.57032   1
   3  -2   8 565.132 12.5694   1
   4  -2   8 58.6179 4.53096   1
   5  -2   8 536.892 12.9006   1
   6  -2   8 -0.5452 3.57538   1
   7  -2   8 243.354 10.4004   1
   8  -2   8 76.0758 6.21351   1
   9  -2   8 128.587 13.3324   1
  10  -2   8 52.0862 7.43750   1
  11  -2   8 11.3689 7.63445   1
  12  -2   8 66.3293 9.20220   1
 -13  -2   6 69.0266 20.7337  -2
 -13  -1   8 69.0266 20.7337   1
 -12  -1   8 9.39292 7.80317   1
 -11  -1   8 160.725 11.6988   1
 -10  -1   8 -4.6424 5.95273   1
  -9  -1   8 84.1365 8.23809   1
  -8  -1   8 208.463 8.75351   1
  -7  -1   8 121.311 6.65055   1
  -6  -1   8 180.696 6.94612   1
  -5  -1   8 40.2484 3.96160   1
  -4  -1   8 429.014 10.2545   1
  -3  -1   8 89.3246 3.92489   1
  -2  -1   8 1184.10 28.7998   1
  -1  -1   8 113.030 3.30536   1
   0  -1   8 435.274 8.58478   1
   1  -1   8 118.042 3.86000   1
   2  -1   8 381.838 8.22754   1
   3  -1   8 456.224 10.7178   1
   4  -1   8 90.9870 4.95809   1
   5  -1   8 398.891 10.4116   1
   6  -1   8 23.4879 4.27014   1
   7  -1   8 232.742 10.0003   1
   8  -1   8 16.7811 5.61500   1
   9  -1   8 122.915 9.59173   1
  10  -1   8 45.2254 7.74483   1
  11  -1   8 63.2633 8.79397   1
  12  -1   8 2.77462 7.39596   1
 -13   0   8 46.6566 9.39534   1
 -12   0   8 -4.1816 7.57711   1
 -11   0   8 133.210 11.2056   1
 -10   0   8 3.82422 5.78303   1
  -9   0   8 108.200 8.13370   1
  -8   0   8 106.938 7.42212   1
  -7   0   8 238.210 8.58346   1
  -6   0   8 123.389 6.25381   1
  -5   0   8 176.514 6.36313   1
  -4   0   8 677.781 14.6250   1
  -3   0   8 154.090 5.26815   1
  -2   0   8 702.720 16.1906   1
  -1   0   8 73.2215 4.74812   1
   0   0   8 544.258 10.1107   1
   1   0   8 41.7319 2.73270   1
   2   0   8 570.098 12.6249   1
   3   0   8 188.185 6.11467   1
   4   0   8 204.122 6.74296   1
   5   0   8 319.036 9.17870   1
   6   0   8 -3.9826 3.90556   1
   7   0   8 245.920 10.5205   1
   8   0   8 9.70625 5.45647   1
   9   0   8 93.4506 8.74750   1
  10   0   8 13.1071 6.47632   1
  11   0   8 48.9169 7.85365   1
  12   0   8 7.75093 7.19690   1
 -13   1   8 55.7301 10.1387   1
 -12   1   8 -6.7719 7.73266   1
 -11   1   8 71.2387 8.72875   1
 -10   1   8 5.57814 5.90671   1
  -9   1   8 154.301 11.0369   1
  -8   1   8 52.7726 5.97812   1
  -7   1   8 295.958 9.61693   1
  -6   1   8 189.375 7.32564   1
  -5   1   8 324.214 9.00315   1
  -4   1   8 511.391 11.7644   1
  -3   1   8 131.760 4.57789   1
  -2   1   8 505.525 11.9938   1
  -1   1   8 3.53706 3.38439   1
   0   1   8 598.168 11.6764   1
   1   1   8 9.97507 1.95915   1
   2   1   8 442.525 10.1900   1
   3   1   8 258.920 7.48274   1
   4   1   8 514.828 12.1312   1
   5   1   8 270.563 8.48781   1
   6   1   8 6.42315 3.77157   1
   7   1   8 331.857 11.1226   1
   8   1   8 31.1544 6.27997   1
   9   1   8 154.478 10.0594   1
  10   1   8 -2.2086 5.85749   1
  10   1  10 89.6067 14.0612  -2
  11   1   8 89.6067 14.0612   1
  11   1  10 43.0561 16.5690  -2
  12   1   8 43.0561 16.5690   1
 -13   2   8 71.2817 16.7568   1
 -12   2   8 21.3429 8.83588   1
 -11   2   8 97.8707 9.15120   1
 -10   2   8 5.96028 5.86480   1
  -9   2   8 81.9340 8.77940   1
  -8   2   8 6.59905 4.82843   1
  -7   2   8 302.879 9.79137   1
  -6   2   8 69.3938 5.55222   1
  -5   2   8 400.824 10.4181   1
  -4   2   8 224.006 6.84075   1
  -3   2   8 147.144 4.50556   1
  -2   2   8 408.487 12.6159   1
  -1   2   8 30.1956 1.95172   1
   0   2   8 944.463 18.6628   1
   1   2   8 -3.9065 1.89539   1
   2   2   8 606.470 13.2392   1
   3   2   8 379.315 9.67139   1
   4   2   8 466.154 11.3894   1
   5   2   8 142.443 6.42793   1
   6   2   8 142.981 6.98752   1
   7   2   8 172.598 9.16933   1
   8   2   8 61.6505 11.6432   1
   9   2   8 143.621 9.81846   1
   9   2  10 9.22826 12.5949  -2
  10   2   8 9.22826 12.5949   1
  10   2  10 39.4643 13.7232  -2
  11   2   8 39.4643 13.7232   1
 -12   3   8 47.5204 10.4818   1
 -11   3   8 47.0527 8.94640   1
 -10   3   8 21.1458 7.00507   1
  -9   3   8 141.392 9.42980   1
  -8   3   8 28.6438 5.72146   1
  -7   3   8 357.969 10.9310   1
  -6   3   8 9.26732 4.00345   1
  -5   3   8 201.735 7.29311   1
  -4   3   8 190.798 7.18806   1
  -3   3   8 263.775 6.93807   1
  -2   3   8 162.113 4.84425   1
  -1   3   8 50.5033 2.97148   1
   0   3   8 434.772 13.2773   1
   1   3   8 143.744 5.08178   1
   2   3   8 883.899 18.4878   1
   3   3   8 80.6367 4.89296   1
   4   3   8 796.898 17.3234   1
   5   3   8 58.3581 5.26319   1
   6   3   8 230.374 9.81388   1
   7   3   8 114.128 11.0645   1
   8   3   8 114.644 9.19309   1
   9   3   8 81.2358 8.19640   1
   9   3  10 28.1732 12.2628  -2
  10   3   8 28.1732 12.2628   1
  10   3  10 86.1576 13.6962  -2
  11   3   8 86.1576 13.6962   1
 -12   4   8 26.9155 9.18797   1
 -11   4   8 50.9498 9.05087   1
 -10   4   8 48.0187 8.53503   1
  -9   4   8 63.8741 7.18892   1
  -8   4   8 3.41868 4.94873   1
  -7   4   8 177.013 8.50513   1
  -6   4   8 28.6742 4.73742   1
  -5   4   8 165.578 8.51905   1
  -4   4   8 0.20199 2.68575   1
  -3   4   8 432.275 10.2469   1
  -2   4   8 145.459 5.05806   1
  -1   4   8 276.840 7.28760   1
   0   4   8 156.517 5.51803   1
   1   4   8 86.8585 6.36925   1
   2   4   8 507.828 11.9482   1
   3   4   8 43.3126 4.33260   1
   4   4   8 441.315 11.6552   1
   5   4   8 2.25651 3.62013   1
   6   4   8 116.344 7.02747   1
   7   4   8 42.9089 6.11257   1
   8   4   8 97.6733 8.85453   1
   8   4  10 56.6554 20.6540  -2
   9   4   8 56.6554 20.6540   1
   9   4  10 112.716 13.2146  -2
  10   4   8 112.716 13.2146   1
  10   4  10 76.1033 13.6167  -2
  11   4   8 76.1033 13.6167   1
 -12   5   8 42.6933 10.5053   1
 -11   5   8 36.9026 8.88775   1
 -10   5   8 64.8278 8.63649   1
  -9   5   8 54.1555 7.53388   1
  -8   5   8 60.7815 7.07834   1
  -7   5   8 134.676 9.40044   1
  -6   5   8 -0.4408 6.66171   1
  -5   5   8 144.007 6.34487   1
  -4   5   8 4.67419 3.09089   1
  -3   5   8 273.644 7.79025   1
  -2   5   8 122.236 5.21353   1
  -1   5   8 559.020 12.6456   1
   0   5   8 106.868 5.24039   1
   1   5   8 151.882 6.08202   1
   2   5   8 257.652 10.7971   1
   3   5   8 123.545 6.12953   1
   4   5   8 211.697 7.96058   1
   5   5   8 -0.5354 3.77445   1
   6   5   8 152.346 8.03295   1
   7   5   8 4.22217 7.82880   1
   8   5   8 79.9503 8.17167   1
   8   5  10 35.6069 20.7603  -2
   9   5   8 35.6069 20.7603   1
   9   5  10 84.0676 12.9952  -2
  10   5   8 84.0676 12.9952   1
 -11   6   8 -3.6713 9.06929   1
 -10   6   8 30.3342 8.62984   1
  -9   6   8 21.7614 7.35813   1
  -8   6   8 65.7277 8.43643   1
  -7   6   8 84.8402 7.16316   1
  -6   6   8 42.2780 5.21423   1
  -5   6   8 172.607 7.14585   1
  -4   6   8 40.9339 4.34580   1
  -3   6   8 236.102 7.70020   1
  -2   6   8 35.5998 5.26950   1
  -1   6   8 276.708 8.09232   1
   0   6   8 33.3267 3.88072   1
   1   6   8 41.4606 4.30946   1
   2   6   8 235.039 10.5743   1
   3   6   8 109.026 6.35072   1
   4   6   8 121.470 6.88486   1
   4   6   9 45.5348 17.9582  -2
   5   6   8 45.5348 17.9582   1
   6   6   8 97.5864 7.93659   1
   7   6   8 -2.9183 4.84561   1
   8   6   8 227.835 17.5977   1
   8   6  10 61.7797 22.4128  -2
   9   6   8 61.7797 22.4128   1
   9   6  10 92.2425 21.8838  -2
  10   6   8 92.2425 21.8838   1
 -11   7   8 -7.6810 13.5260   1
 -10   7   8 40.5957 10.9970   1
  -9   7   8 38.6389 9.34859   1
  -8   7   8 100.688 10.5310   1
  -7   7   8 63.7164 6.24669   1
  -6   7   8 129.822 9.84564   1
  -5   7   8 159.573 7.42565   1
  -4   7   8 28.3690 5.47669   1
  -3   7   8 363.502 10.0937   1
  -2   7   8 14.1029 3.46009   1
  -1   7   8 294.113 9.41878   1
   0   7   8 6.18251 3.36053   1
   1   7   8 200.707 7.79215   1
   2   7   8 121.732 6.81398   1
   3   7   8 256.897 12.0395   1
   3   7   9 234.063 23.9644  -2
   4   7   8 234.063 23.9644   1
   4   7   9 136.268 23.5797  -2
   5   7   8 136.268 23.5797   1
   6   7   8 175.318 10.5143   1
   7   7   8 1.64896 5.45126   1
   8   7   8 138.931 15.1379   1
   8   7  10 21.4323 21.0445  -2
   9   7   8 21.4323 21.0445   1
 -10   8   8 47.0980 9.60437   1
  -9   8   8 3.80530 6.63711   1
  -8   8   8 107.793 8.49227   1
  -7   8   8 15.3856 5.60842   1
  -6   8   8 95.1921 7.54562   1
  -5   8   8 68.7585 6.16096   1
  -4   8   8 121.311 7.13354   1
  -3   8   8 407.945 11.3738   1
  -2   8   8 129.844 6.79522   1
  -1   8   8 117.936 6.62586   1
   0   8   8 1.33233 3.86063   1
   1   8   8 276.245 9.53814   1
   2   8   8 53.2838 5.51609   1
   3   8   8 314.388 13.7590   1
   3   8   9 112.493 24.1860  -2
   4   8   8 112.493 24.1860   1
   4   8   9 150.223 27.2588  -2
   5   8   8 150.223 27.2588   1
   6   8   8 127.828 9.75072   1
   7   8   8 37.1332 7.09951   1
   8   8   8 67.5769 8.47197   1
   9   8   8 5.98076 6.89071   1
 -10   9   8 16.7955 9.43814   1
  -9   9   8 12.6064 8.82220   1
  -8   9   8 109.037 10.8779   1
  -7   9   8 -7.1825 7.55164   1
  -6   9   8 101.578 7.90744   1
  -5   9   8 53.8599 6.26510   1
  -4   9   8 84.3060 6.63238   1
  -3   9   8 140.472 7.63953   1
  -2   9   8 29.5813 5.08567   1
  -1   9   8 197.957 9.52976   1
   0   9   8 31.4486 5.36647   1
   1   9   8 230.688 9.48591   1
   2   9   8 -2.9957 4.55434   1
   3   9   8 188.233 12.3527   1
   4   9   8 30.0388 7.79636   1
   5   9   8 87.8096 8.23133   1
   6   9   8 54.4766 10.5253   1
   7   9   8 84.9153 9.43708   1
   8   9   8 81.8035 9.37291   1
  -9  10   8 23.9955 9.98891   1
  -8  10   8 70.8718 10.1380   1
  -7  10   8 -8.9516 7.23037   1
  -6  10   8 130.505 11.0029   1
  -5  10   8 32.1006 6.33149   1
  -4  10   8 112.466 7.98255   1
  -3  10   8 11.0774 5.23054   1
  -2  10   8 24.5963 5.52323   1
  -1  10   8 92.4389 7.33559   1
   0  10   8 42.3507 6.37864   1
   1  10   8 137.005 9.25458   1
   2  10   8 13.2721 5.86414   1
   3  10   8 163.607 12.1270   1
   3  10   9 5.83160 31.9927  -2
   4  10   8 5.83160 31.9927   1
   5  10   8 124.700 10.6011   1
   6  10   8 26.0504 7.31773   1
   7  10   8 65.8154 8.86086   1
  -8  11   8 18.3907 13.2043   1
  -7  11   8 -13.588 11.7260   1
  -6  11   8 84.9939 10.1346   1
  -5  11   8 -3.0780 8.02936   1
  -4  11   8 59.6234 7.51400   1
  -3  11   8 8.78898 6.14323   1
  -2  11   8 111.119 8.41500   1
  -1  11   8 35.7517 6.45897   1
   0  11   8 63.5347 7.46262   1
   1  11   8 86.2536 8.33781   1
   2  11   8 8.70233 6.38976   1
   3  11   8 127.501 12.5546   1
   4  11   8 -7.7365 6.35015   1
   5  11   8 166.706 11.9339   1
   6  11   8 13.1165 7.60413   1
  -6  12   8 54.3337 14.1930   1
  -5  12   8 -0.8915 11.8364   1
  -4  12   8 34.2797 8.90043   1
  -3  12   8 -3.5818 6.89171   1
  -2  12   8 88.8258 8.56788   1
  -1  12   8 18.0932 7.51863   1
   0  12   8 87.0410 8.63873   1
   1  12   8 38.3859 7.56728   1
   2  12   8 41.0050 7.90449   1
   3  12   8 84.8523 12.1559   1
   4  12   8 24.4615 7.91239   1
  -4  13   8 66.4846 15.8757   1
  -3  13   8 1.52276 12.1090   1
  -2  13   8 55.1019 11.0336   1
  -1  13   8 2.12002 7.48586   1
   0  13   8 28.8089 8.18254   1
   1  13   8 13.3336 7.82726   1
   2  13   8 69.2336 9.45747   1
  -2 -17   8 17.7293 12.3560  -2
  -2 -17   9 17.7293 12.3560   1
  -1 -17   8 4.06726 14.0716  -2
  -1 -17   9 4.06726 14.0716   1
   0 -17   8 25.9881 11.6348  -2
   0 -17   9 25.9881 11.6348   1
   1 -17   8 37.1807 10.7925  -2
   1 -17   9 37.1807 10.7925   1
   2 -17   8 24.7830 11.0184  -2
   2 -17   9 24.7830 11.0184   1
   3 -17   8 7.06071 14.2470  -2
   3 -17   9 7.06071 14.2470   1
  -5 -16   7 105.891 14.9347  -2
  -5 -16   9 105.891 14.9347   1
  -4 -16   7 -17.792 15.1794  -2
  -4 -16   9 -17.792 15.1794   1
  -3 -16   9 24.3755 8.93424   1
  -2 -16   8 46.6570 11.9651  -2
  -2 -16   9 46.6570 11.9651   1
  -1 -16   8 4.06885 10.2359  -2
  -1 -16   9 4.06885 10.2359   1
   0 -16   8 32.6301 10.1733  -2
   0 -16   9 32.6301 10.1733   1
   1 -16   8 38.9672 10.1309  -2
   1 -16   9 38.9672 10.1309   1
   2 -16   8 31.7671 15.1960  -2
   2 -16   9 31.7671 15.1960   1
   3 -16   8 10.1592 14.5036  -2
   3 -16   9 10.1592 14.5036   1
   4 -16   9 27.8114 16.2212  -2
   4 -16   9 27.8114 16.2212   1
   5 -16   9 3.91207 8.62205  -2
   5 -16   9 3.91207 8.62205   1
  -6 -15   7 6.41083 15.3014  -2
  -6 -15   9 6.41083 15.3014   1
  -5 -15   7 115.301 14.5361  -2
  -5 -15   9 115.301 14.5361   1
  -4 -15   7 13.6413 15.0011  -2
  -4 -15   9 13.6413 15.0011   1
  -3 -15   8 18.5106 12.2506  -2
  -3 -15   9 18.5106 12.2506   1
  -2 -15   8 41.7496 10.6070  -2
  -2 -15   9 41.7496 10.6070   1
  -1 -15   8 87.8021 10.9758  -2
  -1 -15   9 87.8021 10.9758   1
   0 -15   8 49.9983 9.49227  -2
   0 -15   9 49.9983 9.49227   1
   1 -15   8 20.6145 9.78707  -2
   1 -15   9 20.6145 9.78707   1
   2 -15   8 104.252 16.0008  -2
   2 -15   9 104.252 16.0008   1
   3 -15   8 42.6188 15.2571  -2
   3 -15   9 42.6188 15.2571   1
   4 -15   9 62.0971 8.97145  -2
   4 -15   9 62.0971 8.97145   1
   5 -15   9 -9.0621 6.69077  -2
   5 -15   9 -9.0621 6.69077   1
   6 -15   9 57.1662 8.51944  -2
   6 -15   9 57.1662 8.51944   1
  -7 -14   7 103.141 15.7176  -2
  -7 -14   9 103.141 15.7176   1
  -6 -14   7 61.3820 17.0357  -2
  -6 -14   9 61.3820 17.0357   1
  -5 -14   7 156.881 17.8978  -2
  -5 -14   9 156.881 17.8978   1
  -4 -14   7 29.1220 14.7769  -2
  -4 -14   9 29.1220 14.7769   1
  -3 -14   8 96.1909 12.0524  -2
  -3 -14   9 96.1909 12.0524   1
  -2 -14   8 49.0911 9.60958  -2
  -2 -14   9 49.0911 9.60958   1
  -1 -14   8 127.686 10.4112  -2
  -1 -14   9 127.686 10.4112   1
   0 -14   8 84.3843 9.45747  -2
   0 -14   9 84.3843 9.45747   1
   1 -14   8 56.2133 12.8855  -2
   1 -14   9 56.2133 12.8855   1
   2 -14   8 66.4375 14.5707  -2
   2 -14   9 66.4375 14.5707   1
   3 -14   9 75.7239 15.8705  -2
   3 -14   9 75.7239 15.8705   1
   4 -14   9 53.6865 9.01520  -2
   4 -14   9 53.6865 9.01520   1
   5 -14   9 -4.6038 6.60730  -2
   5 -14   9 -4.6038 6.60730   1
   6 -14   9 54.6398 9.74823  -2
   6 -14   9 54.6398 9.74823   1
   7 -14   9 6.83946 9.13377  -2
   7 -14   9 6.83946 9.13377   1
  -8 -13   7 90.0751 15.3539  -2
  -8 -13   9 90.0751 15.3539   1
  -7 -13   7 54.3130 14.3121  -2
  -7 -13   9 54.3130 14.3121   1
  -6 -13   7 8.15501 15.7921  -2
  -6 -13   9 8.15501 15.7921   1
  -5 -13   7 151.544 14.1373  -2
  -5 -13   9 151.544 14.1373   1
  -4 -13   8 48.0377 17.6985  -2
  -4 -13   9 48.0377 17.6985   1
  -3 -13   8 165.995 16.4616  -2
  -3 -13   9 165.995 16.4616   1
  -2 -13   8 61.3410 11.7433  -2
  -2 -13   9 61.3410 11.7433   1
  -1 -13   8 186.546 14.3749  -2
  -1 -13   9 186.546 14.3749   1
   0 -13   8 55.9884 9.02434  -2
   0 -13   9 55.9884 9.02434   1
   1 -13   8 119.284 14.7093  -2
   1 -13   9 119.284 14.7093   1
   2 -13   8 109.027 15.2771  -2
   2 -13   9 109.027 15.2771   1
   3 -13   9 182.415 12.2019  -2
   3 -13   9 182.415 12.2019   1
   4 -13   9 85.5497 10.0643  -2
   4 -13   9 85.5497 10.0643   1
   5 -13   9 45.3613 8.60573  -2
   5 -13   9 45.3613 8.60573   1
   6 -13   9 98.0288 10.0489  -2
   6 -13   9 98.0288 10.0489   1
   7 -13   9 15.6057 9.40075  -2
   7 -13   9 15.6057 9.40075   1
   8 -13   9 125.625 12.2262  -2
   8 -13   9 125.625 12.2262   1
  -9 -12   7 17.9093 19.3375  -2
  -9 -12   9 17.9093 19.3375   1
  -8 -12   7 83.6443 17.0884  -2
  -8 -12   9 83.6443 17.0884   1
  -7 -12   7 52.0800 13.7326  -2
  -7 -12   9 52.0800 13.7326   1
  -6 -12   7 33.6483 10.5182  -2
  -6 -12   9 33.6483 10.5182   1
  -5 -12   8 115.452 18.9654  -2
  -5 -12   9 115.452 18.9654   1
  -4 -12   8 117.233 10.9612  -2
  -4 -12   9 117.233 10.9612   1
  -3 -12   8 119.953 14.6462  -2
  -3 -12   9 119.953 14.6462   1
  -2 -12   8 83.0584 13.5603  -2
  -2 -12   9 83.0584 13.5603   1
  -1 -12   8 82.0364 13.2355  -2
  -1 -12   9 82.0364 13.2355   1
   0 -12   8 112.914 9.49747  -2
   0 -12   9 112.914 9.49747   1
   3 -12   9 209.194 12.0496  -2
   3 -12   9 209.194 12.0496   1
   4 -12   9 50.3908 8.33234  -2
   4 -12   9 50.3908 8.33234   1
   5 -12   9 49.2783 9.28428  -2
   5 -12   9 49.2783 9.28428   1
   6 -12   9 106.731 11.1324  -2
   6 -12   9 106.731 11.1324   1
   7 -12   9 -13.111 9.31019  -2
   7 -12   9 -13.111 9.31019   1
   8 -12   9 47.6479 12.5858  -2
   8 -12   9 47.6479 12.5858   1
   9 -12  10 40.1220 17.5592  -2
   9 -12   9 40.1220 17.5592   1
 -10 -11   7 131.927 27.5860  -2
 -10 -11   9 131.927 27.5860   1
  -9 -11   7 -4.6496 23.1968  -2
  -9 -11   9 -4.6496 23.1968   1
  -8 -11   7 132.126 13.8122  -2
  -8 -11   9 132.126 13.8122   1
  -7 -11   7 9.37870 12.1095  -2
  -7 -11   9 9.37870 12.1095   1
  -6 -11   7 184.676 13.9744  -2
  -6 -11   9 184.676 13.9744   1
  -5 -11   8 87.3750 15.3877  -2
  -5 -11   9 87.3750 15.3877   1
  -4 -11   8 198.019 10.0564  -2
  -4 -11   9 198.019 10.0564   1
  -3 -11   8 173.114 10.3488  -2
  -3 -11   9 173.114 10.3488   1
  -2 -11   8 234.863 11.0446  -2
  -2 -11   9 234.863 11.0446   1
  -1 -11   8 229.420 11.1818  -2
  -1 -11   9 229.420 11.1818   1
   0 -11   8 28.6670 10.2524  -2
   0 -11   9 28.6670 10.2524   1
   1 -11   9 182.279 17.0210  -2
   1 -11   9 182.279 17.0210   1
   1 -11   8 125.371 14.6154  -2
   1 -11   9 125.371 14.6154   1
   2 -11   9 18.5050 8.86507  -2
   2 -11   9 18.5050 8.86507   1
   3 -11   9 289.512 13.0135  -2
   3 -11   9 289.512 13.0135   1
   5 -11   9 48.5091 9.87590  -2
   5 -11   9 48.5091 9.87590   1
   6 -11   9 95.7278 11.5444  -2
   6 -11   9 95.7278 11.5444   1
   7 -11   9 19.7429 12.0167  -2
   7 -11   9 19.7429 12.0167   1
   8 -11   9 50.0041 22.3273  -2
   8 -11   9 50.0041 22.3273   1
   9 -11  10 46.6109 14.8044  -2
   9 -11   9 46.6109 14.8044   1
  10 -11   9 90.3859 11.2690   1
 -11 -10   9 10.0111 10.8049   1
 -10 -10   7 75.4875 23.9538  -2
 -10 -10   9 75.4875 23.9538   1
  -9 -10   7 34.5569 22.0433  -2
  -9 -10   9 34.5569 22.0433   1
  -8 -10   7 137.460 20.8459  -2
  -8 -10   9 137.460 20.8459   1
  -7 -10   7 25.4583 10.2492  -2
  -7 -10   9 25.4583 10.2492   1
  -6 -10   7 256.275 20.9506  -2
  -6 -10   9 256.275 20.9506   1
  -6 -10   8 254.918 18.4444  -2
  -6 -10   9 254.918 18.4444   1
  -5 -10   8 27.1155 19.9292  -2
  -5 -10   9 27.1155 19.9292   1
  -4 -10   8 161.482 11.8556  -2
  -4 -10   9 161.482 11.8556   1
  -3 -10   8 164.188 13.0159  -2
  -3 -10   9 164.188 13.0159   1
  -2 -10   8 145.014 12.7975  -2
  -2 -10   9 145.014 12.7975   1
  -1 -10   8 324.694 12.6272  -2
  -1 -10   9 324.694 12.6272   1
   0 -10   8 194.697 14.1593  -2
   0 -10   9 194.697 14.1593   1
   1 -10   9 23.3030 11.0536  -2
   1 -10   9 23.3030 11.0536   1
   2 -10   9 12.9314 8.17904  -2
   2 -10   9 12.9314 8.17904   1
   3 -10   9 179.205 13.1232  -2
   3 -10   9 179.205 13.1232   1
   4 -10   9 1.52822 12.3258  -2
   4 -10   9 1.52822 12.3258   1
   5 -10   9 141.260 17.4388  -2
   5 -10   9 141.260 17.4388   1
   6 -10   9 51.8499 14.3446  -2
   6 -10   9 51.8499 14.3446   1
   7 -10   9 148.835 13.7005  -2
   7 -10   9 148.835 13.7005   1
   8 -10  10 46.4182 18.0202  -2
   8 -10   9 46.4182 18.0202   1
   9 -10  10 25.5793 14.3626  -2
   9 -10   9 25.5793 14.3626   1
  10 -10  10 105.869 15.8090  -2
  10 -10   9 105.869 15.8090   1
 -11  -9   7 46.7674 24.4749  -2
 -11  -9   9 46.7674 24.4749   1
 -10  -9   7 59.5091 21.9758  -2
 -10  -9   9 59.5091 21.9758   1
  -9  -9   7 49.2414 20.9899  -2
  -9  -9   9 49.2414 20.9899   1
  -8  -9   7 183.986 21.0661  -2
  -8  -9   9 183.986 21.0661   1
  -7  -9   7 14.6577 17.7245  -2
  -7  -9   9 14.6577 17.7245   1
  -6  -9   9 172.956 9.85472   1
  -5  -9   9 -0.5724 4.38647   1
  -4  -9   8 75.9276 9.93645  -2
  -4  -9   9 75.9276 9.93645   1
  -3  -9   8 172.365 12.5185  -2
  -3  -9   9 172.365 12.5185   1
  -2  -9   8 103.676 11.9727  -2
  -2  -9   9 103.676 11.9727   1
  -1  -9   8 139.255 12.4064  -2
  -1  -9   9 139.255 12.4064   1
   0  -9   8 156.028 12.5348  -2
   0  -9   9 156.028 12.5348   1
   1  -9   9 408.626 18.9127  -2
   1  -9   9 408.626 18.9127   1
   2  -9   9 23.4698 10.5251  -2
   2  -9   9 23.4698 10.5251   1
   3  -9   9 496.327 15.7478  -2
   3  -9   9 496.327 15.7478   1
   4  -9   9 -15.048 10.5598  -2
   4  -9   9 -15.048 10.5598   1
   5  -9   9 69.6437 10.0172  -2
   5  -9   9 69.6437 10.0172   1
   6  -9   9 -5.6124 14.5737  -2
   6  -9   9 -5.6124 14.5737   1
   7  -9   9 222.423 18.7578  -2
   7  -9   9 222.423 18.7578   1
   8  -9   9 29.5575 7.99240   1
   9  -9  10 50.4578 24.9636  -2
   9  -9   9 50.4578 24.9636   1
  10  -9  10 21.7999 14.8273  -2
  10  -9   9 21.7999 14.8273   1
  11  -9   9 14.4291 10.8843   1
 -11  -8   9 70.3229 14.2434   1
 -10  -8   7 41.6213 22.3184  -2
 -10  -8   9 41.6213 22.3184   1
  -9  -8   7 36.1683 19.9670  -2
  -9  -8   9 36.1683 19.9670   1
  -7  -8   7 102.030 17.9872  -2
  -7  -8   9 102.030 17.9872   1
  -6  -8   9 174.875 8.65739   1
  -5  -8   9 -2.4723 4.13261   1
  -4  -8   9 323.893 15.5104   1
  -3  -8   8 203.526 13.2154  -2
  -3  -8   9 203.526 13.2154   1
  -2  -8   8 391.502 18.3796  -2
  -2  -8   9 391.502 18.3796   1
  -1  -8   9 70.4858 6.11319   1
   0  -8   9 113.553 4.91264   1
   1  -8   9 321.295 10.1850   1
   2  -8   9 147.084 12.7980  -2
   2  -8   9 147.084 12.7980   1
   3  -8   9 519.548 21.9554  -2
   3  -8   9 519.548 21.9554   1
   4  -8   9 8.60621 8.05770  -2
   4  -8   9 8.60621 8.05770   1
   5  -8   9 200.093 11.5694  -2
   5  -8   9 200.093 11.5694   1
   6  -8   9 -8.8199 12.8397  -2
   6  -8   9 -8.8199 12.8397   1
   7  -8   9 179.012 8.58457   1
   8  -8   9 31.1499 6.30687   1
   9  -8   9 84.9293 10.2247   1
  10  -8   9 9.37552 8.57968   1
  11  -8   9 0.12948 10.4243   1
 -12  -7   9 -3.1640 7.47503   1
 -11  -7   9 60.0545 12.9092   1
 -10  -7   7 37.9021 21.8443  -2
 -10  -7   9 37.9021 21.8443   1
  -9  -7   7 111.333 21.6381  -2
  -9  -7   9 111.333 21.6381   1
  -8  -7   9 137.304 10.8940   1
  -7  -7   9 97.1512 7.32560   1
  -6  -7   9 355.586 10.9920   1
  -5  -7   9 91.7893 6.34789   1
  -4  -7   9 585.270 14.2593   1
  -3  -7   9 23.3719 3.98796   1
  -2  -7   9 578.847 13.6760   1
  -1  -7   9 83.4128 6.42024   1
   0  -7   9 324.299 8.38993   1
   1  -7   9 172.370 5.65238   1
   2  -7   9 656.927 24.4934  -2
   2  -7   9 656.927 24.4934   1
   3  -7   9 204.598 13.3083  -2
   3  -7   9 204.598 13.3083   1
   4  -7   9 106.609 12.6715  -2
   4  -7   9 106.609 12.6715   1
   5  -7   9 364.697 19.0951  -2
   5  -7   9 364.697 19.0951   1
   6  -7   9 -5.0511 6.38010   1
   7  -7   9 233.692 9.66857   1
   8  -7   9 -1.4497 5.00432   1
   9  -7   9 78.4054 7.77677   1
  10  -7   9 20.3298 7.09119   1
  11  -7   9 69.8181 10.1640   1
 -12  -6   9 10.0039 7.43548   1
 -11  -6   9 62.0719 9.11606   1
 -10  -6   9 -0.7577 6.67659   1
  -9  -6   9 143.208 11.8339   1
  -8  -6   9 97.1632 7.48875   1
  -7  -6   9 243.821 12.3863   1
  -6  -6   9 99.3885 6.66267   1
  -5  -6   9 65.4930 5.25242   1
  -4  -6   9 290.736 8.83502   1
  -3  -6   9 122.398 6.16384   1
  -2  -6   9 638.263 14.4781   1
  -1  -6   9 10.8733 4.04740   1
   0  -6   9 419.321 9.99320   1
   1  -6   9 3.74432 2.34076   1
   2  -6   9 522.409 12.0274   1
   3  -6   9 39.3457 9.34185  -2
   3  -6   9 39.3457 9.34185   1
   4  -6   9 254.110 15.3978  -2
   4  -6   9 254.110 15.3978   1
   5  -6   9 508.864 22.1683  -2
   5  -6   9 508.864 22.1683   1
   6  -6   9 6.01909 3.89256   1
   7  -6   9 319.422 10.1991   1
   8  -6   9 7.46538 5.16838   1
   9  -6   9 99.3322 8.10374   1
  10  -6   9 14.4319 8.24184   1
  11  -6   9 47.0604 10.1220   1
 -12  -5   9 -7.4899 7.21948   1
 -11  -5   9 78.2088 9.25153   1
 -10  -5   9 -4.2017 6.22945   1
  -9  -5   9 172.579 10.3674   1
  -8  -5   9 4.04393 4.74711   1
  -7  -5   9 279.396 9.67953   1
  -6  -5   9 10.9912 6.00734   1
  -5  -5   9 103.654 5.97653   1
  -4  -5   9 155.435 6.31612   1
  -3  -5   9 104.285 5.98868   1
  -2  -5   9 151.353 5.92795   1
  -1  -5   9 6.51894 3.38397   1
   0  -5   9 463.090 10.6078   1
   1  -5   9 37.1345 3.19989   1
   2  -5   9 882.803 23.1004   1
   3  -5   9 143.360 7.86685   1
   4  -5   9 387.817 10.3815   1
   5  -5   9 167.953 7.30061   1
   6  -5   9 62.5163 6.30555   1
   7  -5   9 146.390 7.55799   1
   8  -5   9 8.07047 5.24366   1
   9  -5   9 183.786 9.64144   1
  10  -5   9 14.3537 8.12169   1
  11  -5   9 58.2195 9.31602   1
  12  -5   9 14.8741 16.0973   1
 -12  -4   9 22.3474 7.82475   1
 -11  -4   9 40.1692 7.76619   1
 -10  -4   9 1.32470 8.25458   1
  -9  -4   9 252.600 10.5492   1
  -8  -4   9 -4.2597 4.58066   1
  -7  -4   9 119.277 7.01432   1
  -6  -4   9 44.6812 4.97092   1
  -5  -4   9 255.923 8.34238   1
  -4  -4   9 108.732 5.35493   1
  -3  -4   9 141.384 6.05938   1
  -2  -4   9 150.423 5.80761   1
  -1  -4   9 47.0473 3.45785   1
   0  -4   9 458.230 9.70009   1
   1  -4   9 7.68180 6.39911   1
   2  -4   9 1047.26 21.1183   1
   3  -4   9 78.0071 6.48562   1
   4  -4   9 165.603 7.08110   1
   5  -4   9 104.885 6.30279   1
   6  -4   9 141.635 8.28452   1
   7  -4   9 100.866 6.74287   1
   8  -4   9 103.850 8.28323   1
   9  -4   9 85.2990 7.54187   1
  10  -4   9 17.0014 7.48336   1
  11  -4   9 63.8114 9.85029   1
  12  -4   9 10.9202 8.86985   1
 -13  -4   7 12.3536 19.4167  -2
 -13  -3   9 12.3536 19.4167   1
 -12  -3   9 50.4923 9.26118   1
 -11  -3   9 23.4475 7.30248   1
 -10  -3   9 34.8789 7.27590   1
  -9  -3   9 95.3689 8.00022   1
  -8  -3   9 -0.4883 4.51193   1
  -7  -3   9 121.110 7.09298   1
  -6  -3   9 47.8781 4.96716   1
  -5  -3   9 418.969 10.8340   1
  -4  -3   9 187.244 6.47226   1
  -3  -3   9 432.061 10.6798   1
  -2  -3   9 512.952 12.1430   1
  -1  -3   9 378.537 8.05300   1
   0  -3   9 692.359 13.7886   1
   1  -3   9 147.885 4.42238   1
   2  -3   9 827.846 19.9980   1
   3  -3   9 10.8113 3.06043   1
   4  -3   9 266.596 8.19811   1
   5  -3   9 5.57295 3.59190   1
   6  -3   9 87.1346 6.30955   1
   7  -3   9 119.318 8.60370   1
   8  -3   9 114.362 7.94016   1
   9  -3   9 131.319 13.8267   1
  10  -3   9 14.0847 7.33909   1
  11  -3   9 99.0067 9.74783   1
  11  -3  11 28.4830 27.3530  -2
  12  -3   9 28.4830 27.3530   1
 -13  -2   9 16.0846 12.0793   1
 -12  -2   9 49.7170 9.61564   1
 -11  -2   9 8.27479 7.26415   1
 -10  -2   9 96.5426 8.17912   1
  -9  -2   9 109.621 8.06130   1
  -8  -2   9 31.6559 5.57179   1
  -7  -2   9 230.569 8.66584   1
  -6  -2   9 6.71421 3.65377   1
  -5  -2   9 466.816 15.6091   1
  -4  -2   9 1.99732 2.80450   1
  -3  -2   9 559.850 16.9993   1
  -2  -2   9 30.5632 3.56329   1
  -1  -2   9 594.398 11.8667   1
   0  -2   9 668.205 12.4787   1
   1  -2   9 482.207 9.65993   1
   2  -2   9 178.247 5.81046   1
   3  -2   9 50.9293 4.09689   1
   4  -2   9 363.423 10.1162   1
   5  -2   9 4.87917 4.07443   1
   6  -2   9 171.592 7.75576   1
   7  -2   9 -0.8057 4.63196   1
   8  -2   9 325.078 10.6660   1
   9  -2   9 55.8617 7.31598   1
  10  -2   9 50.1096 7.84446   1
  11  -2   9 93.8443 10.5558   1
  12  -2   9 14.9681 8.34764   1
 -13  -2   7 4.49650 18.8579  -2
 -13  -1   9 4.49650 18.8579   1
 -12  -1   9 39.9965 9.20392   1
 -11  -1   9 11.3860 7.60526   1
 -10  -1   9 98.8525 8.42528   1
  -9  -1   9 128.838 8.43585   1
  -8  -1   9 158.320 8.17977   1
  -7  -1   9 268.248 9.21508   1
  -6  -1   9 70.6143 5.24703   1
  -5  -1   9 407.842 10.5251   1
  -4  -1   9 21.1524 3.18434   1
  -3  -1   9 790.049 16.4829   1
  -2  -1   9 89.4321 5.97105   1
  -1  -1   9 400.915 8.05634   1
   0  -1   9 6.66855 1.86445   1
   1  -1   9 8.15307 2.37603   1
   2  -1   9 109.749 4.67801   1
   3  -1   9 113.290 5.08652   1
   4  -1   9 286.041 8.37456   1
   5  -1   9 -3.5724 3.25657   1
   6  -1   9 207.996 8.10341   1
   7  -1   9 7.04614 4.43978   1
   8  -1   9 327.496 12.9324   1
   9  -1   9 38.2133 6.84482   1
  10  -1   9 63.1240 8.20408   1
  10  -1  11 -22.651 23.3370  -2
  11  -1   9 -22.651 23.3370   1
  11  -1  11 24.9033 24.7370  -2
  12  -1   9 24.9033 24.7370   1
 -13   0   9 -7.5589 8.57506   1
 -12   0   9 83.1381 10.5310   1
 -11   0   9 -3.0737 7.47325   1
 -10   0   9 134.962 9.34774   1
  -9   0   9 60.8685 6.98496   1
  -8   0   9 185.761 8.71538   1
  -7   0   9 288.930 9.58161   1
  -6   0   9 266.613 8.69415   1
  -5   0   9 320.813 9.00527   1
  -4   0   9 85.0992 4.40777   1
  -3   0   9 860.174 20.7290   1
  -2   0   9 15.1642 3.55511   1
  -1   0   9 1267.44 31.4633   1
   0   0   9 32.9988 2.57721   1
   1   0   9 454.845 10.4089   1
   2   0   9 489.910 11.1428   1
   3   0   9 369.176 9.39818   1
   4   0   9 274.135 8.20533   1
   5   0   9 27.5720 4.24048   1
   6   0   9 423.138 11.6144   1
   7   0   9 11.0981 4.51472   1
   8   0   9 199.041 11.1075   1
   9   0   9 16.2526 6.22144   1
   9   0  11 94.4938 22.1757  -2
  10   0   9 94.4938 22.1757   1
  10   0  11 -14.272 23.9174  -2
  11   0   9 -14.272 23.9174   1
 -12   1   9 28.9241 8.85799   1
 -11   1   9 11.8252 7.88498   1
 -10   1   9 71.0619 7.66904   1
  -9   1   9 0.12561 5.35831   1
  -8   1   9 286.640 10.2829   1
  -7   1   9 19.1815 5.44178   1
  -6   1   9 199.923 8.14092   1
  -5   1   9 265.628 8.05881   1
  -4   1   9 96.2650 4.50210   1
  -3   1   9 304.967 10.8877   1
  -2   1   9 43.7077 4.97024   1
  -1   1   9 351.879 11.4224   1
   0   1   9 29.5042 2.47267   1
   1   1   9 664.210 13.9556   1
   2   1   9 70.4149 4.74354   1
   3   1   9 533.538 12.4892   1
   4   1   9 102.103 5.55695   1
   5   1   9 208.629 7.72220   1
   6   1   9 383.369 11.1071   1
   7   1   9 45.8585 6.08323   1
   8   1   9 176.635 12.1590   1
   9   1   9 -5.6169 5.59141   1
   9   1  11 39.8678 22.3093  -2
  10   1   9 39.8678 22.3093   1
  10   1  11 5.85154 12.6365  -2
  11   1   9 5.85154 12.6365   1
 -12   2   9 42.1573 9.83174   1
 -11   2   9 14.3199 8.46680   1
 -10   2   9 115.234 9.19065   1
  -9   2   9 -5.1997 5.58348   1
  -8   2   9 284.124 10.5690   1
  -7   2   9 69.3758 8.92908   1
  -6   2   9 164.163 7.87176   1
  -5   2   9 185.791 7.02834   1
  -4   2   9 55.4251 4.12844   1
  -3   2   9 150.605 7.66548   1
  -2   2   9 7.38324 3.54551   1
  -1   2   9 400.930 12.6154   1
   0   2   9 12.5949 2.26858   1
   1   2   9 378.387 9.13208   1
   2   2   9 18.3414 3.07961   1
   3   2   9 581.290 13.2991   1
   4   2   9 376.737 11.8399   1
   5   2   9 233.631 8.18751   1
   6   2   9 147.492 7.44309   1
   7   2   9 108.100 11.2499   1
   8   2   9 154.043 9.87951   1
   9   2   9 22.6376 6.43038   1
   9   2  11 115.224 14.0765  -2
  10   2   9 115.224 14.0765   1
  10   2  11 6.11586 12.9723  -2
  11   2   9 6.11586 12.9723   1
 -12   3   9 26.1599 10.0568   1
 -11   3   9 31.8150 8.72151   1
 -10   3   9 104.151 9.17942   1
  -9   3   9 3.09952 5.90012   1
  -8   3   9 202.315 9.58632   1
  -7   3   9 69.3541 6.59124   1
  -6   3   9 191.421 7.89357   1
  -5   3   9 11.3185 3.70634   1
  -4   3   9 193.713 6.14498   1
  -3   3   9 134.129 4.53212   1
  -2   3   9 112.879 6.80258   1
  -1   3   9 561.585 12.0772   1
   0   3   9 259.413 6.99912   1
   1   3   9 343.731 8.66612   1
   2   3   9 108.815 5.29641   1
   3   3   9 638.151 18.7985   1
   4   3   9 382.590 10.4726   1
   5   3   9 269.284 10.3068   1
   6   3   9 72.9747 6.00150   1
   7   3   9 123.058 8.82856   1
   8   3   9 116.853 9.31566   1
   8   3  11 38.2820 20.4446  -2
   9   3   9 38.2820 20.4446   1
   9   3  11 145.115 13.9540  -2
  10   3   9 145.115 13.9540   1
  10   3  11 -12.236 12.5813  -2
  11   3   9 -12.236 12.5813   1
 -12   4   9 18.8871 9.62297   1
 -11   4   9 42.3997 8.96236   1
 -10   4   9 35.5435 7.69499   1
  -9   4   9 17.6031 7.71732   1
  -8   4   9 163.351 9.36410   1
  -7   4   9 -4.3992 4.65233   1
  -6   4   9 137.638 8.14852   1
  -5   4   9 3.58976 3.12688   1
  -4   4   9 214.795 6.80626   1
  -3   4   9 111.652 4.78626   1
  -2   4   9 412.902 9.78711   1
  -1   4   9 184.275 5.81169   1
   0   4   9 317.056 11.3499   1
   1   4   9 392.940 9.87862   1
   2   4   9 57.6048 4.52866   1
   3   4   9 412.702 10.8265   1
   4   4   9 8.82016 3.76043   1
   4   4  10 221.364 18.9523  -2
   5   4   9 221.364 18.9523   1
   6   4   9 -1.7899 4.36972   1
   7   4   9 124.342 8.71694   1
   8   4   9 103.911 9.33443   1
   8   4  11 117.045 17.4203  -2
   9   4   9 117.045 17.4203   1
   9   4  11 60.7993 13.0050  -2
  10   4   9 60.7993 13.0050   1
 -11   5   9 23.4818 9.43209   1
 -10   5   9 51.7992 9.37376   1
  -9   5   9 50.6448 7.87824   1
  -8   5   9 111.738 10.1633   1
  -7   5   9 20.4951 6.49295   1
  -6   5   9 221.728 8.30208   1
  -5   5   9 38.0337 5.60612   1
  -4   5   9 78.6410 5.08674   1
  -3   5   9 29.9469 3.67362   1
  -2   5   9 261.325 7.50092   1
  -1   5   9 38.0650 3.70946   1
   0   5   9 254.981 7.75098   1
   1   5   9 267.019 11.0671   1
   2   5   9 10.7154 3.50430   1
   3   5   9 253.646 8.48122   1
   4   5   9 63.6581 5.44490   1
   4   5  10 179.064 20.1690  -2
   5   5   9 179.064 20.1690   1
   6   5   9 -3.0750 7.01065   1
   7   5   9 170.862 10.1759   1
   8   5   9 33.5862 6.58964   1
   8   5  11 97.6601 22.2674  -2
   9   5   9 97.6601 22.2674   1
   9   5  11 23.7678 12.9858  -2
  10   5   9 23.7678 12.9858   1
 -11   6   9 41.4698 14.5749   1
 -10   6   9 35.7426 16.7295   1
  -9   6   9 69.9285 9.84185   1
  -8   6   9 72.4473 9.16405   1
  -7   6   9 53.1886 6.23935   1
  -6   6   9 164.340 8.44340   1
  -5   6   9 70.5735 5.60123   1
  -4   6   9 113.306 7.01675   1
  -3   6   9 -2.7637 3.10866   1
  -2   6   9 250.505 7.92934   1
  -1   6   9 20.8927 3.70022   1
   0   6   9 189.448 7.07323   1
   1   6   9 152.553 9.01576   1
   2   6   9 106.817 6.29250   1
   3   6   9 164.137 7.45450   1
   3   6  10 44.6253 19.7004  -2
   4   6   9 44.6253 19.7004   1
   4   6  10 314.731 26.6645  -2
   5   6   9 314.731 26.6645   1
   6   6   9 -5.0953 6.95706   1
   7   6   9 200.757 10.9097   1
   8   6   9 2.08843 5.74201   1
   9   6   9 40.5327 10.6682   1
 -10   7   9 6.69376 7.92166   1
  -9   7   9 63.7353 9.88097   1
  -8   7   9 29.0268 7.23256   1
  -7   7   9 33.4786 6.33893   1
  -6   7   9 73.6605 6.48585   1
  -5   7   9 30.3064 5.00209   1
  -4   7   9 212.444 8.38537   1
  -3   7   9 22.8915 4.18564   1
  -2   7   9 478.546 12.1592   1
  -1   7   9 24.1700 4.20141   1
   0   7   9 323.041 9.79510   1
   1   7   9 91.4485 6.09328   1
   2   7   9 212.982 10.9622   1
   3   7   9 151.360 7.65773   1
   3   7  10 90.6237 22.1451  -2
   4   7   9 90.6237 22.1451   1
   4   7  10 144.747 25.8617  -2
   5   7   9 144.747 25.8617   1
   6   7   9 14.0612 7.88422   1
   7   7   9 106.460 9.44058   1
   8   7   9 2.98111 6.22610   1
   8   7  11 117.833 21.6571  -2
   9   7   9 117.833 21.6571   1
 -10   8   9 -0.3639 8.53531   1
  -9   8   9 76.6658 9.98345   1
  -8   8   9 17.2627 7.70899   1
  -7   8   9 99.5354 9.99782   1
  -6   8   9 33.7219 7.38808   1
  -5   8   9 96.1193 7.14534   1
  -4   8   9 164.673 7.92108   1
  -3   8   9 12.6140 4.44679   1
  -2   8   9 408.187 13.1531   1
  -1   8   9 1.39665 4.09561   1
   0   8   9 308.616 10.1430   1
   1   8   9 5.09176 4.37079   1
   2   8   9 247.960 12.5418   1
   3   8   9 68.9668 6.64545   1
   3   8  10 192.753 27.7644  -2
   4   8   9 192.753 27.7644   1
   4   8  10 169.724 30.4670  -2
   5   8   9 169.724 30.4670   1
   6   8   9 115.051 9.83406   1
   7   8   9 73.6422 8.09195   1
   8   8   9 12.5666 6.72924   1
 -10   8   9 47.2430 27.4721  -2
  -9   9   9 47.2430 27.4721   1
  -8   9   9 25.2281 8.49191   1
  -7   9   9 65.8338 9.03115   1
  -6   9   9 12.0835 6.96863   1
  -5   9   9 84.7004 8.64344   1
  -4   9   9 75.7407 7.52437   1
  -3   9   9 96.1086 7.31391   1
  -2   9   9 121.946 7.73355   1
  -1   9   9 125.597 7.80960   1
   0   9   9 86.8191 7.04139   1
   1   9   9 -4.9745 7.51018   1
   2   9   9 162.883 11.7064   1
   3   9   9 -0.0558 6.55048   1
   3   9  10 153.380 29.5306  -2
   4   9   9 153.380 29.5306   1
   5   9   9 66.5431 8.58375   1
   6   9   9 61.9881 7.96890   1
   7   9   9 60.5408 8.48654   1
  -8  10   9 14.6472 8.21876   1
  -8   9   9 118.073 22.0024  -2
  -7  10   9 118.073 22.0024   1
  -6  10   9 -3.9118 7.02401   1
  -5  10   9 98.2208 10.1516   1
  -4  10   9 22.7022 9.27805   1
  -3  10   9 53.9905 8.11471   1
  -2  10   9 94.3830 7.81310   1
  -1  10   9 40.9166 8.47729   1
   0  10   9 103.341 7.87777   1
   1  10   9 6.87941 5.63627   1
   2  10   9 108.875 8.53650   1
   3  10   9 3.47024 8.01913   1
   4  10   9 146.307 10.2858   1
   5  10   9 10.6520 7.13249   1
   6  10   9 55.3030 8.61006   1
  -8  10   9 23.9140 24.1527  -2
  -7  11   9 23.9140 24.1527   1
  -7  10   9 45.1535 21.8454  -2
  -6  11   9 45.1535 21.8454   1
  -5  11   9 46.0800 9.05930   1
  -4  11   9 -11.547 7.28642   1
  -3  11   9 101.345 10.6888   1
  -2  11   9 -0.9503 7.46295   1
  -1  11   9 56.1388 7.49279   1
   0  11   9 75.7106 8.04352   1
   1  11   9 47.8681 7.43464   1
   2  11   9 116.669 9.45895   1
   3  11   9 6.22616 9.09719   1
   4  11   9 183.754 11.3435   1
   5  11   9 3.23635 7.50146   1
  -5  12   9 8.76514 9.42877   1
  -4  12   9 -2.2307 8.13983   1
  -3  12   9 40.8618 9.50732   1
  -2  12   9 0.78348 8.24304   1
  -1  12   9 31.8568 9.46476   1
   0  12   9 11.9209 7.59617   1
   1  12   9 63.7548 8.60317   1
   2  12   9 58.2200 10.9599   1
   3  12   9 18.3407 10.6177   1
  -3  13   9 57.1508 14.7760   1
  -2  13   9 8.68005 9.96432   1
  -1  13   9 98.1692 12.3239   1
   0  13   9 4.87874 9.86283   1
  -2 -17   9 23.7301 12.5764  -2
  -2 -17  10 23.7301 12.5764   1
  -1 -17   9 31.8999 11.9325  -2
  -1 -17  10 31.8999 11.9325   1
   0 -17   9 18.4613 10.6974  -2
   0 -17  10 18.4613 10.6974   1
   1 -17   9 24.3063 10.1062  -2
   1 -17  10 24.3063 10.1062   1
   2 -17   9 1.69763 10.5401  -2
   2 -17  10 1.69763 10.5401   1
  -5 -16   8 -10.829 13.0647  -2
  -5 -16  10 -10.829 13.0647   1
  -4 -16   8 97.2202 16.6538  -2
  -4 -16  10 97.2202 16.6538   1
  -3 -16   8 15.4975 15.1534  -2
  -3 -16  10 15.4975 15.1534   1
  -2 -16   9 75.4609 12.2491  -2
  -2 -16  10 75.4609 12.2491   1
  -1 -16   9 34.3613 10.3418  -2
  -1 -16  10 34.3613 10.3418   1
   0 -16   9 12.5307 9.61991  -2
   0 -16  10 12.5307 9.61991   1
   1 -16   9 80.2836 10.7458  -2
   1 -16  10 80.2836 10.7458   1
   2 -16   9 34.4346 14.3243  -2
   2 -16  10 34.4346 14.3243   1
   3 -16   9 31.4761 14.8802  -2
   3 -16  10 31.4761 14.8802   1
   4 -16  10 -7.5555 16.8437  -2
   4 -16  10 -7.5555 16.8437   1
   5 -16  10 55.7558 9.74863  -2
   5 -16  10 55.7558 9.74863   1
  -6 -15   8 101.050 17.8025  -2
  -6 -15  10 101.050 17.8025   1
  -5 -15   8 -11.346 12.6747  -2
  -5 -15  10 -11.346 12.6747   1
  -4 -15   8 82.1983 16.4566  -2
  -4 -15  10 82.1983 16.4566   1
  -3 -15   9 1.54360 18.9159  -2
  -3 -15  10 1.54360 18.9159   1
  -2 -15   9 80.0698 11.5038  -2
  -2 -15  10 80.0698 11.5038   1
  -1 -15   9 35.0087 9.87712  -2
  -1 -15  10 35.0087 9.87712   1
   0 -15   9 49.9667 9.42695  -2
   0 -15  10 49.9667 9.42695   1
   1 -15   9 55.8775 10.3955  -2
   1 -15  10 55.8775 10.3955   1
   2 -15   9 48.1474 14.2648  -2
   2 -15  10 48.1474 14.2648   1
   4 -15  10 0.08824 10.1876  -2
   4 -15  10 0.08824 10.1876   1
   5 -15  10 36.8717 8.59018  -2
   5 -15  10 36.8717 8.59018   1
   6 -15  10 -2.2204 8.71095  -2
   6 -15  10 -2.2204 8.71095   1
  -7 -14   8 13.6959 14.6943  -2
  -7 -14  10 13.6959 14.6943   1
  -6 -14   8 132.433 15.5363  -2
  -6 -14  10 132.433 15.5363   1
  -4 -14   9 59.0406 19.6540  -2
  -4 -14  10 59.0406 19.6540   1
  -3 -14   9 58.7003 14.3202  -2
  -3 -14  10 58.7003 14.3202   1
  -2 -14   9 158.332 11.4996  -2
  -2 -14  10 158.332 11.4996   1
  -1 -14   9 61.4019 9.56142  -2
  -1 -14  10 61.4019 9.56142   1
   0 -14   9 98.0987 10.0192  -2
   0 -14  10 98.0987 10.0192   1
   1 -14   9 86.7153 14.1776  -2
   1 -14  10 86.7153 14.1776   1
   2 -14   9 104.124 15.4956  -2
   2 -14  10 104.124 15.4956   1
   3 -14  10 71.4321 11.7798  -2
   3 -14  10 71.4321 11.7798   1
   4 -14  10 7.77842 9.93108  -2
   4 -14  10 7.77842 9.93108   1
   5 -14  10 70.6178 9.72825  -2
   5 -14  10 70.6178 9.72825   1
   6 -14  10 -4.9939 9.77596  -2
   6 -14  10 -4.9939 9.77596   1
   7 -14  10 55.6404 10.8452  -2
   7 -14  10 55.6404 10.8452   1
  -8 -13   8 34.8079 14.9086  -2
  -8 -13  10 34.8079 14.9086   1
  -7 -13   8 76.4666 17.5783  -2
  -7 -13  10 76.4666 17.5783   1
  -6 -13   8 101.974 12.2661  -2
  -6 -13  10 101.974 12.2661   1
  -5 -13   8 62.7793 15.5499  -2
  -5 -13  10 62.7793 15.5499   1
  -4 -13  10 77.1982 11.2680   1
  -3 -13   9 58.6863 13.2681  -2
  -3 -13  10 58.6863 13.2681   1
  -2 -13   9 114.521 15.0488  -2
  -2 -13  10 114.521 15.0488   1
  -1 -13   9 73.2911 8.82553  -2
  -1 -13  10 73.2911 8.82553   1
   0 -13   9 133.913 11.1832  -2
   0 -13  10 133.913 11.1832   1
   1 -13   9 90.1815 13.0630  -2
   1 -13  10 90.1815 13.0630   1
   2 -13  10 166.760 17.9295  -2
   2 -13  10 166.760 17.9295   1
   3 -13  10 81.1805 10.9364  -2
   3 -13  10 81.1805 10.9364   1
   4 -13  10 11.4222 10.9685  -2
   4 -13  10 11.4222 10.9685   1
   5 -13  10 146.828 11.3269  -2
   5 -13  10 146.828 11.3269   1
   6 -13  10 -12.893 9.90511  -2
   6 -13  10 -12.893 9.90511   1
   7 -13  10 71.3477 12.3001  -2
   7 -13  10 71.3477 12.3001   1
   8 -13  10 0.87247 9.90194  -2
   8 -13  10 0.87247 9.90194   1
  -9 -12   8 71.6959 26.7538  -2
  -9 -12  10 71.6959 26.7538   1
  -8 -12   8 5.17508 13.6086  -2
  -8 -12  10 5.17508 13.6086   1
  -7 -12   8 73.0301 14.8841  -2
  -7 -12  10 73.0301 14.8841   1
  -6 -12   8 38.4649 13.7787  -2
  -6 -12  10 38.4649 13.7787   1
  -5 -12   9 17.3069 16.8711  -2
  -5 -12  10 17.3069 16.8711   1
  -4 -12   9 165.855 12.1741  -2
  -4 -12  10 165.855 12.1741   1
  -3 -12   9 92.2692 14.9329  -2
  -3 -12  10 92.2692 14.9329   1
  -2 -12   9 231.267 18.4995  -2
  -2 -12  10 231.267 18.4995   1
  -1 -12   9 33.0520 13.1814  -2
  -1 -12  10 33.0520 13.1814   1
   1 -12  10 19.0753 10.5193   1
   2 -12  10 170.471 17.9292  -2
   2 -12  10 170.471 17.9292   1
   3 -12  10 93.7805 10.8970  -2
   3 -12  10 93.7805 10.8970   1
   4 -12  10 53.0571 8.98646  -2
   4 -12  10 53.0571 8.98646   1
   5 -12  10 113.414 10.9041  -2
   5 -12  10 113.414 10.9041   1
   6 -12  10 -6.0510 17.0966  -2
   6 -12  10 -6.0510 17.0966   1
   7 -12  10 55.4911 13.0271  -2
   7 -12  10 55.4911 13.0271   1
   8 -12  10 1.95511 13.6413  -2
   8 -12  10 1.95511 13.6413   1
   9 -12  10 104.243 10.9041   1
 -10 -11   8 26.5668 26.8927  -2
 -10 -11  10 26.5668 26.8927   1
  -9 -11   8 123.404 26.1534  -2
  -9 -11  10 123.404 26.1534   1
  -8 -11   8 -12.833 13.1127  -2
  -8 -11  10 -12.833 13.1127   1
  -7 -11   8 146.784 21.1550  -2
  -7 -11  10 146.784 21.1550   1
  -6 -11   8 66.1596 22.6156  -2
  -6 -11  10 66.1596 22.6156   1
  -5 -11   9 93.0824 15.6050  -2
  -5 -11  10 93.0824 15.6050   1
  -4 -11   9 141.011 11.1258  -2
  -4 -11  10 141.011 11.1258   1
  -3 -11   9 156.960 10.6936  -2
  -3 -11  10 156.960 10.6936   1
  -2 -11   9 229.967 11.6791  -2
  -2 -11  10 229.967 11.6791   1
  -1 -11   9 73.3989 8.26628  -2
  -1 -11  10 73.3989 8.26628   1
   0 -11   9 99.6498 13.6861  -2
   0 -11  10 99.6498 13.6861   1
   1 -11   9 60.3801 11.6757  -2
   1 -11  10 60.3801 11.6757   1
   2 -11  10 356.261 14.3471  -2
   2 -11  10 356.261 14.3471   1
   4 -11  10 64.0510 13.5441  -2
   4 -11  10 64.0510 13.5441   1
   5 -11  10 66.1531 10.5991  -2
   5 -11  10 66.1531 10.5991   1
   6 -11  10 97.8732 12.0055  -2
   6 -11  10 97.8732 12.0055   1
   7 -11  10 42.5577 12.8818  -2
   7 -11  10 42.5577 12.8818   1
   8 -11  10 18.4707 7.98892   1
   9 -11  10 74.1570 10.2274   1
 -10 -10   8 -1.8716 25.3073  -2
 -10 -10  10 -1.8716 25.3073   1
  -9 -10   8 135.390 24.2235  -2
  -9 -10  10 135.390 24.2235   1
  -8 -10   8 -7.2347 15.6274  -2
  -8 -10  10 -7.2347 15.6274   1
  -7 -10   8 155.876 22.3897  -2
  -7 -10  10 155.876 22.3897   1
  -6 -10  10 21.2430 9.67977   1
  -5 -10  10 76.1326 7.33003   1
  -4 -10  10 57.6139 6.64067   1
  -3 -10   9 106.607 13.2201  -2
  -3 -10  10 106.607 13.2201   1
  -2 -10   9 179.092 14.3728  -2
  -2 -10  10 179.092 14.3728   1
  -1 -10   9 319.671 17.3156  -2
  -1 -10  10 319.671 17.3156   1
   0 -10   9 161.003 13.6504  -2
   0 -10  10 161.003 13.6504   1
   1 -10  10 23.8686 7.69026   1
   2 -10  10 379.868 19.4039  -2
   2 -10  10 379.868 19.4039   1
   3 -10  10 -16.111 11.8105  -2
   3 -10  10 -16.111 11.8105   1
   4 -10  10 134.395 10.7320  -2
   4 -10  10 134.395 10.7320   1
   6 -10  10 163.296 16.8457  -2
   6 -10  10 163.296 16.8457   1
   7 -10  10 37.9133 12.8316  -2
   7 -10  10 37.9133 12.8316   1
   8 -10  10 9.78395 7.57652   1
   9 -10  10 57.1993 9.56990   1
  10 -10  10 23.8091 9.07099   1
 -11  -9  10 59.6474 9.15844   1
 -10  -9  10 10.6138 7.42792   1
  -9  -9   8 82.2963 22.8390  -2
  -9  -9  10 82.2963 22.8390   1
  -8  -9   8 33.4404 22.1232  -2
  -8  -9  10 33.4404 22.1232   1
  -7  -9  10 184.037 12.0461   1
  -6  -9  10 4.97881 4.82155   1
  -5  -9  10 287.114 11.4894   1
  -4  -9  10 5.61301 4.66213   1
  -3  -9  10 98.6113 7.55368   1
  -2  -9   9 90.9068 11.8939  -2
  -2  -9  10 90.9068 11.8939   1
  -1  -9  10 110.391 8.40999   1
   0  -9  10 136.438 5.63955   1
   1  -9  10 65.0168 10.9038  -2
   1  -9  10 65.0168 10.9038   1
   2  -9  10 278.030 16.4570  -2
   2  -9  10 278.030 16.4570   1
   3  -9  10 6.29556 11.2163  -2
   3  -9  10 6.29556 11.2163   1
   4  -9  10 299.063 17.5746  -2
   4  -9  10 299.063 17.5746   1
   5  -9  10 -12.028 12.5733  -2
   5  -9  10 -12.028 12.5733   1
   6  -9  10 172.338 13.1294  -2
   6  -9  10 172.338 13.1294   1
   7  -9  10 20.0062 7.37543   1
   8  -9  10 109.654 10.7581   1
   9  -9  10 31.4692 8.56795   1
  10  -9  10 2.23183 8.82144   1
 -11  -8  10 26.3393 8.18748   1
 -10  -8  10 59.4790 8.46952   1
  -9  -8   8 63.5477 22.1488  -2
  -9  -8  10 63.5477 22.1488   1
  -8  -8  10 52.5837 18.4185   1
  -7  -8  10 210.692 9.74664   1
  -6  -8  10 2.20837 4.59593   1
  -5  -8  10 128.366 7.38065   1
  -4  -8  10 33.6821 4.91764   1
  -3  -8  10 704.914 16.4194   1
  -2  -8  10 -3.4605 3.77147   1
  -1  -8  10 168.037 9.12065   1
   0  -8  10 85.6872 4.60061   1
   1  -8  10 164.859 13.0647  -2
   1  -8  10 164.859 13.0647   1
   2  -8  10 565.302 23.6071  -2
   2  -8  10 565.302 23.6071   1
   3  -8  10 13.8387 10.9195  -2
   3  -8  10 13.8387 10.9195   1
   4  -8  10 601.992 25.2826  -2
   4  -8  10 601.992 25.2826   1
   5  -8  10 1.90424 5.00599   1
   6  -8  10 121.437 8.86415   1
   7  -8  10 55.4532 6.31721   1
   8  -8  10 129.907 9.40866   1
   9  -8  10 0.34662 8.79198   1
  10  -8  10 29.7522 9.55018   1
  11  -8  10 44.0286 13.2208   1
 -12  -7  10 43.8273 9.08925   1
 -11  -7  10 3.95645 7.41429   1
 -10  -7  10 97.3392 9.72338   1
  -9  -7  10 30.3009 7.13116   1
  -8  -7  10 107.309 10.8092   1
  -7  -7  10 149.450 11.5499   1
  -6  -7  10 86.0653 6.64978   1
  -5  -7  10 55.4221 5.72245   1
  -4  -7  10 1.13436 3.75379   1
  -3  -7  10 1077.18 22.7703   1
  -2  -7  10 11.1456 3.62254   1
  -1  -7  10 372.459 12.5793   1
   0  -7  10 105.167 4.88210   1
   1  -7  10 308.971 8.44083   1
   2  -7  10 279.936 15.2157  -2
   2  -7  10 279.936 15.2157   1
   3  -7  10 289.004 15.8805  -2
   3  -7  10 289.004 15.8805   1
   4  -7  10 459.641 21.2164  -2
   4  -7  10 459.641 21.2164   1
   5  -7  10 66.0014 13.8032  -2
   5  -7  10 66.0014 13.8032   1
   6  -7  10 192.999 8.01328   1
   7  -7  10 -2.1726 4.68438   1
   8  -7  10 115.106 8.33189   1
   9  -7  10 10.9966 6.23817   1
  10  -7  10 55.5329 10.0938   1
  11  -7  10 32.8874 9.55928   1
 -12  -6  10 35.4781 8.56567   1
 -11  -6  10 -17.897 10.3804   1
 -10  -6  10 136.764 10.9783   1
  -9  -6  10 29.4373 7.08195   1
  -8  -6  10 198.583 9.73377   1
  -7  -6  10 138.851 10.9218   1
  -6  -6  10 91.7513 7.07400   1
  -5  -6  10 192.985 7.84409   1
  -4  -6  10 71.9781 5.59467   1
  -3  -6  10 394.574 10.6569   1
  -2  -6  10 16.9625 4.13868   1
  -1  -6  10 262.126 7.67449   1
   0  -6  10 3.65253 2.85465   1
   1  -6  10 602.958 13.4147   1
   2  -6  10 180.971 6.51046   1
   3  -6  10 168.826 6.97707   1
   4  -6  10 252.276 8.52664   1
   5  -6  10 26.8299 5.36187   1
   6  -6  10 296.217 9.60324   1
   7  -6  10 25.9506 5.20230   1
   8  -6  10 99.5978 7.62331   1
   9  -6  10 -1.8452 5.73338   1
  10  -6  10 52.6365 9.30213   1
  11  -6  10 8.02116 8.54369   1
 -12  -5  10 60.6564 9.24583   1
 -11  -5  10 -1.7460 7.41755   1
 -10  -5  10 143.547 11.2865   1
  -9  -5  10 20.3911 6.45950   1
  -8  -5  10 193.750 9.40449   1
  -7  -5  10 -2.7621 4.55889   1
  -6  -5  10 192.162 10.9867   1
  -5  -5  10 88.9778 5.85047   1
  -4  -5  10 92.5801 5.66547   1
  -3  -5  10 348.356 9.69547   1
  -2  -5  10 102.626 5.66443   1
  -1  -5  10 458.511 10.7816   1
   0  -5  10 35.9487 3.22002   1
   1  -5  10 600.988 13.3087   1
   2  -5  10 79.4376 4.82814   1
   3  -5  10 270.263 8.21611   1
   4  -5  10 168.445 9.17472   1
   5  -5  10 81.5819 6.16140   1
   6  -5  10 159.883 9.04694   1
   7  -5  10 29.8369 5.17427   1
   8  -5  10 226.084 9.70838   1
   9  -5  10 -8.8609 5.57440   1
  10  -5  10 124.876 11.6262   1
  11  -5  10 7.76334 8.62568   1
 -12  -5   8 91.5367 22.0217  -2
 -12  -4  10 91.5367 22.0217   1
 -11  -4  10 23.6029 7.77062   1
 -10  -4  10 64.4494 11.5151   1
  -9  -4  10 0.76718 5.47902   1
  -8  -4  10 153.266 8.49862   1
  -7  -4  10 -4.7929 4.25622   1
  -6  -4  10 134.818 6.98316   1
  -5  -4  10 50.6527 6.72787   1
  -4  -4  10 157.487 6.52717   1
  -3  -4  10 155.533 6.07706   1
  -2  -4  10 235.537 7.86682   1
  -1  -4  10 365.001 8.94309   1
   0  -4  10 6.02130 2.33551   1
   1  -4  10 595.178 13.0650   1
   2  -4  10 39.5195 3.69549   1
   3  -4  10 448.249 11.2236   1
   4  -4  10 130.555 6.45084   1
   5  -4  10 336.974 10.2512   1
   6  -4  10 2.11787 4.26072   1
   7  -4  10 58.0820 7.36468   1
   8  -4  10 106.403 7.86139   1
   9  -4  10 39.5048 8.71161   1
  10  -4  10 111.597 10.6096   1
  11  -4  10 4.28834 8.02231   1
 -12  -3  10 0.62777 8.38322   1
 -11  -3  10 44.7995 8.32716   1
 -10  -3  10 82.2451 7.77235   1
  -9  -3  10 15.6139 5.65615   1
  -8  -3  10 246.287 9.94136   1
  -7  -3  10 -2.6738 4.27609   1
  -6  -3  10 147.238 7.07386   1
  -5  -3  10 72.9139 5.48176   1
  -4  -3  10 325.020 12.6655   1
  -3  -3  10 267.571 7.74685   1
  -2  -3  10 229.113 8.20779   1
  -1  -3  10 490.859 11.0233   1
   0  -3  10 66.3867 3.62032   1
   1  -3  10 388.679 9.30571   1
   2  -3  10 -1.6732 2.86224   1
   3  -3  10 183.291 7.00180   1
   4  -3  10 3.35479 3.27275   1
   5  -3  10 122.098 6.71655   1
   6  -3  10 7.45826 4.23212   1
   7  -3  10 248.241 11.1159   1
   8  -3  10 63.0646 6.41194   1
   9  -3  10 93.1150 9.36349   1
  10  -3  10 52.5605 8.15556   1
  11  -3  10 -2.0954 7.47670   1
 -12  -2  10 24.4881 9.05441   1
 -11  -2  10 81.5134 9.68176   1
 -10  -2  10 49.8938 9.60020   1
  -9  -2  10 52.8016 7.00953   1
  -8  -2  10 216.938 9.32768   1
  -7  -2  10 15.6663 4.63391   1
  -6  -2  10 214.943 8.09334   1
  -5  -2  10 12.2481 3.78405   1
  -4  -2  10 684.334 15.2011   1
  -3  -2  10 90.8069 7.89041   1
  -2  -2  10 531.023 11.6828   1
  -1  -2  10 128.326 4.58816   1
   0  -2  10 161.215 6.24755   1
   1  -2  10 344.857 8.51618   1
   2  -2  10 29.1936 4.22000   1
   3  -2  10 511.278 12.1603   1
   4  -2  10 43.4170 4.47074   1
   5  -2  10 133.684 6.69325   1
   6  -2  10 58.5119 5.75321   1
   7  -2  10 213.714 9.33998   1
   8  -2  10 74.2010 6.76792   1
   9  -2  10 94.2210 9.14899   1
  10  -2  10 77.6455 13.5992   1
  10  -2  12 0.76029 23.4632  -2
  11  -2  10 0.76029 23.4632   1
 -12  -1  10 5.57696 8.53528   1
 -11  -1  10 98.2819 10.5181   1
 -10  -1  10 50.7274 7.61585   1
  -9  -1  10 103.334 8.06607   1
  -8  -1  10 153.384 8.39815   1
  -7  -1  10 116.249 7.11457   1
  -6  -1  10 234.567 8.25738   1
  -5  -1  10 17.2144 3.68063   1
  -4  -1  10 662.487 14.7401   1
  -3  -1  10 24.2322 2.77056   1
  -2  -1  10 851.895 22.8219   1
  -1  -1  10 236.280 6.04103   1
   0  -1  10 594.511 12.6382   1
   1  -1  10 104.879 4.40049   1
   2  -1  10 334.409 8.55504   1
   3  -1  10 192.123 6.73476   1
   4  -1  10 35.8429 4.12085   1
   5  -1  10 273.582 8.97133   1
   6  -1  10 -0.9869 3.89317   1
   7  -1  10 391.547 12.0604   1
   8  -1  10 14.1482 6.02633   1
   9  -1  10 129.972 10.1102   1
   9  -1  12 62.0214 24.1380  -2
  10  -1  10 62.0214 24.1380   1
  10  -1  12 93.1439 15.2211  -2
  11  -1  10 93.1439 15.2211   1
 -12   0  10 -2.2776 8.26772   1
 -11   0  10 40.3827 9.13465   1
 -10   0  10 26.0644 9.34992   1
  -9   0  10 168.030 9.38994   1
  -8   0  10 28.8682 5.88289   1
  -7   0  10 141.605 8.86374   1
  -6   0  10 220.413 11.8187   1
  -5   0  10 59.1986 4.84883   1
  -4   0  10 427.726 10.3809   1
  -3   0  10 43.4022 5.15989   1
  -2   0  10 775.140 21.1545   1
  -1   0  10 128.976 6.89962   1
   0   0  10 175.925 5.01475   1
   1   0  10 117.710 4.61702   1
   2   0  10 241.901 7.21947   1
   3   0  10 320.161 8.81501   1
   4   0  10 210.216 7.37502   1
   5   0  10 112.331 6.39809   1
   6   0  10 54.5533 5.56986   1
   7   0  10 344.155 11.3451   1
   8   0  10 16.8473 6.14640   1
   9   0  10 104.914 9.69739   1
   9   0  12 19.2591 22.9897  -2
  10   0  10 19.2591 22.9897   1
  10   0  12 78.3470 14.6357  -2
  11   0  10 78.3470 14.6357   1
 -12   1  10 6.03567 8.91347   1
 -11   1  10 88.4700 10.1734   1
 -10   1  10 2.70676 6.59685   1
  -9   1  10 127.131 9.02189   1
  -8   1  10 62.5308 6.50163   1
  -7   1  10 113.397 7.21137   1
  -6   1  10 288.473 9.22491   1
  -5   1  10 154.873 6.20513   1
  -4   1  10 258.960 7.73428   1
  -3   1  10 58.6251 5.75862   1
  -2   1  10 359.514 12.1812   1
  -1   1  10 10.9471 3.71517   1
   0   1  10 358.070 8.32184   1
   1   1  10 21.6996 2.91561   1
   2   1  10 595.905 13.3988   1
   3   1  10 370.467 9.78690   1
   4   1  10 228.654 7.82654   1
   5   1  10 206.792 7.87359   1
   6   1  10 86.4099 7.51106   1
   7   1  10 449.478 14.0653   1
   8   1  10 1.16293 5.33306   1
   9   1  10 117.496 9.90283   1
   9   1  12 -0.7978 21.8509  -2
  10   1  10 -0.7978 21.8509   1
  10   1  12 70.2479 14.1157  -2
  11   1  10 70.2479 14.1157   1
 -12   2  10 13.9423 9.74944   1
 -11   2  10 117.184 10.2745   1
 -10   2  10 -0.4652 6.92958   1
  -9   2  10 123.219 9.07910   1
  -8   2  10 13.7954 5.98295   1
  -7   2  10 89.2887 6.86857   1
  -6   2  10 30.8438 4.67780   1
  -5   2  10 149.722 6.88205   1
  -4   2  10 362.512 8.73309   1
  -3   2  10 251.420 10.0534   1
  -2   2  10 255.623 9.92007   1
  -1   2  10 42.0104 4.58283   1
   0   2  10 229.940 6.28718   1
   1   2  10 -3.6605 2.43365   1
   2   2  10 406.532 10.5521   1
   3   2  10 113.786 5.80511   1
   4   2  10 218.492 7.92189   1
   5   2  10 123.013 6.71251   1
   6   2  10 77.4773 6.74812   1
   7   2  10 212.100 10.5375   1
   8   2  10 15.9105 6.18377   1
   9   2  10 123.545 9.99471   1
   9   2  12 26.5656 12.0128  -2
  10   2  10 26.5656 12.0128   1
  10   2  12 86.0615 13.6650  -2
  11   2  10 86.0615 13.6650   1
 -12   3  10 25.7958 12.4081   1
 -11   3  10 74.4860 10.9222   1
 -10   3  10 21.0960 7.47971   1
  -9   3  10 134.756 9.42231   1
  -8   3  10 2.66685 5.75740   1
  -7   3  10 186.768 8.81247   1
  -6   3  10 16.2954 4.95375   1
  -5   3  10 111.215 5.41725   1
  -4   3  10 87.6478 4.19312   1
  -3   3  10 166.898 8.68434   1
  -2   3  10 335.349 11.9765   1
  -1   3  10 72.0370 3.31160   1
   0   3  10 379.015 9.16265   1
   1   3  10 5.27403 2.59446   1
   2   3  10 525.415 12.4841   1
   3   3  10 40.1857 4.57903   1
   4   3  10 403.813 11.1183   1
   4   3  11 81.1482 17.4422  -2
   5   3  10 81.1482 17.4422   1
   6   3  10 185.009 8.66053   1
   7   3  10 76.6893 7.22287   1
   8   3  10 38.3913 6.88163   1
   9   3  10 91.4532 8.76566   1
   9   3  12 25.1528 12.8345  -2
  10   3  10 25.1528 12.8345   1
 -12   4  10 39.7103 18.1729   1
 -11   4  10 35.7039 12.2201   1
 -10   4  10 24.4469 9.15773   1
  -9   4  10 88.8805 8.88427   1
  -8   4  10 33.2994 8.07032   1
  -7   4  10 185.655 12.8661   1
  -6   4  10 10.0185 5.33663   1
  -5   4  10 145.367 6.24650   1
  -4   4  10 -0.5645 2.82751   1
  -3   4  10 216.274 6.55698   1
  -2   4  10 194.683 8.92105   1
  -1   4  10 117.549 7.32632   1
   0   4  10 138.014 5.40474   1
   1   4  10 61.9832 4.57038   1
   2   4  10 288.922 8.66114   1
   3   4  10 14.8031 3.68441   1
   4   4  10 204.037 10.6644   1
   5   4  10 2.77570 9.18392   1
   6   4  10 353.367 15.1377   1
   7   4  10 13.5231 6.13964   1
   8   4  10 59.9070 7.93462   1
   9   4  10 67.4978 8.09066   1
   9   4  12 64.2422 13.6577  -2
  10   4  10 64.2422 13.6577   1
 -11   5  10 7.50274 12.4075   1
 -10   5  10 43.7636 11.8387   1
  -9   5  10 61.4942 17.2182   1
  -8   5  10 46.6660 14.3702   1
  -7   5  10 142.204 10.1697   1
  -6   5  10 -4.1589 4.88314   1
  -5   5  10 160.368 9.51160   1
  -4   5  10 16.0001 4.18127   1
  -3   5  10 297.132 8.29271   1
  -2   5  10 55.1733 4.23570   1
  -1   5  10 193.378 9.21504   1
   0   5  10 67.6483 6.33005   1
   1   5  10 78.1465 5.42697   1
   2   5  10 362.180 10.2444   1
   3   5  10 7.64482 4.02805   1
   4   5  10 198.710 10.8748   1
   4   5  11 -7.8739 20.3316  -2
   5   5  10 -7.8739 20.3316   1
   6   5  10 92.7243 12.1849   1
   7   5  10 15.8281 5.88761   1
   8   5  10 56.2658 7.78016   1
   8   5  12 52.7873 18.2245  -2
   9   5  10 52.7873 18.2245   1
 -11   6  10 -11.819 17.9035   1
 -10   6  10 93.8996 20.7789   1
  -9   6  10 42.5190 8.99144   1
  -8   6  10 50.5280 7.77571   1
  -7   6  10 46.5183 7.41732   1
  -6   6  10 47.6147 6.95323   1
  -5   6  10 172.444 10.5034   1
  -4   6  10 15.3550 5.07045   1
  -3   6  10 270.934 9.00781   1
  -2   6  10 27.4673 4.02753   1
  -1   6  10 322.745 9.89086   1
   0   6  10 43.6362 6.10529   1
   1   6  10 133.878 7.52021   1
   2   6  10 211.171 8.19514   1
   3   6  10 84.4390 6.58072   1
   4   6  10 238.032 12.3143   1
   4   6  11 43.3434 24.6140  -2
   5   6  10 43.3434 24.6140   1
   6   6  10 121.245 13.3554   1
   7   6  10 6.73435 6.07674   1
   8   6  10 124.984 10.3370   1
   9   6  10 17.4195 7.00039   1
 -10   7  10 60.4818 9.97753   1
  -9   7  10 8.94238 7.37767   1
  -8   7  10 33.4755 7.84001   1
  -7   7  10 37.1549 7.61912   1
  -6   7  10 35.4979 8.83555   1
  -5   7  10 75.5194 8.01687   1
  -4   7  10 20.0706 5.68331   1
  -3   7  10 169.304 10.0731   1
  -2   7  10 2.09173 3.75775   1
  -1   7  10 311.854 9.76682   1
   0   7  10 21.3666 4.53667   1
   1   7  10 187.248 10.4684   1
   2   7  10 92.7627 6.83582   1
   3   7  10 128.917 7.68617   1
   3   7  11 200.417 27.8095  -2
   4   7  10 200.417 27.8095   1
   5   7  10 42.5488 6.38573   1
   6   7  10 172.889 11.0240   1
   7   7  10 28.9466 7.02822   1
   8   7  10 117.033 10.3700   1
 -10   7  10 7.50566 25.7582  -2
  -9   8  10 7.50566 25.7582   1
  -9   7  10 38.7270 25.7523  -2
  -8   8  10 38.7270 25.7523   1
  -7   8  10 28.2769 7.66610   1
  -6   8  10 57.0748 8.35977   1
  -5   8  10 53.6507 9.00625   1
  -4   8  10 40.0936 6.79340   1
  -3   8  10 234.291 11.4756   1
  -2   8  10 14.4334 5.92605   1
  -1   8  10 252.401 9.33002   1
   0   8  10 4.67613 5.29295   1
   1   8  10 193.589 19.5617   1
   2   8  10 52.8269 6.23155   1
   3   8  10 134.823 8.34173   1
   4   8  10 95.6936 7.55742   1
   5   8  10 84.5801 10.2531   1
   6   8  10 94.4555 9.57463   1
   7   8  10 15.5395 6.58458   1
  -9   9  10 5.72844 8.84507   1
  -9   8  10 34.8790 24.9000  -2
  -8   9  10 34.8790 24.9000   1
  -8   8  10 63.4368 22.1566  -2
  -7   9  10 63.4368 22.1566   1
  -7   8  10 115.692 18.1941  -2
  -6   9  10 115.692 18.1941   1
  -5   9  10 19.1052 6.89418   1
  -4   9  10 71.7765 8.49000   1
  -3   9  10 166.297 18.4627   1
  -2   9  10 48.9496 14.1645   1
  -1   9  10 200.458 10.5556   1
   0   9  10 26.1832 5.55459   1
   1   9  10 138.854 10.7546   1
   2   9  10 -3.9624 6.88484   1
   3   9  10 131.659 9.04516   1
   4   9  10 38.8477 7.55848   1
   5   9  10 114.601 10.5104   1
   6   9  10 61.3360 8.56508   1
   7   9  10 27.8710 7.85943   1
  -9   9  10 22.6484 18.0397  -2
  -8  10  10 22.6484 18.0397   1
  -8   9  10 16.1931 22.2364  -2
  -7  10  10 16.1931 22.2364   1
  -7   9  10 87.3077 19.9381  -2
  -6  10  10 87.3077 19.9381   1
  -5  10  10 0.66222 6.99096   1
  -4  10  10 56.9398 8.80259   1
  -3  10  10 30.2735 8.11064   1
  -3   9  11 116.345 19.7158  -2
  -2  10  10 116.345 19.7158   1
  -1  10  10 45.3660 7.74285   1
   0  10  10 17.5482 6.96893   1
   1  10  10 102.415 8.63561   1
   2  10  10 4.64235 7.92483   1
   3  10  10 150.520 12.7558   1
   4  10  10 -5.3408 6.70981   1
   5  10  10 70.0007 9.14836   1
  -7  10  10 69.3752 21.9734  -2
  -6  11  10 69.3752 21.9734   1
  -5  11  10 0.81879 8.15467   1
  -4  11  10 65.8806 10.0714   1
  -4  10  11 4.32266 21.3206  -2
  -3  11  10 4.32266 21.3206   1
  -2  11  10 61.2001 9.85920   1
  -1  11  10 37.9280 8.86839   1
   0  11  10 6.03514 8.47349   1
   1  11  10 42.4757 9.53951   1
   2  11  10 0.30387 8.76135   1
   3  11  10 89.9470 12.0177   1
   4  11  10 1.93097 7.54133   1
  -5  11  11 139.708 27.3298  -2
  -4  12  10 139.708 27.3298   1
  -3  12  10 -5.3292 8.52821   1
  -2  12  10 52.3818 9.94305   1
  -1  12  10 16.8736 9.30066   1
   0  12  10 26.2758 9.66297   1
   1  12  10 36.5377 10.3956   1
   2  12  10 35.4917 11.1430   1
  -2 -17  10 -3.0101 12.0209  -2
  -2 -17  11 -3.0101 12.0209   1
  -1 -17  10 9.17750 10.1274  -2
  -1 -17  11 9.17750 10.1274   1
   0 -17  10 34.6894 10.0449  -2
   0 -17  11 34.6894 10.0449   1
   1 -17  10 3.44530 9.34903  -2
   1 -17  11 3.44530 9.34903   1
   2 -17  10 18.8378 10.9147  -2
   2 -17  11 18.8378 10.9147   1
  -5 -16   9 96.9482 14.3267  -2
  -5 -16  11 96.9482 14.3267   1
  -4 -16   9 15.0542 16.1601  -2
  -4 -16  11 15.0542 16.1601   1
  -3 -16  10 28.5825 13.3124  -2
  -3 -16  11 28.5825 13.3124   1
  -2 -16  10 90.9418 12.0903  -2
  -2 -16  11 90.9418 12.0903   1
  -1 -16  10 13.3461 9.81045  -2
  -1 -16  11 13.3461 9.81045   1
   0 -16  10 36.1627 9.98229  -2
   0 -16  11 36.1627 9.98229   1
   1 -16  10 25.0077 9.18442  -2
   1 -16  11 25.0077 9.18442   1
   2 -16  10 56.3209 15.2656  -2
   2 -16  11 56.3209 15.2656   1
   3 -16  10 0.76225 13.5362  -2
   3 -16  11 0.76225 13.5362   1
   4 -16  11 69.4886 12.4059  -2
   4 -16  11 69.4886 12.4059   1
  -6 -15   9 17.1753 17.6731  -2
  -6 -15  11 17.1753 17.6731   1
  -5 -15   9 128.456 15.1017  -2
  -5 -15  11 128.456 15.1017   1
  -4 -15  10 27.8155 22.3736  -2
  -4 -15  11 27.8155 22.3736   1
  -3 -15  10 130.521 13.0292  -2
  -3 -15  11 130.521 13.0292   1
  -2 -15  10 30.4445 15.7331  -2
  -2 -15  11 30.4445 15.7331   1
  -1 -15  10 51.2511 10.2539  -2
  -1 -15  11 51.2511 10.2539   1
   0 -15  10 94.4020 10.2832  -2
   0 -15  11 94.4020 10.2832   1
   1 -15  10 55.9600 10.7574  -2
   1 -15  11 55.9600 10.7574   1
   2 -15  10 136.588 16.0999  -2
   2 -15  11 136.588 16.0999   1
   3 -15  11 22.9067 18.4416  -2
   3 -15  11 22.9067 18.4416   1
   4 -15  11 76.7194 11.7486  -2
   4 -15  11 76.7194 11.7486   1
   5 -15  11 8.42401 8.98437  -2
   5 -15  11 8.42401 8.98437   1
   6 -15  11 51.5047 10.4845  -2
   6 -15  11 51.5047 10.4845   1
  -7 -14   9 -10.563 17.7637  -2
  -7 -14  11 -10.563 17.7637   1
  -6 -14   9 27.4648 13.4197  -2
  -6 -14  11 27.4648 13.4197   1
  -5 -14  11 93.6604 12.6095   1
  -4 -14  11 1.86250 7.75899   1
  -3 -14  10 102.155 12.3967  -2
  -3 -14  11 102.155 12.3967   1
  -2 -14  10 36.1428 9.90354  -2
  -2 -14  11 36.1428 9.90354   1
  -1 -14  10 64.4950 10.1364  -2
  -1 -14  11 64.4950 10.1364   1
   0 -14  10 60.8704 10.1614  -2
   0 -14  11 60.8704 10.1614   1
   1 -14  10 116.575 11.9644  -2
   1 -14  11 116.575 11.9644   1
   2 -14  11 85.9153 18.4800  -2
   2 -14  11 85.9153 18.4800   1
   2 -14  10 74.7351 15.8632  -2
   2 -14  11 74.7351 15.8632   1
   3 -14  11 68.8239 11.5474  -2
   3 -14  11 68.8239 11.5474   1
   4 -14  11 37.9236 10.9501  -2
   4 -14  11 37.9236 10.9501   1
   5 -14  11 -1.5596 8.85669  -2
   5 -14  11 -1.5596 8.85669   1
   6 -14  11 56.8613 11.6155  -2
   6 -14  11 56.8613 11.6155   1
   7 -14  11 7.55718 11.6951  -2
   7 -14  11 7.55718 11.6951   1
  -8 -13  11 32.7114 10.3311   1
  -7 -13   9 66.6251 18.0315  -2
  -7 -13  11 66.6251 18.0315   1
  -6 -13   9 13.3724 17.0420  -2
  -6 -13  11 13.3724 17.0420   1
  -5 -13  11 114.492 13.0413   1
  -4 -13  11 13.4015 8.22351   1
  -3 -13  10 147.227 12.5609  -2
  -3 -13  11 147.227 12.5609   1
  -2 -13  10 51.7327 9.94671  -2
  -2 -13  11 51.7327 9.94671   1
  -1 -13  10 90.2875 10.4473  -2
  -1 -13  11 90.2875 10.4473   1
   0 -13  10 89.9855 10.5469  -2
   0 -13  11 89.9855 10.5469   1
   1 -13  10 120.094 15.6979  -2
   1 -13  11 120.094 15.6979   1
   2 -13  11 77.7620 17.0400  -2
   2 -13  11 77.7620 17.0400   1
   3 -13  11 9.49409 10.6319  -2
   3 -13  11 9.49409 10.6319   1
   4 -13  11 79.1635 9.80234  -2
   4 -13  11 79.1635 9.80234   1
   5 -13  11 -4.5105 13.3406  -2
   5 -13  11 -4.5105 13.3406   1
   6 -13  11 83.1571 12.5660  -2
   6 -13  11 83.1571 12.5660   1
   7 -13  11 -2.3955 12.2534  -2
   7 -13  11 -2.3955 12.2534   1
   8 -13  11 58.2115 14.3461  -2
   8 -13  11 58.2115 14.3461   1
  -9 -12   9 55.2241 30.7910  -2
  -9 -12  11 55.2241 30.7910   1
  -8 -12   9 72.1473 26.4396  -2
  -8 -12  11 72.1473 26.4396   1
  -7 -12  11 32.5712 9.84453   1
  -6 -12  11 49.2878 7.81452   1
  -5 -12  11 33.7582 6.54480   1
  -4 -12  10 58.7136 16.0342  -2
  -4 -12  11 58.7136 16.0342   1
  -3 -12  10 94.1998 16.0099  -2
  -3 -12  11 94.1998 16.0099   1
  -2 -12  10 97.4562 15.5270  -2
  -2 -12  11 97.4562 15.5270   1
   0 -12  11 8.78256 8.49348   1
   1 -12  11 131.475 13.5546   1
   2 -12  11 16.8566 13.7105  -2
   2 -12  11 16.8566 13.7105   1
   3 -12  11 75.3954 15.0725  -2
   3 -12  11 75.3954 15.0725   1
   4 -12  11 103.958 11.3861  -2
   4 -12  11 103.958 11.3861   1
   5 -12  11 43.0317 11.2101  -2
   5 -12  11 43.0317 11.2101   1
   6 -12  11 161.599 13.3664  -2
   6 -12  11 161.599 13.3664   1
   7 -12  11 -3.9277 12.5620  -2
   7 -12  11 -3.9277 12.5620   1
   8 -12  11 82.4028 20.4609  -2
   8 -12  11 82.4028 20.4609   1
   9 -12  11 8.27177 8.57058   1
 -10 -11  11 55.6231 8.91103   1
  -9 -11   9 39.1483 26.8097  -2
  -9 -11  11 39.1483 26.8097   1
  -8 -11   9 103.363 25.6788  -2
  -8 -11  11 103.363 25.6788   1
  -7 -11  11 25.9949 7.09179   1
  -6 -11  11 53.7275 6.58464   1
  -5 -11  11 22.3057 6.58694   1
  -4 -11  11 86.0519 8.36349   1
  -3 -11  10 139.199 15.0743  -2
  -3 -11  11 139.199 15.0743   1
  -2 -11  10 99.7045 12.9430  -2
  -2 -11  11 99.7045 12.9430   1
  -1 -11  10 235.582 16.6747  -2
  -1 -11  11 235.582 16.6747   1
   0 -11  10 50.9101 11.7801  -2
   0 -11  11 50.9101 11.7801   1
   1 -11  11 183.609 9.81475   1
   2 -11  11 48.0515 14.0569  -2
   2 -11  11 48.0515 14.0569   1
   3 -11  11 127.884 14.4062   1
   4 -11  11 -4.2932 9.65193  -2
   4 -11  11 -4.2932 9.65193   1
   5 -11  11 205.978 13.2117  -2
   5 -11  11 205.978 13.2117   1
   6 -11  11 36.6454 11.9751  -2
   6 -11  11 36.6454 11.9751   1
   7 -11  11 16.1428 17.2494  -2
   7 -11  11 16.1428 17.2494   1
   8 -11  11 56.7347 9.05774   1
   9 -11  11 5.77839 8.31941   1
 -10 -10  11 36.5290 9.17948   1
  -9 -10   9 -6.6006 24.8794  -2
  -9 -10  11 -6.6006 24.8794   1
  -8 -10   9 111.248 24.2425  -2
  -8 -10  11 111.248 24.2425   1
  -7 -10  11 3.87924 6.12466   1
  -6 -10  11 111.055 13.8878   1
  -5 -10  11 2.85791 4.90347   1
  -4 -10  11 145.497 9.55633   1
  -3 -10  11 95.1268 8.47290   1
  -2 -10  10 158.313 13.9967  -2
  -2 -10  11 158.313 13.9967   1
  -1 -10  10 218.876 15.9184  -2
  -1 -10  11 218.876 15.9184   1
   0 -10  10 39.1302 11.6255  -2
   0 -10  11 39.1302 11.6255   1
   1 -10  11 222.831 13.8323   1
   2 -10  11 68.9352 13.5074  -2
   2 -10  11 68.9352 13.5074   1
   3 -10  11 181.289 15.8486  -2
   3 -10  11 181.289 15.8486   1
   4 -10  11 3.46089 7.45298   1
   5 -10  11 106.574 16.9638  -2
   5 -10  11 106.574 16.9638   1
   6 -10  11 18.2261 14.8436  -2
   6 -10  11 18.2261 14.8436   1
   7 -10  11 94.1449 18.0978  -2
   7 -10  11 94.1449 18.0978   1
   8 -10  11 30.3143 8.70654   1
   9 -10  11 25.7367 9.01559   1
  10 -10  11 18.9605 9.58923   1
 -11  -9  11 23.2245 8.55759   1
 -10  -9  11 51.8985 8.79748   1
  -9  -9  11 4.89797 7.07467   1
  -8  -9  11 132.271 15.8422   1
  -7  -9  11 -4.0280 5.74331   1
  -6  -9  11 95.8601 7.88930   1
  -5  -9  11 2.99997 4.43006   1
  -4  -9  11 390.829 11.8663   1
  -3  -9  11 120.422 7.49765   1
  -2  -9  11 102.703 7.10273   1
  -1  -9  11 175.948 9.90064   1
   0  -9  11 73.8968 4.81977   1
   1  -9  11 207.903 7.19270   1
   2  -9  11 3.51328 11.3200  -2
   2  -9  11 3.51328 11.3200   1
   3  -9  11 276.342 17.7378  -2
   3  -9  11 276.342 17.7378   1
   4  -9  11 -14.903 11.9537  -2
   4  -9  11 -14.903 11.9537   1
   5  -9  11 54.3148 9.96289   1
   6  -9  11 -7.7414 14.7508  -2
   6  -9  11 -7.7414 14.7508   1
   7  -9  11 96.4023 9.71019   1
   8  -9  11 37.2564 8.56077   1
   9  -9  11 20.9894 8.89625   1
  10  -9  11 69.5802 11.0377   1
 -11  -8  11 32.5065 8.53446   1
 -10  -8  11 29.4329 8.27825   1
  -9  -8  11 26.7719 7.44079   1
  -8  -8  11 111.136 12.2445   1
  -7  -8  11 65.8468 6.99066   1
  -6  -8  11 231.747 9.89788   1
  -5  -8  11 20.5729 4.72105   1
  -4  -8  11 966.650 21.4273   1
  -3  -8  11 4.22883 3.88510   1
  -2  -8  11 158.858 7.59426   1
  -1  -8  11 163.872 6.58814   1
   0  -8  11 158.654 6.23557   1
   1  -8  11 127.622 5.89930   1
   2  -8  11 54.2705 11.9670  -2
   2  -8  11 54.2705 11.9670   1
   3  -8  11 386.010 19.5691  -2
   3  -8  11 386.010 19.5691   1
   4  -8  11 -8.0084 12.1285  -2
   4  -8  11 -8.0084 12.1285   1
   5  -8  11 282.409 19.3222  -2
   5  -8  11 282.409 19.3222   1
   6  -8  11 12.2975 6.02547   1
   7  -8  11 215.546 9.65695   1
   8  -8  11 31.4238 7.42112   1
   9  -8  11 75.5812 10.7689   1
  10  -8  11 4.15972 9.03486   1
 -11  -7  11 57.3206 9.36869   1
 -10  -7  11 11.3014 7.32393   1
  -9  -7  11 105.179 9.79967   1
  -8  -7  11 57.6803 6.74211   1
  -7  -7  11 87.1859 10.1832   1
  -6  -7  11 164.127 8.28743   1
  -5  -7  11 2.26019 5.93224   1
  -4  -7  11 325.507 10.1748   1
  -3  -7  11 0.35212 3.90075   1
  -2  -7  11 220.747 8.45786   1
  -1  -7  11 23.9055 3.42468   1
   0  -7  11 202.306 7.05500   1
   1  -7  11 113.267 5.51779   1
   2  -7  11 161.625 6.61250   1
   3  -7  11 197.055 7.65402   1
   4  -7  11 84.6769 6.20483   1
   5  -7  11 287.188 11.8081   1
   6  -7  11 -3.2642 4.40820   1
   7  -7  11 283.625 10.6572   1
   8  -7  11 44.8755 6.73737   1
   9  -7  11 139.562 9.90665   1
  10  -7  11 19.1096 8.09682   1
  11  -7  11 50.9314 13.0734   1
 -12  -6  11 -4.1928 9.99005   1
 -11  -6  11 109.064 15.5595   1
 -10  -6  11 7.33187 7.51568   1
  -9  -6  11 119.606 9.28084   1
  -8  -6  11 91.9140 7.97405   1
  -7  -6  11 116.476 10.4664   1
  -6  -6  11 167.084 8.34244   1
  -5  -6  11 90.6679 7.36111   1
  -4  -6  11 117.986 6.45211   1
  -3  -6  11 3.72521 3.69493   1
  -2  -6  11 251.106 10.8437   1
  -1  -6  11 -4.3126 2.48948   1
   0  -6  11 344.952 9.37809   1
   1  -6  11 215.520 6.93018   1
   2  -6  11 370.899 9.89471   1
   3  -6  11 178.188 7.15636   1
   4  -6  11 171.040 8.41641   1
   5  -6  11 232.980 8.92212   1
   6  -6  11 40.7453 6.30685   1
   7  -6  11 160.381 9.30030   1
   8  -6  11 3.75465 5.50925   1
   9  -6  11 130.051 9.45523   1
  10  -6  11 0.74448 7.82712   1
  11  -6  11 45.4324 9.51624   1
 -12  -5  11 -0.6203 10.3709   1
 -11  -5  11 50.4297 12.1959   1
 -10  -5  11 5.67213 7.28275   1
  -9  -5  11 213.867 10.5823   1
  -8  -5  11 31.4705 7.87636   1
  -7  -5  11 162.853 8.33731   1
  -6  -5  11 100.809 9.51560   1
  -5  -5  11 213.147 8.23849   1
  -4  -5  11 202.196 7.73927   1
  -3  -5  11 44.5104 4.65857   1
  -2  -5  11 276.560 10.4865   1
  -1  -5  11 15.0097 2.88010   1
   0  -5  11 371.612 9.47089   1
   1  -5  11 41.2512 3.79591   1
   2  -5  11 429.397 10.7874   1
   3  -5  11 65.6127 6.19358   1
   4  -5  11 240.960 8.54770   1
   5  -5  11 93.5485 6.77527   1
   6  -5  11 10.2865 4.74337   1
   7  -5  11 195.721 10.6138   1
   8  -5  11 27.8382 5.96838   1
   9  -5  11 81.1445 8.47503   1
  10  -5  11 2.56856 7.78065   1
  11  -5  11 86.7973 10.8092   1
 -12  -5   9 70.7422 22.6847  -2
 -12  -4  11 70.7422 22.6847   1
 -11  -4  11 28.1095 8.54606   1
 -10  -4  11 -3.6132 6.89845   1
  -9  -4  11 176.419 9.64658   1
  -8  -4  11 1.50776 6.07312   1
  -7  -4  11 133.950 7.93233   1
  -6  -4  11 0.24659 4.45406   1
  -5  -4  11 101.948 8.78271   1
  -4  -4  11 131.052 6.27407   1
  -3  -4  11 216.921 7.51769   1
  -2  -4  11 269.487 9.81821   1
  -1  -4  11 87.0298 4.37234   1
   0  -4  11 310.400 10.4292   1
   1  -4  11 -0.6294 3.57634   1
   2  -4  11 426.701 10.6019   1
   3  -4  11 5.14356 3.26601   1
   4  -4  11 380.698 10.6414   1
   5  -4  11 -1.0169 3.91876   1
   6  -4  11 127.832 7.75732   1
   7  -4  11 139.192 9.61625   1
   8  -4  11 72.1749 7.29009   1
   9  -4  11 110.899 10.2899   1
  10  -4  11 -10.528 7.20147   1
  11  -4  11 78.4445 10.4391   1
 -12  -3  11 72.0436 10.8797   1
 -11  -3  11 57.5033 9.21852   1
 -10  -3  11 13.2416 6.40081   1
  -9  -3  11 137.715 8.96830   1
  -8  -3  11 5.90525 5.93944   1
  -7  -3  11 134.475 7.64899   1
  -6  -3  11 17.6067 6.78144   1
  -5  -3  11 102.002 6.12655   1
  -4  -3  11 172.414 10.1484   1
  -3  -3  11 433.342 10.9369   1
  -2  -3  11 181.525 6.02133   1
  -1  -3  11 115.775 4.75355   1
   0  -3  11 131.576 4.98790   1
   1  -3  11 93.3298 4.41506   1
   2  -3  11 416.272 10.4550   1
   3  -3  11 -1.6281 3.11819   1
   4  -3  11 279.839 8.95827   1
   5  -3  11 36.8463 4.79382   1
   6  -3  11 152.964 8.02504   1
   7  -3  11 55.5655 8.40219   1
   8  -3  11 17.3075 5.48022   1
   9  -3  11 116.064 10.4237   1
  10  -3  11 32.3818 8.62414   1
  10  -3  13 0.05249 27.6655  -2
  11  -3  11 0.05249 27.6655   1
 -12  -2  11 69.1391 10.6932   1
 -11  -2  11 56.1222 9.41716   1
 -10  -2  11 14.7347 7.06853   1
  -9  -2  11 195.465 10.1045   1
  -8  -2  11 43.8923 6.79057   1
  -7  -2  11 154.121 7.95509   1
  -6  -2  11 9.30480 4.36730   1
  -5  -2  11 407.699 10.9539   1
  -4  -2  11 6.53204 3.17215   1
  -3  -2  11 757.005 32.4396   1
  -2  -2  11 377.901 8.98839   1
  -1  -2  11 288.765 7.58158   1
   0  -2  11 400.759 9.51262   1
   1  -2  11 91.3992 4.29874   1
   2  -2  11 564.591 12.9822   1
   3  -2  11 61.9155 5.48650   1
   4  -2  11 170.900 7.21182   1
   5  -2  11 71.6846 5.92868   1
   6  -2  11 122.414 7.37394   1
   7  -2  11 46.7235 6.08137   1
   8  -2  11 116.525 9.85166   1
   9  -2  11 69.9316 8.54034   1
  10  -2  11 57.6920 8.93520   1
  10  -2  13 85.0127 15.7898  -2
  11  -2  11 85.0127 15.7898   1
 -12  -1  11 59.3895 10.4670   1
 -11  -1  11 33.2380 9.90791   1
 -10  -1  11 49.8271 7.34348   1
  -9  -1  11 93.7151 8.07808   1
  -8  -1  11 125.993 9.99183   1
  -7  -1  11 126.641 10.8226   1
  -6  -1  11 72.1759 8.73838   1
  -5  -1  11 553.536 13.3386   1
  -4  -1  11 23.6225 3.27630   1
  -3  -1  11 617.647 18.3148   1
  -2  -1  11 77.3129 5.93053   1
  -1  -1  11 412.985 13.3203   1
   0  -1  11 80.1729 3.84913   1
   1  -1  11 117.400 4.86358   1
   2  -1  11 560.319 13.2105   1
   3  -1  11 195.824 7.05695   1
   4  -1  11 383.095 10.5939   1
   5  -1  11 -4.5174 3.82790   1
   6  -1  11 280.957 9.98247   1
   7  -1  11 17.0687 5.36020   1
   8  -1  11 234.838 11.7486   1
   9  -1  11 52.3684 8.36506   1
   9  -1  13 73.0002 23.4957  -2
  10  -1  11 73.0002 23.4957   1
  10  -1  13 39.9044 15.8423  -2
  11  -1  11 39.9044 15.8423   1
 -12   0  11 66.1295 10.5468   1
 -11   0  11 -7.7879 9.86242   1
 -10   0  11 47.4700 7.85110   1
  -9   0  11 24.7522 6.52047   1
  -8   0  11 142.634 9.36580   1
  -7   0  11 69.9908 6.64292   1
  -6   0  11 148.602 7.14444   1
  -5   0  11 268.300 8.24628   1
  -4   0  11 31.2912 10.2206   1
  -3   0  11 367.373 12.7943   1
  -2   0  11 45.4312 5.45266   1
  -1   0  11 610.201 17.6700   1
   0   0  11 111.939 4.10129   1
   1   0  11 724.718 15.4043   1
   2   0  11 285.369 8.12407   1
   3   0  11 98.4454 5.59300   1
   4   0  11 170.278 7.14488   1
   5   0  11 63.4915 5.54292   1
   6   0  11 339.660 10.9139   1
   7   0  11 14.8674 5.66882   1
   8   0  11 216.864 11.3057   1
   9   0  11 32.2111 7.46907   1
   9   0  13 1.51729 24.2440  -2
  10   0  11 1.51729 24.2440   1
  10   0  13 38.3993 14.0825  -2
  11   0  11 38.3993 14.0825   1
 -12   1  11 48.5100 12.3080   1
 -11   1  11 -4.9305 7.81502   1
 -10   1  11 51.4779 8.14618   1
  -9   1  11 -1.8669 5.98464   1
  -8   1  11 120.852 8.42546   1
  -7   1  11 42.7025 5.70845   1
  -6   1  11 84.1681 5.94077   1
  -5   1  11 266.511 9.30015   1
  -4   1  11 81.7418 7.12783   1
  -3   1  11 351.069 12.3186   1
  -2   1  11 0.29894 3.08368   1
  -1   1  11 270.531 10.3723   1
   0   1  11 -0.4662 1.97463   1
   1   1  11 415.343 10.0354   1
   2   1  11 174.615 6.35238   1
   3   1  11 154.713 6.51334   1
   4   1  11 106.890 6.36379   1
   5   1  11 152.187 7.42536   1
   6   1  11 231.809 9.28745   1
   7   1  11 12.9142 5.48574   1
   8   1  11 135.899 9.68264   1
   9   1  11 10.1634 6.39760   1
   9   1  13 37.5374 22.4394  -2
  10   1  11 37.5374 22.4394   1
 -12   2  11 94.2678 41.6070   1
 -11   2  11 6.44048 9.83946   1
 -10   2  11 54.7003 9.19578   1
  -9   2  11 2.32559 6.03344   1
  -8   2  11 152.865 9.15157   1
  -7   2  11 162.164 8.28062   1
  -6   2  11 164.674 9.16731   1
  -5   2  11 124.424 14.6263   1
  -4   2  11 190.562 9.25090   1
  -3   2  11 397.860 13.6461   1
  -2   2  11 35.7622 5.30104   1
  -1   2  11 375.978 12.7768   1
   0   2  11 4.23115 3.90924   1
   1   2  11 242.224 7.25540   1
   2   2  11 2.63612 4.19295   1
   3   2  11 219.530 10.3515   1
   4   2  11 32.9940 4.91497   1
   5   2  11 106.880 6.90004   1
   5   2  12 340.627 20.2373  -2
   6   2  11 340.627 20.2373   1
   7   2  11 22.3833 6.07960   1
   8   2  11 153.484 10.2173   1
   9   2  11 17.1657 6.57888   1
   9   2  13 198.193 15.5316  -2
  10   2  11 198.193 15.5316   1
 -12   3  11 25.3756 15.1361   1
 -11   3  11 -2.1813 12.0660   1
 -10   3  11 69.8044 12.3451   1
  -9   3  11 6.81298 9.10202   1
  -8   3  11 158.722 18.8120   1
  -7   3  11 32.5411 12.9581   1
  -6   3  11 188.155 18.1899   1
  -5   3  11 -5.5063 4.48626   1
  -4   3  11 174.121 9.26066   1
  -3   3  11 238.846 10.1579   1
  -2   3  11 174.049 8.58300   1
  -1   3  11 148.483 7.95069   1
   0   3  11 2.48407 2.53778   1
   1   3  11 172.472 6.35938   1
   2   3  11 18.8870 3.80703   1
   3   3  11 265.460 8.66160   1
   4   3  11 33.8521 5.06950   1
   4   3  12 286.350 14.2953  -2
   5   3  11 286.350 14.2953   1
   5   3  12 148.249 14.2725  -2
   6   3  11 148.249 14.2725   1
   7   3  11 57.4805 9.84576   1
   8   3  11 136.337 10.0190   1
   9   3  11 20.3341 6.69573   1
   9   3  13 88.8636 14.3133  -2
  10   3  11 88.8636 14.3133   1
 -11   4  11 37.2756 12.8374   1
 -10   4  11 59.1645 12.2094   1
  -9   4  11 19.4670 10.3870   1
  -8   4  11 187.532 21.2598   1
  -7   4  11 3.66244 11.7502   1
  -6   4  11 268.054 12.4236   1
  -5   4  11 0.79430 4.69226   1
  -4   4  11 141.201 8.61778   1
  -3   4  11 113.698 7.73201   1
  -2   4  11 32.8548 5.62122   1
  -1   4  11 79.4913 6.82078   1
   0   4  11 15.2139 3.18289   1
   1   4  11 331.810 9.28232   1
   2   4  11 99.5213 5.82728   1
   3   4  11 318.000 9.88082   1
   4   4  11 2.53868 5.47886   1
   4   4  12 390.485 28.3569  -2
   5   4  11 390.485 28.3569   1
   6   4  11 69.5066 8.42433   1
   7   4  11 188.151 15.0266   1
   8   4  11 91.1084 8.76866   1
   9   4  11 70.7178 8.19435   1
 -11   5  11 57.2270 20.9255   1
 -10   5  11 74.1449 18.9198   1
  -9   5  11 57.7486 17.4544   1
  -8   5  11 108.004 10.0251   1
  -7   5  11 6.62388 6.38397   1
  -6   5  11 175.521 10.5799   1
  -5   5  11 -0.3039 5.15078   1
  -4   5  11 217.743 10.8352   1
  -3   5  11 64.6561 6.89150   1
  -2   5  11 117.270 7.85415   1
  -1   5  11 16.8537 4.99094   1
   0   5  11 148.797 6.34395   1
   1   5  11 268.297 8.58009   1
   2   5  11 140.376 6.84534   1
   3   5  11 270.519 9.36093   1
   3   5  12 -4.9183 21.4708  -2
   4   5  11 -4.9183 21.4708   1
   4   5  12 364.089 30.9958  -2
   5   5  11 364.089 30.9958   1
   6   5  11 -3.8058 7.35097   1
   7   5  11 58.7180 10.0311   1
   8   5  11 1.98222 6.04773   1
   9   5  11 41.7462 8.10736   1
 -10   6  11 14.7485 8.68223   1
  -9   6  11 38.0773 8.92546   1
  -8   6  11 41.1118 8.05780   1
  -7   6  11 15.5240 6.59759   1
  -6   6  11 98.6517 9.39305   1
  -5   6  11 0.91360 5.56221   1
  -4   6  11 225.852 11.1490   1
  -3   6  11 -2.6212 5.15558   1
  -2   6  11 196.266 10.0552   1
  -1   6  11 13.2540 5.15935   1
   0   6  11 340.793 10.6875   1
   1   6  11 177.151 7.92638   1
   2   6  11 159.433 7.95426   1
   3   6  11 228.096 9.15066   1
   4   6  11 16.3188 5.02067   1
   5   6  11 222.859 13.1262   1
   6   6  11 -5.9991 5.51479   1
   7   6  11 41.9736 9.93785   1
   8   6  11 24.9262 7.26204   1
 -10   7  11 9.53186 8.43968   1
 -10   6  11 39.5956 26.6986  -2
  -9   7  11 39.5956 26.6986   1
  -9   6  11 11.8556 23.7234  -2
  -8   7  11 11.8556 23.7234   1
  -8   6  11 54.0748 24.6206  -2
  -7   7  11 54.0748 24.6206   1
  -6   7  11 76.6954 8.79011   1
  -5   7  11 23.3376 6.25373   1
  -4   7  11 117.581 8.90036   1
  -3   7  11 2.71770 5.43498   1
  -2   7  11 251.745 11.9186   1
  -1   7  11 6.38837 5.79416   1
   0   7  11 337.914 14.0466   1
   1   7  11 45.5181 5.79684   1
   2   7  11 132.152 7.86740   1
   3   7  11 134.195 7.93666   1
   4   7  11 42.8849 6.43757   1
   5   7  11 126.576 8.85675   1
   6   7  11 20.1648 7.19358   1
   7   7  11 62.1789 10.8266   1
   8   7  11 1.69064 6.93039   1
 -10   7  11 53.1252 27.2124  -2
  -9   8  11 53.1252 27.2124   1
  -9   7  11 41.1473 24.4727  -2
  -8   8  11 41.1473 24.4727   1
  -8   7  11 70.1991 15.9191  -2
  -7   8  11 70.1991 15.9191   1
  -7   7  11 76.2084 16.7451  -2
  -6   8  11 76.2084 16.7451   1
  -5   8  11 35.9007 7.26235   1
  -4   8  11 46.2089 7.36922   1
  -3   8  11 3.42997 5.83149   1
  -2   8  11 167.361 10.5955   1
  -1   8  11 -1.3717 5.64913   1
   0   8  11 127.062 10.2454   1
   1   8  11 3.73812 5.10773   1
   2   8  11 144.737 8.67211   1
   3   8  11 86.2222 8.09168   1
   4   8  11 108.772 11.4999   1
   5   8  11 71.4102 9.10100   1
   6   8  11 5.85609 6.71332   1
   7   8  11 92.7686 9.43375   1
  -9   8  11 33.7666 16.8764  -2
  -8   9  11 33.7666 16.8764   1
  -8   8  11 120.131 21.6036  -2
  -7   9  11 120.131 21.6036   1
  -7   8  11 -30.559 18.0405  -2
  -6   9  11 -30.559 18.0405   1
  -5   9  11 43.3585 7.85317   1
  -5   8  12 41.3708 21.8869  -2
  -4   9  11 41.3708 21.8869   1
  -4   8  12 97.6818 23.6433  -2
  -3   9  11 97.6818 23.6433   1
  -3   8  12 225.664 20.0888  -2
  -2   9  11 225.664 20.0888   1
  -1   9  11 32.9519 7.53397   1
   0   9  11 155.053 11.1817   1
   1   9  11 6.76204 7.14308   1
   2   9  11 115.243 10.9874   1
   3   9  11 33.9105 8.58052   1
   4   9  11 151.147 12.7733   1
   5   9  11 40.2433 8.48638   1
   6   9  11 51.6859 9.08715   1
  -8   9  11 98.0993 22.9947  -2
  -7  10  11 98.0993 22.9947   1
  -7   9  11 -2.6963 21.0485  -2
  -6  10  11 -2.6963 21.0485   1
  -5  10  11 38.4441 8.25909   1
  -5   9  12 15.3430 20.3816  -2
  -4  10  11 15.3430 20.3816   1
  -4   9  12 42.5337 14.9496  -2
  -3  10  11 42.5337 14.9496   1
  -3   9  12 112.086 20.0745  -2
  -2  10  11 112.086 20.0745   1
  -1  10  11 32.9176 7.61124   1
   0  10  11 79.0939 9.68234   1
   1  10  11 5.29090 8.08238   1
   2  10  11 76.5801 10.4986   1
   3  10  11 -2.2902 8.22323   1
   4  10  11 118.386 12.8431   1
   5  10  11 -9.8344 7.47332   1
  -5  11  11 87.2927 11.0074   1
  -4  11  11 20.6326 8.58291   1
  -4  10  12 45.2760 22.6296  -2
  -3  11  11 45.2760 22.6296   1
  -3  10  12 33.2304 19.6014  -2
  -2  11  11 33.2304 19.6014   1
  -1  11  11 9.15926 8.57507   1
   0  11  11 20.6553 9.03787   1
   1  11  11 14.7348 9.00830   1
   2  11  11 94.9165 11.7474   1
   3  11  11 5.12877 9.60815   1
  -2  12  11 11.7263 13.2250   1
  -1  12  11 60.7089 11.1383   1
   0  12  11 11.4816 14.6139   1
  -1 -17  11 32.7388 11.2910  -2
  -1 -17  12 32.7388 11.2910   1
   0 -17  11 4.00263 9.90769  -2
   0 -17  12 4.00263 9.90769   1
   1 -17  11 51.2533 9.91941  -2
   1 -17  12 51.2533 9.91941   1
  -4 -16  12 57.8931 11.0005   1
  -3 -16  12 31.4424 9.67301   1
  -2 -16  11 81.7430 12.3159  -2
  -2 -16  12 81.7430 12.3159   1
  -1 -16  11 48.5163 11.4170  -2
  -1 -16  12 48.5163 11.4170   1
   0 -16  11 7.91256 9.84134  -2
   0 -16  12 7.91256 9.84134   1
   1 -16  11 54.8589 11.2004  -2
   1 -16  12 54.8589 11.2004   1
   2 -16  11 27.0904 14.4000  -2
   2 -16  12 27.0904 14.4000   1
   3 -16  11 47.5291 15.7335  -2
   3 -16  12 47.5291 15.7335   1
   3 -16  12 74.5398 19.8266  -2
   3 -16  12 74.5398 19.8266   1
   4 -16  12 1.26406 11.6221  -2
   4 -16  12 1.26406 11.6221   1
  -6 -15  10 107.580 19.5152  -2
  -6 -15  12 107.580 19.5152   1
  -5 -15  10 42.3971 25.4345  -2
  -5 -15  12 42.3971 25.4345   1
  -4 -15  11 98.0559 23.9765  -2
  -4 -15  12 98.0559 23.9765   1
  -3 -15  11 26.1179 11.8869  -2
  -3 -15  12 26.1179 11.8869   1
  -2 -15  11 24.8979 11.1933  -2
  -2 -15  12 24.8979 11.1933   1
  -1 -15  11 25.8739 17.5685  -2
  -1 -15  12 25.8739 17.5685   1
   0 -15  11 69.6509 18.0617  -2
   0 -15  12 69.6509 18.0617   1
   1 -15  11 67.6183 11.8968  -2
   1 -15  12 67.6183 11.8968   1
   2 -15  11 118.561 16.0070  -2
   2 -15  12 118.561 16.0070   1
   3 -15  12 62.3129 18.1917  -2
   3 -15  12 62.3129 18.1917   1
   3 -15  11 58.2095 16.1726  -2
   3 -15  12 58.2095 16.1726   1
   4 -15  12 -2.0084 11.2519  -2
   4 -15  12 -2.0084 11.2519   1
   5 -15  12 68.5320 10.3318  -2
   5 -15  12 68.5320 10.3318   1
   6 -15  12 -7.7243 11.0030  -2
   6 -15  12 -7.7243 11.0030   1
  -7 -14  12 5.27245 9.31808   1
  -6 -14  10 59.8899 26.3724  -2
  -6 -14  12 59.8899 26.3724   1
  -5 -14  11 66.2036 24.3227  -2
  -5 -14  12 66.2036 24.3227   1
  -4 -14  11 121.930 21.0884  -2
  -4 -14  12 121.930 21.0884   1
  -2 -14  11 17.1416 10.6235  -2
  -2 -14  12 17.1416 10.6235   1
  -1 -14  11 36.8228 10.3595  -2
  -1 -14  12 36.8228 10.3595   1
   0 -14  11 52.5940 10.3492  -2
   0 -14  12 52.5940 10.3492   1
   1 -14  11 96.7609 11.3905  -2
   1 -14  12 96.7609 11.3905   1
   2 -14  11 101.485 16.1973  -2
   2 -14  12 101.485 16.1973   1
   3 -14  12 115.274 15.2034   1
   4 -14  12 -2.8366 9.07258  -2
   4 -14  12 -2.8366 9.07258   1
   5 -14  12 83.1661 12.3648  -2
   5 -14  12 83.1661 12.3648   1
   6 -14  12 -7.4301 14.2309  -2
   6 -14  12 -7.4301 14.2309   1
   7 -14  12 51.4415 12.6511  -2
   7 -14  12 51.4415 12.6511   1
  -8 -13  12 21.8709 10.1979   1
  -7 -13  12 59.0448 12.1523   1
  -6 -13  12 52.4159 8.22131   1
  -5 -13  12 27.8388 6.74178   1
  -4 -13  12 67.5691 8.08322   1
  -3 -13  11 39.9557 10.3296  -2
  -3 -13  12 39.9557 10.3296   1
  -2 -13  11 120.320 12.0172  -2
  -2 -13  12 120.320 12.0172   1
  -1 -13  11 38.8138 9.53801  -2
  -1 -13  12 38.8138 9.53801   1
   0 -13  11 93.0771 15.6613  -2
   0 -13  12 93.0771 15.6613   1
   1 -13  11 73.3261 13.8370  -2
   1 -13  12 73.3261 13.8370   1
   2 -13  11 96.9001 16.4555  -2
   2 -13  12 96.9001 16.4555   1
   3 -13  12 71.9990 16.2305  -2
   3 -13  12 71.9990 16.2305   1
   4 -13  12 1.86649 9.59151   1
   5 -13  12 136.364 13.3110  -2
   5 -13  12 136.364 13.3110   1
   6 -13  12 0.04021 15.6531  -2
   6 -13  12 0.04021 15.6531   1
   7 -13  12 37.6368 13.2499  -2
   7 -13  12 37.6368 13.2499   1
   8 -13  12 -10.833 18.3531  -2
   8 -13  12 -10.833 18.3531   1
  -9 -12  12 99.4495 17.6556   1
  -8 -12  12 13.3089 10.0113   1
  -7 -12  12 32.2435 8.00940   1
  -6 -12  12 54.2146 6.82228   1
  -5 -12  12 11.8501 5.33008   1
  -4 -12  12 78.2858 7.41110   1
  -3 -12  12 8.02234 14.3499   1
  -2 -12  12 191.767 17.5024   1
  -1 -12  12 12.0776 8.69480   1
   0 -12  12 87.9424 12.1017   1
   1 -12  12 11.4797 7.94606   1
   2 -12  12 131.831 16.4467  -2
   2 -12  12 131.831 16.4467   1
   3 -12  12 -2.1427 13.8586  -2
   3 -12  12 -2.1427 13.8586   1
   4 -12  12 34.6221 10.3552   1
   5 -12  12 128.095 13.0426  -2
   5 -12  12 128.095 13.0426   1
   6 -12  12 8.50673 12.0937  -2
   6 -12  12 8.50673 12.0937   1
   7 -12  12 53.2863 18.2963  -2
   7 -12  12 53.2863 18.2963   1
   8 -12  12 -8.4264 18.0865  -2
   8 -12  12 -8.4264 18.0865   1
 -10 -11  12 1.62715 12.1858   1
  -9 -11  12 91.5056 15.5689   1
  -8 -11  12 1.49368 6.81216   1
  -7 -11  12 86.6067 7.91645   1
  -6 -11  12 13.2843 6.87520   1
  -5 -11  12 33.1773 7.50687   1
  -4 -11  12 97.1883 8.93018   1
  -3 -11  12 31.6629 6.25099   1
  -2 -11  11 152.086 15.7041  -2
  -2 -11  12 152.086 15.7041   1
  -1 -11  11 95.9189 12.2602  -2
  -1 -11  12 95.9189 12.2602   1
   0 -11  11 168.746 16.5932  -2
   0 -11  12 168.746 16.5932   1
   1 -11  12 -6.3331 7.27300   1
   2 -11  12 294.414 19.1270  -2
   2 -11  12 294.414 19.1270   1
   3 -11  12 -6.2088 7.34711   1
   4 -11  12 44.8310 14.7195  -2
   4 -11  12 44.8310 14.7195   1
   5 -11  12 30.4670 15.7520  -2
   5 -11  12 30.4670 15.7520   1
   6 -11  12 54.7934 18.1447  -2
   6 -11  12 54.7934 18.1447   1
   7 -11  12 61.6150 18.6332  -2
   7 -11  12 61.6150 18.6332   1
   8 -11  12 9.56004 8.21079   1
   9 -11  12 25.3643 9.15949   1
 -10 -10  12 -0.3969 7.95922   1
  -9 -10  12 103.697 10.7259   1
  -8 -10  12 -10.565 6.35752   1
  -7 -10  12 108.380 10.0099   1
  -6 -10  12 -3.4791 7.89893   1
  -5 -10  12 206.357 9.79506   1
  -4 -10  12 131.287 8.44695   1
  -3 -10  12 209.390 9.57148   1
  -2 -10  12 107.584 9.37489   1
  -1 -10  11 65.4741 13.0624  -2
  -1 -10  12 65.4741 13.0624   1
   0 -10  12 248.624 8.61716   1
   1 -10  12 0.69213 6.04828   1
   2 -10  12 377.357 20.6833  -2
   2 -10  12 377.357 20.6833   1
   3 -10  12 79.7074 15.0228  -2
   3 -10  12 79.7074 15.0228   1
   5 -10  12 9.66844 9.38063   1
   6 -10  12 140.919 18.1050  -2
   6 -10  12 140.919 18.1050   1
   7 -10  12 33.8267 8.12584   1
   8 -10  12 19.1301 8.33944   1
   9 -10  12 34.7544 9.64586   1
 -11  -9  12 10.7232 8.29597   1
 -10  -9  12 17.4346 8.01860   1
  -9  -9  12 51.9503 8.87993   1
  -8  -9  12 21.8082 8.98630   1
  -7  -9  12 165.144 10.0188   1
  -6  -9  12 15.4841 5.63945   1
  -5  -9  12 386.113 12.3330   1
  -4  -9  12 69.7164 6.40295   1
  -3  -9  12 204.687 9.14287   1
  -2  -9  12 127.030 9.41753   1
  -1  -9  12 84.0966 5.78771   1
   0  -9  12 124.224 6.04853   1
   1  -9  12 95.4914 5.97933   1
   2  -9  12 55.1206 5.11297   1
   3  -9  12 -9.4168 12.2256  -2
   3  -9  12 -9.4168 12.2256   1
   4  -9  12 163.866 16.9361  -2
   4  -9  12 163.866 16.9361   1
   5  -9  12 0.70886 8.68703   1
   6  -9  12 295.472 21.4131  -2
   6  -9  12 295.472 21.4131   1
   7  -9  12 34.9032 7.85462   1
   8  -9  12 57.3717 8.77971   1
   9  -9  12 24.8961 8.94554   1
  10  -9  12 16.4008 9.56526   1
 -11  -8  12 4.61419 8.31907   1
 -10  -8  12 47.6255 9.02312   1
  -9  -8  12 91.6776 9.41817   1
  -8  -8  12 29.8319 8.89179   1
  -7  -8  12 158.313 9.40977   1
  -6  -8  12 6.38309 4.99285   1
  -5  -8  12 171.546 8.81291   1
  -4  -8  12 43.1950 5.68223   1
  -3  -8  12 191.213 8.64744   1
  -2  -8  12 52.5229 7.17715   1
  -1  -8  12 148.439 6.52824   1
   0  -8  12 132.775 6.07031   1
   1  -8  12 74.4327 8.05588   1
   2  -8  12 75.0976 5.80098   1
   3  -8  12 14.8655 6.05667   1
   4  -8  12 303.445 10.1341   1
   5  -8  12 -2.1994 8.32595   1
   6  -8  12 203.199 9.08881   1
   7  -8  12 19.9704 5.86697   1
   8  -8  12 54.1485 9.42748   1
   9  -8  12 25.3630 9.09957   1
  10  -8  12 24.7443 9.83061   1
 -11  -7  12 7.43499 11.1397   1
 -10  -7  12 76.2876 9.74029   1
  -9  -7  12 50.2801 7.63953   1
  -8  -7  12 146.955 9.44507   1
  -7  -7  12 95.0035 10.7535   1
  -6  -7  12 38.5780 5.72456   1
  -5  -7  12 190.673 8.90646   1
  -4  -7  12 1.91095 4.33701   1
  -3  -7  12 280.396 9.80015   1
  -2  -7  12 36.8829 6.23021   1
  -1  -7  12 216.046 7.70653   1
   0  -7  12 117.175 5.61863   1
   1  -7  12 236.096 7.78376   1
   2  -7  12 115.286 6.26152   1
   3  -7  12 58.8579 5.47982   1
   4  -7  12 462.077 13.7441   1
   5  -7  12 9.93855 4.95214   1
   6  -7  12 233.498 11.3349   1
   7  -7  12 7.82369 5.44674   1
   8  -7  12 149.812 9.50565   1
   9  -7  12 22.6301 7.51246   1
  10  -7  12 33.7191 9.31877   1
 -12  -6  12 12.9734 10.4900   1
 -11  -6  12 12.7873 10.7832   1
 -10  -6  12 120.974 10.9799   1
  -9  -6  12 51.6832 7.18432   1
  -8  -6  12 86.0365 7.68589   1
  -7  -6  12 139.536 11.6419   1
  -6  -6  12 104.096 7.61323   1
  -5  -6  12 121.973 7.46690   1
  -4  -6  12 34.4980 4.99472   1
  -3  -6  12 225.252 8.41604   1
  -2  -6  12 5.87471 5.56123   1
  -1  -6  12 210.511 9.15363   1
   0  -6  12 -0.9071 2.66335   1
   1  -6  12 379.925 10.0285   1
   2  -6  12 143.090 6.61404   1
   3  -6  12 115.294 6.47405   1
   4  -6  12 289.885 9.71828   1
   5  -6  12 80.7680 6.76736   1
   6  -6  12 165.661 9.79556   1
   7  -6  12 13.4942 5.45672   1
   8  -6  12 144.195 9.15228   1
   9  -6  12 9.06541 6.61600   1
  10  -6  12 72.9900 10.2999   1
 -12  -6  10 68.8603 23.3621  -2
 -12  -5  12 68.8603 23.3621   1
 -11  -5  12 12.1010 10.2571   1
 -10  -5  12 130.082 11.9929   1
  -9  -5  12 7.44566 6.37630   1
  -8  -5  12 88.7634 8.11198   1
  -7  -5  12 98.1391 7.80489   1
  -6  -5  12 170.902 11.5781   1
  -5  -5  12 194.437 8.02056   1
  -4  -5  12 99.5463 6.40119   1
  -3  -5  12 225.631 8.16595   1
  -2  -5  12 31.2365 3.97594   1
  -1  -5  12 276.984 8.00071   1
   0  -5  12 48.3283 4.28656   1
   1  -5  12 377.068 9.97596   1
   2  -5  12 24.1091 3.73932   1
   3  -5  12 320.035 9.66677   1
   4  -5  12 75.2100 6.17068   1
   5  -5  12 86.4166 6.81593   1
   6  -5  12 191.287 8.90829   1
   7  -5  12 50.5659 11.1097   1
   8  -5  12 163.641 9.44359   1
   9  -5  12 15.6272 6.77838   1
  10  -5  12 40.8589 8.99614   1
  11  -5  12 -2.8980 8.53226   1
 -12  -4  12 65.1325 10.1884   1
 -11  -4  12 37.2583 9.29093   1
 -10  -4  12 109.922 9.78514   1
  -9  -4  12 -5.0830 5.77330   1
  -8  -4  12 189.166 9.56533   1
  -7  -4  12 9.09643 5.20830   1
  -6  -4  12 154.131 8.06372   1
  -5  -4  12 55.4657 8.00085   1
  -4  -4  12 98.7399 9.78547   1
  -3  -4  12 91.2442 5.55382   1
  -2  -4  12 80.9994 5.05392   1
  -1  -4  12 305.675 8.39157   1
   0  -4  12 49.5688 4.18856   1
   1  -4  12 259.553 7.78574   1
   2  -4  12 48.5910 5.73464   1
   3  -4  12 472.835 12.2164   1
   4  -4  12 26.5525 4.46517   1
   5  -4  12 67.1242 6.08801   1
   6  -4  12 51.2864 6.15166   1
   7  -4  12 85.5770 8.84679   1
   8  -4  12 82.4180 8.02511   1
   9  -4  12 11.6419 7.40550   1
  10  -4  12 10.6887 7.92136   1
  10  -4  14 -44.418 28.9161  -2
  11  -4  12 -44.418 28.9161   1
 -12  -3  12 26.8450 10.0547   1
 -11  -3  12 27.9842 8.81209   1
 -10  -3  12 110.306 9.62065   1
  -9  -3  12 9.07219 6.27011   1
  -8  -3  12 239.819 10.3767   1
  -7  -3  12 3.22902 4.98781   1
  -6  -3  12 170.410 7.95759   1
  -5  -3  12 69.9767 8.65854   1
  -4  -3  12 239.792 12.2258   1
  -3  -3  12 230.261 8.36984   1
  -2  -3  12 303.856 8.09697   1
  -1  -3  12 187.290 6.27971   1
   0  -3  12 23.5491 3.30222   1
   1  -3  12 368.189 10.0935   1
   2  -3  12 2.61199 2.91555   1
   3  -3  12 419.972 11.0814   1
   4  -3  12 95.5320 6.14948   1
   5  -3  12 157.944 7.80436   1
   6  -3  12 95.3447 7.41957   1
   7  -3  12 148.789 9.06326   1
   8  -3  12 65.9110 8.28623   1
   9  -3  12 31.7882 8.03553   1
  10  -3  12 21.6918 8.57734   1
  10  -3  14 33.6562 27.9143  -2
  11  -3  12 33.6562 27.9143   1
 -12  -2  12 6.32115 9.39694   1
 -11  -2  12 30.2852 9.43124   1
 -10  -2  12 69.9084 8.45854   1
  -9  -2  12 60.2238 7.75393   1
  -8  -2  12 175.519 9.41059   1
  -7  -2  12 12.8715 5.22961   1
  -6  -2  12 162.161 7.44271   1
  -5  -2  12 8.89170 3.92713   1
  -4  -2  12 463.654 11.6417   1
  -3  -2  12 190.356 5.92048   1
  -2  -2  12 633.054 18.7311   1
  -1  -2  12 146.143 5.15247   1
   0  -2  12 122.985 5.05874   1
   1  -2  12 722.690 15.6446   1
   2  -2  12 209.816 7.09000   1
   3  -2  12 265.157 8.52109   1
   4  -2  12 5.11251 4.24323   1
   5  -2  12 217.810 8.59006   1
   6  -2  12 54.2659 6.07620   1
   7  -2  12 99.1981 7.91220   1
   8  -2  12 48.7534 7.80431   1
   9  -2  12 64.8189 9.23470   1
  10  -2  12 63.5096 9.26663   1
  10  -2  14 105.606 15.8531  -2
  11  -2  12 105.606 15.8531   1
 -12  -1  12 12.4834 10.3538   1
 -11  -1  12 35.5526 9.22970   1
 -10  -1  12 31.2087 7.88705   1
  -9  -1  12 110.387 8.75875   1
  -8  -1  12 93.8473 7.73377   1
  -7  -1  12 13.6123 5.03452   1
  -6  -1  12 216.600 8.41409   1
  -5  -1  12 4.22434 3.46518   1
  -4  -1  12 379.304 21.8730   1
  -3  -1  12 8.79488 4.34489   1
  -2  -1  12 394.031 13.4729   1
  -1  -1  12 108.312 6.97180   1
   0  -1  12 364.522 8.88545   1
   1  -1  12 472.418 11.1548   1
   2  -1  12 94.2069 6.01218   1
   3  -1  12 343.945 12.9257   1
   4  -1  12 50.7795 4.99565   1
   5  -1  12 210.099 8.40675   1
   6  -1  12 2.18525 4.33854   1
   7  -1  12 154.812 8.95309   1
   8  -1  12 4.49270 5.92333   1
   9  -1  12 100.404 9.63504   1
   9  -1  14 28.3605 25.8891  -2
  10  -1  12 28.3605 25.8891   1
 -12   0  12 -4.6124 11.9425   1
 -11   0  12 58.6963 12.3800   1
 -10   0  12 35.3770 7.99652   1
  -9   0  12 108.741 8.95244   1
  -8   0  12 66.9153 7.14202   1
  -7   0  12 76.4597 9.51303   1
  -6   0  12 220.597 8.54892   1
  -5   0  12 10.9039 9.76121   1
  -4   0  12 426.237 14.7591   1
  -3   0  12 1.35055 3.88776   1
  -2   0  12 287.002 11.0424   1
  -1   0  12 18.3915 4.18739   1
   0   0  12 216.277 6.02928   1
   1   0  12 63.5812 4.38397   1
   2   0  12 103.583 6.10178   1
   3   0  12 458.122 12.1990   1
   4   0  12 82.4801 6.28669   1
   5   0  12 138.562 7.50097   1
   5   0  13 -3.9995 11.8440  -2
   6   0  12 -3.9995 11.8440   1
   7   0  12 251.979 10.4911   1
   8   0  12 1.32322 5.71129   1
   9   0  12 138.079 11.0716   1
  10   0  12 50.3748 8.65698   1
 -11   1  12 48.6434 11.2197   1
 -10   1  12 2.98280 9.58086   1
  -9   1  12 58.1971 10.2745   1
  -8   1  12 91.7253 10.7770   1
  -7   1  12 112.313 13.3147   1
  -6   1  12 36.8810 8.25564   1
  -5   1  12 91.3003 14.8858   1
  -4   1  12 252.500 10.8393   1
  -3   1  12 50.5271 5.43707   1
  -2   1  12 444.791 14.6899   1
  -1   1  12 17.8615 4.56167   1
   0   1  12 360.986 12.6440   1
   1   1  12 8.85550 3.05036   1
   2   1  12 295.555 9.60681   1
   3   1  12 329.566 12.9099   1
   4   1  12 72.5721 5.83806   1
   5   1  12 131.048 7.46975   1
   5   1  13 61.1232 14.9775  -2
   6   1  12 61.1232 14.9775   1
   6   1  13 294.480 19.7986  -2
   7   1  12 294.480 19.7986   1
   8   1  12 -2.4376 5.85059   1
   9   1  12 167.646 11.2852   1
   9   1  14 36.6856 14.3259  -2
  10   1  12 36.6856 14.3259   1
 -11   2  12 23.5016 11.2261   1
 -10   2  12 12.5746 9.96283   1
  -9   2  12 120.279 13.3765   1
  -8   2  12 -1.8286 10.8527   1
  -7   2  12 56.4608 9.53600   1
  -6   2  12 11.5141 9.90336   1
  -5   2  12 53.9957 6.39321   1
  -4   2  12 316.930 12.3280   1
  -3   2  12 99.9882 7.31967   1
  -2   2  12 269.226 10.9162   1
  -1   2  12 56.0956 6.11700   1
   0   2  12 159.061 8.44194   1
   1   2  12 3.79000 3.10662   1
   2   2  12 212.503 8.28676   1
   3   2  12 8.23433 4.01637   1
   4   2  12 177.621 7.74703   1
   4   2  13 64.9046 11.4807  -2
   5   2  12 64.9046 11.4807   1
   5   2  13 145.675 13.7181  -2
   6   2  12 145.675 13.7181   1
   7   2  12 170.570 14.7762   1
   7   2  13 6.73023 14.0717  -2
   8   2  12 6.73023 14.0717   1
   9   2  12 136.119 10.7041   1
   9   2  14 23.2108 17.2146  -2
  10   2  12 23.2108 17.2146   1
 -11   3  12 49.5328 13.5792   1
 -10   3  12 16.1655 11.2030   1
  -9   3  12 183.731 15.4018   1
  -7   3  12 193.972 20.9803   1
  -6   3  12 5.75435 5.85432   1
  -5   3  12 119.622 8.50704   1
  -4   3  12 122.367 8.43689   1
  -3   3  12 41.3863 5.64372   1
  -2   3  12 119.834 7.67723   1
  -1   3  12 49.1782 5.92059   1
   0   3  12 210.314 9.81828   1
   1   3  12 28.9197 3.93622   1
   2   3  12 252.960 8.44166   1
   3   3  12 1.06943 3.66334   1
   4   3  12 174.442 8.73034   1
   4   3  13 43.3705 12.1048  -2
   5   3  12 43.3705 12.1048   1
   5   3  13 142.316 15.6537  -2
   6   3  12 142.316 15.6537   1
   7   3  12 115.123 13.8594   1
   8   3  12 28.0699 6.78005   1
   9   3  12 49.4378 7.59906   1
 -11   4  12 55.7472 14.1258   1
 -10   4  12 33.1230 18.3902   1
  -9   4  12 67.6612 17.0804   1
  -8   4  12 7.67692 13.3467   1
  -7   4  12 211.638 12.1177   1
  -6   4  12 6.95202 6.58341   1
  -5   4  12 220.206 11.5140   1
  -4   4  12 44.4490 6.43122   1
  -3   4  12 138.885 8.60606   1
  -2   4  12 59.8111 6.47689   1
  -1   4  12 113.590 7.69736   1
   0   4  12 133.105 8.55347   1
   1   4  12 41.7636 4.29975   1
   2   4  12 274.640 8.97875   1
   3   4  12 1.38879 4.47389   1
   3   4  13 498.654 32.0302  -2
   4   4  12 498.654 32.0302   1
   4   4  13 85.6994 27.5106  -2
   5   4  12 85.6994 27.5106   1
   6   4  12 223.881 14.1779   1
   6   4  13 80.1119 17.2439  -2
   7   4  12 80.1119 17.2439   1
   8   4  12 58.7953 8.37383   1
   9   4  12 28.9857 7.40356   1
 -10   5  12 24.4176 16.6394   1
  -9   5  12 44.4619 8.38923   1
  -8   5  12 -4.6484 6.22062   1
  -8   4  12 100.202 24.2855  -2
  -7   5  12 100.202 24.2855   1
  -6   5  12 2.63585 5.97894   1
  -5   5  12 178.354 18.9186   1
  -4   5  12 5.14175 5.09073   1
  -3   5  12 230.679 11.1312   1
  -2   5  12 52.4252 6.87292   1
  -1   5  12 173.305 9.56070   1
   0   5  12 198.187 10.1371   1
   1   5  12 202.784 8.17073   1
   2   5  12 353.513 14.7940   1
   3   5  12 -0.4499 4.46435   1
   4   5  12 213.200 9.29016   1
   5   5  12 5.99225 7.42009   1
   6   5  12 147.798 14.3877   1
   6   5  13 -8.5183 16.7586  -2
   7   5  12 -8.5183 16.7586   1
   8   5  12 71.8212 8.16874   1
 -10   6  12 60.1292 9.34331   1
 -10   5  12 83.2913 26.5548  -2
  -9   6  12 83.2913 26.5548   1
  -9   5  12 88.6558 25.0598  -2
  -8   6  12 88.6558 25.0598   1
  -8   5  12 49.3387 24.5037  -2
  -7   6  12 49.3387 24.5037   1
  -7   5  12 40.0728 22.3133  -2
  -6   6  12 40.0728 22.3133   1
  -6   5  12 106.868 15.8545  -2
  -5   6  12 106.868 15.8545   1
  -4   6  12 2.08797 6.57859   1
  -3   6  12 178.811 10.2752   1
  -2   6  12 15.5380 5.33710   1
  -1   6  12 223.248 12.8684   1
   0   6  12 53.0598 10.0894   1
   1   6  12 131.459 9.74439   1
   2   6  12 156.267 8.08806   1
   3   6  12 33.6911 5.51175   1
   4   6  12 151.678 11.2919   1
   5   6  12 26.9280 8.27589   1
   6   6  12 126.973 13.9426   1
   7   6  12 8.79716 6.64995   1
   8   6  12 75.2931 8.68535   1
 -10   6  12 58.7104 27.0449  -2
  -9   7  12 58.7104 27.0449   1
  -9   6  12 43.4202 24.9482  -2
  -8   7  12 43.4202 24.9482   1
  -8   6  12 83.1040 15.0135  -2
  -7   7  12 83.1040 15.0135   1
  -7   6  12 39.4932 17.1105  -2
  -6   7  12 39.4932 17.1105   1
  -6   6  12 80.5483 16.0585  -2
  -5   7  12 80.5483 16.0585   1
  -4   7  12 0.86352 5.15973   1
  -3   7  12 104.006 9.02607   1
  -2   7  12 -4.2645 5.13916   1
  -2   6  13 185.509 25.0578  -2
  -1   7  12 185.509 25.0578   1
   0   7  12 38.0300 7.05117   1
   1   7  12 140.290 10.0738   1
   2   7  12 72.9779 7.28619   1
   3   7  12 35.8751 6.12430   1
   4   7  12 193.099 13.0138   1
   5   7  12 14.3152 7.56601   1
   6   7  12 91.8598 12.8045   1
   7   7  12 -4.6278 6.77911   1
  -9   7  12 41.4719 25.7754  -2
  -8   8  12 41.4719 25.7754   1
  -8   7  12 34.8859 15.3202  -2
  -7   8  12 34.8859 15.3202   1
  -7   7  12 43.9553 17.3667  -2
  -6   8  12 43.9553 17.3667   1
  -6   7  12 35.1911 15.6612  -2
  -5   8  12 35.1911 15.6612   1
  -4   8  12 26.7468 6.62211   1
  -4   7  13 138.294 23.3076  -2
  -3   8  12 138.294 23.3076   1
  -3   7  13 -10.215 19.6126  -2
  -2   8  12 -10.215 19.6126   1
  -2   7  13 308.714 27.7204  -2
  -1   8  12 308.714 27.7204   1
   0   8  12 9.37188 6.38798   1
   1   8  12 194.227 11.7971   1
   2   8  12 32.6212 8.18230   1
   3   8  12 132.956 11.4434   1
   4   8  12 91.7444 10.8101   1
   5   8  12 16.8544 10.2431   1
   6   8  12 83.2518 13.3950   1
  -8   8  12 30.5537 15.7528  -2
  -7   9  12 30.5537 15.7528   1
  -7   8  12 43.5021 18.0604  -2
  -6   9  12 43.5021 18.0604   1
  -5   9  12 16.4885 7.42676   1
  -5   8  13 23.1152 20.3458  -2
  -4   9  12 23.1152 20.3458   1
  -4   8  13 58.8398 22.8985  -2
  -3   9  12 58.8398 22.8985   1
  -3   8  13 13.1968 22.4295  -2
  -2   9  12 13.1968 22.4295   1
  -2   8  13 141.000 18.3458  -2
  -1   9  12 141.000 18.3458   1
   0   9  12 16.4772 7.38393   1
   1   9  12 82.5160 9.86728   1
   2   9  12 20.9628 8.36786   1
   3   9  12 179.212 13.7253   1
   3   8  14 36.9744 35.2600  -2
   4   9  12 36.9744 35.2600   1
   5   9  12 93.4126 14.1419   1
  -7   9  12 62.9633 21.6015  -2
  -6  10  12 62.9633 21.6015   1
  -6   9  13 -19.012 20.7831  -2
  -5  10  12 -19.012 20.7831   1
  -5   9  13 67.3042 23.3343  -2
  -4  10  12 67.3042 23.3343   1
  -4   9  13 60.2317 15.5166  -2
  -3  10  12 60.2317 15.5166   1
  -2  10  12 36.5276 8.10267   1
  -1  10  12 33.7629 8.55919   1
   0  10  12 31.9042 9.06183   1
   1  10  12 123.980 12.4624   1
   2  10  12 5.63802 8.47448   1
   3  10  12 104.434 12.8591   1
   4  10  12 11.5131 21.9817   1
  -5  10  13 112.316 25.2912  -2
  -4  11  12 112.316 25.2912   1
  -4  10  13 53.5398 21.9198  -2
  -3  11  12 53.5398 21.9198   1
  -2  11  12 53.6138 9.52496   1
  -1  11  12 31.2165 9.51414   1
   0  11  12 37.2423 10.1859   1
   0  10  14 36.2761 28.5583  -2
   1  11  12 36.2761 28.5583   1
   0 -17  12 52.4583 18.5933  -2
   0 -17  13 52.4583 18.5933   1
  -4 -16  12 36.6862 24.4235  -2
  -4 -16  13 36.6862 24.4235   1
  -3 -16  12 59.4681 22.0117  -2
  -3 -16  13 59.4681 22.0117   1
  -2 -16  12 28.3386 12.5688  -2
  -2 -16  13 28.3386 12.5688   1
  -1 -16  12 38.5792 11.7494  -2
  -1 -16  13 38.5792 11.7494   1
   0 -16  12 41.0281 10.9178  -2
   0 -16  13 41.0281 10.9178   1
   1 -16  12 29.1978 11.2160  -2
   1 -16  13 29.1978 11.2160   1
   2 -16  12 59.3619 12.5624  -2
   2 -16  13 59.3619 12.5624   1
   3 -16  12 17.3756 15.4189  -2
   3 -16  13 17.3756 15.4189   1
   4 -16  13 60.5051 19.7279  -2
   4 -16  13 60.5051 19.7279   1
  -6 -15  11 12.4718 28.7211  -2
  -6 -15  13 12.4718 28.7211   1
  -5 -15  13 47.3923 8.31884   1
  -4 -15  12 25.0513 22.8125  -2
  -4 -15  13 25.0513 22.8125   1
  -3 -15  12 69.3523 13.4165  -2
  -3 -15  13 69.3523 13.4165   1
  -2 -15  12 13.4599 11.4895  -2
  -2 -15  13 13.4599 11.4895   1
  -1 -15  12 35.3198 11.6228  -2
  -1 -15  13 35.3198 11.6228   1
   0 -15  12 60.2023 11.3640  -2
   0 -15  13 60.2023 11.3640   1
   1 -15  12 38.1118 14.6164  -2
   1 -15  13 38.1118 14.6164   1
   2 -15  12 82.7107 16.8241  -2
   2 -15  13 82.7107 16.8241   1
   3 -15  12 -7.3324 15.6942  -2
   3 -15  13 -7.3324 15.6942   1
   4 -15  13 125.066 18.3188  -2
   4 -15  13 125.066 18.3188   1
   5 -15  13 -7.6780 9.59177  -2
   5 -15  13 -7.6780 9.59177   1
  -7 -14  13 36.1190 11.7906   1
  -6 -14  13 1.13758 7.52281   1
  -5 -14  13 104.861 10.2442   1
  -4 -14  12 73.0417 21.6992  -2
  -4 -14  13 73.0417 21.6992   1
  -3 -14  12 121.608 19.7237  -2
  -3 -14  13 121.608 19.7237   1
  -2 -14  12 4.15780 10.7200  -2
  -2 -14  13 4.15780 10.7200   1
  -1 -14  12 11.5343 9.93300  -2
  -1 -14  13 11.5343 9.93300   1
   0 -14  12 25.0019 13.0937  -2
   0 -14  13 25.0019 13.0937   1
   1 -14  12 90.9647 15.3442  -2
   1 -14  13 90.9647 15.3442   1
   2 -14  12 135.432 17.5076  -2
   2 -14  13 135.432 17.5076   1
   3 -14  13 3.00686 15.2408  -2
   3 -14  13 3.00686 15.2408   1
   4 -14  13 105.719 16.8369  -2
   4 -14  13 105.719 16.8369   1
   5 -14  13 -14.715 15.7861  -2
   5 -14  13 -14.715 15.7861   1
   6 -14  13 29.0892 12.7417  -2
   6 -14  13 29.0892 12.7417   1
  -8 -13  13 15.6514 8.93095   1
  -7 -13  13 49.0081 7.91808   1
  -6 -13  13 7.54198 6.59500   1
  -5 -13  13 64.8349 7.66295   1
  -4 -13  13 -2.8700 5.92470   1
  -3 -13  12 120.098 17.7279  -2
  -3 -13  13 120.098 17.7279   1
  -2 -13  12 67.0060 14.9153  -2
  -2 -13  13 67.0060 14.9153   1
  -1 -13  12 33.1866 13.3348  -2
  -1 -13  13 33.1866 13.3348   1
   0 -13  12 36.5202 13.6103  -2
   0 -13  13 36.5202 13.6103   1
   1 -13  12 113.579 16.3349  -2
   1 -13  13 113.579 16.3349   1
   2 -13  12 66.3963 16.2908  -2
   2 -13  13 66.3963 16.2908   1
   3 -13  13 28.6241 15.1807  -2
   3 -13  13 28.6241 15.1807   1
   4 -13  13 84.4177 17.7174  -2
   4 -13  13 84.4177 17.7174   1
   5 -13  13 35.6178 15.4411  -2
   5 -13  13 35.6178 15.4411   1
   6 -13  13 71.7521 18.2653  -2
   6 -13  13 71.7521 18.2653   1
   7 -13  13 -7.1290 17.6655  -2
   7 -13  13 -7.1290 17.6655   1
  -9 -12  13 7.50805 13.7534   1
  -8 -12  13 60.4176 9.67182   1
  -7 -12  13 43.1549 7.40670   1
  -6 -12  13 30.3748 7.27602   1
  -5 -12  13 60.1388 8.62358   1
  -4 -12  13 7.69313 7.02537   1
  -3 -12  13 51.9565 10.7947   1
   1 -12  13 191.894 14.9958   1
   2 -12  13 31.6122 6.77604   1
   3 -12  13 69.7048 15.4672  -2
   3 -12  13 69.7048 15.4672   1
   4 -12  13 24.1598 14.8764  -2
   4 -12  13 24.1598 14.8764   1
   5 -12  13 64.9540 17.6529  -2
   5 -12  13 64.9540 17.6529   1
   6 -12  13 115.663 19.3232  -2
   6 -12  13 115.663 19.3232   1
   7 -12  13 -4.6773 17.4750  -2
   7 -12  13 -4.6773 17.4750   1
   8 -12  13 29.9750 19.2952  -2
   8 -12  13 29.9750 19.2952   1
  -9 -11  13 -4.3118 12.8120   1
  -8 -11  13 72.8293 10.0251   1
  -7 -11  13 7.39446 7.47897   1
  -6 -11  13 47.2771 8.14547   1
  -5 -11  13 102.569 8.65494   1
  -4 -11  13 37.0796 6.64978   1
  -3 -11  13 79.9880 7.77428   1
  -2 -11  13 21.5159 7.27940   1
  -1 -11  13 142.141 10.9255   1
   0 -11  13 3.81756 6.33301   1
   1 -11  13 137.765 13.3407   1
   2 -11  13 32.2006 10.3381   1
   3 -11  13 163.677 18.0989  -2
   3 -11  13 163.677 18.0989   1
   4 -11  13 -17.669 14.8175  -2
   4 -11  13 -17.669 14.8175   1
   5 -11  13 38.4647 16.0050  -2
   5 -11  13 38.4647 16.0050   1
   6 -11  13 43.4711 17.3426  -2
   6 -11  13 43.4711 17.3426   1
   7 -11  13 6.75240 17.9798  -2
   7 -11  13 6.75240 17.9798   1
   8 -11  13 26.0072 8.52470   1
   9 -11  13 -5.0938 13.5890   1
 -10 -10  13 51.0053 9.83484   1
  -9 -10  13 -8.4548 7.89097   1
  -8 -10  13 126.663 14.3472   1
  -7 -10  13 1.81345 6.47088   1
  -6 -10  13 79.3093 10.8704   1
  -5 -10  13 102.497 8.47248   1
  -4 -10  13 285.574 11.2679   1
  -3 -10  13 98.6343 7.94609   1
  -2 -10  13 55.5822 5.90040   1
  -1 -10  13 136.352 7.14876   1
   0 -10  13 11.5844 4.27436   1
   1 -10  13 226.534 11.9828   1
   2 -10  13 -16.351 14.6226  -2
   2 -10  13 -16.351 14.6226   1
   3 -10  13 283.892 19.3391  -2
   3 -10  13 283.892 19.3391   1
   4 -10  13 15.3127 9.08289   1
   5 -10  13 28.9742 16.1399  -2
   5 -10  13 28.9742 16.1399   1
   6 -10  13 61.3894 16.4818  -2
   6 -10  13 61.3894 16.4818   1
   7 -10  13 52.5503 8.68841   1
   8 -10  13 47.1474 9.54786   1
   9 -10  13 -7.9372 8.63788   1
 -10  -9  13 42.2699 9.45374   1
  -9  -9  13 14.3546 7.90705   1
  -8  -9  13 100.610 11.6778   1
  -7  -9  13 -0.9664 6.02403   1
  -6  -9  13 56.2251 7.16393   1
  -5  -9  13 46.9442 6.36106   1
  -4  -9  13 462.630 13.7811   1
  -3  -9  13 38.8808 6.21656   1
  -2  -9  13 146.018 7.49202   1
  -1  -9  13 87.2842 6.39776   1
   0  -9  13 93.2845 6.09285   1
   1  -9  13 229.396 11.8888   1
   2  -9  13 20.6629 4.92198   1
   3  -9  13 176.814 11.5627   1
   4  -9  13 0.36647 8.54212   1
   5  -9  13 154.855 14.6930   1
   6  -9  13 31.9218 7.56841   1
   7  -9  13 70.0344 9.16870   1
   8  -9  13 41.0768 8.65991   1
   9  -9  13 15.6742 8.73491   1
 -11  -8  13 31.0422 11.8783   1
 -10  -8  13 45.5936 9.06087   1
  -9  -8  13 36.0316 8.23215   1
  -8  -8  13 78.7214 12.1425   1
  -7  -8  13 25.9874 7.34309   1
  -6  -8  13 177.336 9.63855   1
  -5  -8  13 28.6103 5.94367   1
  -4  -8  13 168.904 8.55538   1
  -3  -8  13 9.50197 5.04268   1
  -2  -8  13 97.5957 6.28001   1
  -1  -8  13 99.3232 5.94941   1
   0  -8  13 127.347 6.40198   1
   1  -8  13 192.027 7.62410   1
   2  -8  13 18.3609 4.54905   1
   3  -8  13 128.027 7.35860   1
   4  -8  13 -9.7062 7.12108   1
   5  -8  13 190.240 10.5500   1
   6  -8  13 5.44020 5.37868   1
   7  -8  13 135.492 9.40915   1
   8  -8  13 25.5343 8.29092   1
   9  -8  13 52.4602 9.88507   1
  10  -8  13 53.2192 11.8093   1
 -11  -7  13 69.7983 14.3428   1
 -10  -7  13 43.1691 8.85898   1
  -9  -7  13 68.7630 8.86785   1
  -8  -7  13 53.5250 7.58943   1
  -7  -7  13 37.8587 10.4990   1
  -6  -7  13 165.449 9.18736   1
  -5  -7  13 -0.0768 4.63167   1
  -4  -7  13 183.885 8.59380   1
  -3  -7  13 2.35770 5.73850   1
  -2  -7  13 220.502 8.09334   1
  -1  -7  13 37.5004 4.45278   1
   0  -7  13 140.976 6.30581   1
   1  -7  13 139.112 9.22497   1
   2  -7  13 30.1314 6.86453   1
   3  -7  13 294.575 9.80327   1
   4  -7  13 8.77442 4.73785   1
   5  -7  13 171.535 8.90788   1
   6  -7  13 8.23062 7.67334   1
   7  -7  13 172.391 9.73807   1
   8  -7  13 33.1047 8.57601   1
   9  -7  13 94.1012 9.66717   1
  10  -7  13 43.8929 10.2886   1
 -11  -6  13 30.5317 12.4346   1
 -10  -6  13 2.73991 7.62951   1
  -9  -6  13 87.4533 8.79061   1
  -8  -6  13 29.7499 6.71144   1
  -7  -6  13 122.742 8.53605   1
  -6  -6  13 94.3460 10.5426   1
  -5  -6  13 44.3071 5.93427   1
  -4  -6  13 263.278 9.55296   1
  -3  -6  13 18.0351 5.72131   1
  -2  -6  13 400.750 14.2490   1
  -1  -6  13 42.7669 4.87442   1
   0  -6  13 252.272 8.06657   1
   1  -6  13 70.9828 5.03320   1
   2  -6  13 254.357 8.73631   1
   3  -6  13 192.424 8.00225   1
   4  -6  13 198.494 8.56102   1
   5  -6  13 54.2453 6.55310   1
   6  -6  13 24.9719 5.95344   1
   7  -6  13 164.829 11.0061   1
   8  -6  13 3.29292 6.22076   1
   9  -6  13 93.9662 8.86344   1
  10  -6  13 15.6077 8.86545   1
 -11  -5  13 28.2323 8.47139   1
 -10  -5  13 -7.1717 7.83639   1
  -9  -5  13 161.158 10.4358   1
  -8  -5  13 20.1381 6.60473   1
  -7  -5  13 96.7886 7.94859   1
  -6  -5  13 160.969 11.9412   1
  -5  -5  13 131.013 7.47560   1
  -4  -5  13 234.335 8.84743   1
  -3  -5  13 14.6921 4.85102   1
  -2  -5  13 179.638 7.04632   1
  -1  -5  13 16.5821 3.55275   1
   0  -5  13 182.750 7.14455   1
   1  -5  13 6.29555 3.61448   1
   2  -5  13 200.859 7.60200   1
   3  -5  13 82.7726 6.10911   1
   4  -5  13 90.2027 6.50886   1
   5  -5  13 88.0131 6.81463   1
   6  -5  13 84.9422 7.62419   1
   7  -5  13 107.317 9.42992   1
   8  -5  13 16.3404 7.36828   1
   9  -5  13 62.1947 8.76971   1
  10  -5  13 6.29826 8.45126   1
 -12  -4  13 13.1791 9.49889   1
 -11  -4  13 87.7791 11.0096   1
 -10  -4  13 13.3395 7.06878   1
  -9  -4  13 199.422 10.8031   1
  -8  -4  13 -6.0782 5.60818   1
  -7  -4  13 155.206 8.84459   1
  -6  -4  13 89.2156 7.03298   1
  -5  -4  13 301.586 14.1413   1
  -4  -4  13 190.386 7.81720   1
  -3  -4  13 97.4101 6.72559   1
  -2  -4  13 175.757 6.61993   1
  -1  -4  13 72.8801 4.78694   1
   0  -4  13 200.290 7.36768   1
   1  -4  13 2.62968 2.82533   1
   2  -4  13 390.666 10.5987   1
   3  -4  13 -0.1288 3.58368   1
   4  -4  13 90.7291 6.59048   1
   5  -4  13 108.192 7.46644   1
   6  -4  13 110.054 7.96283   1
   7  -4  13 153.319 10.0085   1
   8  -4  13 32.3477 8.06491   1
   9  -4  13 129.547 11.9714   1
  10  -4  13 13.5666 8.59014   1
 -12  -3  13 37.6608 11.0520   1
 -11  -3  13 42.2169 10.5958   1
 -10  -3  13 15.2926 7.55660   1
  -9  -3  13 166.489 10.5311   1
  -8  -3  13 -1.3277 5.72687   1
  -7  -3  13 273.602 10.4970   1
  -6  -3  13 6.14472 4.79182   1
  -5  -3  13 123.546 7.05409   1
  -4  -3  13 7.31852 4.61011   1
  -3  -3  13 118.142 8.03486   1
  -2  -3  13 207.025 6.61077   1
  -1  -3  13 154.250 5.99521   1
   0  -3  13 186.044 6.55778   1
   1  -3  13 15.3536 4.60344   1
   2  -3  13 334.402 9.51030   1
   3  -3  13 43.9840 4.81818   1
   4  -3  13 286.956 9.70203   1
   5  -3  13 66.6767 6.16492   1
   6  -3  13 148.241 8.72887   1
   7  -3  13 55.6208 9.04105   1
   8  -3  13 24.2385 7.54491   1
   9  -3  13 44.1673 8.90965   1
  10  -3  13 49.4056 9.43807   1
 -12  -2  13 23.7749 13.3664   1
 -11  -2  13 27.9654 12.3759   1
 -10  -2  13 62.2569 8.49799   1
  -9  -2  13 94.5034 8.55797   1
  -8  -2  13 20.0392 6.40609   1
  -7  -2  13 242.438 11.8544   1
  -6  -2  13 -2.0991 4.43847   1
  -5  -2  13 113.587 6.31809   1
  -4  -2  13 13.7864 3.75528   1
  -3  -2  13 285.030 11.6247   1
  -2  -2  13 346.169 12.6898   1
  -1  -2  13 123.755 4.86600   1
   0  -2  13 485.734 11.3940   1
   1  -2  13 68.6055 4.72830   1
   2  -2  13 535.029 13.0343   1
   3  -2  13 9.74072 3.71475   1
   4  -2  13 234.783 8.77049   1
   5  -2  13 12.3443 4.56969   1
   6  -2  13 289.373 10.6860   1
   7  -2  13 51.0822 6.52030   1
   8  -2  13 46.9262 7.28490   1
   9  -2  13 54.2370 8.97333   1
  10  -2  13 37.5678 8.78767   1
 -12  -1  13 54.7339 16.3387   1
 -11  -1  13 6.83517 10.7766   1
 -10  -1  13 66.4309 15.3614   1
  -9  -1  13 117.801 13.4227   1
  -8  -1  13 3.73974 7.74048   1
  -7  -1  13 147.554 13.9448   1
  -6  -1  13 10.6917 7.11933   1
  -5  -1  13 121.572 15.6428   1
  -4  -1  13 -3.8836 4.05308   1
  -3  -1  13 320.593 12.3003   1
  -2  -1  13 8.78922 4.09112   1
  -1  -1  13 246.963 10.3716   1
   0  -1  13 95.0862 4.56806   1
   1  -1  13 262.438 7.76408   1
   2  -1  13 806.774 17.7580   1
   3  -1  13 145.038 7.07440   1
   4  -1  13 192.831 8.05304   1
   5  -1  13 -4.0182 4.30326   1
   6  -1  13 252.016 15.8026   1
   7  -1  13 0.39637 6.74104   1
   8  -1  13 118.876 10.0894   1
   9  -1  13 53.0844 8.31748   1
  10  -1  13 44.1665 8.76664   1
 -12   0  13 58.7071 14.8733   1
 -11   0  13 22.4921 11.0123   1
 -10   0  13 41.8334 10.1167   1
  -9   0  13 84.1829 13.6006   1
  -8   0  13 4.33679 7.72031   1
  -7   0  13 36.8490 8.95590   1
  -6   0  13 5.23926 7.31661   1
  -5   0  13 275.139 20.1673   1
  -4   0  13 20.3177 5.10553   1
  -3   0  13 347.619 13.0073   1
  -2   0  13 -1.5915 3.81127   1
  -1   0  13 394.893 13.6323   1
   0   0  13 23.0997 4.70526   1
   1   0  13 326.817 8.92745   1
   2   0  13 227.756 10.6218   1
   3   0  13 39.7424 5.55052   1
   4   0  13 120.363 6.90065   1
   4   0  14 27.2458 19.3793  -2
   5   0  13 27.2458 19.3793   1
   5   0  14 266.833 16.3376  -2
   6   0  13 266.833 16.3376   1
   7   0  13 -7.2860 13.8710   1
   7   0  14 254.167 20.9039  -2
   8   0  13 254.167 20.9039   1
   9   0  13 35.9349 7.82085   1
  10   0  13 100.371 10.5841   1
 -11   1  13 19.4161 11.5780   1
 -10   1  13 48.3887 11.6065   1
  -9   1  13 26.7911 10.0274   1
  -8   1  13 56.0878 10.2330   1
  -7   1  13 15.7697 8.48850   1
  -6   1  13 67.4545 13.5039   1
  -5   1  13 179.678 10.0084   1
  -4   1  13 94.3211 7.52265   1
  -3   1  13 373.777 13.5883   1
  -2   1  13 8.88368 4.32311   1
  -1   1  13 367.494 13.2320   1
   0   1  13 60.0777 6.35354   1
   1   1  13 317.903 8.88579   1
   2   1  13 100.523 7.94533   1
   3   1  13 93.8059 6.57133   1
   4   1  13 56.6219 5.54580   1
   4   1  14 75.6707 21.6064  -2
   5   1  13 75.6707 21.6064   1
   5   1  14 183.501 17.3712  -2
   6   1  13 183.501 17.3712   1
   7   1  13 -7.5500 7.17412   1
   8   1  13 154.973 15.1446   1
   9   1  13 -4.8937 6.65771   1
  10   1  13 89.0151 10.0342   1
 -11   2  13 11.6521 11.8905   1
 -10   2  13 42.3077 11.7133   1
  -9   2  13 3.77782 9.51099   1
  -8   2  13 120.672 19.6944   1
  -7   2  13 47.4539 14.3268   1
  -6   2  13 129.303 11.7360   1
  -5   2  13 28.8244 5.72553   1
  -4   2  13 69.4177 7.44212   1
  -3   2  13 228.682 10.5394   1
  -2   2  13 99.3363 7.32722   1
  -1   2  13 130.196 8.24786   1
   0   2  13 15.7238 4.83454   1
   1   2  13 216.055 7.38158   1
   2   2  13 18.9265 4.13454   1
   3   2  13 109.374 6.54652   1
   4   2  13 49.2252 7.25428   1
   4   2  14 211.283 14.4282  -2
   5   2  13 211.283 14.4282   1
   5   2  14 233.045 18.6445  -2
   6   2  13 233.045 18.6445   1
   7   2  13 3.95875 7.90379   1
   8   2  13 199.217 16.2382   1
   9   2  13 40.7395 8.04543   1
 -11   3  13 -2.9632 11.5829   1
 -10   3  13 73.0013 20.5319   1
  -9   3  13 14.5699 15.5649   1
  -8   3  13 88.6519 17.8415   1
  -7   3  13 3.82668 5.66546   1
  -6   3  13 111.746 9.01930   1
  -5   3  13 72.2347 9.39586   1
  -4   3  13 133.442 8.91839   1
  -3   3  13 176.834 9.46186   1
  -2   3  13 95.5521 7.42814   1
  -1   3  13 96.1320 7.53187   1
   0   3  13 4.59934 4.24883   1
   1   3  13 256.417 11.4474   1
   2   3  13 5.75044 4.07562   1
   3   3  13 184.416 10.2803   1
   4   3  13 6.19760 4.59562   1
   4   3  14 123.698 14.2128  -2
   5   3  13 123.698 14.2128   1
   6   3  13 74.7323 8.65977   1
   7   3  13 21.6534 10.0748   1
   8   3  13 112.778 14.1677   1
   9   3  13 23.0735 7.37056   1
 -10   4  13 116.942 21.5692   1
  -9   4  13 7.07420 6.81471   1
  -8   4  13 111.146 10.3797   1
  -8   3  13 31.4071 20.1405  -2
  -7   4  13 31.4071 20.1405   1
  -7   3  13 275.705 26.6996  -2
  -6   4  13 275.705 26.6996   1
  -6   3  13 82.6396 21.0132  -2
  -5   4  13 82.6396 21.0132   1
  -4   4  13 199.415 10.4457   1
  -3   4  13 110.978 8.35889   1
  -2   4  13 105.527 7.87031   1
  -1   4  13 147.963 8.91638   1
   0   4  13 18.3051 5.83858   1
   1   4  13 346.432 13.6202   1
   2   4  13 -6.9668 3.95512   1
   3   4  13 318.749 10.5898   1
   4   4  13 5.10500 4.54187   1
   5   4  13 104.218 10.0224   1
   6   4  13 29.7254 8.87202   1
   7   4  13 104.143 13.9373   1
   8   4  13 32.3741 7.34917   1
 -10   5  13 26.1394 8.40383   1
 -10   4  13 81.2724 26.4429  -2
  -9   5  13 81.2724 26.4429   1
  -9   4  13 79.7623 24.8623  -2
  -8   5  13 79.7623 24.8623   1
  -8   4  13 43.1780 20.5555  -2
  -7   5  13 43.1780 20.5555   1
  -7   4  13 129.637 23.6448  -2
  -6   5  13 129.637 23.6448   1
  -6   4  13 74.2236 15.9472  -2
  -5   5  13 74.2236 15.9472   1
  -4   5  13 172.383 10.1102   1
  -3   5  13 32.0523 7.28196   1
  -2   5  13 157.730 11.2767   1
   0   5  13 100.657 9.26852   1
   1   5  13 162.095 10.3799   1
   2   5  13 43.1222 7.45842   1
   3   5  13 150.962 8.51154   1
   4   5  13 -0.0216 5.24708   1
   5   5  13 208.839 13.2866   1
   6   5  13 -5.8778 7.91894   1
   7   5  13 140.263 14.8251   1
   8   5  13 68.6521 9.21721   1
 -10   5  13 42.0706 26.1269  -2
  -9   6  13 42.0706 26.1269   1
 -10   5  12 57.0496 20.2377  -2
  -9   6  13 57.0496 20.2377   1
  -9   5  13 120.567 25.9295  -2
  -8   6  13 120.567 25.9295   1
  -8   5  13 17.2985 22.3111  -2
  -7   6  13 17.2985 22.3111   1
  -7   5  13 88.1377 14.0148  -2
  -6   6  13 88.1377 14.0148   1
  -6   5  13 38.7733 15.6331  -2
  -5   6  13 38.7733 15.6331   1
  -4   6  13 136.880 10.0903   1
  -3   6  13 -2.7663 5.48358   1
  -3   5  14 186.346 22.0087  -2
  -2   6  13 186.346 22.0087   1
  -2   5  14 23.2880 18.8702  -2
  -1   6  13 23.2880 18.8702   1
   0   6  13 116.373 9.41464   1
   1   6  13 119.050 9.64970   1
   2   6  13 97.4920 11.1457   1
   3   6  13 152.478 9.28116   1
   4   6  13 1.70967 7.08363   1
   4   5  15 195.466 23.0968  -2
   5   6  13 195.466 23.0968   1
   5   5  15 64.6224 20.4860  -2
   6   6  13 64.6224 20.4860   1
   6   5  15 158.942 24.3365  -2
   7   6  13 158.942 24.3365   1
  -9   6  13 119.472 25.0523  -2
  -8   7  13 119.472 25.0523   1
  -8   6  13 109.837 16.0564  -2
  -7   7  13 109.837 16.0564   1
  -7   6  13 30.3724 16.7055  -2
  -6   7  13 30.3724 16.7055   1
  -6   6  13 59.1845 15.8476  -2
  -5   7  13 59.1845 15.8476   1
  -4   7  13 84.8484 8.86107   1
  -4   6  14 -12.097 18.0114  -2
  -3   7  13 -12.097 18.0114   1
  -3   6  14 290.623 25.4592  -2
  -2   7  13 290.623 25.4592   1
  -2   6  14 -6.3513 20.4089  -2
  -1   7  13 -6.3513 20.4089   1
   0   7  13 82.1712 8.87391   1
   1   7  13 19.1192 5.94357   1
   2   7  13 81.6108 8.78443   1
   3   7  13 106.482 11.1415   1
   4   7  13 40.5746 8.42430   1
   5   7  13 90.3803 12.8852   1
   5   6  15 38.0468 23.0063  -2
   6   7  13 38.0468 23.0063   1
  -8   8  13 14.2645 7.46874   1
  -8   7  13 73.2165 15.5505  -2
  -7   8  13 73.2165 15.5505   1
  -7   7  13 53.4107 17.9830  -2
  -6   8  13 53.4107 17.9830   1
  -6   7  13 5.91868 17.5040  -2
  -5   8  13 5.91868 17.5040   1
  -4   8  13 34.7114 7.35759   1
  -3   8  13 5.92058 6.97127   1
  -3   7  14 75.5855 21.3887  -2
  -2   8  13 75.5855 21.3887   1
  -1   8  13 3.37096 7.49067   1
   0   8  13 91.8838 9.65281   1
   1   8  13 33.4615 8.14265   1
   2   8  13 163.709 12.3084   1
   3   8  13 60.3929 9.63542   1
   3   7  15 57.0659 36.3561  -2
   4   8  13 57.0659 36.3561   1
   5   8  13 98.5655 14.7060   1
  -7   8  13 28.5573 19.0547  -2
  -6   9  13 28.5573 19.0547   1
  -5   9  13 23.5385 7.35305   1
  -5   8  14 27.1051 21.8128  -2
  -4   9  13 27.1051 21.8128   1
  -4   8  14 31.2730 22.8679  -2
  -3   9  13 31.2730 22.8679   1
  -3   8  14 118.673 15.3550  -2
  -2   9  13 118.673 15.3550   1
  -1   9  13 -0.7328 6.82033   1
   0   9  13 156.925 11.8756   1
   1   9  13 -1.2294 7.70855   1
   2   9  13 117.093 11.8909   1
   3   9  13 25.7763 9.45452   1
   4   9  13 87.2890 14.0238   1
  -5  10  13 33.3690 13.7620   1
  -5   9  14 62.6246 24.2174  -2
  -4  10  13 62.6246 24.2174   1
  -4   9  14 68.0285 25.0235  -2
  -3  10  13 68.0285 25.0235   1
  -3   9  14 80.4732 19.6502  -2
  -2  10  13 80.4732 19.6502   1
  -1  10  13 20.0962 7.60558   1
   0  10  13 121.313 15.5921   1
   1  10  13 42.3432 9.78589   1
   2  10  13 66.2194 10.7618   1
  -3 -16  13 37.9149 22.7642  -2
  -3 -16  14 37.9149 22.7642   1
  -2 -16  13 6.51840 12.5464  -2
  -2 -16  14 6.51840 12.5464   1
  -1 -16  13 48.2682 12.6157  -2
  -1 -16  14 48.2682 12.6157   1
   0 -16  13 32.1156 11.3244  -2
   0 -16  14 32.1156 11.3244   1
   1 -16  13 76.7207 12.5585  -2
   1 -16  14 76.7207 12.5585   1
   2 -16  13 -9.9419 15.1807  -2
   2 -16  14 -9.9419 15.1807   1
   3 -16  13 34.3153 16.2791  -2
   3 -16  14 34.3153 16.2791   1
  -5 -15  14 2.30554 7.16045   1
  -4 -15  14 61.9442 8.73428   1
  -3 -15  13 31.4553 19.5395  -2
  -3 -15  14 31.4553 19.5395   1
  -2 -15  13 2.73850 11.7772  -2
  -2 -15  14 2.73850 11.7772   1
  -1 -15  13 3.11248 11.0957  -2
  -1 -15  14 3.11248 11.0957   1
   0 -15  13 20.0431 13.9809  -2
   0 -15  14 20.0431 13.9809   1
   1 -15  13 43.8605 15.1846  -2
   1 -15  14 43.8605 15.1846   1
   2 -15  13 -0.0243 14.9444  -2
   2 -15  14 -0.0243 14.9444   1
   3 -15  13 30.2272 17.5120  -2
   3 -15  14 30.2272 17.5120   1
   4 -15  14 18.2086 16.6692  -2
   4 -15  14 18.2086 16.6692   1
   5 -15  14 75.9073 17.8852  -2
   5 -15  14 75.9073 17.8852   1
  -7 -14  14 8.15025 8.65287   1
  -6 -14  14 32.3045 8.28267   1
  -5 -14  14 3.84462 7.07376   1
  -4 -14  14 44.7744 7.79232   1
  -3 -14  14 -5.4791 6.47053   1
  -2 -14  13 13.9904 15.1986  -2
  -2 -14  14 13.9904 15.1986   1
  -1 -14  13 17.3127 14.4233  -2
  -1 -14  14 17.3127 14.4233   1
   0 -14  13 41.9970 14.8805  -2
   0 -14  14 41.9970 14.8805   1
   1 -14  13 85.3033 15.3169  -2
   1 -14  14 85.3033 15.3169   1
   2 -14  13 64.5092 17.2677  -2
   2 -14  14 64.5092 17.2677   1
   3 -14  14 59.1489 16.6929  -2
   3 -14  14 59.1489 16.6929   1
   4 -14  14 -0.5059 16.8646  -2
   4 -14  14 -0.5059 16.8646   1
   5 -14  14 154.780 19.8016  -2
   5 -14  14 154.780 19.8016   1
   6 -14  14 -24.111 17.4421  -2
   6 -14  14 -24.111 17.4421   1
  -8 -13  14 33.5840 10.2647   1
  -7 -13  14 13.0581 7.67453   1
  -6 -13  14 29.4003 8.12945   1
  -5 -13  14 5.54160 9.24449   1
  -4 -13  14 85.1981 9.60388   1
  -3 -13  14 0.82255 6.37808   1
  -2 -13  13 87.2352 17.5189  -2
  -2 -13  14 87.2352 17.5189   1
  -1 -13  13 -5.3667 14.0403  -2
  -1 -13  14 -5.3667 14.0403   1
   0 -13  13 42.1582 15.4678  -2
   0 -13  14 42.1582 15.4678   1
   1 -13  13 78.3417 15.5383  -2
   1 -13  14 78.3417 15.5383   1
   2 -13  14 44.6536 7.57442   1
   3 -13  14 19.4554 16.0227  -2
   3 -13  14 19.4554 16.0227   1
   4 -13  14 56.5508 18.4763  -2
   4 -13  14 56.5508 18.4763   1
   5 -13  14 66.3051 17.1672  -2
   5 -13  14 66.3051 17.1672   1
   6 -13  14 6.65129 11.6462   1
   7 -13  14 68.2947 20.2633  -2
   7 -13  14 68.2947 20.2633   1
  -8 -12  14 52.2923 10.3406   1
  -7 -12  14 33.0865 9.01347   1
  -6 -12  14 31.6024 8.82567   1
  -5 -12  14 45.4846 8.20667   1
  -4 -12  14 80.2705 9.57205   1
  -3 -12  14 -2.8088 8.26552   1
  -1 -12  14 3.89877 8.57086   1
   0 -12  14 147.475 14.0942   1
   1 -12  14 37.4122 9.84254   1
   2 -12  14 48.2307 7.40385   1
   3 -12  14 19.4419 14.9600  -2
   3 -12  14 19.4419 14.9600   1
   4 -12  14 4.94757 15.2833  -2
   4 -12  14 4.94757 15.2833   1
   5 -12  14 115.385 18.7998  -2
   5 -12  14 115.385 18.7998   1
   6 -12  14 -3.9714 16.5405  -2
   6 -12  14 -3.9714 16.5405   1
   7 -12  14 15.0487 19.4243  -2
   7 -12  14 15.0487 19.4243   1
   8 -12  14 -12.940 11.7107   1
  -9 -11  14 101.369 16.4509   1
  -8 -11  14 1.37824 7.77631   1
  -7 -11  14 45.4315 8.14754   1
  -6 -11  14 22.0786 7.13334   1
  -5 -11  14 152.130 10.3222   1
  -4 -11  14 124.591 11.2482   1
  -3 -11  14 29.4923 7.83402   1
  -2 -11  14 90.3112 7.32631   1
  -1 -11  14 -6.4585 6.35697   1
   0 -11  14 220.076 12.3676   1
   1 -11  14 5.48601 6.81458   1
   2 -11  14 149.367 18.2514   1
   3 -11  14 40.1712 16.0264  -2
   3 -11  14 40.1712 16.0264   1
   4 -11  14 85.4405 16.8991  -2
   4 -11  14 85.4405 16.8991   1
   5 -11  14 124.049 17.8385  -2
   5 -11  14 124.049 17.8385   1
   6 -11  14 60.0557 18.5123  -2
   6 -11  14 60.0557 18.5123   1
   7 -11  14 50.6192 9.29394   1
   8 -11  14 14.0468 8.83589   1
 -10 -10  14 -3.7869 8.81214   1
  -9 -10  14 85.2988 10.5491   1
  -8 -10  14 7.56863 10.0332   1
  -7 -10  14 42.8607 8.17423   1
  -6 -10  14 9.10884 9.63993   1
  -5 -10  14 194.934 10.6764   1
  -4 -10  14 53.7902 7.00400   1
  -3 -10  14 92.0832 10.0088   1
  -2 -10  14 165.634 8.34597   1
  -1 -10  14 45.6897 6.64877   1
   0 -10  14 156.949 7.92409   1
   1 -10  14 4.21192 6.87065   1
   2 -10  14 194.075 12.0373   1
   3 -10  14 54.7844 9.46431   1
   4 -10  14 110.401 14.4397   1
   5 -10  14 -9.8803 16.2419  -2
   5 -10  14 -9.8803 16.2419   1
   6 -10  14 52.4218 8.32315   1
   7 -10  14 40.5554 8.43320   1
   8 -10  14 34.7584 9.10614   1
   9 -10  14 23.0421 9.34954   1
 -10  -9  14 23.5071 9.20737   1
  -9  -9  14 51.9032 9.71494   1
  -8  -9  14 4.33632 9.93233   1
  -7  -9  14 116.219 10.1153   1
  -6  -9  14 2.24550 6.06759   1
  -5  -9  14 152.334 9.49125   1
  -4  -9  14 57.1450 6.75589   1
  -3  -9  14 129.491 10.5648   1
  -2  -9  14 99.6313 6.97411   1
  -1  -9  14 114.932 6.86177   1
   0  -9  14 228.031 11.7670   1
   1  -9  14 44.9030 5.49450   1
   2  -9  14 145.215 8.09322   1
   3  -9  14 4.41387 5.63406   1
   4  -9  14 106.136 10.8805   1
   5  -9  14 20.4551 10.1774   1
   6  -9  14 150.986 11.2393   1
   7  -9  14 41.3327 8.70162   1
   8  -9  14 38.2162 9.21253   1
   9  -9  14 32.0813 9.90506   1
 -10  -8  14 33.6221 9.22177   1
  -9  -8  14 54.2606 8.23672   1
  -8  -8  14 0.00183 8.26344   1
  -7  -8  14 107.376 12.3177   1
  -6  -8  14 2.69612 5.52875   1
  -5  -8  14 117.183 8.66646   1
  -4  -8  14 10.3946 5.43863   1
  -3  -8  14 231.374 12.1478   1
  -2  -8  14 18.0734 4.54538   1
  -1  -8  14 178.843 7.79496   1
   0  -8  14 322.904 9.90163   1
   1  -8  14 53.8593 5.50416   1
   2  -8  14 131.123 7.46091   1
   3  -8  14 2.32803 4.64579   1
   4  -8  14 62.7049 6.53767   1
   5  -8  14 -7.6123 7.24728   1
   6  -8  14 137.519 11.0957   1
   7  -8  14 13.8489 6.74788   1
   8  -8  14 78.3715 10.0563   1
   9  -8  14 27.6047 9.47459   1
 -11  -7  14 -1.4959 11.8215   1
 -10  -7  14 33.7416 8.94454   1
  -9  -7  14 45.9857 8.35028   1
  -8  -7  14 18.8710 7.12976   1
  -7  -7  14 123.689 12.2891   1
  -6  -7  14 56.9409 7.14015   1
  -5  -7  14 260.592 10.6286   1
  -4  -7  14 29.7456 5.67007   1
  -3  -7  14 175.340 10.7592   1
  -2  -7  14 44.0236 5.08007   1
  -1  -7  14 207.882 8.01853   1
   0  -7  14 146.727 7.00806   1
   1  -7  14 63.1905 5.52910   1
   2  -7  14 71.1325 5.94826   1
   3  -7  14 48.7576 5.79344   1
   4  -7  14 110.493 7.82794   1
   5  -7  14 -1.3310 5.93912   1
   6  -7  14 229.891 12.0589   1
   7  -7  14 1.36759 7.44094   1
   8  -7  14 137.354 10.1584   1
   9  -7  14 22.0290 8.01181   1
 -11  -6  14 0.20137 11.0087   1
 -10  -6  14 71.6638 10.4141   1
  -9  -6  14 45.0682 7.98341   1
  -8  -6  14 62.5569 8.13861   1
  -7  -6  14 52.5220 7.34387   1
  -6  -6  14 24.1859 8.27726   1
  -5  -6  14 187.374 9.07711   1
  -4  -6  14 29.9325 5.39944   1
  -3  -6  14 280.195 13.2823   1
  -2  -6  14 15.8616 4.62127   1
  -1  -6  14 142.398 7.01371   1
   0  -6  14 26.4474 4.08122   1
   1  -6  14 84.7818 5.85297   1
   2  -6  14 37.5797 4.96033   1
   3  -6  14 98.9282 6.82840   1
   4  -6  14 68.8245 6.56770   1
   5  -6  14 79.1212 7.39265   1
   6  -6  14 225.211 10.8595   1
   7  -6  14 27.2249 7.52811   1
   8  -6  14 123.193 9.73812   1
   9  -6  14 17.1885 7.55435   1
  10  -6  14 45.3431 9.76468   1
 -11  -5  14 2.51496 8.85042   1
 -10  -5  14 80.7182 11.7423   1
  -9  -5  14 39.8118 8.22628   1
  -8  -5  14 123.437 9.12367   1
  -7  -5  14 46.6605 6.91134   1
  -6  -5  14 89.9014 7.28235   1
  -5  -5  14 160.805 12.0749   1
  -4  -5  14 105.168 7.34774   1
  -3  -5  14 300.855 9.33579   1
  -2  -5  14 0.74011 3.44901   1
  -1  -5  14 101.168 5.75193   1
   0  -5  14 3.13784 3.68071   1
   1  -5  14 270.452 8.67714   1
   2  -5  14 29.6273 4.72113   1
   3  -5  14 163.913 7.61680   1
   4  -5  14 106.386 7.31009   1
   5  -5  14 142.542 8.37327   1
   6  -5  14 117.636 9.75880   1
   7  -5  14 7.97532 6.94166   1
   8  -5  14 132.272 11.5133   1
   9  -5  14 3.61899 7.87181   1
  10  -5  14 38.3881 9.57707   1
 -11  -4  14 -7.7815 9.66189   1
 -10  -4  14 163.336 11.6104   1
  -9  -4  14 6.81621 6.98539   1
  -8  -4  14 143.699 9.89045   1
  -7  -4  14 7.07003 5.39676   1
  -6  -4  14 217.483 13.6813   1
  -5  -4  14 83.6992 7.09093   1
  -4  -4  14 203.728 19.4060   1
  -3  -4  14 337.015 9.59842   1
  -2  -4  14 27.4266 4.04072   1
  -1  -4  14 176.654 6.87097   1
   0  -4  14 10.1131 3.96192   1
   1  -4  14 400.961 10.7696   1
   2  -4  14 -0.9181 3.49075   1
   3  -4  14 166.915 7.65764   1
   4  -4  14 136.696 7.67435   1
   5  -4  14 94.5693 7.33218   1
   6  -4  14 119.272 9.52994   1
   7  -4  14 21.4070 7.61975   1
   8  -4  14 95.6925 9.70286   1
   9  -4  14 10.3053 8.14559   1
  10  -4  14 78.2546 10.6932   1
 -11  -3  14 1.64278 12.7142   1
 -10  -3  14 102.858 14.3366   1
  -9  -3  14 23.9916 8.06623   1
  -8  -3  14 129.347 9.51229   1
  -7  -3  14 2.32872 6.18512   1
  -6  -3  14 230.385 9.62440   1
  -5  -3  14 21.9094 4.74150   1
  -4  -3  14 181.925 8.55107   1
  -3  -3  14 110.865 8.17036   1
  -2  -3  14 130.417 5.37950   1
  -1  -3  14 147.756 6.08532   1
   0  -3  14 26.1659 3.66340   1
   1  -3  14 475.343 15.7247   1
   2  -3  14 5.19706 3.69749   1
   3  -3  14 367.365 10.9385   1
   4  -3  14 -2.0788 4.26685   1
   5  -3  14 223.119 9.54758   1
   6  -3  14 90.7426 8.49938   1
   7  -3  14 127.191 9.42981   1
   7  -3  15 78.7144 18.7353  -2
   8  -3  14 78.7144 18.7353   1
   9  -3  14 6.08909 7.85110   1
  10  -3  14 82.0699 10.5712   1
 -11  -2  14 35.3772 12.8326   1
 -10  -2  14 39.3016 10.9588   1
  -9  -2  14 43.9791 30.2815   1
  -8  -2  14 118.212 12.5301   1
  -7  -2  14 5.80849 8.27526   1
  -6  -2  14 148.670 12.2702   1
  -5  -2  14 13.2918 11.1081   1
  -4  -2  14 52.0070 7.12267   1
  -3  -2  14 97.6511 7.47945   1
  -2  -2  14 125.681 8.10022   1
  -1  -2  14 145.100 8.42907   1
   0  -2  14 323.071 8.82912   1
   1  -2  14 196.345 7.14107   1
   2  -2  14 -3.5118 3.55702   1
   3  -2  14 244.140 8.77962   1
   4  -2  14 -0.6981 4.08016   1
   5  -2  14 316.396 10.9133   1
   6  -2  14 21.8215 6.47468   1
   7  -2  14 70.9148 9.55450   1
   7  -2  15 85.1858 18.7729  -2
   8  -2  14 85.1858 18.7729   1
   8  -2  15 33.3709 17.1127  -2
   9  -2  14 33.3709 17.1127   1
   9  -2  15 37.0077 19.3933  -2
  10  -2  14 37.0077 19.3933   1
 -11  -1  14 41.8214 12.3267   1
 -10  -1  14 48.7057 12.0831   1
  -9  -1  14 27.9177 10.0685   1
  -8  -1  14 110.003 13.5341   1
  -7  -1  14 -9.3287 7.17218   1
  -6  -1  14 173.571 19.4119   1
  -5  -1  14 6.62486 10.5001   1
  -4  -1  14 254.227 11.4322   1
  -3  -1  14 53.0995 6.62418   1
  -2  -1  14 322.692 12.4039   1
  -1  -1  14 133.994 8.31326   1
   0  -1  14 271.576 11.1393   1
   1  -1  14 549.774 12.9697   1
   2  -1  14 19.1929 4.07346   1
   3  -1  14 300.857 9.83046   1
   4  -1  14 5.25512 4.17625   1
   5  -1  14 216.393 9.53103   1
   5  -1  15 0.61796 15.6327  -2
   6  -1  14 0.61796 15.6327   1
   7  -1  14 91.6857 11.2886   1
   8  -1  14 40.6069 11.9485   1
   9  -1  14 25.1160 11.3092   1
   9  -1  15 115.471 21.1897  -2
  10  -1  14 115.471 21.1897   1
 -11   0  14 44.5754 12.7026   1
 -10   0  14 25.2846 10.6094   1
  -9   0  14 62.7499 11.7461   1
  -8   0  14 129.014 13.5123   1
  -7   0  14 60.7918 11.2577   1
  -6   0  14 69.3719 15.1609   1
  -5   0  14 50.0827 7.29104   1
  -4   0  14 326.850 12.9674   1
  -3   0  14 4.72585 4.57151   1
  -2   0  14 482.850 16.0797   1
  -1   0  14 10.5020 4.39625   1
   0   0  14 108.824 7.62913   1
   1   0  14 90.8886 5.43555   1
   2   0  14 134.333 7.83950   1
   3   0  14 147.240 7.34666   1
   4   0  14 100.735 6.98109   1
   4   0  15 299.342 28.0317  -2
   5   0  14 299.342 28.0317   1
   5   0  15 -22.901 13.3554  -2
   6   0  14 -22.901 13.3554   1
   7   0  14 183.276 13.1910   1
   8   0  14 -11.312 8.50046   1
   8   0  15 163.099 20.0812  -2
   9   0  14 163.099 20.0812   1
 -11   1  14 37.1548 12.8146   1
 -10   1  14 2.71189 10.8577   1
  -9   1  14 63.9958 11.8428   1
  -8   1  14 62.8419 16.2114   1
  -7   1  14 45.7102 15.5521   1
  -6   1  14 14.7733 6.66918   1
  -5   1  14 29.2743 6.18266   1
  -4   1  14 231.971 11.0007   1
  -3   1  14 5.14182 4.63577   1
  -2   1  14 237.365 10.5872   1
  -1   1  14 39.8641 5.49060   1
   0   1  14 203.759 9.98900   1
   1   1  14 14.7662 5.13164   1
   2   1  14 101.514 8.56630   1
   3   1  14 41.9323 5.55653   1
   4   1  14 61.2071 6.11023   1
   4   1  15 191.612 18.5819  -2
   5   1  14 191.612 18.5819   1
   5   1  15 22.3136 15.0233  -2
   6   1  14 22.3136 15.0233   1
   7   1  14 134.130 14.0989   1
   8   1  14 -3.4284 9.16690   1
   9   1  14 89.5976 13.5818   1
 -11   2  14 38.9590 12.8953   1
 -11   1  13 34.7838 31.0794  -2
 -10   2  14 34.7838 31.0794   1
  -9   2  14 90.7536 19.0033   1
  -8   2  14 4.95939 14.1845   1
  -7   2  14 134.171 10.3898   1
  -6   2  14 23.2617 6.31576   1
  -5   2  14 63.0995 8.08737   1
  -4   2  14 253.885 11.5984   1
  -3   2  14 42.6839 5.74492   1
  -2   2  14 103.745 7.86757   1
  -1   2  14 8.25233 5.18824   1
   0   2  14 280.097 11.7915   1
   1   2  14 -3.1031 4.51389   1
   2   2  14 177.440 10.2202   1
   3   2  14 43.4413 5.74373   1
   4   2  14 130.230 7.93091   1
   4   2  15 151.032 17.6289  -2
   5   2  14 151.032 17.6289   1
   6   2  14 66.3564 8.70866   1
   7   2  14 136.229 14.3432   1
   8   2  14 28.6203 10.6058   1
   9   2  14 36.3055 8.78030   1
 -11   2  13 -20.412 30.8393  -2
 -10   3  14 -20.412 30.8393   1
  -9   3  14 68.4324 18.0120   1
  -8   3  14 7.66703 6.72845   1
  -7   3  14 142.627 10.5795   1
  -7   2  14 68.8842 19.2388  -2
  -6   3  14 68.8842 19.2388   1
  -6   2  14 157.846 22.7826  -2
  -5   3  14 157.846 22.7826   1
  -4   3  14 148.421 9.76431   1
  -3   3  14 58.2389 7.95550   1
  -2   3  14 143.027 8.95218   1
  -1   3  14 40.7840 5.93847   1
   0   3  14 233.352 11.2016   1
   1   3  14 -3.1107 9.82678   1
   2   3  14 145.940 10.0109   1
   3   3  14 18.5758 4.72448   1
   4   3  14 146.860 8.49952   1
   5   3  14 61.5358 8.84221   1
   6   3  14 49.8325 9.46959   1
   7   3  14 53.9191 10.1991   1
   8   3  14 -1.0415 8.57558   1
 -11   3  13 -32.917 18.5109  -2
 -10   4  14 -32.917 18.5109   1
 -10   3  13 116.768 21.2981  -2
  -9   4  14 116.768 21.2981   1
  -9   3  14 30.3473 24.2965  -2
  -8   4  14 30.3473 24.2965   1
  -8   3  14 94.7700 23.3987  -2
  -7   4  14 94.7700 23.3987   1
  -7   3  14 52.3907 19.3629  -2
  -6   4  14 52.3907 19.3629   1
  -6   3  14 226.358 14.5764  -2
  -5   4  14 226.358 14.5764   1
  -5   3  14 113.893 14.4040  -2
  -4   4  14 113.893 14.4040   1
  -3   4  14 149.410 9.66537   1
  -2   4  14 92.1088 8.11923   1
  -1   4  14 95.3067 9.86110   1
   0   4  14 165.373 12.2485   1
   1   4  14 14.4909 6.00698   1
   2   4  14 236.482 11.9198   1
   3   4  14 4.27055 5.14268   1
   4   4  14 252.299 10.5592   1
   5   4  14 36.1906 8.41720   1
   6   4  14 112.816 13.5016   1
   7   4  14 78.2968 13.5118   1
   8   4  14 69.3731 9.14032   1
 -10   4  13 103.395 20.4535  -2
  -9   5  14 103.395 20.4535   1
 -10   4  14 83.3294 30.2570  -2
  -9   5  14 83.3294 30.2570   1
  -9   4  14 68.5019 23.6778  -2
  -8   5  14 68.5019 23.6778   1
  -8   4  14 84.6673 22.6941  -2
  -7   5  14 84.6673 22.6941   1
  -7   4  14 45.5017 20.1054  -2
  -6   5  14 45.5017 20.1054   1
  -6   4  14 163.296 13.7827  -2
  -5   5  14 163.296 13.7827   1
  -5   4  14 85.7008 15.5801  -2
  -4   5  14 85.7008 15.5801   1
  -3   5  14 92.4103 8.09462   1
  -3   4  15 86.9979 18.2002  -2
  -2   5  14 86.9979 18.2002   1
  -2   4  15 122.497 21.3048  -2
  -1   5  14 122.497 21.3048   1
  -1   4  15 127.673 22.8562  -2
   0   5  14 127.673 22.8562   1
   1   5  14 44.7600 7.61853   1
   2   5  14 182.112 11.7266   1
   3   5  14 7.19637 7.39069   1
   4   5  14 141.543 9.29851   1
   4   4  16 25.0322 16.2748  -2
   5   5  14 25.0322 16.2748   1
   5   4  16 146.589 22.9089  -2
   6   5  14 146.589 22.9089   1
   7   5  14 92.4440 13.9700   1
 -10   5  13 69.4409 20.4866  -2
  -9   6  14 69.4409 20.4866   1
  -9   5  14 48.9268 22.4447  -2
  -8   6  14 48.9268 22.4447   1
  -8   5  14 69.0871 14.7372  -2
  -7   6  14 69.0871 14.7372   1
  -7   5  14 38.7665 13.7198  -2
  -6   6  14 38.7665 13.7198   1
  -6   5  14 71.3193 14.6957  -2
  -5   6  14 71.3193 14.6957   1
  -4   6  14 3.74945 5.36453   1
  -3   6  14 135.433 9.75082   1
  -3   5  15 2.87553 17.1714  -2
  -2   6  14 2.87553 17.1714   1
  -2   5  15 104.315 21.2418  -2
  -1   6  14 104.315 21.2418   1
  -1   5  15 94.0342 22.7154  -2
   0   6  14 94.0342 22.7154   1
   1   6  14 51.9280 7.44436   1
   2   6  14 147.178 11.1484   1
   3   6  14 18.1687 7.41133   1
   4   6  14 138.859 11.8983   1
   5   6  14 1.57104 7.88155   1
   6   6  14 172.357 15.7375   1
  -9   6  14 90.9137 16.6967  -2
  -8   7  14 90.9137 16.6967   1
  -8   6  14 34.6856 14.1915  -2
  -7   7  14 34.6856 14.1915   1
  -7   6  14 6.26339 13.6958  -2
  -6   7  14 6.26339 13.6958   1
  -6   6  14 85.2468 16.0196  -2
  -5   7  14 85.2468 16.0196   1
  -4   7  14 7.57369 6.57443   1
  -4   6  15 190.879 22.5681  -2
  -3   7  14 190.879 22.5681   1
  -3   6  15 -26.566 19.3806  -2
  -2   7  14 -26.566 19.3806   1
  -2   6  15 147.593 13.7892  -2
  -1   7  14 147.593 13.7892   1
   0   7  14 37.4216 7.70065   1
   1   7  14 94.1036 9.75436   1
   2   7  14 77.7853 9.76827   1
   2   6  16 163.924 31.4292  -2
   3   7  14 163.924 31.4292   1
   3   6  16 104.920 34.4598  -2
   4   7  14 104.920 34.4598   1
   5   7  14 5.74602 9.99320   1
  -8   7  14 17.7737 15.5247  -2
  -7   8  14 17.7737 15.5247   1
  -7   7  14 19.8055 18.0987  -2
  -6   8  14 19.8055 18.0987   1
  -6   7  14 33.1631 17.5226  -2
  -5   8  14 33.1631 17.5226   1
  -5   7  15 -9.4189 20.9790  -2
  -4   8  14 -9.4189 20.9790   1
  -4   7  15 150.524 23.4341  -2
  -3   8  14 150.524 23.4341   1
  -2   8  14 3.42790 8.24957   1
  -2   7  15 126.474 14.2547  -2
  -1   8  14 126.474 14.2547   1
   0   8  14 -5.5092 6.30150   1
   1   8  14 46.0254 8.48498   1
   2   8  14 49.0472 9.25909   1
   2   7  16 67.5087 33.5250  -2
   3   8  14 67.5087 33.5250   1
   4   8  14 23.8039 10.6857   1
  -5   9  14 74.8494 9.48786   1
  -5   8  15 31.6063 23.9612  -2
  -4   9  14 31.6063 23.9612   1
  -4   8  15 69.0075 23.3215  -2
  -3   9  14 69.0075 23.3215   1
  -3   8  15 -18.914 21.7992  -2
  -2   9  14 -18.914 21.7992   1
  -2   8  15 27.3836 17.4114  -2
  -1   9  14 27.3836 17.4114   1
   0   9  14 -2.5890 6.88734   1
   1   9  14 87.8402 10.6454   1
   2   9  14 29.7986 9.67823   1
   3   9  14 83.2316 11.5410   1
  -3   9  15 -2.9498 12.2084  -2
  -2  10  14 -2.9498 12.2084   1
  -1  10  14 62.2826 9.58491   1
   0  10  14 44.9365 15.1275   1
  -3 -16  15 17.2315 7.53716   1
  -2 -16  14 13.5512 17.1610  -2
  -2 -16  15 13.5512 17.1610   1
  -1 -16  14 5.33843 12.1729  -2
  -1 -16  15 5.33843 12.1729   1
   0 -16  14 50.1789 16.0745  -2
   0 -16  15 50.1789 16.0745   1
   1 -16  14 21.4625 14.9537  -2
   1 -16  15 21.4625 14.9537   1
   2 -16  14 49.8532 17.2774  -2
   2 -16  15 49.8532 17.2774   1
  -5 -15  15 68.5702 9.34635   1
  -4 -15  15 -1.6389 7.14952   1
  -3 -15  15 63.5281 8.80516   1
  -2 -15  14 26.6192 16.4540  -2
  -2 -15  15 26.6192 16.4540   1
  -1 -15  14 11.1872 15.7082  -2
  -1 -15  15 11.1872 15.7082   1
   0 -15  14 7.27325 14.3056  -2
   0 -15  15 7.27325 14.3056   1
   1 -15  14 -11.101 16.0720  -2
   1 -15  15 -11.101 16.0720   1
   2 -15  14 43.6369 16.8510  -2
   2 -15  15 43.6369 16.8510   1
   3 -15  15 27.4477 21.1761  -2
   3 -15  14 27.4477 21.1761  -2
   3 -15  15 27.4477 21.1761   1
   4 -15  15 98.2429 18.8949  -2
   4 -15  15 98.2429 18.8949   1
  -6 -14  15 26.1776 8.68240   1
  -5 -14  15 41.9076 8.36142   1
  -4 -14  15 -7.7521 6.27516   1
  -3 -14  15 58.5937 8.51478   1
  -2 -14  14 1.11809 15.4486  -2
  -2 -14  15 1.11809 15.4486   1
  -1 -14  14 41.6336 17.4555  -2
  -1 -14  15 41.6336 17.4555   1
   0 -14  14 19.9660 15.2901  -2
   0 -14  15 19.9660 15.2901   1
   1 -14  14 49.0458 15.2250  -2
   1 -14  15 49.0458 15.2250   1
   2 -14  14 33.0175 16.8101  -2
   2 -14  15 33.0175 16.8101   1
   3 -14  15 -9.9017 17.1203  -2
   3 -14  15 -9.9017 17.1203   1
   4 -14  15 102.699 18.6877  -2
   4 -14  15 102.699 18.6877   1
   5 -14  15 8.37311 18.8182  -2
   5 -14  15 8.37311 18.8182   1
  -7 -13  15 25.7777 7.96664   1
  -6 -13  15 0.34518 6.72596   1
  -5 -13  15 40.7068 10.9701   1
  -4 -13  15 -2.1136 8.87390   1
  -3 -13  15 51.3711 11.6078   1
  -2 -13  14 17.5079 15.8079  -2
  -2 -13  15 17.5079 15.8079   1
  -1 -13  15 23.0000 9.51654   1
   0 -13  14 61.0150 15.9330  -2
   0 -13  15 61.0150 15.9330   1
   1 -13  14 126.880 17.9966  -2
   1 -13  15 126.880 17.9966   1
   2 -13  15 31.1460 7.23398   1
   3 -13  15 26.1297 7.61571   1
   4 -13  15 30.6315 17.5599  -2
   4 -13  15 30.6315 17.5599   1
   5 -13  15 23.1550 18.2384  -2
   5 -13  15 23.1550 18.2384   1
   6 -13  15 101.370 20.2280  -2
   6 -13  15 101.370 20.2280   1
  -8 -12  15 49.3656 10.1624   1
  -7 -12  15 23.4530 9.38105   1
  -6 -12  15 45.9083 9.92220   1
  -5 -12  15 163.797 11.1482   1
  -4 -12  15 15.4360 7.86111   1
  -3 -12  15 117.926 11.9142   1
  -2 -12  15 -3.5465 7.66770   1
  -1 -12  15 90.3115 10.0494   1
   0 -12  15 4.50029 8.94582   1
   1 -12  15 62.3048 10.4986   1
   2 -12  15 74.5878 11.2293   1
   3 -12  15 62.7927 8.04548   1
   4 -12  15 5.57472 17.1602  -2
   4 -12  15 5.57472 17.1602   1
   5 -12  15 44.2126 17.2125  -2
   5 -12  15 44.2126 17.2125   1
   6 -12  15 62.7872 20.0772  -2
   6 -12  15 62.7872 20.0772   1
   7 -12  15 5.37440 8.52878   1
  -9 -11  15 0.53989 9.32431   1
  -8 -11  15 66.7058 13.2103   1
  -7 -11  15 15.8360 7.89196   1
  -6 -11  15 93.2173 10.3988   1
  -5 -11  15 137.124 10.5239   1
  -4 -11  15 84.7271 19.0734   1
  -3 -11  15 90.1648 8.12640   1
  -2 -11  15 -3.6015 5.30662   1
  -1 -11  15 123.156 11.3632   1
   0 -11  15 4.53808 6.49917   1
   1 -11  15 66.5702 10.9350   1
   2 -11  15 16.8429 7.96510   1
   3 -11  15 75.6625 12.7976   1
   4 -11  15 67.8842 17.9815  -2
   4 -11  15 67.8842 17.9815   1
   5 -11  15 47.2248 18.6522  -2
   5 -11  15 47.2248 18.6522   1
   6 -11  15 109.423 11.1025   1
   6 -11  16 14.4042 19.0898  -2
   7 -11  15 14.4042 19.0898   1
   7 -11  16 21.8285 24.0732  -2
   8 -11  15 21.8285 24.0732   1
  -9 -10  15 -6.6569 8.85148   1
  -8 -10  15 52.6603 12.9617   1
  -7 -10  15 5.87609 7.48142   1
  -6 -10  15 56.6983 13.5004   1
  -5 -10  15 123.969 9.82787   1
  -4 -10  15 88.8172 9.79431   1
  -3 -10  15 66.6999 7.21284   1
  -2 -10  15 48.8480 6.10131   1
  -1 -10  15 145.037 8.04517   1
   0 -10  15 4.47826 5.64408   1
   1 -10  15 133.836 11.1875   1
   2 -10  15 -3.4392 7.04569   1
   3 -10  15 220.384 23.0179   1
   4 -10  15 54.1431 11.5365   1
   5 -10  15 63.7008 12.3387   1
   6 -10  15 64.9253 8.98975   1
   6 -10  16 6.89016 19.7721  -2
   7 -10  15 6.89016 19.7721   1
   7 -10  16 26.9370 24.3370  -2
   8 -10  15 26.9370 24.3370   1
 -10  -9  15 75.6263 11.4078   1
  -9  -9  15 24.9290 9.95621   1
  -8  -9  15 65.2843 13.7702   1
  -7  -9  15 1.98223 7.49082   1
  -6  -9  15 66.0328 8.51530   1
  -5  -9  15 3.10316 5.92855   1
  -4  -9  15 78.5222 7.89904   1
  -3  -9  15 33.6518 5.68275   1
  -2  -9  15 89.4683 7.20033   1
  -1  -9  15 109.020 7.22194   1
   0  -9  15 71.8181 6.47776   1
   1  -9  15 149.725 8.58239   1
   2  -9  15 8.96808 5.40091   1
   3  -9  15 322.691 11.3011   1
   4  -9  15 22.6283 14.4196   1
   5  -9  15 86.4872 13.1295   1
   6  -9  15 6.27469 6.91369   1
   6  -9  16 83.3381 20.2442  -2
   7  -9  15 83.3381 20.2442   1
   7  -9  16 38.6846 23.0114  -2
   8  -9  15 38.6846 23.0114   1
   9  -9  15 8.50022 9.21550   1
 -10  -8  15 41.8059 10.7189   1
  -9  -8  15 27.5769 9.08018   1
  -8  -8  15 53.6452 11.4550   1
  -7  -8  15 6.88387 9.07904   1
  -6  -8  15 127.411 9.46212   1
  -5  -8  15 -3.7841 5.84101   1
  -4  -8  15 172.191 11.6845   1
  -3  -8  15 80.8025 6.85004   1
  -2  -8  15 125.385 7.39995   1
  -1  -8  15 61.2743 5.87431   1
   0  -8  15 86.6735 6.50862   1
   1  -8  15 185.100 8.34395   1
   2  -8  15 15.5399 5.23016   1
   3  -8  15 94.9391 8.27343   1
   4  -8  15 1.60570 5.40690   1
   5  -8  15 93.4286 8.28059   1
   6  -8  15 9.29781 7.51973   1
   7  -8  15 132.655 16.0294   1
   7  -8  16 32.8039 25.0822  -2
   8  -8  15 32.8039 25.0822   1
   9  -8  15 11.8023 9.63853   1
 -10  -7  15 36.2312 10.2971   1
  -9  -7  15 18.2916 8.34262   1
  -8  -7  15 67.9882 8.65440   1
  -7  -7  15 12.9886 8.77519   1
  -6  -7  15 131.226 9.19746   1
  -5  -7  15 0.42139 5.59896   1
  -4  -7  15 165.540 10.9352   1
  -3  -7  15 -2.7909 4.22745   1
  -2  -7  15 218.964 8.88763   1
  -1  -7  15 2.87366 4.08582   1
   0  -7  15 81.3719 6.18896   1
   1  -7  15 148.399 7.59339   1
   2  -7  15 95.9401 6.93687   1
   3  -7  15 39.8970 5.98639   1
   4  -7  15 21.5753 5.68021   1
   5  -7  15 102.138 8.89480   1
   6  -7  15 4.19515 6.30557   1
   7  -7  15 139.135 11.8186   1
   7  -7  16 11.5305 23.9375  -2
   8  -7  15 11.5305 23.9375   1
   9  -7  15 28.1422 8.41017   1
 -11  -6  15 21.4296 12.5290   1
 -10  -6  15 33.0872 9.54736   1
  -9  -6  15 47.5872 9.35997   1
  -8  -6  15 0.57080 6.80162   1
  -7  -6  15 34.4014 7.20021   1
  -6  -6  15 128.641 12.0722   1
  -5  -6  15 44.7501 6.38092   1
  -4  -6  15 198.754 11.0439   1
  -3  -6  15 -2.4077 5.24948   1
  -2  -6  15 249.298 9.48798   1
  -1  -6  15 38.7558 5.08708   1
   0  -6  15 127.602 6.58618   1
   1  -6  15 52.2718 5.56248   1
   2  -6  15 125.067 7.37093   1
   3  -6  15 94.9697 7.21496   1
   4  -6  15 10.5586 5.19737   1
   5  -6  15 195.357 9.65218   1
   6  -6  15 27.8332 7.54005   1
   7  -6  15 156.640 11.7683   1
   8  -6  15 20.8751 9.02622   1
   9  -6  15 36.1638 8.99853   1
 -11  -5  15 64.7868 15.1776   1
 -10  -5  15 17.1838 10.3771   1
  -9  -5  15 154.830 13.0541   1
  -8  -5  15 16.9166 7.16184   1
  -7  -5  15 101.797 9.07119   1
  -6  -5  15 84.2389 8.23800   1
  -5  -5  15 142.374 12.2482   1
  -4  -5  15 289.432 12.0841   1
  -3  -5  15 62.1026 6.29427   1
  -2  -5  15 173.688 8.44202   1
  -1  -5  15 -2.9649 3.39659   1
   0  -5  15 163.882 7.15079   1
   1  -5  15 6.10953 3.79254   1
   2  -5  15 152.664 7.69704   1
   3  -5  15 138.456 7.81078   1
   4  -5  15 27.8255 5.49417   1
   5  -5  15 187.598 9.54877   1
   6  -5  15 112.520 10.2537   1
   7  -5  15 94.1519 9.77510   1
   7  -5  16 -1.8001 18.6281  -2
   8  -5  15 -1.8001 18.6281   1
   8  -5  16 87.6685 19.5702  -2
   9  -5  15 87.6685 19.5702   1
 -11  -4  15 50.4269 14.6883   1
 -10  -4  15 -2.7325 10.5394   1
  -9  -4  15 121.399 14.5598   1
  -8  -4  15 13.7953 8.73287   1
  -7  -4  15 172.951 11.7486   1
  -6  -4  15 78.2629 10.0284   1
  -5  -4  15 210.486 20.5739   1
  -4  -4  15 306.797 13.1403   1
  -3  -4  15 66.5207 5.23609   1
  -2  -4  15 149.267 6.53103   1
  -1  -4  15 -8.7118 3.33231   1
   0  -4  15 315.502 12.5522   1
   1  -4  15 -4.6992 3.42602   1
   2  -4  15 183.134 7.88593   1
   3  -4  15 15.7014 4.98867   1
   4  -4  15 144.873 8.24114   1
   5  -4  15 128.497 8.26916   1
   6  -4  15 96.0839 9.45962   1
   6  -4  16 150.030 20.8315  -2
   7  -4  15 150.030 20.8315   1
   7  -4  16 2.87908 18.5996  -2
   8  -4  15 2.87908 18.5996   1
   8  -4  16 116.668 20.5209  -2
   9  -4  15 116.668 20.5209   1
 -11  -3  15 53.2933 13.7753   1
 -10  -3  15 35.3729 10.8306   1
  -9  -3  15 91.0861 12.6164   1
  -8  -3  15 11.8472 10.2553   1
  -7  -3  15 161.707 13.7266   1
  -6  -3  15 0.78582 8.01726   1
  -5  -3  15 185.497 19.0399   1
  -4  -3  15 35.3863 6.85479   1
  -3  -3  15 27.4835 5.42328   1
  -2  -3  15 123.105 8.22433   1
  -1  -3  15 95.6809 5.80741   1
   0  -3  15 426.726 11.1038   1
   1  -3  15 0.47144 4.05074   1
   2  -3  15 368.130 11.6542   1
   3  -3  15 -0.1046 4.14701   1
   4  -3  15 205.249 9.04632   1
   5  -3  15 61.4840 7.08842   1
   6  -3  15 119.382 10.1751   1
   6  -3  16 68.0885 20.4602  -2
   7  -3  15 68.0885 20.4602   1
   8  -3  15 6.75806 11.3208   1
   9  -3  15 28.2057 12.9722   1
 -11  -2  15 -1.7555 12.1736   1
 -10  -2  15 33.9059 11.2623   1
  -9  -2  15 81.0096 12.8947   1
  -8  -2  15 -0.5183 8.86458   1
  -7  -2  15 174.226 15.5953   1
  -6  -2  15 -1.9077 11.8528   1
  -5  -2  15 231.323 11.9173   1
  -4  -2  15 17.3064 5.29767   1
  -3  -2  15 65.8353 6.93843   1
  -2  -2  15 96.0915 7.60148   1
  -1  -2  15 102.290 7.69145   1
   0  -2  15 133.653 8.56143   1
   1  -2  15 -2.0428 3.49290   1
   2  -2  15 442.193 11.9772   1
   3  -2  15 8.93064 4.37447   1
   4  -2  15 187.393 8.85767   1
   5  -2  15 28.2199 6.55137   1
   5  -2  16 275.893 22.8026  -2
   6  -2  15 275.893 22.8026   1
   6  -2  16 53.7340 19.5236  -2
   7  -2  15 53.7340 19.5236   1
   8  -2  15 64.5543 12.5597   1
   9  -2  15 55.2267 14.5464   1
 -11  -1  15 17.4198 12.2145   1
 -10  -1  15 45.5599 12.8184   1
  -9  -1  15 84.4788 11.8016   1
  -8  -1  15 -7.4383 8.51398   1
  -7  -1  15 61.9437 16.4409   1
  -6  -1  15 8.40608 12.8806   1
  -5  -1  15 182.585 11.5967   1
  -4  -1  15 18.0834 5.48750   1
  -3  -1  15 205.593 10.3869   1
  -2  -1  15 68.5005 6.81280   1
  -1  -1  15 149.540 9.00741   1
   0  -1  15 79.3564 7.10441   1
   1  -1  15 198.411 7.85592   1
   2  -1  15 183.986 7.90080   1
   2  -2  16 -15.645 13.7697  -2
   3  -1  15 -15.645 13.7697   1
   3  -2  16 289.306 20.6118  -2
   4  -1  15 289.306 20.6118   1
   5  -1  15 3.72776 5.10694   1
   5  -1  16 114.392 19.7647  -2
   6  -1  15 114.392 19.7647   1
   6  -1  16 61.5016 19.1937  -2
   7  -1  15 61.5016 19.1937   1
   8  -1  15 63.0820 12.0430   1
   9  -1  15 60.6743 14.8648   1
 -11   0  15 21.0844 11.5794   1
 -10   0  15 82.1731 12.5195   1
  -9   0  15 60.7228 12.1500   1
  -8   0  15 -6.9071 13.8202   1
  -7   0  15 43.6505 14.8053   1
  -6   0  15 4.50956 5.85362   1
  -5   0  15 209.835 11.5153   1
  -4   0  15 -6.8830 4.58005   1
  -3   0  15 263.601 11.6185   1
  -2   0  15 4.24870 4.69089   1
  -1   0  15 103.217 7.63256   1
   0   0  15 84.8066 7.52785   1
   1   0  15 180.753 9.79696   1
   2   0  15 135.004 9.59837   1
   3   0  15 89.3539 9.07622   1
   4   0  15 149.816 8.34699   1
   5   0  15 13.3082 5.57971   1
   5   0  16 174.042 17.3942  -2
   6   0  15 174.042 17.3942   1
   7   0  15 5.56680 8.39828   1
   8   0  15 118.601 14.9139   1
   9   0  15 22.0748 12.4387   1
 -11   0  14 142.684 33.1819  -2
 -10   1  15 142.684 33.1819   1
  -9   1  15 2.25424 15.7880   1
  -8   1  15 122.059 20.3272   1
  -7   1  15 50.2525 8.06045   1
  -6   1  15 82.7004 8.77006   1
  -6   0  15 105.165 21.5880  -2
  -5   1  15 105.165 21.5880   1
  -3   1  15 131.052 8.91935   1
  -2   1  15 4.88358 4.39692   1
  -1   1  15 150.135 9.20845   1
   0   1  15 13.7912 4.80083   1
   1   1  15 144.001 9.34589   1
   2   1  15 69.1176 14.3874   1
   3   1  15 137.144 10.0531   1
   4   1  15 90.5023 7.16438   1
   4   1  16 12.3385 17.3508  -2
   5   1  15 12.3385 17.3508   1
   6   1  15 155.544 11.7882   1
   7   1  15 7.17054 8.30585   1
   8   1  15 90.6971 13.4836   1
 -11   1  14 6.07093 30.0882  -2
 -10   2  15 6.07093 30.0882   1
  -9   2  15 7.15525 15.5511   1
  -8   2  15 76.6577 17.2832   1
  -7   2  15 31.6464 7.19032   1
  -7   1  15 98.7678 21.6292  -2
  -6   2  15 98.7678 21.6292   1
  -6   1  15 131.633 21.0222  -2
  -5   2  15 131.633 21.0222   1
  -4   2  15 46.3843 7.09623   1
  -3   2  15 70.9418 7.85477   1
  -2   2  15 12.0471 12.1165   1
  -1   2  15 168.017 10.1577   1
   0   2  15 16.0260 11.1330   1
   1   2  15 261.179 12.1183   1
   2   2  15 67.9812 7.17577   1
   3   2  15 176.697 10.9687   1
   4   2  15 124.080 8.28456   1
   4   2  16 77.0244 19.3910  -2
   5   2  15 77.0244 19.3910   1
   6   2  15 98.6929 10.9544   1
   7   2  15 -5.6999 8.27357   1
   8   2  15 48.8895 11.8891   1
 -11   2  14 16.9556 18.2208  -2
 -10   3  15 16.9556 18.2208   1
 -10   2  14 -14.650 16.3806  -2
  -9   3  15 -14.650 16.3806   1
  -8   3  15 42.4792 7.17220   1
  -8   2  15 24.6525 20.5624  -2
  -7   3  15 24.6525 20.5624   1
  -7   2  15 64.8670 20.0486  -2
  -6   3  15 64.8670 20.0486   1
  -6   2  15 130.326 21.7586  -2
  -5   3  15 130.326 21.7586   1
  -5   2  15 148.484 15.1401  -2
  -4   3  15 148.484 15.1401   1
  -3   3  15 172.319 10.1346   1
  -2   3  15 71.3389 7.42706   1
  -1   3  15 228.250 11.3671   1
   0   3  15 13.2612 6.61108   1
   1   3  15 241.744 12.2406   1
   2   3  15 3.22496 7.03302   1
   3   3  15 181.997 11.2777   1
   4   3  15 38.9200 6.33482   1
   5   3  15 80.2329 9.64053   1
   6   3  15 61.7072 11.7877   1
   7   3  15 18.1839 10.4159   1
   8   3  15 83.5852 14.6076   1
 -10   3  14 -6.2539 20.3179  -2
  -9   4  15 -6.2539 20.3179   1
  -9   3  15 100.781 27.3837  -2
  -8   4  15 100.781 27.3837   1
  -8   3  15 17.9716 20.4673  -2
  -7   4  15 17.9716 20.4673   1
  -7   3  15 82.8277 16.6771  -2
  -6   4  15 82.8277 16.6771   1
  -6   3  15 48.2022 12.3185  -2
  -5   4  15 48.2022 12.3185   1
  -5   3  15 138.948 15.1019  -2
  -4   4  15 138.948 15.1019   1
  -3   4  15 116.508 8.72101   1
  -2   4  15 93.2647 8.42171   1
  -2   3  16 186.042 22.2894  -2
  -1   4  15 186.042 22.2894   1
  -1   3  16 26.6180 19.3191  -2
   0   4  15 26.6180 19.3191   1
   0   3  16 261.731 26.8935  -2
   1   4  15 261.731 26.8935   1
   2   4  15 -2.9123 5.81398   1
   3   4  15 155.161 11.1679   1
   4   4  15 22.8748 8.30888   1
   5   4  15 89.9798 11.1761   1
   6   4  15 4.77419 8.83740   1
   7   4  15 23.0466 10.2026   1
 -10   4  14 31.6870 20.4430  -2
  -9   5  15 31.6870 20.4430   1
  -9   4  14 83.8179 19.2653  -2
  -8   5  15 83.8179 19.2653   1
  -9   4  15 71.6301 25.6561  -2
  -8   5  15 71.6301 25.6561   1
  -8   4  15 44.6746 14.1125  -2
  -7   5  15 44.6746 14.1125   1
  -7   4  15 127.418 13.6775  -2
  -6   5  15 127.418 13.6775   1
  -6   4  15 39.1621 12.3397  -2
  -5   5  15 39.1621 12.3397   1
  -5   4  15 156.824 16.7424  -2
  -4   5  15 156.824 16.7424   1
  -3   5  15 17.3346 6.13253   1
  -3   4  16 168.973 22.2637  -2
  -2   5  15 168.973 22.2637   1
  -2   4  16 76.9898 18.9526  -2
  -1   5  15 76.9898 18.9526   1
  -1   4  16 88.7176 20.7859  -2
   0   5  15 88.7176 20.7859   1
   0   4  16 151.614 24.8020  -2
   1   5  15 151.614 24.8020   1
   2   5  15 10.8545 6.21185   1
   3   5  15 226.927 13.0363   1
   4   5  15 30.7471 8.25343   1
   4   4  17 169.957 40.8733  -2
   5   5  15 169.957 40.8733   1
   6   5  15 73.4912 13.4186   1
  -9   5  15 32.0351 23.4106  -2
  -8   6  15 32.0351 23.4106   1
  -8   5  15 45.8227 13.9125  -2
  -7   6  15 45.8227 13.9125   1
  -7   5  15 41.1846 12.6496  -2
  -6   6  15 41.1846 12.6496   1
  -6   5  15 72.0375 16.6730  -2
  -5   6  15 72.0375 16.6730   1
  -4   6  15 101.077 9.17827   1
  -4   5  16 21.3389 17.8302  -2
  -3   6  15 21.3389 17.8302   1
  -3   5  16 129.175 20.6089  -2
  -2   6  15 129.175 20.6089   1
  -2   5  16 56.0754 20.7501  -2
  -1   6  15 56.0754 20.7501   1
  -1   5  16 108.108 23.2427  -2
   0   6  15 108.108 23.2427   1
   1   6  15 87.3895 9.55677   1
   2   6  15 54.6893 9.35668   1
   3   6  15 147.640 11.7056   1
   4   6  15 27.2362 8.43997   1
   5   6  15 38.6170 9.77004   1
  -8   6  15 43.0147 14.3775  -2
  -7   7  15 43.0147 14.3775   1
  -7   6  15 62.4780 13.6209  -2
  -6   7  15 62.4780 13.6209   1
  -6   6  15 17.4369 17.3430  -2
  -5   7  15 17.4369 17.3430   1
  -5   6  16 91.0178 20.3019  -2
  -4   7  15 91.0178 20.3019   1
  -4   6  16 5.02814 19.2811  -2
  -3   7  15 5.02814 19.2811   1
  -3   6  16 144.504 22.7835  -2
  -2   7  15 144.504 22.7835   1
  -2   6  16 0.68591 12.3179  -2
  -1   7  15 0.68591 12.3179   1
   0   7  15 34.4068 7.74072   1
   1   7  15 86.3923 8.30037   1
   2   7  15 63.8490 9.50981   1
   3   7  15 47.3433 9.77812   1
   4   7  15 35.3264 10.1435   1
  -6   8  15 54.8893 15.1323   1
  -5   8  15 17.4172 6.72615   1
  -5   7  16 48.7771 22.3255  -2
  -4   8  15 48.7771 22.3255   1
  -4   7  16 -2.2902 20.9784  -2
  -3   8  15 -2.2902 20.9784   1
  -3   7  16 41.3496 22.3377  -2
  -2   8  15 41.3496 22.3377   1
  -2   7  16 -22.722 9.49078  -2
  -1   8  15 -22.722 9.49078   1
   0   8  15 75.6438 9.55334   1
   1   8  15 39.8120 8.98310   1
   2   8  15 99.9957 11.6566   1
   3   8  15 16.1419 9.42790   1
  -4   8  16 20.7798 22.4876  -2
  -3   9  15 20.7798 22.4876   1
  -3   8  16 109.106 24.8132  -2
  -2   9  15 109.106 24.8132   1
  -1   9  15 4.77313 7.00587   1
   0   9  15 114.154 12.3616   1
   1   9  15 -9.8024 14.1776   1
  -1 -16  15 10.1827 17.0442  -2
  -1 -16  16 10.1827 17.0442   1
   0 -16  15 10.8551 15.6696  -2
   0 -16  16 10.8551 15.6696   1
   1 -16  16 26.9884 11.4811   1
  -4 -15  16 58.1952 9.16991   1
  -3 -15  16 17.7425 7.41175   1
  -2 -15  15 15.1730 18.3813  -2
  -2 -15  16 15.1730 18.3813   1
  -1 -15  15 11.0453 17.2169  -2
  -1 -15  16 11.0453 17.2169   1
   0 -15  15 24.2677 16.6943  -2
   0 -15  16 24.2677 16.6943   1
   1 -15  15 56.6840 18.3013  -2
   1 -15  16 56.6840 18.3013   1
   2 -15  15 16.8789 17.4388  -2
   2 -15  16 16.8789 17.4388   1
   3 -15  16 29.1446 7.87883   1
  -6 -14  16 42.3939 9.30052   1
  -5 -14  16 -1.3950 7.30487   1
  -4 -14  16 32.2494 7.97230   1
  -3 -14  16 13.9958 7.30154   1
  -2 -14  16 56.2235 8.68388   1
  -1 -14  15 9.90567 16.4522  -2
  -1 -14  16 9.90567 16.4522   1
   0 -14  15 68.9707 16.6275  -2
   0 -14  16 68.9707 16.6275   1
   1 -14  15 38.5477 17.0923  -2
   1 -14  16 38.5477 17.0923   1
   2 -14  15 4.29666 15.9135  -2
   2 -14  16 4.29666 15.9135   1
   3 -14  16 5.37761 7.27526   1
   4 -14  16 -5.3336 18.9503  -2
   4 -14  16 -5.3336 18.9503   1
   5 -14  16 96.5310 19.1121  -2
   5 -14  16 96.5310 19.1121   1
  -7 -13  16 51.2083 9.32427   1
  -6 -13  16 133.930 14.4030   1
  -5 -13  16 -2.0346 9.44528   1
  -4 -13  16 40.5573 11.8991   1
  -3 -13  16 14.8172 10.7547   1
  -2 -13  16 38.7886 12.1213   1
  -1 -13  16 17.4768 9.86972   1
   0 -13  16 43.3212 10.8501   1
   1 -13  16 43.5244 10.2292   1
   2 -13  16 18.0999 6.79188   1
   3 -13  16 24.6767 7.18009   1
   4 -13  16 11.9999 7.54626   1
   5 -13  16 68.2359 20.1158  -2
   5 -13  16 68.2359 20.1158   1
   6 -13  16 14.7727 19.7031  -2
   6 -13  16 14.7727 19.7031   1
  -8 -12  16 15.5138 10.3158   1
  -7 -12  16 41.4460 10.1226   1
  -6 -12  16 96.6212 10.4462   1
  -5 -12  16 29.1149 8.24339   1
  -4 -12  16 84.5089 10.9045   1
  -3 -12  16 -2.1424 7.88080   1
  -2 -12  16 86.7273 11.1534   1
  -1 -12  16 10.1994 8.12012   1
   0 -12  16 74.7196 9.89298   1
   1 -12  16 12.8841 9.03199   1
   2 -12  16 47.2540 11.5714   1
   3 -12  16 13.9481 10.3939   1
   4 -12  16 25.4344 7.56893   1
   5 -12  16 98.7532 9.95182   1
   6 -12  16 25.5082 8.91886   1
   6 -12  17 34.1485 21.9735  -2
   7 -12  16 34.1485 21.9735   1
  -8 -11  16 8.79305 12.7879   1
  -7 -11  16 31.7184 8.89902   1
  -6 -11  16 45.9699 8.98515   1
  -5 -11  16 55.2692 8.73141   1
  -4 -11  16 40.4466 9.82149   1
  -3 -11  16 9.31552 5.95201   1
  -2 -11  16 77.5779 7.65836   1
  -1 -11  16 5.14677 7.79819   1
   0 -11  16 124.175 11.1505   1
   1 -11  16 0.50473 7.61699   1
   2 -11  16 159.217 12.1992   1
   3 -11  16 38.6534 11.3215   1
   4 -11  16 99.4187 13.8365   1
   5 -11  16 95.9471 10.7096   1
   6 -11  16 10.4332 8.00952   1
   6 -11  17 46.4089 22.6008  -2
   7 -11  16 46.4089 22.6008   1
  -9 -10  16 58.5821 11.0522   1
  -8 -10  16 15.9325 12.1241   1
  -7 -10  16 47.2219 8.67748   1
  -6 -10  16 18.6069 8.19908   1
  -5 -10  16 57.2379 8.37499   1
  -4 -10  16 38.2973 8.71232   1
  -3 -10  16 5.53040 5.67786   1
  -2 -10  16 108.344 7.95915   1
  -1 -10  16 8.95432 5.28479   1
   0 -10  16 167.667 8.63981   1
   1 -10  16 -6.3656 7.23146   1
   2 -10  16 138.309 12.1591   1
   3 -10  16 19.7908 8.77153   1
   4 -10  16 67.3149 10.5713   1
   5 -10  16 68.5955 13.0102   1
   6 -10  16 19.2364 8.05736   1
   6 -10  17 69.1329 23.2431  -2
   7 -10  16 69.1329 23.2431   1
   7 -10  17 72.2243 25.6729  -2
   8 -10  16 72.2243 25.6729   1
  -9  -9  16 52.9635 9.93468   1
  -8  -9  16 8.10285 8.44055   1
  -7  -9  16 84.7598 12.1651   1
  -6  -9  16 14.0351 7.38856   1
  -5  -9  16 77.4147 8.87113   1
  -4  -9  16 49.1972 9.43389   1
  -3  -9  16 113.072 8.10966   1
  -2  -9  16 73.1664 6.83887   1
  -1  -9  16 77.3327 6.57635   1
   0  -9  16 161.508 8.38587   1
   1  -9  16 22.5262 5.77299   1
   2  -9  16 298.407 11.3366   1
   3  -9  16 6.91742 6.03986   1
   4  -9  16 91.8241 11.1263   1
   5  -9  16 23.3459 9.02828   1
   6  -9  16 48.6669 11.9105   1
   6  -9  17 101.052 23.3606  -2
   7  -9  16 101.052 23.3606   1
   7  -9  17 20.1253 26.5104  -2
   8  -9  16 20.1253 26.5104   1
 -10  -8  16 0.55566 10.1052   1
  -9  -8  16 31.8134 9.49403   1
  -8  -8  16 21.6402 10.8583   1
  -7  -8  16 49.4239 11.2951   1
  -6  -8  16 1.33695 6.69025   1
  -5  -8  16 99.5797 9.80085   1
  -4  -8  16 -5.2872 7.82666   1
  -3  -8  16 148.866 8.63357   1
  -2  -8  16 28.0253 5.73093   1
  -1  -8  16 143.201 8.05148   1
   0  -8  16 92.0001 7.62372   1
   1  -8  16 88.0873 7.23089   1
   2  -8  16 148.072 8.63217   1
   3  -8  16 10.2183 5.95899   1
   4  -8  16 55.6589 7.54025   1
   5  -8  16 -8.1995 6.25060   1
   6  -8  16 97.8825 10.6374   1
   7  -8  16 1.23875 11.1107   1
   7  -8  17 23.3343 25.9342  -2
   8  -8  16 23.3343 25.9342   1
 -10  -7  16 37.5543 11.9302   1
  -9  -7  16 33.4743 9.65815   1
  -8  -7  16 -10.543 7.25096   1
  -7  -7  16 119.854 9.99315   1
  -6  -7  16 5.76445 12.0089   1
  -5  -7  16 181.226 10.3789   1
  -4  -7  16 -7.8414 6.77993   1
  -3  -7  16 132.487 7.72583   1
  -2  -7  16 1.66960 4.38835   1
  -1  -7  16 99.0533 6.87137   1
   0  -7  16 114.668 7.08419   1
   1  -7  16 70.2938 6.78869   1
   2  -7  16 137.591 8.57895   1
   3  -7  16 10.2736 5.49411   1
   4  -7  16 39.8529 6.36181   1
   5  -7  16 -3.1327 7.91195   1
   6  -7  16 124.011 11.4888   1
   7  -7  16 9.71679 8.03221   1
   7  -7  17 31.8123 27.2563  -2
   8  -7  16 31.8123 27.2563   1
   9  -7  16 -7.7218 8.44051   1
 -10  -6  16 112.168 15.3314   1
  -9  -6  16 29.5133 11.1212   1
  -8  -6  16 42.6383 8.61935   1
  -7  -6  16 119.932 9.77023   1
  -6  -6  16 63.2087 12.5739   1
  -5  -6  16 184.027 21.2120   1
  -4  -6  16 2.19095 4.83703   1
  -3  -6  16 231.312 9.18878   1
  -2  -6  16 3.77700 4.25959   1
  -1  -6  16 143.728 7.85091   1
   0  -6  16 66.5823 5.88644   1
   1  -6  16 110.950 7.19110   1
   2  -6  16 91.8260 7.35083   1
   3  -6  16 10.3320 5.21182   1
   4  -6  16 105.593 9.20340   1
   5  -6  16 -4.9190 5.91432   1
   6  -6  16 140.564 11.7534   1
   7  -6  16 8.96052 8.11952   1
   7  -6  17 130.852 22.1023  -2
   8  -6  16 130.852 22.1023   1
   8  -6  17 12.8763 19.3423  -2
   9  -6  16 12.8763 19.3423   1
 -10  -5  16 49.8058 11.7315   1
  -9  -5  16 24.7872 9.61899   1
  -8  -5  16 102.356 12.1519   1
  -7  -5  16 38.4143 10.1752   1
  -6  -5  16 85.5148 11.8291   1
  -5  -5  16 116.991 19.0205   1
  -4  -5  16 53.3506 7.85460   1
  -3  -5  16 321.040 10.2416   1
  -2  -5  16 3.93134 4.00273   1
  -1  -5  16 292.629 9.56388   1
   0  -5  16 29.1473 4.54669   1
   1  -5  16 252.503 9.11412   1
   2  -5  16 41.7600 5.73105   1
   3  -5  16 86.3554 7.20183   1
   4  -5  16 140.171 8.73521   1
   5  -5  16 47.5813 7.07208   1
   6  -5  16 143.054 12.6247   1
   6  -5  17 4.59632 18.5102  -2
   7  -5  16 4.59632 18.5102   1
   7  -5  17 93.9303 21.8581  -2
   8  -5  16 93.9303 21.8581   1
   8  -5  17 43.1051 19.7674  -2
   9  -5  16 43.1051 19.7674   1
 -11  -4  16 -6.3027 11.5606   1
 -10  -4  16 90.0444 14.2944   1
  -9  -4  16 -3.1529 9.74162   1
  -8  -4  16 165.588 14.7292   1
  -7  -4  16 28.1898 9.61067   1
  -5  -4  16 65.9511 15.1631   1
  -4  -4  16 100.725 8.88236   1
  -3  -4  16 238.610 11.5001   1
  -2  -4  16 22.1387 5.77728   1
  -1  -4  16 229.694 8.56706   1
   0  -4  16 -0.5648 4.16454   1
   1  -4  16 290.279 9.62385   1
   2  -4  16 8.44771 4.44365   1
   3  -4  16 114.209 7.76755   1
   4  -4  16 56.2712 6.57833   1
   5  -4  16 167.679 9.80747   1
   6  -4  16 81.0872 8.81109   1
   6  -4  17 64.8825 20.5975  -2
   7  -4  16 64.8825 20.5975   1
   8  -4  16 32.1251 13.3469   1
   9  -4  16 4.08120 13.6313   1
 -11  -3  16 10.1806 12.5545   1
 -10  -3  16 66.6912 13.2707   1
  -9  -3  16 7.17837 10.2904   1
  -8  -3  16 99.1886 12.9163   1
  -7  -3  16 2.19599 8.60683   1
  -6  -3  16 174.540 24.1109   1
  -5  -3  16 45.5686 7.38482   1
  -4  -3  16 134.284 9.51013   1
  -3  -3  16 80.5103 8.02151   1
  -2  -3  16 40.5265 6.08090   1
  -1  -3  16 95.5422 7.78119   1
   0  -3  16 5.15502 4.98480   1
   1  -3  16 355.341 13.7468   1
   2  -3  16 -2.0519 4.97636   1
   3  -3  16 94.9925 7.19981   1
   4  -3  16 23.5206 5.87368   1
   5  -3  16 167.408 12.6417   1
   6  -3  16 65.8178 8.11243   1
   6  -3  17 94.8584 20.3927  -2
   7  -3  16 94.8584 20.3927   1
   8  -3  16 120.739 16.1864   1
   9  -3  16 -7.9945 12.6986   1
 -11  -2  16 -7.0517 13.6488   1
 -10  -2  16 97.1909 14.2447   1
  -9  -2  16 4.98990 9.93476   1
  -8  -2  16 46.4342 11.6523   1
  -7  -2  16 2.84899 13.7024   1
  -6  -2  16 184.275 21.3532   1
  -5  -2  16 4.90963 6.62150   1
  -4  -2  16 120.760 8.95603   1
  -3  -2  16 24.6173 5.51501   1
  -2  -2  16 112.581 8.25413   1
  -1  -2  16 67.0713 7.42473   1
   0  -2  16 117.276 8.37828   1
   1  -2  16 206.189 10.8442   1
   2  -2  16 -6.5877 4.39750   1
   3  -2  16 200.549 9.02934   1
   3  -3  17 38.2013 17.4287  -2
   4  -2  16 38.2013 17.4287   1
   4  -3  17 270.540 22.5549  -2
   5  -2  16 270.540 22.5549   1
   5  -2  17 42.0915 20.3009  -2
   6  -2  16 42.0915 20.3009   1
   6  -2  17 138.045 22.5664  -2
   7  -2  16 138.045 22.5664   1
   8  -2  16 60.9386 13.5541   1
   9  -2  16 13.9043 13.0087   1
 -10  -1  16 44.5137 12.6157   1
 -10  -2  15 -28.960 25.7337  -2
  -9  -1  16 -28.960 25.7337   1
  -8  -1  16 31.7567 16.3808   1
  -7  -1  16 2.91743 13.6587   1
  -6  -1  16 100.489 9.51675   1
  -5  -1  16 -1.7087 4.91333   1
  -4  -1  16 133.561 14.3744   1
  -3  -1  16 22.6159 5.43688   1
  -2  -1  16 103.046 8.14618   1
  -1  -1  16 195.632 10.0836   1
   0  -1  16 134.275 8.99547   1
   1  -1  16 128.660 8.96258   1
   2  -1  16 25.1404 5.73820   1
   2  -2  17 161.394 18.8887  -2
   3  -1  16 161.394 18.8887   1
   3  -2  17 2.23944 18.3154  -2
   4  -1  16 2.23944 18.3154   1
   5  -1  16 156.840 9.58485   1
   5  -1  17 32.2224 20.6201  -2
   6  -1  16 32.2224 20.6201   1
   7  -1  16 154.545 13.4129   1
   8  -1  16 21.4592 11.9748   1
 -11  -1  15 16.6491 31.2429  -2
 -10   0  16 16.6491 31.2429   1
 -10  -1  15 113.524 29.4803  -2
  -9   0  16 113.524 29.4803   1
  -8   0  16 105.737 19.8610   1
  -7   0  16 62.8578 8.37769   1
  -6   0  16 54.9684 7.91911   1
  -5   0  16 4.47308 5.30381   1
  -5  -1  16 93.7944 21.8789  -2
  -4   0  16 93.7944 21.8789   1
  -3   0  16 -3.1921 7.20857   1
  -2   0  16 84.8843 7.95833   1
  -1   0  16 64.5456 7.37416   1
   0   0  16 219.572 11.1228   1
   1   0  16 64.1512 9.67304   1
   2   0  16 84.7197 8.76670   1
   3   0  16 149.979 10.4412   1
   3  -1  17 10.7567 19.4052  -2
   4   0  16 10.7567 19.4052   1
   5   0  16 183.499 10.0382   1
   6   0  16 -12.207 6.97232   1
   7   0  16 117.097 14.1472   1
   8   0  16 -10.963 9.45602   1
 -11   0  15 26.5824 30.3611  -2
 -10   1  16 26.5824 30.3611   1
 -10   0  15 123.447 30.1884  -2
  -9   1  16 123.447 30.1884   1
  -9   0  15 64.6590 18.6377  -2
  -8   1  16 64.6590 18.6377   1
  -7   1  16 32.2246 7.34206   1
  -7   0  16 144.167 23.6467  -2
  -6   1  16 144.167 23.6467   1
  -6   0  16 36.7045 18.6899  -2
  -5   1  16 36.7045 18.6899   1
  -5   0  16 186.118 13.6881  -2
  -4   1  16 186.118 13.6881   1
  -4   0  16 37.1052 18.8043  -2
  -3   1  16 37.1052 18.8043   1
  -2   1  16 176.066 10.1420   1
  -1   1  16 1.46393 5.80810   1
   0   1  16 231.465 12.5450   1
   1   1  16 64.4792 9.02003   1
   2   1  16 104.559 10.8594   1
   3   1  16 88.6983 8.44121   1
   4   1  16 13.4342 5.51399   1
   5   1  16 103.136 8.69684   1
   6   1  16 1.11135 7.37534   1
   7   1  16 120.227 15.4362   1
   8   1  16 0.65943 9.27470   1
 -10   2  16 -4.3687 7.09077   1
 -10   1  15 83.5050 17.0930  -2
  -9   2  16 83.5050 17.0930   1
  -9   1  15 -7.9317 18.7034  -2
  -8   2  16 -7.9317 18.7034   1
  -8   1  16 171.959 26.9711  -2
  -7   2  16 171.959 26.9711   1
  -7   1  16 61.3600 20.8757  -2
  -6   2  16 61.3600 20.8757   1
  -6   1  16 162.302 13.9417  -2
  -5   2  16 162.302 13.9417   1
  -5   1  16 84.0965 11.8693  -2
  -4   2  16 84.0965 11.8693   1
  -3   2  16 17.7758 6.30236   1
  -2   2  16 272.712 12.1556   1
  -1   2  16 -3.5881 4.73799   1
  -1   1  17 444.229 30.0081  -2
   0   2  16 444.229 30.0081   1
   1   2  16 17.3336 6.44504   1
   2   2  16 158.932 12.6350   1
   3   2  16 40.6419 8.96212   1
   4   2  16 37.5777 9.20984   1
   5   2  16 81.3068 8.62900   1
   6   2  16 41.6765 9.01948   1
   7   2  16 50.5785 10.7676   1
 -10   2  15 33.3832 15.4336  -2
  -9   3  16 33.3832 15.4336   1
  -9   2  15 10.1321 17.5089  -2
  -8   3  16 10.1321 17.5089   1
  -9   2  16 37.8146 25.3600  -2
  -8   3  16 37.8146 25.3600   1
  -8   2  16 57.3737 22.4416  -2
  -7   3  16 57.3737 22.4416   1
  -6   2  16 94.0089 12.5088  -2
  -5   3  16 94.0089 12.5088   1
  -5   2  16 120.157 12.3355  -2
  -4   3  16 120.157 12.3355   1
  -3   3  16 65.3415 7.75857   1
  -2   3  16 140.039 9.60303   1
  -1   3  16 13.2340 5.24833   1
  -1   2  17 253.471 24.6421  -2
   0   3  16 253.471 24.6421   1
   0   2  17 -0.6951 11.3385  -2
   1   3  16 -0.6951 11.3385   1
   1   2  17 157.260 26.3506  -2
   2   3  16 157.260 26.3506   1
   3   3  16 23.5143 7.50905   1
   4   3  16 143.707 11.6405   1
   5   3  16 33.8194 8.21757   1
   6   3  16 66.5261 12.2099   1
   7   3  16 126.537 14.5560   1
 -10   3  15 95.1628 19.1449  -2
  -9   4  16 95.1628 19.1449   1
  -9   3  16 -14.075 25.1127  -2
  -8   4  16 -14.075 25.1127   1
  -9   3  15 -10.494 18.2488  -2
  -8   4  16 -10.494 18.2488   1
  -8   3  16 62.3558 21.1414  -2
  -7   4  16 62.3558 21.1414   1
  -7   3  16 21.5465 12.3195  -2
  -6   4  16 21.5465 12.3195   1
  -6   3  16 66.3430 12.0552  -2
  -5   4  16 66.3430 12.0552   1
  -5   3  16 102.747 15.2140  -2
  -4   4  16 102.747 15.2140   1
  -3   4  16 76.9368 8.06507   1
  -2   4  16 86.4427 8.16356   1
  -2   3  17 19.6766 18.1510  -2
  -1   4  16 19.6766 18.1510   1
  -1   3  17 146.609 22.5784  -2
   0   4  16 146.609 22.5784   1
   0   3  17 13.2954 9.07536  -2
   1   4  16 13.2954 9.07536   1
   1   3  17 203.356 27.7895  -2
   2   4  16 203.356 27.7895   1
   3   4  16 20.2646 7.10208   1
   4   4  16 116.076 11.1626   1
   5   4  16 15.9212 8.73651   1
   6   4  16 46.5841 11.4148   1
  -9   4  16 66.1633 23.9894  -2
  -8   5  16 66.1633 23.9894   1
  -9   4  15 27.7828 19.9700  -2
  -8   5  16 27.7828 19.9700   1
  -8   4  16 55.4441 14.6903  -2
  -7   5  16 55.4441 14.6903   1
  -7   4  16 40.1964 12.8006  -2
  -6   5  16 40.1964 12.8006   1
  -6   4  16 85.6140 12.8773  -2
  -5   5  16 85.6140 12.8773   1
  -5   4  16 50.4417 14.7220  -2
  -4   5  16 50.4417 14.7220   1
  -3   5  16 103.723 9.11001   1
  -3   4  17 69.3896 19.2011  -2
  -2   5  16 69.3896 19.2011   1
  -2   4  17 75.6740 20.6288  -2
  -1   5  16 75.6740 20.6288   1
  -1   4  17 110.398 13.6370  -2
   0   5  16 110.398 13.6370   1
   0   4  17 61.3937 24.9313  -2
   1   5  16 61.3937 24.9313   1
   2   5  16 194.182 12.4532   1
   3   5  16 -8.2604 6.81447   1
   4   5  16 89.3713 10.3551   1
   5   5  16 18.4475 9.73173   1
  -8   5  16 9.37481 13.5667  -2
  -7   6  16 9.37481 13.5667   1
  -7   5  16 7.29601 12.7244  -2
  -6   6  16 7.29601 12.7244   1
  -6   5  16 78.9319 16.1273  -2
  -5   6  16 78.9319 16.1273   1
  -4   6  16 1.10317 5.66675   1
  -4   5  17 132.495 22.9630  -2
  -3   6  16 132.495 22.9630   1
  -3   5  17 10.0595 19.5894  -2
  -2   6  16 10.0595 19.5894   1
  -2   5  17 116.796 22.4233  -2
  -1   6  16 116.796 22.4233   1
  -1   5  17 87.4506 13.1201  -2
   0   6  16 87.4506 13.1201   1
   1   6  16 48.5992 8.25735   1
   2   6  16 95.6937 10.8875   1
   3   6  16 36.4847 9.00010   1
   3   5  18 65.4181 36.6068  -2
   4   6  16 65.4181 36.6068   1
  -7   6  16 14.0089 13.7776  -2
  -6   7  16 14.0089 13.7776   1
  -6   6  16 82.1571 18.1469  -2
  -5   7  16 82.1571 18.1469   1
  -4   7  16 8.78224 6.37384   1
  -4   6  17 29.5767 21.5132  -2
  -3   7  16 29.5767 21.5132   1
  -3   6  17 -7.2870 21.0169  -2
  -2   7  16 -7.2870 21.0169   1
  -2   6  17 139.227 24.8767  -2
  -1   7  16 139.227 24.8767   1
   0   7  16 19.9825 6.99034   1
   1   7  16 35.4284 7.99317   1
   2   7  16 75.6408 10.6648   1
   3   7  16 37.1733 9.11129   1
  -4   8  16 6.76603 6.61012   1
  -4   7  17 115.882 24.3094  -2
  -3   8  16 115.882 24.3094   1
  -3   7  17 -30.603 21.7877  -2
  -2   8  16 -30.603 21.7877   1
  -1   8  16 117.773 11.2036   1
   0   8  16 -3.7606 6.63296   1
   1   8  16 34.4984 9.43834   1
  -3 -15  17 45.1367 9.00274   1
  -2 -15  17 18.1270 7.64210   1
  -1 -15  16 0.80429 17.9686  -2
  -1 -15  17 0.80429 17.9686   1
   0 -15  16 68.2865 18.5189  -2
   0 -15  17 68.2865 18.5189   1
   1 -15  16 0.04434 17.8087  -2
   1 -15  17 0.04434 17.8087   1
   2 -15  16 19.9953 17.7665  -2
   2 -15  17 19.9953 17.7665   1
  -5 -14  17 74.3486 9.69283   1
  -4 -14  17 15.5033 10.8043   1
  -3 -14  17 23.8395 10.9512   1
  -2 -14  17 16.3992 11.3026   1
  -1 -14  16 87.6335 20.3072  -2
  -1 -14  17 87.6335 20.3072   1
   0 -14  16 49.1779 18.0158  -2
   0 -14  17 49.1779 18.0158   1
   1 -14  16 37.5035 16.3327  -2
   1 -14  17 37.5035 16.3327   1
   2 -14  16 40.5186 18.2485  -2
   2 -14  17 40.5186 18.2485   1
   3 -14  17 1.78599 7.22043   1
   4 -14  17 47.9830 9.25027   1
  -6 -13  17 48.5172 12.9546   1
  -5 -13  17 102.548 14.9626   1
  -4 -13  17 7.00058 8.74741   1
  -3 -13  17 34.0544 9.68947   1
  -2 -13  17 15.3621 8.88705   1
  -1 -13  17 87.6061 13.8574   1
   0 -13  17 1.86679 9.65635   1
   1 -13  17 31.7011 10.6787   1
   2 -13  17 39.0599 7.75920   1
   3 -13  17 25.3398 8.04404   1
   4 -13  17 33.8448 8.21904   1
   5 -13  17 13.8426 8.39323   1
  -7 -12  17 28.2747 10.2496   1
  -6 -12  17 36.5763 9.56737   1
  -5 -12  17 72.9853 11.1728   1
  -4 -12  17 9.16083 7.19702   1
  -3 -12  17 67.8918 10.4261   1
  -2 -12  17 7.14021 8.50102   1
  -1 -12  17 70.4928 10.3175   1
   0 -12  17 6.35553 7.95084   1
   1 -12  17 39.5590 9.56277   1
   2 -12  17 72.9200 13.2011   1
   3 -12  17 25.2720 11.0377   1
   4 -12  17 51.7056 9.01124   1
   5 -12  17 30.5524 8.38794   1
   6 -12  17 55.3974 9.42610   1
  -8 -11  17 73.6812 14.6940   1
  -7 -11  17 10.8207 9.02355   1
  -6 -11  17 31.2064 9.00205   1
  -5 -11  17 50.2341 10.7827   1
  -4 -11  17 4.65621 6.64775   1
  -3 -11  17 95.4995 10.9467   1
  -2 -11  17 8.16362 6.27713   1
  -1 -11  17 158.221 13.5827   1
   0 -11  17 6.40462 15.5805   1
   1 -11  17 91.9349 10.9063   1
   2 -11  17 21.7543 8.41044   1
   3 -11  17 31.6351 9.12421   1
   4 -11  17 71.2165 13.4386   1
   5 -11  17 58.4012 9.45876   1
   6 -11  17 70.7936 10.0876   1
   6 -11  18 4.22261 22.2255  -2
   7 -11  17 4.22261 22.2255   1
  -8 -10  17 70.7461 13.9680   1
  -7 -10  17 14.2411 8.59821   1
  -6 -10  17 45.6267 9.90111   1
  -5 -10  17 48.2516 10.6637   1
  -4 -10  17 54.6522 7.49250   1
  -3 -10  17 51.2239 6.87363   1
  -2 -10  17 9.43837 5.83198   1
  -1 -10  17 168.080 9.49435   1
   0 -10  17 -11.319 6.69990   1
   1 -10  17 118.171 11.3439   1
   2 -10  17 15.7563 14.2509   1
   3 -10  17 123.711 12.3961   1
   4 -10  17 12.2597 9.13578   1
   5 -10  17 99.2295 14.6839   1
   6 -10  17 50.2566 9.63202   1
   6 -10  18 42.5809 23.4177  -2
   7 -10  17 42.5809 23.4177   1
  -9  -9  17 3.80176 9.86320   1
  -8  -9  17 60.5767 9.96613   1
  -7  -9  17 -3.1014 10.4568   1
  -6  -9  17 81.4650 9.51348   1
  -5  -9  17 -6.8272 8.22005   1
  -4  -9  17 56.7256 7.35919   1
  -3  -9  17 75.3736 7.37550   1
  -2  -9  17 71.1230 7.33024   1
  -1  -9  17 139.725 8.58456   1
   0  -9  17 16.1116 5.48196   1
   1  -9  17 113.303 8.43265   1
   2  -9  17 -7.2858 6.40318   1
   3  -9  17 94.4916 8.44540   1
   4  -9  17 2.60706 9.14124   1
   5  -9  17 68.5606 10.7193   1
   6  -9  17 7.40623 11.9029   1
   7  -9  17 43.5673 12.5563   1
  -9  -8  17 3.32534 9.36385   1
  -8  -8  17 50.3793 10.4658   1
  -7  -8  17 4.22952 9.95055   1
  -6  -8  17 118.120 10.4086   1
  -5  -8  17 22.1095 8.63973   1
  -4  -8  17 120.316 8.38399   1
  -3  -8  17 65.9641 7.03908   1
  -2  -8  17 104.304 7.85423   1
  -1  -8  17 33.2918 5.76216   1
   0  -8  17 59.1928 6.39544   1
   1  -8  17 93.7172 7.52371   1
   2  -8  17 25.6397 7.00415   1
   3  -8  17 100.063 8.42550   1
   4  -8  17 -0.9711 7.36557   1
   5  -8  17 145.270 10.4029   1
   6  -8  17 0.90159 7.27636   1
   7  -8  17 42.7604 13.2300   1
   7  -8  18 10.9950 27.2335  -2
   8  -8  17 10.9950 27.2335   1
 -10  -7  17 39.5456 13.2618   1
  -9  -7  17 15.1790 11.6902   1
  -8  -7  17 37.2162 12.0617   1
  -7  -7  17 -8.7638 8.13282   1
  -6  -7  17 47.2385 10.5297   1
  -5  -7  17 3.81246 8.08433   1
  -4  -7  17 174.486 9.38436   1
  -3  -7  17 2.40066 4.60430   1
  -2  -7  17 96.6957 8.92807   1
  -1  -7  17 19.7992 5.05442   1
   0  -7  17 157.933 8.21478   1
   1  -7  17 92.7280 7.41828   1
   2  -7  17 27.4670 5.89945   1
   3  -7  17 42.3151 6.73462   1
   4  -7  17 -4.4474 5.83711   1
   4  -8  18 141.060 20.6653  -2
   5  -7  17 141.060 20.6653   1
   6  -7  17 -2.2937 11.5546   1
   7  -7  17 49.7244 10.5131   1
   8  -7  17 -10.824 9.32605   1
 -10  -6  17 25.1770 12.3703   1
  -9  -6  17 60.5131 11.9320   1
  -8  -6  17 38.8389 11.2698   1
  -7  -6  17 17.1622 9.87721   1
  -6  -6  17 116.984 19.8749   1
  -5  -6  17 46.0404 16.5971   1
  -4  -6  17 258.600 13.1991   1
  -3  -6  17 -2.9967 4.44049   1
  -2  -6  17 128.721 7.88952   1
  -1  -6  17 6.58970 5.73947   1
   0  -6  17 127.387 7.56213   1
   1  -6  17 75.9485 6.98506   1
   2  -6  17 68.7426 6.76227   1
   3  -6  17 120.098 8.67683   1
   4  -6  17 5.86611 5.90739   1
   5  -6  17 115.880 12.1535   1
   6  -6  17 6.53987 6.98153   1
   7  -6  17 103.426 11.1893   1
   8  -6  17 -9.9435 14.9656   1
 -10  -5  17 -1.8794 10.8938   1
  -9  -5  17 89.6692 13.2494   1
  -8  -5  17 29.5101 10.1549   1
  -7  -5  17 52.5892 11.4733   1
  -6  -5  17 66.0672 17.6063   1
  -5  -5  17 59.8798 7.69918   1
  -4  -5  17 142.954 10.1373   1
  -3  -5  17 17.1731 5.83934   1
  -2  -5  17 153.818 11.1270   1
  -1  -5  17 12.0047 5.66163   1
   0  -5  17 202.336 8.98258   1
   1  -5  17 46.3694 6.24579   1
   2  -5  17 140.979 9.63396   1
   3  -5  17 73.0022 7.21577   1
   4  -5  17 56.3275 9.01558   1
   4  -6  18 124.334 21.1457  -2
   5  -5  17 124.334 21.1457   1
   6  -5  17 35.6915 7.55562   1
   6  -5  18 129.691 24.4883  -2
   7  -5  17 129.691 24.4883   1
   8  -5  17 -2.0507 13.6731   1
 -10  -4  17 16.8564 11.3193   1
  -9  -4  17 37.6620 11.4358   1
  -8  -4  17 7.61925 10.0231   1
  -7  -4  17 75.2554 17.6964   1
  -6  -4  17 24.4547 14.7377   1
  -5  -4  17 42.2002 8.20293   1
  -4  -4  17 100.360 16.6431   1
  -3  -4  17 30.6811 6.63395   1
  -2  -4  17 108.529 9.77765   1
  -1  -4  17 19.7024 6.12813   1
   0  -4  17 291.616 12.8148   1
   1  -4  17 73.1804 6.63224   1
   2  -4  17 185.315 9.33342   1
   3  -4  17 17.4257 6.45170   1
   3  -5  18 121.832 21.1842  -2
   4  -4  17 121.832 21.1842   1
   4  -5  18 121.329 20.4533  -2
   5  -4  17 121.329 20.4533   1
   6  -4  17 59.4484 10.6963   1
   6  -4  18 183.355 24.3331  -2
   7  -4  17 183.355 24.3331   1
   8  -4  17 14.3920 13.0656   1
 -10  -3  17 -0.1698 11.2921   1
  -9  -3  17 43.1057 11.5404   1
  -8  -3  17 -4.5980 9.60971   1
  -7  -3  17 95.6728 18.6790   1
  -6  -3  17 7.50061 6.59504   1
  -5  -3  17 142.898 10.2170   1
  -4  -3  17 105.105 9.06638   1
  -3  -3  17 173.546 10.2996   1
  -2  -3  17 96.8717 9.68305   1
  -1  -3  17 90.6073 8.36525   1
   0  -3  17 305.213 13.1760   1
   1  -3  17 12.1998 5.24288   1
   2  -3  17 166.594 10.2251   1
   3  -4  18 221.465 22.6961  -2
   4  -3  17 221.465 22.6961   1
   4  -4  18 50.1565 21.0635  -2
   5  -3  17 50.1565 21.0635   1
   6  -3  17 58.3097 10.1010   1
   6  -3  18 136.907 24.0807  -2
   7  -3  17 136.907 24.0807   1
   8  -3  17 -5.2271 10.8695   1
 -11  -3  16 45.6794 35.0297  -2
 -10  -2  17 45.6794 35.0297   1
 -10  -3  16 162.577 30.6886  -2
  -9  -2  17 162.577 30.6886   1
  -8  -2  17 -11.636 15.2237   1
  -7  -2  17 62.8950 17.7541   1
  -6  -2  17 5.36469 5.68837   1
  -5  -2  17 182.880 10.9380   1
  -4  -2  17 28.9545 6.48175   1
  -3  -2  17 212.303 11.6082   1
  -2  -2  17 19.5965 5.17206   1
  -1  -2  17 3.43126 5.39457   1
   0  -2  17 126.115 10.6150   1
   1  -2  17 4.73281 5.43467   1
   2  -2  17 90.0738 13.8506   1
   3  -2  17 17.2807 8.43264   1
   3  -3  18 203.896 23.2057  -2
   4  -2  17 203.896 23.2057   1
   4  -3  18 7.92700 20.4300  -2
   5  -2  17 7.92700 20.4300   1
   6  -2  17 118.825 10.2408   1
   7  -2  17 35.2290 10.1711   1
   8  -2  17 58.0891 13.8447   1
 -10  -1  17 61.1395 22.0674   1
 -10  -2  16 67.2279 28.2324  -2
  -9  -1  17 67.2279 28.2324   1
  -9  -2  16 -14.168 25.5005  -2
  -8  -1  17 -14.168 25.5005   1
  -7  -1  17 25.4779 6.85511   1
  -6  -1  17 -2.0233 5.33605   1
  -5  -1  17 152.947 10.1710   1
  -5  -2  17 57.2590 19.0398  -2
  -4  -1  17 57.2590 19.0398   1
  -4  -2  17 74.9508 21.8380  -2
  -3  -1  17 74.9508 21.8380   1
  -2  -1  17 99.1088 8.45255   1
  -1  -1  17 59.5491 8.11479   1
   0  -1  17 65.1640 7.90956   1
   1  -1  17 40.8458 7.37708   1
   2  -1  17 61.5731 9.42978   1
   3  -1  17 -0.1758 6.84474   1
   4  -1  17 214.238 13.2497   1
   4  -2  18 36.5751 21.5448  -2
   5  -1  17 36.5751 21.5448   1
   6  -1  17 139.578 10.2694   1
   7  -1  17 16.4746 10.9955   1
   8  -1  17 48.7938 12.4690   1
 -10   0  17 61.9229 21.2504   1
 -10  -1  16 79.8852 29.1115  -2
  -9   0  17 79.8852 29.1115   1
  -9  -1  16 12.6098 15.1781  -2
  -8   0  17 12.6098 15.1781   1
  -8  -1  16 48.6515 17.7181  -2
  -7   0  17 48.6515 17.7181   1
  -6   0  17 17.0171 6.66017   1
  -6  -1  17 171.790 24.1400  -2
  -5   0  17 171.790 24.1400   1
  -5  -1  17 45.9679 11.9947  -2
  -4   0  17 45.9679 11.9947   1
  -4  -1  17 48.6625 10.7319  -2
  -3   0  17 48.6625 10.7319   1
  -2   0  17 51.0929 6.84667   1
  -1   0  17 145.280 9.63802   1
   0   0  17 133.639 9.45925   1
   1   0  17 145.232 10.0097   1
   1  -1  18 220.188 27.6494  -2
   2   0  17 220.188 27.6494   1
   3   0  17 23.0278 8.41052   1
   4   0  17 170.058 11.8628   1
   5   0  17 0.02610 6.56883   1
   6   0  17 84.6202 8.24638   1
   7   0  17 -11.392 9.49757   1
 -10   0  16 37.1689 16.2173  -2
  -9   1  17 37.1689 16.2173   1
  -9   0  16 93.4402 18.4291  -2
  -8   1  17 93.4402 18.4291   1
  -8   0  16 95.0283 17.0345  -2
  -7   1  17 95.0283 17.0345   1
  -7   0  17 95.5797 23.9217  -2
  -6   1  17 95.5797 23.9217   1
  -6   0  17 165.363 13.3448  -2
  -5   1  17 165.363 13.3448   1
  -5   0  17 56.5428 11.8870  -2
  -4   1  17 56.5428 11.8870   1
  -4   0  17 201.772 13.1932  -2
  -3   1  17 201.772 13.1932   1
  -2   1  17 3.83313 4.62720   1
  -1   1  17 157.781 9.81853   1
   0   1  17 17.6713 5.85724   1
   0   0  18 162.941 24.8540  -2
   1   1  17 162.941 24.8540   1
   1   0  18 106.653 22.2107  -2
   2   1  17 106.653 22.2107   1
   2   0  18 81.4515 26.3508  -2
   3   1  17 81.4515 26.3508   1
   4   1  17 98.5711 10.5576   1
   5   1  17 63.4717 9.50575   1
   6   1  17 60.3952 11.1404   1
   7   1  17 5.61901 10.4321   1
 -10   1  16 2.48041 15.6922  -2
  -9   2  17 2.48041 15.6922   1
  -9   1  16 45.0835 17.3970  -2
  -8   2  17 45.0835 17.3970   1
  -8   1  17 90.7614 25.3061  -2
  -7   2  17 90.7614 25.3061   1
  -7   1  17 76.4243 17.9382  -2
  -6   2  17 76.4243 17.9382   1
  -6   1  17 103.200 12.4386  -2
  -5   2  17 103.200 12.4386   1
  -5   1  17 92.0020 11.7242  -2
  -4   2  17 92.0020 11.7242   1
  -4   1  17 170.718 13.2651  -2
  -3   2  17 170.718 13.2651   1
  -2   2  17 13.5027 5.57654   1
  -1   2  17 212.845 11.1661   1
  -1   1  18 6.43070 18.0401  -2
   0   2  17 6.43070 18.0401   1
   0   1  18 228.228 25.4722  -2
   1   2  17 228.228 25.4722   1
   1   1  18 34.5334 22.2336  -2
   2   2  17 34.5334 22.2336   1
   2   1  18 147.020 28.6412  -2
   3   2  17 147.020 28.6412   1
   4   2  17 20.5757 7.88495   1
   5   2  17 94.7992 11.4426   1
   6   2  17 75.8597 11.0618   1
   7   2  17 -2.6507 8.79066   1
  -9   2  16 47.7587 18.7687  -2
  -8   3  17 47.7587 18.7687   1
  -9   2  17 11.9213 26.7254  -2
  -8   3  17 11.9213 26.7254   1
  -8   2  17 -8.5634 21.7135  -2
  -7   3  17 -8.5634 21.7135   1
  -7   2  17 72.0151 13.4505  -2
  -6   3  17 72.0151 13.4505   1
  -6   2  17 55.6486 11.8489  -2
  -5   3  17 55.6486 11.8489   1
  -5   2  17 84.0615 12.2486  -2
  -4   3  17 84.0615 12.2486   1
  -3   3  17 93.2597 8.55301   1
  -2   3  17 22.6176 5.92255   1
  -2   2  18 214.257 24.2843  -2
  -1   3  17 214.257 24.2843   1
  -1   2  18 16.6186 18.7462  -2
   0   3  17 16.6186 18.7462   1
   0   2  18 216.605 14.7128  -2
   1   3  17 216.605 14.7128   1
   1   2  18 -16.063 23.7970  -2
   2   3  17 -16.063 23.7970   1
   3   3  17 108.415 10.8174   1
   4   3  17 20.4103 8.62479   1
   5   3  17 57.2776 10.5253   1
   6   3  17 155.624 15.1602   1
  -9   3  16 25.4530 18.4737  -2
  -8   4  17 25.4530 18.4737   1
  -8   3  17 2.48667 14.0144  -2
  -7   4  17 2.48667 14.0144   1
  -7   3  17 37.3604 12.2793  -2
  -6   4  17 37.3604 12.2793   1
  -6   3  17 49.8056 12.0903  -2
  -5   4  17 49.8056 12.0903   1
  -4   4  17 80.1224 16.5852   1
  -3   4  17 53.3028 6.44208   1
  -3   3  18 34.9790 21.5402  -2
  -2   4  17 34.9790 21.5402   1
  -2   3  18 113.388 21.7457  -2
  -1   4  17 113.388 21.7457   1
  -1   3  18 1.32508 11.8979  -2
   0   4  17 1.32508 11.8979   1
   0   3  18 170.312 14.9700  -2
   1   4  17 170.312 14.9700   1
   2   4  17 -8.8945 5.94486   1
   3   4  17 115.761 10.9823   1
   4   4  17 7.70581 7.76065   1
   5   4  17 93.2310 13.6556   1
  -8   4  17 8.79346 13.3308  -2
  -7   5  17 8.79346 13.3308   1
  -7   4  17 78.4169 11.0261  -2
  -6   5  17 78.4169 11.0261   1
  -6   4  17 24.1036 12.7512  -2
  -5   5  17 24.1036 12.7512   1
  -5   4  17 120.699 16.7042  -2
  -4   5  17 120.699 16.7042   1
  -3   5  17 31.3995 6.00298   1
  -3   4  18 77.8575 20.0167  -2
  -2   5  17 77.8575 20.0167   1
  -2   4  18 87.9392 21.0278  -2
  -1   5  17 87.9392 21.0278   1
  -1   4  18 20.9918 12.4244  -2
   0   5  17 20.9918 12.4244   1
   0   4  18 176.641 28.0820  -2
   1   5  17 176.641 28.0820   1
   2   5  17 9.85960 7.86800   1
   3   5  17 109.466 11.4148   1
   4   5  17 -10.986 7.93182   1
  -7   5  17 45.8055 13.3676  -2
  -6   6  17 45.8055 13.3676   1
  -6   5  17 32.8305 16.8481  -2
  -5   6  17 32.8305 16.8481   1
  -4   6  17 62.9655 7.50093   1
  -3   6  17 12.9462 6.03461   1
  -3   5  18 110.418 23.4829  -2
  -2   6  17 110.418 23.4829   1
  -2   5  18 70.2496 23.2523  -2
  -1   6  17 70.2496 23.2523   1
  -1   5  18 3.35291 16.3303  -2
   0   6  17 3.35291 16.3303   1
   1   6  17 108.622 10.5497   1
   2   6  17 45.6573 9.52104   1
   3   6  17 55.0858 9.91899   1
  -4   7  17 86.2314 9.60112   1
  -4   6  18 -10.531 22.3290  -2
  -3   7  17 -10.531 22.3290   1
  -3   6  18 51.1493 22.8797  -2
  -2   7  17 51.1493 22.8797   1
  -2   6  18 40.2642 24.3082  -2
  -1   7  17 40.2642 24.3082   1
   0   7  17 60.9951 8.72671   1
   1   7  17 105.420 14.3051   1
  -2 -15  18 22.3845 7.93165   1
  -1 -15  17 41.0876 20.6839  -2
  -1 -15  18 41.0876 20.6839   1
   0 -15  17 42.6411 18.5512  -2
   0 -15  18 42.6411 18.5512   1
   1 -15  17 41.5468 19.3846  -2
   1 -15  18 41.5468 19.3846   1
  -4 -14  18 84.9232 14.6337   1
  -3 -14  18 -0.3249 11.0645   1
  -2 -14  18 21.5593 12.0236   1
  -1 -14  18 3.67057 11.4490   1
   0 -14  18 25.1522 11.4251   1
   1 -14  18 66.0465 9.38548   1
   2 -14  18 4.19898 6.86130   1
   3 -14  18 1.21424 7.05098   1
  -6 -13  18 124.078 14.3712   1
  -5 -13  18 38.8479 11.2795   1
  -4 -13  18 52.4784 11.0724   1
  -3 -13  18 0.53201 9.13757   1
  -2 -13  18 59.0097 10.7097   1
  -1 -13  18 16.5588 9.54876   1
   0 -13  18 41.3255 12.0598   1
   1 -13  18 32.0788 11.8795   1
   2 -13  18 36.2590 11.2158   1
   3 -13  18 39.7193 8.81490   1
   4 -13  18 14.0558 7.45925   1
  -7 -12  18 15.6256 10.3592   1
  -6 -12  18 60.3539 12.6424   1
  -5 -12  18 29.8067 8.61722   1
  -4 -12  18 12.6830 8.65419   1
  -3 -12  18 0.90813 9.11287   1
  -2 -12  18 87.2701 11.8228   1
  -1 -12  18 15.1102 9.42033   1
   0 -12  18 28.6643 9.28607   1
   1 -12  18 0.92900 8.78475   1
   2 -12  18 35.3563 10.0581   1
   3 -12  18 21.8526 11.0904   1
   4 -12  18 29.1361 12.1347   1
   5 -12  18 46.1361 9.45931   1
  -7 -11  18 43.8779 10.6244   1
  -6 -11  18 13.9298 10.8594   1
  -5 -11  18 19.8124 7.61175   1
  -4 -11  18 72.3104 8.88364   1
  -3 -11  18 -2.7900 7.99187   1
  -2 -11  18 99.1894 10.8441   1
  -1 -11  18 -11.325 14.1265   1
   0 -11  18 67.0172 10.5198   1
   1 -11  18 20.4408 8.58564   1
   2 -11  18 89.3469 13.6626   1
   3 -11  18 29.4299 9.73451   1
   4 -11  18 32.0205 12.8209   1
   5 -11  18 26.1514 12.8585   1
   6 -11  18 8.96543 8.69905   1
  -8 -10  18 36.4703 10.6290   1
  -7 -10  18 75.0480 14.6072   1
  -6 -10  18 -1.2195 10.5671   1
  -5 -10  18 70.5833 8.49543   1
  -4 -10  18 100.883 8.82838   1
  -3 -10  18 15.8307 6.72996   1
  -2 -10  18 83.8401 8.32580   1
  -1 -10  18 -1.0806 6.07951   1
   0 -10  18 74.8240 7.81788   1
   1 -10  18 -3.8737 8.00271   1
   2 -10  18 71.5756 13.0697   1
   3 -10  18 -3.1840 11.0612   1
   4 -10  18 41.9377 10.5269   1
   5 -10  18 29.1790 13.0184   1
   5 -11  19 74.0175 23.5816  -2
   6 -10  18 74.0175 23.5816   1
  -8  -9  18 -0.1797 12.0358   1
  -7  -9  18 65.8968 13.1150   1
  -6  -9  18 33.6641 11.0780   1
  -5  -9  18 84.1938 8.38286   1
  -4  -9  18 32.4779 8.05450   1
  -3  -9  18 54.6977 7.01528   1
  -2  -9  18 6.07861 5.94419   1
  -1  -9  18 -1.5263 5.46473   1
   0  -9  18 95.1272 7.98760   1
   1  -9  18 12.3013 6.35781   1
   2  -9  18 83.2281 9.45645   1
   3  -9  18 9.51789 9.17321   1
   4  -9  18 76.7685 11.7876   1
   4 -10  19 23.2026 22.5404  -2
   5  -9  18 23.2026 22.5404   1
   5 -10  19 121.194 24.0510  -2
   6  -9  18 121.194 24.0510   1
   6 -10  19 50.0893 24.3020  -2
   7  -9  18 50.0893 24.3020   1
  -9  -8  18 45.0886 13.5753   1
  -8  -8  18 13.7875 11.2370   1
  -7  -8  18 91.4791 14.2012   1
  -6  -8  18 -14.103 14.9753   1
  -5  -8  18 68.6704 7.72806   1
  -4  -8  18 2.14196 7.33217   1
  -3  -8  18 45.0352 6.60017   1
  -2  -8  18 35.5582 6.38861   1
  -1  -8  18 59.1025 6.90856   1
   0  -8  18 78.9485 7.49401   1
   1  -8  18 33.2271 6.20400   1
   2  -8  18 119.560 9.03979   1
   3  -8  18 4.93019 6.57873   1
   4  -8  18 139.075 10.2897   1
   4  -9  19 -17.281 22.1209  -2
   5  -8  18 -17.281 22.1209   1
   5  -9  19 85.1183 22.6263  -2
   6  -8  18 85.1183 22.6263   1
   6  -9  19 7.13438 22.9932  -2
   7  -8  18 7.13438 22.9932   1
  -9  -7  18 23.9443 12.3269   1
  -8  -7  18 -2.0722 10.0984   1
  -7  -7  18 87.1165 13.3580   1
  -6  -7  18 11.3351 15.7434   1
  -5  -7  18 138.862 11.5370   1
  -4  -7  18 4.64246 6.76664   1
  -3  -7  18 133.515 9.22769   1
  -2  -7  18 26.4594 5.84360   1
  -1  -7  18 120.130 8.12326   1
   0  -7  18 53.7255 6.28403   1
   1  -7  18 71.1092 7.04494   1
   2  -7  18 105.314 8.52466   1
   3  -7  18 -7.2289 6.04792   1
   4  -7  18 189.307 11.0607   1
   4  -8  19 -25.084 22.6715  -2
   5  -7  18 -25.084 22.6715   1
   5  -8  19 81.3492 23.2683  -2
   6  -7  18 81.3492 23.2683   1
   7  -7  18 -3.1196 9.18428   1
  -9  -6  18 41.4876 12.0036   1
  -8  -6  18 33.9629 11.2393   1
  -7  -6  18 44.6010 18.2614   1
  -6  -6  18 25.2556 16.1912   1
  -5  -6  18 132.735 11.1164   1
  -4  -6  18 3.30548 5.95887   1
  -3  -6  18 143.826 10.4365   1
  -2  -6  18 -2.8377 5.49351   1
  -1  -6  18 173.566 10.7873   1
   0  -6  18 59.8994 6.58482   1
   1  -6  18 121.118 8.14363   1
   2  -6  18 33.8394 6.38418   1
   3  -6  18 54.4584 7.42043   1
   4  -6  18 106.705 8.94092   1
   5  -6  18 9.49728 9.04144   1
   5  -7  19 104.696 24.2029  -2
   6  -6  18 104.696 24.2029   1
   6  -6  19 2.83623 23.5285  -2
   7  -6  18 2.83623 23.5285   1
   8  -6  18 85.0687 18.3730   1
  -9  -5  18 18.7984 11.5791   1
  -8  -5  18 18.9297 10.5813   1
  -7  -5  18 47.8164 18.1528   1
  -6  -5  18 28.1535 8.02831   1
  -5  -5  18 92.0511 8.51408   1
  -4  -5  18 0.54568 5.85996   1
  -3  -5  18 164.204 20.2930   1
  -2  -5  18 9.36947 5.56373   1
  -1  -5  18 239.025 12.2213   1
   0  -5  18 54.7698 7.82012   1
   1  -5  18 131.908 8.34510   1
   2  -5  18 49.8013 6.61290   1
   3  -5  18 117.929 8.79012   1
   3  -6  19 122.548 22.0846  -2
   4  -5  18 122.548 22.0846   1
   5  -5  18 4.00510 8.44492   1
   5  -6  19 110.373 25.0224  -2
   6  -5  18 110.373 25.0224   1
   7  -5  18 2.61724 8.86345   1
   8  -5  18 109.398 18.8131   1
 -10  -4  18 45.3617 13.5184   1
  -9  -4  18 3.84032 10.5410   1
  -8  -4  18 76.7724 19.3135   1
  -7  -4  18 26.7046 15.1967   1
  -6  -4  18 141.826 11.0758   1
  -5  -4  18 52.6175 7.90870   1
  -4  -4  18 39.9619 6.77479   1
  -3  -4  18 88.2688 8.87488   1
  -2  -4  18 4.16069 11.6697   1
  -1  -4  18 156.314 9.94539   1
   0  -4  18 9.10300 5.54758   1
   1  -4  18 210.404 11.6947   1
   2  -4  18 15.0528 9.29753   1
   3  -4  18 53.5492 7.57668   1
   3  -5  19 109.357 23.5154  -2
   4  -4  18 109.357 23.5154   1
   4  -5  19 79.0292 23.9462  -2
   5  -4  18 79.0292 23.9462   1
   6  -4  18 77.9294 8.92781   1
   6  -4  19 25.8346 23.6107  -2
   7  -4  18 25.8346 23.6107   1
   8  -4  18 82.8074 15.8784   1
 -10  -3  18 49.2452 13.2206   1
 -10  -4  17 -24.420 28.4483  -2
  -9  -3  18 -24.420 28.4483   1
  -9  -4  17 90.6133 28.8889  -2
  -8  -3  18 90.6133 28.8889   1
  -8  -4  17 6.19324 22.8428  -2
  -7  -3  18 6.19324 22.8428   1
  -6  -3  18 148.939 11.0051   1
  -5  -3  18 77.2593 8.49544   1
  -4  -3  18 123.417 9.76736   1
  -4  -4  18 134.746 25.2889  -2
  -3  -3  18 134.746 25.2889   1
  -3  -4  18 35.4411 18.8882  -2
  -2  -3  18 35.4411 18.8882   1
  -1  -3  18 111.381 9.19365   1
   0  -3  18 3.01736 6.52991   1
   1  -3  18 122.784 9.93276   1
   2  -3  18 1.49035 6.51317   1
   3  -3  18 106.117 10.7817   1
   3  -4  19 33.4091 24.0207  -2
   4  -3  18 33.4091 24.0207   1
   4  -4  19 139.460 24.6034  -2
   5  -3  18 139.460 24.6034   1
   5  -4  19 135.944 25.7513  -2
   6  -3  18 135.944 25.7513   1
   7  -3  18 71.0360 11.9990   1
 -10  -3  17 47.5951 25.8692  -2
  -9  -2  18 47.5951 25.8692   1
  -9  -3  17 63.1868 27.5404  -2
  -8  -2  18 63.1868 27.5404   1
  -8  -3  17 -12.355 17.8742  -2
  -7  -2  18 -12.355 17.8742   1
  -6  -2  18 84.4899 9.20828   1
  -5  -2  18 20.6277 6.33165   1
  -5  -3  18 129.955 22.6955  -2
  -4  -2  18 129.955 22.6955   1
  -4  -3  18 36.8827 11.6107  -2
  -3  -2  18 36.8827 11.6107   1
  -3  -3  18 66.3430 20.7303  -2
  -2  -2  18 66.3430 20.7303   1
  -1  -2  18 112.904 9.01757   1
   0  -2  18 44.5344 6.97104   1
   1  -2  18 126.317 9.84511   1
   2  -2  18 15.4323 6.98916   1
   2  -3  19 156.230 28.3415  -2
   3  -2  18 156.230 28.3415   1
   3  -3  19 -20.229 24.2993  -2
   4  -2  18 -20.229 24.2993   1
   5  -2  18 123.241 11.7438   1
   6  -2  18 40.2021 8.35231   1
   7  -2  18 63.9019 10.9224   1
 -10  -2  17 18.5978 15.6566  -2
  -9  -1  18 18.5978 15.6566   1
  -9  -2  17 74.8741 15.8555  -2
  -8  -1  18 74.8741 15.8555   1
  -8  -2  17 2.12072 17.3358  -2
  -7  -1  18 2.12072 17.3358   1
  -6  -1  18 66.1193 7.12816   1
  -6  -2  18 35.3315 20.7753  -2
  -5  -1  18 35.3315 20.7753   1
  -5  -2  18 68.3656 11.8652  -2
  -4  -1  18 68.3656 11.8652   1
  -4  -2  18 34.0919 11.4281  -2
  -3  -1  18 34.0919 11.4281   1
  -3  -2  18 -5.6694 11.1455  -2
  -2  -1  18 -5.6694 11.1455   1
  -1  -1  18 71.0710 7.91645   1
   0  -1  18 8.08629 5.13651   1
   1  -1  18 107.826 9.13908   1
   1  -2  19 56.0570 23.3507  -2
   2  -1  18 56.0570 23.3507   1
   2  -2  19 111.779 23.9845  -2
   3  -1  18 111.779 23.9845   1
   3  -2  19 34.2443 27.2853  -2
   4  -1  18 34.2443 27.2853   1
   5  -1  18 160.126 12.8028   1
   6  -1  18 21.0314 7.47901   1
   7  -1  18 99.6276 15.8889   1
 -10  -1  17 17.4410 15.2429  -2
  -9   0  18 17.4410 15.2429   1
  -9  -1  17 82.8879 15.3791  -2
  -8   0  18 82.8879 15.3791   1
  -8  -1  17 9.95747 16.5570  -2
  -7   0  18 9.95747 16.5570   1
  -7  -1  18 147.828 26.9216  -2
  -6   0  18 147.828 26.9216   1
  -6  -1  18 0.56199 19.2546  -2
  -5   0  18 0.56199 19.2546   1
  -5  -1  18 108.364 12.1719  -2
  -4   0  18 108.364 12.1719   1
  -4  -1  18 19.9821 10.9184  -2
  -3   0  18 19.9821 10.9184   1
  -3  -1  18 81.6760 11.9317  -2
  -2   0  18 81.6760 11.9317   1
  -1   0  18 106.108 8.87512   1
   0   0  18 159.783 10.4928   1
   0  -1  19 158.692 24.7798  -2
   1   0  18 158.692 24.7798   1
   1  -1  19 83.6544 13.6886  -2
   2   0  18 83.6544 13.6886   1
   2  -1  19 226.388 16.6576  -2
   3   0  18 226.388 16.6576   1
   3  -1  19 6.99613 15.3741  -2
   4   0  18 6.99613 15.3741   1
   5   0  18 151.648 12.7713   1
   6   0  18 14.1340 8.00055   1
   7   0  18 88.9654 14.7055   1
 -10   0  17 23.8095 15.4673  -2
  -9   1  18 23.8095 15.4673   1
  -9   0  17 12.6978 16.7346  -2
  -8   1  18 12.6978 16.7346   1
  -8   0  17 25.0661 15.6316  -2
  -7   1  18 25.0661 15.6316   1
  -8   0  18 50.3062 24.4666  -2
  -7   1  18 50.3062 24.4666   1
  -7   0  18 96.7300 24.1178  -2
  -6   1  18 96.7300 24.1178   1
  -6   0  18 83.9872 12.9073  -2
  -5   1  18 83.9872 12.9073   1
  -5   0  18 103.440 9.98625  -2
  -4   1  18 103.440 9.98625   1
  -4   0  18 60.3445 11.4952  -2
  -3   1  18 60.3445 11.4952   1
  -3   0  18 130.509 15.4331  -2
  -2   1  18 130.509 15.4331   1
  -1   1  18 21.1731 5.78003   1
  -1   0  19 251.185 26.8421  -2
   0   1  18 251.185 26.8421   1
   0   0  19 76.7939 20.8222  -2
   1   1  18 76.7939 20.8222   1
   1   0  19 138.969 25.4194  -2
   2   1  18 138.969 25.4194   1
   2   0  19 153.907 29.5655  -2
   3   1  18 153.907 29.5655   1
   4   1  18 44.1446 9.28794   1
   5   1  18 95.1437 11.1484   1
   6   1  18 -17.921 8.11156   1
  -9   1  17 37.4175 18.2273  -2
  -8   2  18 37.4175 18.2273   1
  -8   1  18 37.3726 25.2675  -2
  -7   2  18 37.3726 25.2675   1
  -7   1  18 32.9158 13.1893  -2
  -6   2  18 32.9158 13.1893   1
  -6   1  18 55.4562 11.6027  -2
  -5   2  18 55.4562 11.6027   1
  -5   1  18 143.662 13.0001  -2
  -4   2  18 143.662 13.0001   1
  -4   1  18 40.4044 14.5178  -2
  -3   2  18 40.4044 14.5178   1
  -2   2  18 130.515 9.58498   1
  -1   2  18 2.50593 5.01396   1
  -1   1  19 197.827 24.1910  -2
   0   2  18 197.827 24.1910   1
   1   2  18 16.4412 7.55799   1
   1   1  19 119.838 14.1771  -2
   2   2  18 119.838 14.1771   1
   2   1  19 131.161 30.1550  -2
   3   2  18 131.161 30.1550   1
   4   2  18 80.2545 10.5876   1
   5   2  18 60.8511 10.1583   1
   6   2  18 0.27815 8.21286   1
  -9   2  17 29.2996 20.2290  -2
  -8   3  18 29.2996 20.2290   1
  -8   2  18 67.4895 14.4288  -2
  -7   3  18 67.4895 14.4288   1
  -7   2  18 51.4415 12.7079  -2
  -6   3  18 51.4415 12.7079   1
  -6   2  18 62.0307 9.44611  -2
  -5   3  18 62.0307 9.44611   1
  -5   2  18 44.2124 12.1448  -2
  -4   3  18 44.2124 12.1448   1
  -3   3  18 26.5086 6.23569   1
  -2   3  18 68.9795 8.28514   1
  -2   2  19 -17.694 19.7673  -2
  -1   3  18 -17.694 19.7673   1
  -1   2  19 199.580 24.6502  -2
   0   3  18 199.580 24.6502   1
   0   2  19 22.0328 12.2655  -2
   1   3  18 22.0328 12.2655   1
   1   2  19 155.828 29.4282  -2
   2   3  18 155.828 29.4282   1
   3   3  18 28.7623 8.34170   1
   4   3  18 75.1586 10.5361   1
   5   3  18 87.4785 11.1173   1
  -8   3  18 29.0929 13.7594  -2
  -7   4  18 29.0929 13.7594   1
  -7   3  18 47.7822 12.8653  -2
  -6   4  18 47.7822 12.8653   1
  -6   3  18 79.8812 12.6434  -2
  -5   4  18 79.8812 12.6434   1
  -5   3  18 70.0337 16.4750  -2
  -4   4  18 70.0337 16.4750   1
  -3   4  18 30.3891 6.29069   1
  -2   4  18 84.9000 8.84744   1
  -2   3  19 -0.0116 20.1248  -2
  -1   4  18 -0.0116 20.1248   1
  -1   3  19 139.535 14.6086  -2
   0   4  18 139.535 14.6086   1
   0   3  19 -2.8526 22.6033  -2
   1   4  18 -2.8526 22.6033   1
   2   4  18 110.101 10.7357   1
   3   4  18 -11.304 7.78020   1
   4   4  18 46.6293 9.49285   1
  -7   4  18 -2.0499 15.8946  -2
  -6   5  18 -2.0499 15.8946   1
  -6   4  18 39.4748 12.5946  -2
  -5   5  18 39.4748 12.5946   1
  -4   5  18 24.1165 6.33844   1
  -3   5  18 33.4885 7.42673   1
  -3   4  19 61.1452 23.1670  -2
  -2   5  18 61.1452 23.1670   1
  -2   4  19 51.1951 23.2057  -2
  -1   5  18 51.1951 23.2057   1
  -1   4  19 148.057 15.2188  -2
   0   5  18 148.057 15.2188   1
   1   5  18 19.8916 6.95341   1
   2   5  18 92.9291 10.7746   1
   3   5  18 -6.9612 7.76916   1
  -4   6  18 3.96569 5.99934   1
  -3   6  18 27.3918 7.63369   1
  -3   5  19 6.32864 22.5390  -2
  -2   6  18 6.32864 22.5390   1
  -2   5  19 65.6799 26.6119  -2
  -1   6  18 65.6799 26.6119   1
  -1   5  19 15.3059 25.8194  -2
   0   6  18 15.3059 25.8194   1
   1   6  18 25.0888 6.97132   1
  -3 -14  19 37.5310 14.0758   1
  -2 -14  19 11.8158 12.4290   1
  -1 -14  19 12.2811 13.1705   1
   0 -14  19 5.99469 11.9286   1
   1 -14  19 6.58329 11.9125   1
   2 -14  19 17.9419 7.54045   1
  -5 -13  19 65.0303 12.8711   1
  -4 -13  19 1.80813 10.3490   1
  -3 -13  19 48.9376 11.5921   1
  -2 -13  19 12.4632 10.4447   1
  -1 -13  19 52.5993 11.7328   1
   0 -13  19 8.05752 9.80146   1
   1 -13  19 39.1741 12.5489   1
   2 -13  19 22.3545 11.4877   1
   3 -13  19 -13.241 10.6459   1
  -6 -12  19 34.0408 9.41715   1
  -5 -12  19 24.5403 8.70895   1
  -4 -12  19 6.18999 10.1003   1
  -3 -12  19 51.2954 11.5803   1
  -2 -12  19 1.38286 9.80291   1
  -1 -12  19 63.6350 11.4170   1
   0 -12  19 14.1949 9.77290   1
   1 -12  19 29.4888 9.39155   1
   2 -12  19 47.5768 12.5199   1
   3 -12  19 21.9482 11.5723   1
   4 -12  19 36.9643 12.5476   1
  -7 -11  19 12.2333 21.3418   1
  -6 -11  19 17.6284 11.2841   1
  -5 -11  19 43.8095 8.83575   1
  -4 -11  19 21.8587 7.94109   1
  -3 -11  19 51.1704 8.40008   1
  -2 -11  19 8.24000 8.18083   1
  -1 -11  19 72.0713 11.4440   1
   0 -11  19 5.44823 9.93036   1
   1 -11  19 29.0233 9.82161   1
   2 -11  19 -2.4887 10.5674   1
   3 -11  19 5.09358 11.9171   1
   4 -11  19 55.3418 13.9935   1
   5 -11  19 51.9263 14.3363   1
  -7 -10  19 -5.2221 18.6132   1
  -6 -10  19 26.3283 12.9811   1
  -5 -10  19 25.3435 7.84421   1
  -4 -10  19 11.9791 7.08549   1
  -3 -10  19 74.2882 8.27068   1
  -2 -10  19 6.74643 6.69549   1
  -1 -10  19 61.7760 8.34387   1
   0 -10  19 1.77390 6.81197   1
   1 -10  19 97.6783 17.0964   1
   2 -10  19 -0.8851 11.0648   1
   3 -10  19 90.1156 15.5784   1
   4 -10  19 11.7480 10.3140   1
   6 -10  19 49.8554 14.3379   1
  -8  -9  19 51.8871 14.0504   1
  -7  -9  19 7.76227 18.2066   1
  -6  -9  19 117.920 21.6254   1
  -5  -9  19 19.7519 8.63809   1
  -4  -9  19 37.6930 7.37090   1
  -3  -9  19 44.9674 8.64468   1
  -2  -9  19 21.1520 6.61226   1
  -1  -9  19 67.6369 8.08211   1
   0  -9  19 6.54253 6.36495   1
   1  -9  19 126.391 10.4983   1
   2  -9  19 -7.5860 8.05150   1
   3  -9  19 37.9291 11.0788   1
   4  -9  19 8.45400 9.99638   1
   4 -10  20 116.523 26.1618  -2
   5  -9  19 116.523 26.1618   1
   5 -10  20 -13.213 24.5088  -2
   6  -9  19 -13.213 24.5088   1
  -8  -8  19 92.9480 14.1439   1
  -7  -8  19 12.5275 16.6159   1
  -6  -8  19 134.146 12.4804   1
  -5  -8  19 31.3590 8.39438   1
  -4  -8  19 98.4849 10.4984   1
  -3  -8  19 2.94331 7.33767   1
  -2  -8  19 50.2259 6.94213   1
  -1  -8  19 61.6583 7.26265   1
   0  -8  19 56.4240 7.22336   1
   1  -8  19 117.763 8.89642   1
   2  -8  19 4.83693 6.68834   1
   3  -8  19 82.6708 9.00234   1
   3  -9  20 -27.536 22.9809  -2
   4  -8  19 -27.536 22.9809   1
   4  -9  20 112.517 26.9196  -2
   5  -8  19 112.517 26.9196   1
   5  -9  20 -2.0103 25.5619  -2
   6  -8  19 -2.0103 25.5619   1
  -9  -7  19 42.2766 13.0574   1
  -8  -7  19 57.2052 20.3691   1
  -7  -7  19 19.8372 18.0718   1
  -6  -7  19 73.7641 10.3136   1
  -5  -7  19 -11.147 6.38341   1
  -4  -7  19 98.6078 10.1040   1
  -3  -7  19 15.5494 6.84990   1
  -2  -7  19 139.040 11.5161   1
  -1  -7  19 86.6830 9.56793   1
   0  -7  19 141.187 9.09348   1
   1  -7  19 27.3205 6.30481   1
   2  -7  19 2.82911 7.49589   1
   3  -7  19 125.487 9.75603   1
   4  -7  19 12.9421 9.27950   1
   4  -8  20 109.703 26.7189  -2
   5  -7  19 109.703 26.7189   1
   5  -8  20 -13.238 24.4025  -2
   6  -7  19 -13.238 24.4025   1
   6  -8  20 80.7709 26.2082  -2
   7  -7  19 80.7709 26.2082   1
  -9  -6  19 41.9705 12.5778   1
  -8  -6  19 63.2244 22.1543   1
  -7  -6  19 -2.0575 15.7658   1
  -6  -6  19 63.8148 9.77939   1
  -5  -6  19 0.43933 6.16929   1
  -4  -6  19 104.765 9.63516   1
  -3  -6  19 -8.5314 6.00175   1
  -2  -6  19 121.667 10.4449   1
  -1  -6  19 55.5645 8.89667   1
   0  -6  19 113.278 10.0517   1
   1  -6  19 36.8740 7.74304   1
   2  -6  19 43.7724 8.18479   1
   3  -6  19 118.667 9.60411   1
   3  -7  20 32.8761 25.7938  -2
   4  -6  19 32.8761 25.7938   1
   4  -7  20 102.222 27.4680  -2
   5  -6  19 102.222 27.4680   1
   5  -7  20 -26.156 24.8996  -2
   6  -6  19 -26.156 24.8996   1
   6  -7  20 6.43247 26.6058  -2
   7  -6  19 6.43247 26.6058   1
  -9  -5  19 43.5853 21.4071   1
  -9  -6  18 64.5829 27.9363  -2
  -8  -5  19 64.5829 27.9363   1
  -8  -6  18 35.3553 24.0971  -2
  -7  -5  19 35.3553 24.0971   1
  -6  -5  19 51.1129 8.65147   1
  -5  -5  19 11.4689 6.19654   1
  -4  -5  19 172.222 11.1328   1
  -3  -5  19 17.7040 6.36398   1
  -2  -5  19 125.659 10.0453   1
  -2  -6  19 66.2887 20.8699  -2
  -1  -5  19 66.2887 20.8699   1
   0  -5  19 119.628 10.9207   1
   1  -5  19 49.6897 7.64424   1
   2  -5  19 78.8630 9.64516   1
   3  -5  19 78.0668 8.79677   1
   3  -6  20 24.0851 27.8696  -2
   4  -5  19 24.0851 27.8696   1
   5  -5  19 53.4087 10.5901   1
   5  -6  20 -10.792 25.4202  -2
   6  -5  19 -10.792 25.4202   1
   6  -5  20 207.788 29.6151  -2
   7  -5  19 207.788 29.6151   1
  -9  -4  19 0.87980 18.7929   1
  -9  -5  18 -18.174 26.3695  -2
  -8  -4  19 -18.174 26.3695   1
  -8  -5  18 34.5657 15.8556  -2
  -7  -4  19 34.5657 15.8556   1
  -6  -4  19 29.5490 7.24738   1
  -5  -4  19 36.0532 7.40730   1
  -4  -4  19 114.786 9.87939   1
  -3  -4  19 19.5104 6.48887   1
  -3  -5  19 131.058 23.6687  -2
  -2  -4  19 131.058 23.6687   1
  -2  -5  19 82.9817 22.0039  -2
  -1  -4  19 82.9817 22.0039   1
   0  -4  19 115.402 9.58634   1
   1  -4  19 13.5625 6.28664   1
   2  -4  19 108.566 10.1639   1
   3  -4  19 51.1085 8.92692   1
   4  -4  19 103.581 14.9152   1
   5  -4  19 68.9532 11.7614   1
   5  -5  20 39.9046 26.4633  -2
   6  -4  19 39.9046 26.4633   1
   7  -4  19 110.988 11.4443   1
 -10  -4  18 43.8625 29.6496  -2
  -9  -3  19 43.8625 29.6496   1
  -9  -4  18 -12.003 15.6345  -2
  -8  -3  19 -12.003 15.6345   1
  -8  -4  18 78.3306 14.9798  -2
  -7  -3  19 78.3306 14.9798   1
  -6  -3  19 36.1139 7.33940   1
  -5  -3  19 67.4576 8.34141   1
  -5  -4  19 44.6425 23.2146  -2
  -4  -3  19 44.6425 23.2146   1
  -4  -4  19 82.1247 22.5774  -2
  -3  -3  19 82.1247 22.5774   1
  -3  -4  19 57.9700 12.2800  -2
  -2  -3  19 57.9700 12.2800   1
  -2  -4  19 58.7752 21.6780  -2
  -1  -3  19 58.7752 21.6780   1
   0  -3  19 135.248 9.87353   1
   1  -3  19 -5.5222 5.89348   1
   2  -3  19 100.882 10.4398   1
   2  -4  20 -24.050 24.5875  -2
   3  -3  19 -24.050 24.5875   1
   4  -3  19 66.5523 12.2136   1
   5  -3  19 64.4857 13.0405   1
   6  -3  19 54.4882 10.5046   1
   7  -3  19 21.5882 11.2764   1
 -10  -3  18 81.8652 26.9716  -2
  -9  -2  19 81.8652 26.9716   1
  -9  -3  18 7.26947 15.5113  -2
  -8  -2  19 7.26947 15.5113   1
  -8  -3  18 98.6513 14.5985  -2
  -7  -2  19 98.6513 14.5985   1
  -7  -3  18 25.1166 15.7611  -2
  -6  -2  19 25.1166 15.7611   1
  -6  -3  19 58.5709 23.3881  -2
  -5  -2  19 58.5709 23.3881   1
  -5  -3  19 21.6991 19.2948  -2
  -4  -2  19 21.6991 19.2948   1
  -4  -3  19 87.9358 11.6774  -2
  -3  -2  19 87.9358 11.6774   1
  -3  -3  19 49.3392 11.6772  -2
  -2  -2  19 49.3392 11.6772   1
  -2  -3  19 54.2106 12.6439  -2
  -1  -2  19 54.2106 12.6439   1
   0  -2  19 64.7686 8.14890   1
   1  -2  19 3.84915 5.72704   1
   1  -3  20 144.123 27.2097  -2
   2  -2  19 144.123 27.2097   1
   2  -3  20 -19.262 23.4924  -2
   3  -2  19 -19.262 23.4924   1
   3  -3  20 219.756 18.5621  -2
   4  -2  19 219.756 18.5621   1
   4  -3  20 31.4076 20.6288  -2
   5  -2  19 31.4076 20.6288   1
   6  -2  19 64.5171 11.4127   1
  -9  -1  19 68.8019 21.2677   1
  -9  -2  18 21.2957 15.2268  -2
  -8  -1  19 21.2957 15.2268   1
  -8  -2  18 100.440 16.9619  -2
  -7  -1  19 100.440 16.9619   1
  -6  -1  19 -6.6806 5.87798   1
  -6  -2  19 64.8256 13.4276  -2
  -5  -1  19 64.8256 13.4276   1
  -5  -2  19 8.58546 11.5636  -2
  -4  -1  19 8.58546 11.5636   1
  -4  -2  19 76.4726 9.63053  -2
  -3  -1  19 76.4726 9.63053   1
  -3  -2  19 37.8958 11.6830  -2
  -2  -1  19 37.8958 11.6830   1
  -1  -1  19 109.087 9.16875   1
   0  -1  19 86.8830 8.78545   1
   1  -1  19 25.8668 6.77093   1
   1  -2  20 231.736 16.7467  -2
   2  -1  19 231.736 16.7467   1
   2  -2  20 8.68999 13.7956  -2
   3  -1  19 8.68999 13.7956   1
   3  -2  20 182.957 18.5920  -2
   4  -1  19 182.957 18.5920   1
   5  -1  19 7.05506 8.79248   1
   6  -1  19 60.3969 10.9310   1
  -9  -1  18 -0.9586 13.7708  -2
  -8   0  19 -0.9586 13.7708   1
  -8  -1  18 71.1674 17.1419  -2
  -7   0  19 71.1674 17.1419   1
  -7  -1  19 18.0108 21.8981  -2
  -6   0  19 18.0108 21.8981   1
  -6  -1  19 76.1358 12.6113  -2
  -5   0  19 76.1358 12.6113   1
  -5  -1  19 34.4945 11.3285  -2
  -4   0  19 34.4945 11.3285   1
  -4  -1  19 165.172 13.0121  -2
  -3   0  19 165.172 13.0121   1
  -3  -1  19 36.0701 12.4775  -2
  -2   0  19 36.0701 12.4775   1
  -1   0  19 97.3553 8.89954   1
   0   0  19 139.796 10.3339   1
   0  -1  20 88.7704 23.9072  -2
   1   0  19 88.7704 23.9072   1
   1  -1  20 155.404 24.6344  -2
   2   0  19 155.404 24.6344   1
   2  -1  20 13.8233 14.8462  -2
   3   0  19 13.8233 14.8462   1
   3  -1  20 122.434 17.3594  -2
   4   0  19 122.434 17.3594   1
   5   0  19 0.44723 8.62331   1
   6   0  19 55.3938 11.3634   1
  -9   0  18 21.9138 14.4775  -2
  -8   1  19 21.9138 14.4775   1
  -8   0  18 76.5345 19.1555  -2
  -7   1  19 76.5345 19.1555   1
  -8   0  19 49.4655 28.1394  -2
  -7   1  19 49.4655 28.1394   1
  -7   0  19 -2.7398 13.3607  -2
  -6   1  19 -2.7398 13.3607   1
  -6   0  19 108.614 12.5501  -2
  -5   1  19 108.614 12.5501   1
  -5   0  19 14.5375 10.8958  -2
  -4   1  19 14.5375 10.8958   1
  -4   0  19 100.291 12.0118  -2
  -3   1  19 100.291 12.0118   1
  -2   1  19 1.27078 5.17576   1
  -1   1  19 143.831 10.2058   1
  -1   0  20 52.4164 23.1877  -2
   0   1  19 52.4164 23.1877   1
   0   0  20 120.858 22.8172  -2
   1   1  19 120.858 22.8172   1
   1   0  20 161.904 15.3413  -2
   2   1  19 161.904 15.3413   1
   2   0  20 74.4086 18.7388  -2
   3   1  19 74.4086 18.7388   1
   3   0  20 100.583 20.5268  -2
   4   1  19 100.583 20.5268   1
   5   1  19 -1.8719 9.16352   1
  -8   1  19 39.1475 15.9520  -2
  -7   2  19 39.1475 15.9520   1
  -7   1  19 37.5132 13.1142  -2
  -6   2  19 37.5132 13.1142   1
  -6   1  19 114.109 12.6030  -2
  -5   2  19 114.109 12.6030   1
  -5   1  19 97.1756 12.4978  -2
  -4   2  19 97.1756 12.4978   1
  -4   1  19 85.8791 14.7972  -2
  -3   2  19 85.8791 14.7972   1
  -2   2  19 -5.0465 4.95212   1
  -2   1  20 131.861 24.1981  -2
  -1   2  19 131.861 24.1981   1
  -1   1  20 -16.635 21.3476  -2
   0   2  19 -16.635 21.3476   1
   0   1  20 138.854 25.8718  -2
   1   2  19 138.854 25.8718   1
   1   1  20 82.3443 14.4461  -2
   2   2  19 82.3443 14.4461   1
   2   1  20 51.8639 15.7860  -2
   3   2  19 51.8639 15.7860   1
   4   2  19 41.7214 9.86437   1
   5   2  19 14.1367 8.84857   1
  -7   2  19 63.5593 12.7109  -2
  -6   3  19 63.5593 12.7109   1
  -6   2  19 21.8262 12.3431  -2
  -5   3  19 21.8262 12.3431   1
  -5   2  19 64.1369 12.1451  -2
  -4   3  19 64.1369 12.1451   1
  -3   3  19 78.2623 8.83072   1
  -2   3  19 6.24205 6.03073   1
  -2   2  20 174.113 25.4364  -2
  -1   3  19 174.113 25.4364   1
  -1   2  20 19.1991 21.8412  -2
   0   3  19 19.1991 21.8412   1
   0   2  20 229.951 16.4100  -2
   1   3  19 229.951 16.4100   1
   1   2  20 2.26825 14.3780  -2
   2   3  19 2.26825 14.3780   1
   3   3  19 46.2600 9.84258   1
   4   3  19 64.4787 11.0080   1
  -6   3  19 36.0255 12.5215  -2
  -5   4  19 36.0255 12.5215   1
  -4   4  19 17.2132 6.14604   1
  -3   4  19 23.1430 6.64238   1
  -3   3  20 -12.920 22.4758  -2
  -2   4  19 -12.920 22.4758   1
  -2   3  20 91.1372 24.1582  -2
  -1   4  19 91.1372 24.1582   1
  -1   3  20 -8.8706 22.9508  -2
   0   4  19 -8.8706 22.9508   1
   0   3  20 124.980 25.3304  -2
   1   4  19 124.980 25.3304   1
   1   3  20 5.14466 17.6527  -2
   2   4  19 5.14466 17.6527   1
   3   4  19 39.6770 9.27761   1
  -4   5  19 13.4513 6.10165   1
  -3   5  19 10.1936 6.61406   1
  -3   4  20 50.0343 23.6186  -2
  -2   5  19 50.0343 23.6186   1
  -2   4  20 80.0055 25.3743  -2
  -1   5  19 80.0055 25.3743   1
  -1   4  20 53.7503 26.0199  -2
   0   5  19 53.7503 26.0199   1
   1   5  19 79.9098 9.07542   1
  -4 -13  20 67.5361 12.6924   1
  -3 -13  20 14.3501 10.7937   1
  -2 -13  20 101.731 13.4450   1
  -1 -13  20 8.81886 10.9725   1
   0 -13  20 49.4208 11.7498   1
   1 -13  20 54.7118 11.6789   1
   2 -13  20 -3.1797 11.6765   1
  -5 -12  20 -0.3662 9.18338   1
  -4 -12  20 45.0862 12.1666   1
  -3 -12  20 -11.163 9.77597   1
  -2 -12  20 83.3108 13.2067   1
  -1 -12  20 -11.933 10.1417   1
   0 -12  20 48.3774 11.2613   1
   1 -12  20 26.5543 10.4837   1
   2 -12  20 29.3263 12.2386   1
   3 -12  20 3.42691 12.5892   1
  -6 -11  20 24.9434 10.7253   1
  -5 -11  20 30.1258 10.4543   1
  -4 -11  20 15.9308 8.19564   1
  -3 -11  20 4.87859 8.10210   1
  -2 -11  20 83.6896 12.9092   1
  -1 -11  20 -12.639 14.2319   1
   0 -11  20 34.9213 11.2288   1
   1 -11  20 3.81945 9.61506   1
   2 -11  20 -0.1260 12.4398   1
   3 -11  20 12.7967 13.1627   1
   4 -11  20 -1.7986 9.96406   1
  -7 -10  20 30.8508 20.3127   1
  -6 -10  20 6.34018 9.88400   1
  -5 -10  20 32.1673 9.99855   1
  -4 -10  20 55.5010 10.2745   1
  -3 -10  20 4.43412 7.42520   1
  -2 -10  20 46.9141 8.37829   1
  -1 -10  20 0.23846 8.72712   1
   0 -10  20 79.9603 9.50113   1
   1 -10  20 9.53452 13.4157   1
   2 -10  20 6.99054 12.6542   1
   3 -10  20 -18.413 13.0281   1
   4 -10  20 65.6659 12.2705   1
   5 -10  20 17.0423 10.8919   1
  -7  -9  20 57.8238 20.3624   1
  -6  -9  20 17.8284 9.34609   1
  -5  -9  20 58.1293 10.0527   1
  -4  -9  20 29.1728 8.86562   1
  -3  -9  20 27.0886 8.38681   1
  -2  -9  20 29.1381 8.58438   1
  -1  -9  20 -6.4269 7.03735   1
   0  -9  20 95.9130 9.31196   1
   1  -9  20 -3.9531 7.35643   1
   2  -9  20 61.2446 10.1971   1
   3  -9  20 -1.9503 9.88492   1
   4  -9  20 65.2040 12.1212   1
   4 -10  21 21.8318 26.2624  -2
   5  -9  20 21.8318 26.2624   1
  -8  -8  20 15.8244 19.0960   1
  -7  -8  20 94.6146 10.9870   1
  -6  -8  20 -2.3364 7.77214   1
  -5  -8  20 111.530 11.5328   1
  -4  -8  20 23.0722 7.72209   1
  -3  -8  20 51.7807 9.34486   1
  -2  -8  20 65.6928 9.42360   1
  -1  -8  20 56.3308 10.9533   1
   0  -8  20 93.4226 10.4385   1
   1  -8  20 11.0258 7.01152   1
   2  -8  20 126.353 11.8045   1
   3  -8  20 11.9967 8.46733   1
   3  -9  21 138.382 27.6599  -2
   4  -8  20 138.382 27.6599   1
   4  -9  21 -29.941 29.5393  -2
   5  -8  20 -29.941 29.5393   1
   6  -8  20 21.8948 11.6421   1
  -8  -7  20 6.09846 19.5578   1
  -7  -7  20 47.1846 10.3469   1
  -6  -7  20 5.01977 7.66240   1
  -5  -7  20 49.3434 8.56587   1
  -4  -7  20 -1.6793 6.73453   1
  -3  -7  20 70.4916 9.44923   1
  -2  -7  20 30.1079 7.75928   1
  -1  -7  20 92.3491 12.6369   1
   0  -7  20 127.048 11.5308   1
   1  -7  20 29.5442 8.67826   1
   2  -7  20 79.0140 9.54950   1
   3  -7  20 4.17016 7.56439   1
   4  -7  20 101.879 12.4098   1
   4  -8  21 0.20936 29.0842  -2
   5  -7  20 0.20936 29.0842   1
   5  -8  21 67.8660 30.0037  -2
   6  -7  20 67.8660 30.0037   1
  -9  -7  19 -11.006 29.5331  -2
  -8  -6  20 -11.006 29.5331   1
  -8  -7  19 85.1548 28.9983  -2
  -7  -6  20 85.1548 28.9983   1
  -7  -7  19 -5.5545 23.5093  -2
  -6  -6  20 -5.5545 23.5093   1
  -5  -6  20 36.6441 7.21476   1
  -4  -6  20 3.09488 6.51056   1
  -3  -6  20 64.8888 8.36698   1
  -2  -6  20 2.82936 6.27052   1
  -2  -7  20 168.758 23.9429  -2
  -1  -6  20 168.758 23.9429   1
  -1  -7  20 129.889 24.5896  -2
   0  -6  20 129.889 24.5896   1
   1  -6  20 50.0152 9.01362   1
   2  -6  20 13.1583 8.19697   1
   3  -6  20 17.5972 9.15322   1
   4  -6  20 76.3832 11.2398   1
   4  -7  21 17.8260 30.4394  -2
   5  -6  20 17.8260 30.4394   1
   5  -7  21 38.0621 30.4885  -2
   6  -6  20 38.0621 30.4885   1
  -9  -6  19 28.8325 26.4079  -2
  -8  -5  20 28.8325 26.4079   1
  -8  -6  19 83.6155 15.8723  -2
  -7  -5  20 83.6155 15.8723   1
  -7  -6  19 37.7675 14.4992  -2
  -6  -5  20 37.7675 14.4992   1
  -5  -5  20 117.648 10.6669   1
  -4  -5  20 21.0736 6.75506   1
  -3  -5  20 65.4375 7.62448   1
  -3  -6  20 5.20944 12.7286  -2
  -2  -5  20 5.20944 12.7286   1
  -2  -6  20 107.687 24.4579  -2
  -1  -5  20 107.687 24.4579   1
  -1  -6  20 144.402 23.4842  -2
   0  -5  20 144.402 23.4842   1
   1  -5  20 77.1630 9.34558   1
   2  -5  20 25.1435 8.49114   1
   3  -5  20 41.8324 9.60126   1
   4  -5  20 104.766 16.1087   1
   5  -5  20 5.43003 11.4269   1
   6  -5  20 65.5799 12.0636   1
  -9  -5  19 11.3878 15.6646  -2
  -8  -4  20 11.3878 15.6646   1
  -8  -5  19 22.3461 15.0138  -2
  -7  -4  20 22.3461 15.0138   1
  -7  -5  19 23.2357 24.9477  -2
  -6  -4  20 23.2357 24.9477   1
  -5  -4  20 57.7171 8.79969   1
  -4  -4  20 59.2148 8.84035   1
  -4  -5  20 98.5116 13.5435  -2
  -3  -4  20 98.5116 13.5435   1
  -3  -5  20 21.5528 12.4475  -2
  -2  -4  20 21.5528 12.4475   1
  -2  -5  20 88.8342 13.0088  -2
  -1  -4  20 88.8342 13.0088   1
   0  -4  20 -1.4406 5.90233   1
   1  -4  20 75.7359 9.48211   1
   2  -4  20 9.52688 8.35485   1
   3  -4  20 78.8096 10.7572   1
   3  -5  21 72.8739 22.5699  -2
   4  -4  20 72.8739 22.5699   1
   4  -5  21 11.4963 24.6666  -2
   5  -4  20 11.4963 24.6666   1
   6  -4  20 66.7491 11.5166   1
  -9  -4  19 27.8073 15.0147  -2
  -8  -3  20 27.8073 15.0147   1
  -8  -4  19 -15.475 14.0669  -2
  -7  -3  20 -15.475 14.0669   1
  -7  -4  19 66.5795 16.5975  -2
  -6  -3  20 66.5795 16.5975   1
  -5  -3  20 25.2744 6.42288   1
  -5  -4  20 29.0519 13.3057  -2
  -4  -3  20 29.0519 13.3057   1
  -4  -4  20 65.7830 12.4238  -2
  -3  -3  20 65.7830 12.4238   1
  -3  -4  20 4.88843 9.97404  -2
  -2  -3  20 4.88843 9.97404   1
  -2  -4  20 104.406 13.1702  -2
  -1  -3  20 104.406 13.1702   1
   0  -3  20 6.44403 5.89739   1
   1  -3  20 77.4851 9.37718   1
   2  -3  20 4.50972 7.53032   1
   2  -4  21 174.612 17.1103  -2
   3  -3  20 174.612 17.1103   1
   3  -4  21 13.5850 21.1670  -2
   4  -3  20 13.5850 21.1670   1
   4  -4  21 64.1173 22.8001  -2
   5  -3  20 64.1173 22.8001   1
   6  -3  20 30.7342 10.1469   1
  -9  -3  19 52.8268 14.3765  -2
  -8  -2  20 52.8268 14.3765   1
  -8  -3  19 -4.2354 13.4984  -2
  -7  -2  20 -4.2354 13.4984   1
  -7  -3  19 124.428 18.0266  -2
  -6  -2  20 124.428 18.0266   1
  -6  -3  20 27.7272 17.9975  -2
  -5  -2  20 27.7272 17.9975   1
  -5  -3  20 54.3516 12.4276  -2
  -4  -2  20 54.3516 12.4276   1
  -4  -3  20 35.0025 11.7131  -2
  -3  -2  20 35.0025 11.7131   1
  -3  -3  20 77.0901 12.1313  -2
  -2  -2  20 77.0901 12.1313   1
  -2  -3  20 171.613 14.0878  -2
  -1  -2  20 171.613 14.0878   1
   0  -2  20 11.5875 5.90934   1
   1  -2  20 160.858 11.2554   1
   1  -3  21 -0.7772 23.1967  -2
   2  -2  20 -0.7772 23.1967   1
   2  -3  21 73.9457 15.2620  -2
   3  -2  20 73.9457 15.2620   1
   3  -3  21 10.0816 16.1919  -2
   4  -2  20 10.0816 16.1919   1
   4  -3  21 49.5669 23.0538  -2
   5  -2  20 49.5669 23.0538   1
   6  -2  20 23.1322 10.5126   1
  -9  -2  19 114.523 15.2503  -2
  -8  -1  20 114.523 15.2503   1
  -8  -2  19 -8.8410 17.2260  -2
  -7  -1  20 -8.8410 17.2260   1
  -7  -2  20 112.645 28.3557  -2
  -6  -1  20 112.645 28.3557   1
  -6  -2  20 31.4387 13.0258  -2
  -5  -1  20 31.4387 13.0258   1
  -5  -2  20 116.859 12.4268  -2
  -4  -1  20 116.859 12.4268   1
  -4  -2  20 21.4237 10.9977  -2
  -3  -1  20 21.4237 10.9977   1
  -3  -2  20 105.656 12.8746  -2
  -2  -1  20 105.656 12.8746   1
  -1  -1  20 33.1332 6.24234   1
   0  -1  20 15.1706 6.23733   1
   0  -2  21 124.832 15.0010  -2
   1  -1  20 124.832 15.0010   1
   1  -2  21 3.35916 13.9674  -2
   2  -1  20 3.35916 13.9674   1
   2  -2  21 136.557 15.8455  -2
   3  -1  20 136.557 15.8455   1
   3  -2  21 -0.0370 19.3722  -2
   4  -1  20 -0.0370 19.3722   1
   5  -1  20 66.7584 11.6332   1
  -8  -1  19 22.9459 18.2778  -2
  -7   0  20 22.9459 18.2778   1
  -7  -1  20 93.4227 14.4280  -2
  -6   0  20 93.4227 14.4280   1
  -6  -1  20 28.9623 14.9229  -2
  -5   0  20 28.9623 14.9229   1
  -5  -1  20 87.8494 12.0256  -2
  -4   0  20 87.8494 12.0256   1
  -4  -1  20 56.7805 11.7593  -2
  -3   0  20 56.7805 11.7593   1
  -3  -1  20 82.8531 13.1272  -2
  -2   0  20 82.8531 13.1272   1
  -1   0  20 18.8482 6.92553   1
   0   0  20 42.1653 8.23185   1
   0  -1  21 108.080 14.7455  -2
   1   0  20 108.080 14.7455   1
   1  -1  21 20.3654 13.6401  -2
   2   0  20 20.3654 13.6401   1
   2  -1  21 102.846 16.1498  -2
   3   0  20 102.846 16.1498   1
   3  -1  21 -0.5657 16.8097  -2
   4   0  20 -0.5657 16.8097   1
   5   0  20 126.661 12.9555   1
  -7   1  20 4.51722 6.10034   1
  -7   0  20 32.0800 13.4064  -2
  -6   1  20 32.0800 13.4064   1
  -6   0  20 29.7280 12.2125  -2
  -5   1  20 29.7280 12.2125   1
  -5   0  20 63.1492 12.2229  -2
  -4   1  20 63.1492 12.2229   1
  -4   0  20 26.7481 12.0473  -2
  -3   1  20 26.7481 12.0473   1
  -2   1  20 67.0523 8.40913   1
  -1   1  20 8.52404 6.20331   1
  -1   0  21 63.5710 22.6660  -2
   0   1  20 63.5710 22.6660   1
   0   0  21 139.116 15.1627  -2
   1   1  20 139.116 15.1627   1
   1   0  21 82.0685 15.2205  -2
   2   1  20 82.0685 15.2205   1
   2   0  21 119.122 17.2389  -2
   3   1  20 119.122 17.2389   1
   4   1  20 17.7482 8.98165   1
  -7   1  20 48.8936 12.5945  -2
  -6   2  20 48.8936 12.5945   1
  -6   1  20 24.2703 12.4303  -2
  -5   2  20 24.2703 12.4303   1
  -5   1  20 66.4933 12.8167  -2
  -4   2  20 66.4933 12.8167   1
  -4   1  20 0.09869 21.0089  -2
  -3   2  20 0.09869 21.0089   1
  -2   2  20 89.2767 9.03676   1
  -2   1  21 -26.866 22.7812  -2
  -1   2  20 -26.866 22.7812   1
  -1   1  21 142.302 14.8291  -2
   0   2  20 142.302 14.8291   1
   0   1  21 57.8727 13.8004  -2
   1   2  20 57.8727 13.8004   1
   1   1  21 128.673 16.1105  -2
   2   2  20 128.673 16.1105   1
   2   1  21 59.7281 19.5274  -2
   3   2  20 59.7281 19.5274   1
  -6   2  20 49.6827 13.4572  -2
  -5   3  20 49.6827 13.4572   1
  -5   2  20 54.8695 12.8823  -2
  -4   3  20 54.8695 12.8823   1
  -3   3  20 17.0204 5.94267   1
  -2   3  20 56.4501 6.99831   1
  -2   2  21 -18.409 21.8546  -2
  -1   3  20 -18.409 21.8546   1
  -1   2  21 176.795 16.2138  -2
   0   3  20 176.795 16.2138   1
   0   2  21 -6.3764 17.2201  -2
   1   3  20 -6.3764 17.2201   1
   1   2  21 116.492 15.8931  -2
   2   3  20 116.492 15.8931   1
  -3   4  20 25.2800 7.61670   1
  -2   4  20 47.4550 8.09087   1
  -2   3  21 0.51634 22.6379  -2
  -1   4  20 0.51634 22.6379   1
  -1   3  21 145.072 29.8440  -2
   0   4  20 145.072 29.8440   1
   1   4  20 23.5991 15.7474   1
  -1 -13  21 33.3832 12.0252   1
   0 -13  21 18.5474 16.4549   1
  -4 -12  21 -10.831 17.1968   1
  -3 -12  21 60.4701 17.3172   1
  -2 -12  21 -1.0472 11.2251   1
  -1 -12  21 43.0098 12.0346   1
   0 -12  21 16.3930 11.2074   1
   1 -12  21 32.2351 11.2439   1
   2 -12  21 -2.2561 13.6066   1
  -5 -11  21 41.9735 10.9758   1
  -4 -11  21 -2.2420 10.0436   1
  -3 -11  21 9.03037 10.2683   1
  -2 -11  21 7.07949 16.9264   1
  -1 -11  21 18.1680 12.1056   1
   0 -11  21 17.2792 15.0747   1
   1 -11  21 7.08101 10.3747   1
   2 -11  21 13.4157 13.6069   1
   3 -11  21 16.7239 13.8673   1
  -6 -10  21 20.8411 10.3527   1
  -5 -10  21 18.6362 9.49894   1
  -4 -10  21 26.5805 9.55367   1
  -3 -10  21 36.8045 9.71053   1
  -2 -10  21 -6.9523 8.69913   1
  -1 -10  21 115.955 12.4803   1
   0 -10  21 -7.4201 11.3765   1
   1 -10  21 39.4851 17.3705   1
   1 -11  21 -9.6976 26.8506  -2
   2 -10  21 -9.6976 26.8506   1
   3 -10  21 48.6259 15.9455   1
   4 -10  21 23.4603 11.3650   1
  -6  -9  21 71.8144 11.3535   1
  -5  -9  21 9.20356 8.74279   1
  -4  -9  21 65.9767 9.78118   1
  -3  -9  21 34.1264 9.17894   1
  -2  -9  21 9.48966 8.49681   1
  -1  -9  21 64.1674 10.6014   1
   0  -9  21 13.9232 9.38519   1
   1  -9  21 43.4940 14.4143   1
   2  -9  21 10.4478 10.8083   1
   3  -9  21 92.7952 13.7101   1
   4  -9  21 34.1433 11.4369   1
  -7  -8  21 11.5042 8.26810   1
  -6  -8  21 38.1937 10.1521   1
  -5  -8  21 22.0942 9.90152   1
  -4  -8  21 49.0235 8.78805   1
  -3  -8  21 9.82919 7.88105   1
  -2  -8  21 36.4820 8.38614   1
  -1  -8  21 48.0845 10.7581   1
   0  -8  21 19.4566 11.0675   1
   1  -8  21 75.6048 11.5709   1
   2  -8  21 4.18439 9.73076   1
   3  -8  21 97.6187 10.7869   1
   4  -8  21 5.84607 10.7613   1
   5  -8  21 54.5639 13.0796   1
  -8  -8  20 23.1329 26.6638  -2
  -7  -7  21 23.1329 26.6638   1
  -7  -8  20 59.5245 25.8989  -2
  -6  -7  21 59.5245 25.8989   1
  -6  -8  20 -1.5183 24.0999  -2
  -5  -7  21 -1.5183 24.0999   1
  -4  -7  21 63.4179 9.61073   1
  -3  -7  21 11.9160 7.06972   1
  -2  -7  21 123.643 11.4203   1
  -1  -7  21 101.829 13.0395   1
   0  -7  21 37.9212 10.1028   1
   1  -7  21 111.309 15.5788   1
   2  -7  21 34.0950 10.1839   1
   3  -7  21 80.7171 11.9941   1
   4  -7  21 -6.9014 9.61754   1
   5  -7  21 97.9686 11.2536   1
  -8  -7  20 36.4747 14.8647  -2
  -7  -6  21 36.4747 14.8647   1
  -7  -7  20 61.6985 15.5856  -2
  -6  -6  21 61.6985 15.5856   1
  -6  -7  20 29.5301 20.4085  -2
  -5  -6  21 29.5301 20.4085   1
  -4  -6  21 59.4962 8.64758   1
  -3  -6  21 -3.3755 6.49235   1
  -3  -7  21 80.0307 23.5166  -2
  -2  -6  21 80.0307 23.5166   1
  -2  -7  21 83.5213 14.5308  -2
  -1  -6  21 83.5213 14.5308   1
  -1  -7  21 120.913 24.4296  -2
   0  -6  21 120.913 24.4296   1
   1  -6  21 34.8793 8.20924   1
   2  -6  21 9.24039 9.05840   1
   3  -6  21 99.8544 12.1609   1
   4  -6  21 -3.5150 12.6746   1
   5  -6  21 94.9352 17.2911   1
  -8  -6  20 56.1251 14.9114  -2
  -7  -5  21 56.1251 14.9114   1
  -7  -6  20 80.0024 14.7116  -2
  -6  -5  21 80.0024 14.7116   1
  -6  -6  20 0.37481 18.4405  -2
  -5  -5  21 0.37481 18.4405   1
  -4  -5  21 81.5235 8.41264   1
  -4  -6  21 13.5296 13.1668  -2
  -3  -5  21 13.5296 13.1668   1
  -3  -6  21 133.502 14.4158  -2
  -2  -5  21 133.502 14.4158   1
  -2  -6  21 30.2610 10.6319  -2
  -1  -5  21 30.2610 10.6319   1
  -1  -6  21 102.722 15.4962  -2
   0  -5  21 102.722 15.4962   1
   1  -5  21 -9.3023 6.78291   1
   2  -5  21 56.3250 10.2687   1
   3  -5  21 28.4422 12.4461   1
   3  -6  22 -8.7970 23.6740  -2
   4  -5  21 -8.7970 23.6740   1
   4  -6  22 100.912 25.5814  -2
   5  -5  21 100.912 25.5814   1
  -8  -5  20 42.6588 15.4391  -2
  -7  -4  21 42.6588 15.4391   1
  -7  -5  20 38.0964 14.1226  -2
  -6  -4  21 38.0964 14.1226   1
  -5  -4  21 19.6394 6.87102   1
  -5  -5  21 60.6797 24.3864  -2
  -4  -4  21 60.6797 24.3864   1
  -4  -5  21 20.7020 12.8805  -2
  -3  -4  21 20.7020 12.8805   1
  -3  -5  21 94.9921 12.8376  -2
  -2  -4  21 94.9921 12.8376   1
  -2  -5  21 35.9579 13.0820  -2
  -1  -4  21 35.9579 13.0820   1
  -1  -5  21 51.3248 15.5014  -2
   0  -4  21 51.3248 15.5014   1
   1  -4  21 4.56026 6.72582   1
   2  -4  21 64.4116 10.7762   1
   2  -5  22 17.3978 21.2690  -2
   3  -4  21 17.3978 21.2690   1
   3  -5  22 49.1173 22.4272  -2
   4  -4  21 49.1173 22.4272   1
   4  -5  22 81.3283 22.5426  -2
   5  -4  21 81.3283 22.5426   1
  -8  -4  20 47.3204 14.1450  -2
  -7  -3  21 47.3204 14.1450   1
  -7  -4  20 31.5577 17.5226  -2
  -6  -3  21 31.5577 17.5226   1
  -5  -3  21 35.1969 7.75668   1
  -5  -4  21 29.8202 12.7060  -2
  -4  -3  21 29.8202 12.7060   1
  -4  -4  21 4.71564 11.4092  -2
  -3  -3  21 4.71564 11.4092   1
  -3  -4  21 139.769 13.2379  -2
  -2  -3  21 139.769 13.2379   1
  -2  -4  21 8.77063 12.7641  -2
  -1  -3  21 8.77063 12.7641   1
   0  -3  21 131.874 10.7223   1
   1  -3  21 1.08303 7.50343   1
   1  -4  22 72.8664 16.0671  -2
   2  -3  21 72.8664 16.0671   1
   2  -4  22 31.4459 15.6140  -2
   3  -3  21 31.4459 15.6140   1
   3  -4  22 61.5146 22.0234  -2
   4  -3  21 61.5146 22.0234   1
   4  -4  22 109.916 24.4410  -2
   5  -3  21 109.916 24.4410   1
  -8  -3  20 109.941 15.7744  -2
  -7  -2  21 109.941 15.7744   1
  -7  -3  20 22.8180 17.7844  -2
  -6  -2  21 22.8180 17.7844   1
  -6  -3  21 104.735 14.1474  -2
  -5  -2  21 104.735 14.1474   1
  -5  -3  21 33.2011 12.4135  -2
  -4  -2  21 33.2011 12.4135   1
  -4  -3  21 39.9695 11.6975  -2
  -3  -2  21 39.9695 11.6975   1
  -3  -3  21 101.637 13.1911  -2
  -2  -2  21 101.637 13.1911   1
  -2  -3  21 69.8166 15.7905  -2
  -1  -2  21 69.8166 15.7905   1
   0  -2  21 72.0022 9.17234   1
   0  -3  22 1.53058 19.6168  -2
   1  -2  21 1.53058 19.6168   1
   1  -3  22 108.683 15.6141  -2
   2  -2  21 108.683 15.6141   1
   2  -3  22 -29.566 14.4404  -2
   3  -2  21 -29.566 14.4404   1
   3  -3  22 138.861 18.3197  -2
   4  -2  21 138.861 18.3197   1
  -8  -2  20 127.865 19.2568  -2
  -7  -1  21 127.865 19.2568   1
  -7  -2  21 68.7943 25.2467  -2
  -6  -1  21 68.7943 25.2467   1
  -6  -2  21 100.382 13.2595  -2
  -5  -1  21 100.382 13.2595   1
  -5  -2  21 49.2085 11.9920  -2
  -4  -1  21 49.2085 11.9920   1
  -4  -2  21 78.3410 12.7408  -2
  -3  -1  21 78.3410 12.7408   1
  -3  -2  21 45.4106 12.8150  -2
  -2  -1  21 45.4106 12.8150   1
  -1  -1  21 64.4558 7.96247   1
   0  -1  21 24.4838 7.40980   1
   0  -2  22 10.1507 15.1216  -2
   1  -1  21 10.1507 15.1216   1
   1  -2  22 128.600 16.0661  -2
   2  -1  21 128.600 16.0661   1
   2  -2  22 28.6738 15.3687  -2
   3  -1  21 28.6738 15.3687   1
   3  -2  22 79.1338 17.3349  -2
   4  -1  21 79.1338 17.3349   1
  -7  -1  21 26.5889 13.8269  -2
  -6   0  21 26.5889 13.8269   1
  -6  -1  21 50.2841 12.4441  -2
  -5   0  21 50.2841 12.4441   1
  -5  -1  21 40.4683 12.5267  -2
  -4   0  21 40.4683 12.5267   1
  -4  -1  21 65.5728 12.8568  -2
  -3   0  21 65.5728 12.8568   1
  -3  -1  21 29.6520 21.7205  -2
  -2   0  21 29.6520 21.7205   1
  -1   0  21 30.5559 7.31476   1
   0   0  21 41.6688 6.86108   1
   0  -1  22 13.9547 14.2388  -2
   1   0  21 13.9547 14.2388   1
   1  -1  22 81.9276 15.9087  -2
   2   0  21 81.9276 15.9087   1
   2  -1  22 7.67345 15.8577  -2
   3   0  21 7.67345 15.8577   1
  -6   0  21 55.8039 12.2119  -2
  -5   1  21 55.8039 12.2119   1
  -5   0  21 39.9056 13.1554  -2
  -4   1  21 39.9056 13.1554   1
  -3   1  21 60.8173 9.80956   1
  -2   1  21 -2.9188 5.71334   1
  -1   1  21 39.8612 6.95827   1
  -1   0  22 78.5392 26.0719  -2
   0   1  21 78.5392 26.0719   1
   0   0  22 89.3252 14.7294  -2
   1   1  21 89.3252 14.7294   1
   1   0  22 113.771 16.8185  -2
   2   1  21 113.771 16.8185   1
   2   0  22 51.6667 31.2991  -2
   3   1  21 51.6667 31.2991   1
  -5   1  21 8.95031 13.1843  -2
  -4   2  21 8.95031 13.1843   1
  -3   2  21 63.5920 8.26229   1
  -2   2  21 -2.9744 6.82088   1
  -1   2  21 50.7351 7.82071   1
  -1   1  22 -5.9660 13.2206  -2
   0   2  21 -5.9660 13.2206   1
   0   1  22 124.789 19.2009  -2
   1   2  21 124.789 19.2009   1
   2   2  21 19.0835 15.9135   1
  -2   3  21 0.96769 6.28311   1
  -1   3  21 71.3613 9.15288   1
  -3 -11  22 8.18974 18.5250   1
  -2 -11  22 15.2478 18.2636   1
  -1 -11  22 -4.8834 16.5005   1
   0 -11  22 38.3471 17.7389   1
   1 -11  22 -0.9074 16.5661   1
  -4 -10  22 11.1130 9.75387   1
  -3 -10  22 3.91871 11.5220   1
  -2 -10  22 55.3868 11.3512   1
  -1 -10  22 -6.3584 9.61518   1
  -5  -9  22 27.4338 11.4567   1
  -4  -9  22 15.6702 8.56884   1
  -3  -9  22 9.49028 8.88299   1
  -2  -9  22 105.380 11.9478   1
  -1  -9  22 3.81436 9.15092   1
   0  -9  22 78.5209 14.8308   1
   1  -9  22 6.55842 14.1319   1
   2  -9  22 105.935 21.0162   1
   3  -9  22 10.0999 16.7059   1
  -6  -8  22 -5.1890 7.87223   1
  -6  -9  21 59.3376 21.8193  -2
  -5  -8  22 59.3376 21.8193   1
  -4  -8  22 6.12640 15.1806   1
  -3  -8  22 78.9998 10.1463   1
  -2  -8  22 60.8588 9.99039   1
  -2  -9  22 46.3548 24.0684  -2
  -1  -8  22 46.3548 24.0684   1
  -1  -9  22 56.0933 24.7015  -2
   0  -8  22 56.0933 24.7015   1
   0  -9  22 -10.537 27.4201  -2
   1  -8  22 -10.537 27.4201   1
   2  -8  22 74.1261 12.5511   1
   3  -8  22 -0.3040 10.9726   1
  -7  -8  21 -33.755 22.8334  -2
  -6  -7  22 -33.755 22.8334   1
  -6  -8  21 131.050 16.5057  -2
  -5  -7  22 131.050 16.5057   1
  -4  -7  22 5.58672 7.15663   1
  -3  -7  22 36.8740 8.30862   1
  -3  -8  22 56.5155 23.0275  -2
  -2  -7  22 56.5155 23.0275   1
  -2  -8  22 48.7847 20.7733  -2
  -1  -7  22 48.7847 20.7733   1
  -1  -8  22 103.005 22.1169  -2
   0  -7  22 103.005 22.1169   1
   0  -8  22 21.7203 25.6092  -2
   1  -7  22 21.7203 25.6092   1
   2  -7  22 76.8900 12.5030   1
   3  -7  22 -3.9960 10.3299   1
   4  -7  22 55.6150 12.1128   1
  -7  -7  21 10.3878 15.1376  -2
  -6  -6  22 10.3878 15.1376   1
  -6  -7  21 83.1515 16.0962  -2
  -5  -6  22 83.1515 16.0962   1
  -4  -6  22 4.39739 7.51074   1
  -4  -7  22 3.89503 21.9718  -2
  -3  -6  22 3.89503 21.9718   1
  -3  -7  22 12.1303 14.6013  -2
  -2  -6  22 12.1303 14.6013   1
  -2  -7  22 74.0812 14.2500  -2
  -1  -6  22 74.0812 14.2500   1
  -1  -7  22 34.8903 21.8536  -2
   0  -6  22 34.8903 21.8536   1
   0  -7  22 60.6322 24.9156  -2
   1  -6  22 60.6322 24.9156   1
   2  -6  22 55.9690 11.4584   1
   3  -6  22 26.0887 10.9503   1
   4  -6  22 36.4184 11.4113   1
  -7  -6  21 8.96426 15.2335  -2
  -6  -5  22 8.96426 15.2335   1
  -6  -6  21 60.1950 18.2668  -2
  -5  -5  22 60.1950 18.2668   1
  -4  -5  22 -0.3259 6.32207   1
  -4  -6  22 8.68137 13.6216  -2
  -3  -5  22 8.68137 13.6216   1
  -3  -6  22 -7.7420 12.8421  -2
  -2  -5  22 -7.7420 12.8421   1
  -2  -6  22 76.0149 13.7870  -2
  -1  -5  22 76.0149 13.7870   1
  -1  -6  22 29.0873 14.8876  -2
   0  -5  22 29.0873 14.8876   1
   0  -6  22 60.0775 24.4718  -2
   1  -5  22 60.0775 24.4718   1
   2  -5  22 17.0581 9.72147   1
   2  -6  23 31.1241 23.4691  -2
   3  -5  22 31.1241 23.4691   1
   4  -5  22 81.6177 12.6694   1
  -7  -5  21 -23.448 17.7892  -2
  -6  -4  22 -23.448 17.7892   1
  -5  -4  22 23.6217 6.56692   1
  -5  -5  22 9.14363 13.7591  -2
  -4  -4  22 9.14363 13.7591   1
  -4  -5  22 91.1738 13.9081  -2
  -3  -4  22 91.1738 13.9081   1
  -3  -5  22 6.05265 12.3334  -2
  -2  -4  22 6.05265 12.3334   1
  -2  -5  22 113.309 13.8214  -2
  -1  -4  22 113.309 13.8214   1
  -1  -5  22 34.5166 19.9843  -2
   0  -4  22 34.5166 19.9843   1
   1  -4  22 82.2166 10.7268   1
   1  -5  23 38.4581 21.8969  -2
   2  -4  22 38.4581 21.8969   1
   2  -5  23 69.5493 22.1377  -2
   3  -4  22 69.5493 22.1377   1
   4  -4  22 39.5925 11.2485   1
  -7  -4  21 38.6320 17.8798  -2
  -6  -3  22 38.6320 17.8798   1
  -6  -4  22 31.7291 25.7941  -2
  -5  -3  22 31.7291 25.7941   1
  -5  -4  22 17.4127 13.3350  -2
  -4  -3  22 17.4127 13.3350   1
  -4  -4  22 79.8865 12.2644  -2
  -3  -3  22 79.8865 12.2644   1
  -3  -4  22 51.4857 12.7815  -2
  -2  -3  22 51.4857 12.7815   1
  -2  -4  22 79.6550 13.5988  -2
  -1  -3  22 79.6550 13.5988   1
   0  -3  22 10.3206 7.22255   1
   1  -3  22 116.234 15.2807   1
   1  -4  23 18.6894 21.5668  -2
   2  -3  22 18.6894 21.5668   1
   2  -4  23 91.8879 27.8639  -2
   3  -3  22 91.8879 27.8639   1
  -6  -2  22 46.7884 8.19889   1
  -6  -3  22 14.4176 13.6035  -2
  -5  -2  22 14.4176 13.6035   1
  -5  -3  22 67.1125 12.5072  -2
  -4  -2  22 67.1125 12.5072   1
  -4  -3  22 46.6513 12.3016  -2
  -3  -2  22 46.6513 12.3016   1
  -3  -3  22 53.4844 13.4951  -2
  -2  -2  22 53.4844 13.4951   1
  -1  -2  22 148.070 10.9695   1
   0  -2  22 -0.4551 6.56321   1
   0  -3  23 138.624 16.9509  -2
   1  -2  22 138.624 16.9509   1
   1  -3  23 -10.286 15.7600  -2
   2  -2  22 -10.286 15.7600   1
   2  -3  23 41.0294 16.3224  -2
   3  -2  22 41.0294 16.3224   1
  -6  -2  22 25.6460 13.3128  -2
  -5  -1  22 25.6460 13.3128   1
  -5  -2  22 96.0035 13.4100  -2
  -4  -1  22 96.0035 13.4100   1
  -4  -2  22 38.4560 12.9953  -2
  -3  -1  22 38.4560 12.9953   1
  -3  -2  22 76.2290 13.7537  -2
  -2  -1  22 76.2290 13.7537   1
  -1  -1  22 51.9574 8.60411   1
   0  -1  22 4.36267 6.87868   1
   0  -2  23 65.6628 15.7299  -2
   1  -1  22 65.6628 15.7299   1
   1  -2  23 -0.8741 18.2602  -2
   2  -1  22 -0.8741 18.2602   1
   3  -1  22 67.8214 18.2037   1
  -5  -1  22 29.7393 12.8873  -2
  -4   0  22 29.7393 12.8873   1
  -4  -1  22 54.0633 13.4811  -2
  -3   0  22 54.0633 13.4811   1
  -2   0  22 53.2424 7.14345   1
  -1   0  22 18.6784 6.56602   1
   0   0  22 35.8416 8.17324   1
   0  -1  23 62.0414 14.7493  -2
   1   0  22 62.0414 14.7493   1
   2   0  22 -0.2380 14.5296   1
  -3   1  22 3.10187 6.36754   1
  -2   1  22 31.2480 7.83108   1
  -1   1  22 7.41696 6.73302   1
   0   1  22 53.5526 8.85013   1
  -2 -10  23 4.84101 10.3532   1
  -1 -10  23 33.3899 11.9246   1
   0 -10  23 17.5593 17.2153   1
  -3  -9  23 32.5833 10.3826   1
  -2  -9  23 -0.5728 9.26887   1
  -2 -10  23 118.387 29.2449  -2
  -1  -9  23 118.387 29.2449   1
  -5  -9  22 29.3184 23.7405  -2
  -4  -8  23 29.3184 23.7405   1
  -3  -8  23 20.0579 8.88188   1
  -2  -8  23 7.56294 10.5729   1
  -2  -9  23 154.877 26.1044  -2
  -1  -8  23 154.877 26.1044   1
  -1  -9  23 44.3307 26.2327  -2
   0  -8  23 44.3307 26.2327   1
   0  -9  23 -7.3550 29.3488  -2
   1  -8  23 -7.3550 29.3488   1
   2  -8  23 -13.905 14.6118   1
  -6  -8  22 -16.043 24.8259  -2
  -5  -7  23 -16.043 24.8259   1
  -5  -8  22 42.7107 22.0616  -2
  -4  -7  23 42.7107 22.0616   1
  -3  -7  23 7.41813 8.02257   1
  -3  -8  23 22.9433 22.3244  -2
  -2  -7  23 22.9433 22.3244   1
  -2  -8  23 54.6758 21.5891  -2
  -1  -7  23 54.6758 21.5891   1
  -1  -8  23 40.4144 24.0667  -2
   0  -7  23 40.4144 24.0667   1
   0  -8  23 37.6566 27.5899  -2
   1  -7  23 37.6566 27.5899   1
   2  -7  23 12.8082 11.1230   1
  -5  -6  23 -23.893 14.5491   1
  -4  -6  23 17.8664 8.10332   1
  -4  -7  23 20.3304 14.8115  -2
  -3  -6  23 20.3304 14.8115   1
  -3  -7  23 51.1640 14.4718  -2
  -2  -6  23 51.1640 14.4718   1
  -2  -7  23 12.5646 14.2817  -2
  -1  -6  23 12.5646 14.2817   1
  -1  -7  23 51.3519 23.2157  -2
   0  -6  23 51.3519 23.2157   1
   0  -7  23 47.5700 25.4541  -2
   1  -6  23 47.5700 25.4541   1
   2  -6  23 31.2332 11.1282   1
  -6  -6  22 -2.4637 18.9508  -2
  -5  -5  23 -2.4637 18.9508   1
  -5  -6  23 36.8808 15.0030  -2
  -4  -5  23 36.8808 15.0030   1
  -4  -6  23 -14.116 22.2527  -2
  -3  -5  23 -14.116 22.2527   1
  -3  -6  23 92.1188 14.2969  -2
  -2  -5  23 92.1188 14.2969   1
  -2  -6  23 -15.089 13.4657  -2
  -1  -5  23 -15.089 13.4657   1
  -1  -6  23 57.7057 15.7650  -2
   0  -5  23 57.7057 15.7650   1
   1  -5  23 23.0232 10.0975   1
   2  -5  23 41.1529 11.0728   1
  -5  -4  23 22.3706 7.62754   1
  -5  -5  23 29.9984 13.4909  -2
  -4  -4  23 29.9984 13.4909   1
  -4  -5  23 18.5082 12.8143  -2
  -3  -4  23 18.5082 12.8143   1
  -3  -5  23 115.955 13.7873  -2
  -2  -4  23 115.955 13.7873   1
  -2  -5  23 41.6832 14.4676  -2
  -1  -4  23 41.6832 14.4676   1
  -1  -5  23 117.843 16.2804  -2
   0  -4  23 117.843 16.2804   1
   1  -4  23 21.6878 9.70022   1
   2  -4  23 12.4475 9.75615   1
  -5  -4  23 59.6411 13.1144  -2
  -4  -3  23 59.6411 13.1144   1
  -4  -4  23 30.7652 12.7115  -2
  -3  -3  23 30.7652 12.7115   1
  -3  -4  23 114.113 17.4654  -2
  -2  -3  23 114.113 17.4654   1
  -2  -4  23 54.3967 15.7879  -2
  -1  -3  23 54.3967 15.7879   1
   0  -3  23 112.434 11.3149   1
   1  -3  23 8.34533 9.19892   1
   2  -3  23 36.0446 10.1041   1
  -4  -2  23 25.9864 6.68072   1
  -4  -3  23 30.4386 12.9929  -2
  -3  -2  23 30.4386 12.9929   1
  -3  -3  23 80.5850 14.3819  -2
  -2  -2  23 80.5850 14.3819   1
  -1  -2  23 6.77924 6.64178   1
   0  -2  23 39.9795 7.51065   1
   1  -2  23 -2.9883 8.36589   1
  -4  -2  23 70.0332 13.9160  -2
  -3  -1  23 70.0332 13.9160   1
  -2  -1  23 40.6175 7.50233   1
  -1  -1  23 17.1451 7.49219   1
   0  -1  23 115.618 10.8361   1
  -2  -7  24 12.7323 16.3391   1
  -1  -7  24 7.25854 15.0323   1
  -2  -6  24 6.52625 7.67342   1
  -2  -7  24 -8.2326 20.4928  -2
  -1  -6  24 -8.2326 20.4928   1
  -2  -5  24 4.25822 7.04095   1
  -2  -6  24 68.7891 15.6074  -2
  -1  -5  24 68.7891 15.6074   1
  -1  -6  24 25.7740 25.5352  -2
   0  -5  24 25.7740 25.5352   1
  -2  -5  24 49.8322 25.4273  -2
  -1  -4  24 49.8322 25.4273   1
   0   0   0    0.00    0.00   0
;
_shelx_hkl_checksum              33008
loop_
_space_group_symop_operation_xyz
'x, y, z'
'-x, -y, -z'
loop_
_atom_site_label
_atom_site_type_symbol
_atom_site_fract_x
_atom_site_fract_y
_atom_site_fract_z
_atom_site_U_iso_or_equiv
_atom_site_adp_type
_atom_site_occupancy
_atom_site_site_symmetry_order
_atom_site_calc_flag
_atom_site_refinement_flags_posn
_atom_site_refinement_flags_adp
Pt1 Pt 0.27542(3) 0.46239(2) 0.75587(2) 0.02198(8) Uani 1 1 d . .
C1 C 0.4912(7) 0.5451(6) 0.8938(4) 0.0236(12) Uani 1 1 d . .
N1 N 0.4634(6) 0.4657(5) 0.8146(3) 0.0225(10) Uani 1 1 d . .
N2 N 0.3089(6) 0.3217(5) 0.6605(3) 0.0234(11) Uani 1 1 d . .
C2 C 0.6213(7) 0.5173(6) 0.9300(4) 0.0275(13) Uani 1 1 d . .
H2 H 0.669264 0.558721 0.984549 0.033 Uiso 1 1 calc R U
N3 N 0.0840(6) 0.4797(4) 0.7080(3) 0.0236(11) Uani 1 1 d . .
C3 C 0.6654(7) 0.4176(6) 0.8700(4) 0.0260(13) Uani 1 1 d . .
H3 H 0.748906 0.377882 0.877187 0.031 Uiso 1 1 calc R U
C6 C 0.4340(7) 0.2632(5) 0.6561(4) 0.0239(12) Uani 1 1 d . .
C5 C 0.5501(7) 0.2868(5) 0.7193(4) 0.0229(12) Uani 1 1 d . .
N4 N 0.2662(6) 0.6013(5) 0.8550(3) 0.0245(11) Uani 1 1 d . .
C4 C 0.5654(7) 0.3846(6) 0.7965(4) 0.0251(12) Uani 1 1 d . .
C7 C 0.4165(7) 0.1716(6) 0.5749(4) 0.0261(13) Uani 1 1 d . .
H7 H 0.486004 0.117518 0.552147 0.031 Uiso 1 1 calc R U
C8 C 0.2852(7) 0.1744(6) 0.5358(4) 0.0260(13) Uani 1 1 d . .
H8 H 0.246255 0.121933 0.481990 0.031 Uiso 1 1 calc R U
C9 C 0.2150(7) 0.2710(5) 0.5905(4) 0.0221(12) Uani 1 1 d . .
C10 C 0.0786(7) 0.3083(5) 0.5768(4) 0.0236(12) Uani 1 1 d . .
C11 C 0.0182(7) 0.4080(5) 0.6320(4) 0.0209(11) Uani 1 1 d . .
C12 C -0.1183(7) 0.4527(6) 0.6200(4) 0.0274(13) Uani 1 1 d . .
H12 H -0.187438 0.420030 0.572500 0.033 Uiso 1 1 calc R U
C13 C -0.1319(7) 0.5499(6) 0.6882(4) 0.0264(13) Uani 1 1 d . .
H13 H -0.212349 0.596666 0.697225 0.032 Uiso 1 1 calc R U
C14 C -0.0008(7) 0.5692(5) 0.7448(4) 0.0234(12) Uani 1 1 d . .
C15 C 0.0331(7) 0.6632(5) 0.8212(4) 0.0252(12) Uani 1 1 d . .
C16 C 0.1633(8) 0.6780(5) 0.8747(4) 0.0261(13) Uani 1 1 d . .
C17 C 0.2151(7) 0.7616(6) 0.9561(4) 0.0274(14) Uani 1 1 d . .
H17 H 0.167024 0.827860 0.987116 0.033 Uiso 1 1 calc R U
C18 C 0.3471(7) 0.7293(6) 0.9816(4) 0.0271(13) Uani 1 1 d . .
H18 H 0.404886 0.768864 1.033190 0.033 Uiso 1 1 calc R U
C19 C 0.3803(7) 0.6257(6) 0.9163(4) 0.0253(13) Uani 1 1 d . .
C20 C 0.6619(7) 0.2009(5) 0.7094(4) 0.0243(12) Uani 1 1 d . .
C21 C 0.6270(8) 0.0843(6) 0.6988(4) 0.0304(14) Uani 1 1 d . .
H21 H 0.530362 0.059518 0.695409 0.036 Uiso 1 1 calc R U
C22 C 0.7325(9) 0.0034(7) 0.6932(5) 0.0365(16) Uani 1 1 d . .
H22 H 0.707788 -0.075770 0.686402 0.044 Uiso 1 1 calc R U
C23 C 0.8719(8) 0.0390(7) 0.6974(4) 0.0327(15) Uani 1 1 d . .
H23 H 0.943381 -0.016307 0.692684 0.039 Uiso 1 1 calc R U
C24 C 0.9092(8) 0.1527(7) 0.7084(4) 0.0333(15) Uani 1 1 d . .
H24 H 1.006388 0.176279 0.712261 0.040 Uiso 1 1 calc R U
C25 C 0.8052(7) 0.2346(6) 0.7138(4) 0.0285(13) Uani 1 1 d . .
H25 H 0.831744 0.313453 0.720630 0.034 Uiso 1 1 calc R U
C26 C -0.0111(7) 0.2418(5) 0.4966(4) 0.0213(12) Uani 1 1 d . .
C27 C -0.0828(9) 0.1377(6) 0.4879(4) 0.0350(17) Uani 1 1 d . .
H27 H -0.071295 0.106109 0.533186 0.042 Uiso 1 1 calc R U
C28 C -0.1704(9) 0.0788(7) 0.4156(5) 0.0398(18) Uani 1 1 d . .
H28 H -0.220003 0.008092 0.411757 0.048 Uiso 1 1 calc R U
C29 C -0.1865(8) 0.1224(7) 0.3480(5) 0.0359(17) Uani 1 1 d . .
H29 H -0.245669 0.081177 0.297387 0.043 Uiso 1 1 calc R U
C30 C -0.1159(8) 0.2259(6) 0.3552(4) 0.0306(15) Uani 1 1 d . .
H30 H -0.128241 0.256942 0.309642 0.037 Uiso 1 1 calc R U
C31 C -0.0267(8) 0.2858(6) 0.4283(4) 0.0295(14) Uani 1 1 d . .
H31 H 0.023372 0.356199 0.431989 0.035 Uiso 1 1 calc R U
C32 C -0.0723(7) 0.7555(5) 0.8489(4) 0.0241(12) Uani 1 1 d . .
C33 C -0.2048(8) 0.7289(6) 0.8686(4) 0.0301(14) Uani 1 1 d . .
H33 H -0.230956 0.650330 0.862761 0.036 Uiso 1 1 calc R U
C34 C -0.2988(8) 0.8157(6) 0.8965(4) 0.0316(14) Uani 1 1 d . .
H34 H -0.388479 0.796371 0.910684 0.038 Uiso 1 1 calc R U
C35 C -0.2648(8) 0.9294(6) 0.9040(5) 0.0345(16) Uani 1 1 d . .
H35 H -0.330747 0.988436 0.922877 0.041 Uiso 1 1 calc R U
C36 C -0.1314(10) 0.9580(6) 0.8836(5) 0.0391(18) Uani 1 1 d . .
H36 H -0.107363 1.036166 0.887250 0.047 Uiso 1 1 calc R U
C37 C -0.0349(8) 0.8708(6) 0.8581(4) 0.0319(15) Uani 1 1 d . .
H37 H 0.057023 0.890265 0.846888 0.038 Uiso 1 1 calc R U
N101 N 0.3641(6) 0.5729(5) 0.6880(3) 0.0252(11) Uani 1 1 d . .
C102 C 0.4349(9) 0.6733(7) 0.7331(5) 0.0401(18) Uani 1 1 d . .
H102 H 0.441309 0.696839 0.793552 0.048 Uiso 1 1 calc R U
C103 C 0.4996(11) 0.7451(8) 0.6963(5) 0.050(2) Uani 1 1 d . .
H103 H 0.550073 0.815676 0.730694 0.060 Uiso 1 1 calc R U
C104 C 0.4893(9) 0.7121(7) 0.6089(5) 0.0403(18) Uani 1 1 d . .
H104 H 0.534129 0.758747 0.581663 0.048 Uiso 1 1 calc R U
C105 C 0.4147(8) 0.6125(7) 0.5623(5) 0.0353(16) Uani 1 1 d . .
H105 H 0.404428 0.589293 0.501782 0.042 Uiso 1 1 calc R U
C106 C 0.3519(8) 0.5430(7) 0.6036(4) 0.0314(14) Uani 1 1 d . .
H106 H 0.299568 0.472811 0.570261 0.038 Uiso 1 1 calc R U
C201 C 0.2004(6) 0.3644(5) 0.8225(4) 0.0221(12) Uani 1 1 d . .
N202 N 0.3588(9) 0.0141(7) 0.8715(5) 0.0466(17) Uani 1 1 d . .
C202 C 0.2680(7) 0.2638(6) 0.8240(4) 0.0243(12) Uani 1 1 d . .
H202 H 0.345250 0.238450 0.791168 0.029 Uiso 1 1 calc R U
C203 C 0.2224(7) 0.2004(6) 0.8736(4) 0.0268(13) Uani 1 1 d . .
C204 C 0.1133(7) 0.2348(6) 0.9228(4) 0.0298(14) Uani 1 1 d . .
H204 H 0.084174 0.190996 0.956923 0.036 Uiso 1 1 calc R U
C205 C 0.0466(7) 0.3349(6) 0.9218(4) 0.0285(14) Uani 1 1 d . .
H205 H -0.030563 0.359841 0.954775 0.034 Uiso 1 1 calc R U
C206 C 0.0916(7) 0.4001(6) 0.8725(4) 0.0263(13) Uani 1 1 d . .
H206 H 0.046119 0.469961 0.873562 0.032 Uiso 1 1 calc R U
C207 C 0.2982(8) 0.0971(6) 0.8733(4) 0.0317(15) Uani 1 1 d . .
loop_
_atom_site_aniso_label
_atom_site_aniso_U_11
_atom_site_aniso_U_22
_atom_site_aniso_U_33
_atom_site_aniso_U_23
_atom_site_aniso_U_13
_atom_site_aniso_U_12
Pt1 0.02138(11) 0.02174(11) 0.01936(11) 0.00318(8) -0.00115(7) -0.00295(7)
C1 0.018(3) 0.027(3) 0.023(3) 0.006(2) -0.001(2) -0.007(2)
N1 0.022(3) 0.026(3) 0.019(2) 0.0070(19) -0.0001(19) -0.001(2)
N2 0.025(3) 0.022(2) 0.021(2) 0.0071(19) -0.005(2) -0.001(2)
C2 0.026(3) 0.031(3) 0.021(3) 0.005(2) -0.002(2) -0.005(3)
N3 0.027(3) 0.018(2) 0.022(2) 0.0030(19) 0.001(2) -0.002(2)
C3 0.021(3) 0.032(3) 0.025(3) 0.011(3) 0.001(2) -0.001(3)
C6 0.028(3) 0.019(3) 0.027(3) 0.010(2) 0.002(2) -0.002(2)
C5 0.020(3) 0.025(3) 0.026(3) 0.011(2) 0.000(2) -0.003(2)
N4 0.022(3) 0.023(2) 0.025(3) 0.003(2) -0.002(2) 0.002(2)
C4 0.022(3) 0.028(3) 0.027(3) 0.012(2) -0.001(2) -0.003(2)
C7 0.027(3) 0.024(3) 0.025(3) 0.006(2) 0.000(2) 0.002(2)
C8 0.029(3) 0.024(3) 0.022(3) 0.006(2) 0.000(2) 0.000(3)
C9 0.022(3) 0.025(3) 0.018(3) 0.006(2) -0.002(2) -0.001(2)
C10 0.028(3) 0.020(3) 0.020(3) 0.005(2) -0.001(2) -0.004(2)
C11 0.020(3) 0.022(3) 0.022(3) 0.009(2) 0.000(2) -0.005(2)
C12 0.029(3) 0.025(3) 0.027(3) 0.009(2) -0.005(2) -0.006(3)
C13 0.027(3) 0.024(3) 0.030(3) 0.011(2) 0.001(2) 0.002(2)
C14 0.019(3) 0.019(3) 0.030(3) 0.007(2) -0.006(2) 0.000(2)
C15 0.023(3) 0.019(3) 0.032(3) 0.008(2) -0.001(2) -0.002(2)
C16 0.031(3) 0.020(3) 0.027(3) 0.006(2) 0.007(3) -0.003(2)
C17 0.028(3) 0.022(3) 0.026(3) -0.001(2) 0.006(3) -0.006(3)
C18 0.027(3) 0.026(3) 0.025(3) 0.003(2) 0.000(2) -0.008(3)
C19 0.022(3) 0.028(3) 0.024(3) 0.009(2) 0.000(2) -0.003(2)
C20 0.028(3) 0.023(3) 0.024(3) 0.011(2) 0.002(2) 0.000(2)
C21 0.025(3) 0.031(3) 0.036(4) 0.012(3) 0.003(3) -0.001(3)
C22 0.042(4) 0.027(3) 0.040(4) 0.012(3) 0.002(3) 0.006(3)
C23 0.033(4) 0.035(4) 0.029(3) 0.010(3) 0.000(3) 0.010(3)
C24 0.025(3) 0.044(4) 0.028(3) 0.009(3) 0.002(3) 0.003(3)
C25 0.029(3) 0.026(3) 0.030(3) 0.008(3) 0.004(3) 0.000(3)
C26 0.023(3) 0.022(3) 0.018(3) 0.007(2) -0.002(2) 0.003(2)
C27 0.049(5) 0.026(3) 0.029(3) 0.012(3) -0.010(3) -0.012(3)
C28 0.041(5) 0.032(4) 0.044(4) 0.013(3) -0.005(3) -0.008(3)
C29 0.038(4) 0.036(4) 0.025(3) 0.004(3) -0.011(3) -0.001(3)
C30 0.041(4) 0.031(3) 0.020(3) 0.010(2) -0.004(3) 0.008(3)
C31 0.042(4) 0.022(3) 0.023(3) 0.008(2) -0.003(3) 0.000(3)
C32 0.031(3) 0.020(3) 0.020(3) 0.005(2) 0.003(2) 0.000(2)
C33 0.031(4) 0.023(3) 0.035(4) 0.010(3) 0.001(3) -0.005(3)
C34 0.026(3) 0.035(4) 0.031(3) 0.009(3) 0.000(3) 0.000(3)
C35 0.033(4) 0.030(3) 0.034(4) 0.002(3) 0.004(3) 0.007(3)
C36 0.060(5) 0.021(3) 0.035(4) 0.005(3) 0.017(4) 0.001(3)
C37 0.041(4) 0.021(3) 0.032(3) 0.004(3) 0.010(3) -0.006(3)
N101 0.022(3) 0.025(3) 0.031(3) 0.013(2) -0.002(2) 0.002(2)
C102 0.045(4) 0.041(4) 0.037(4) 0.020(3) -0.009(3) -0.020(3)
C103 0.059(6) 0.051(5) 0.042(5) 0.024(4) -0.012(4) -0.027(4)
C104 0.037(4) 0.039(4) 0.050(5) 0.024(4) 0.000(3) -0.008(3)
C105 0.033(4) 0.041(4) 0.036(4) 0.018(3) 0.003(3) 0.007(3)
C106 0.023(3) 0.036(4) 0.033(4) 0.008(3) 0.002(3) 0.001(3)
C201 0.017(3) 0.026(3) 0.020(3) 0.004(2) -0.002(2) 0.003(2)
N202 0.052(5) 0.046(4) 0.044(4) 0.019(3) -0.001(3) -0.005(3)
C202 0.021(3) 0.026(3) 0.022(3) 0.004(2) -0.001(2) -0.004(2)
C203 0.026(3) 0.028(3) 0.026(3) 0.010(2) -0.002(2) -0.008(3)
C204 0.025(3) 0.038(4) 0.027(3) 0.015(3) -0.002(3) -0.007(3)
C205 0.021(3) 0.037(4) 0.025(3) 0.006(3) 0.002(2) -0.002(3)
C206 0.020(3) 0.032(3) 0.023(3) 0.006(2) -0.004(2) 0.001(2)
C207 0.033(4) 0.030(3) 0.029(3) 0.007(3) -0.003(3) -0.005(3)
loop_
_atom_type_symbol
_atom_type_description
_atom_type_scat_dispersion_real
_atom_type_scat_dispersion_imag
_atom_type_scat_source
C C 0.0034 0.0017 'Calculated using XDISP in WinGX (Farrugia, 1999)'
H H 0.0000 0.0000 'Calculated using XDISP in WinGX (Farrugia, 1999)'
N N 0.0066 0.0035 'Calculated using XDISP in WinGX (Farrugia, 1999)'
Pt Pt -1.8603 8.7762 'Calculated using XDISP in WinGX (Farrugia, 1999)'
loop_
_geom_angle_atom_site_label_1
_geom_angle_atom_site_label_2
_geom_angle_atom_site_label_3
_geom_angle
N4 Pt1 N1 80.0(2)
N4 Pt1 N3 92.5(2)
N1 Pt1 N3 172.3(2)
N4 Pt1 N2 173.1(2)
N1 Pt1 N2 93.2(2)
N3 Pt1 N2 94.4(2)
N4 Pt1 C201 88.9(2)
N1 Pt1 C201 89.3(2)
N3 Pt1 C201 91.8(2)
N2 Pt1 C201 91.8(2)
N4 Pt1 N101 89.5(2)
N1 Pt1 N101 88.6(2)
N3 Pt1 N101 90.2(2)
N2 Pt1 N101 89.6(2)
C201 Pt1 N101 177.5(2)
N1 C1 C2 107.3(6)
N1 C1 C19 112.7(5)
C2 C1 C19 140.0(6)
C1 N1 C4 111.9(5)
C1 N1 Pt1 117.2(4)
C4 N1 Pt1 129.4(4)
C9 N2 C6 111.7(5)
C9 N2 Pt1 124.8(5)
C6 N2 Pt1 123.4(4)
C3 C2 C1 106.6(5)
C3 C2 H2 126.7
C1 C2 H2 126.7
C11 N3 C14 110.5(5)
C11 N3 Pt1 125.2(4)
C14 N3 Pt1 124.3(4)
C2 C3 C4 109.0(6)
C2 C3 H3 125.5
C4 C3 H3 125.5
N2 C6 C5 127.1(6)
N2 C6 C7 105.0(5)
C5 C6 C7 127.9(6)
C6 C5 C4 125.1(6)
C6 C5 C20 118.6(6)
C4 C5 C20 116.1(5)
C16 N4 C19 113.6(5)
C16 N4 Pt1 130.1(4)
C19 N4 Pt1 116.3(4)
N1 C4 C3 105.2(6)
N1 C4 C5 121.0(6)
C3 C4 C5 133.5(6)
C8 C7 C6 109.2(6)
C8 C7 H7 125.4
C6 C7 H7 125.4
C7 C8 C9 107.9(5)
C7 C8 H8 126.0
C9 C8 H8 126.0
N2 C9 C10 125.4(6)
N2 C9 C8 106.1(6)
C10 C9 C8 128.5(6)
C9 C10 C11 125.5(5)
C9 C10 C26 118.3(5)
C11 C10 C26 116.1(6)
N3 C11 C10 124.7(6)
N3 C11 C12 107.3(5)
C10 C11 C12 128.0(6)
C13 C12 C11 108.3(6)
C13 C12 H12 125.9
C11 C12 H12 125.9
C12 C13 C14 107.5(6)
C12 C13 H13 126.3
C14 C13 H13 126.3
N3 C14 C15 127.0(6)
N3 C14 C13 106.5(5)
C15 C14 C13 126.5(6)
C14 C15 C16 124.3(6)
C14 C15 C32 118.9(6)
C16 C15 C32 116.8(5)
N4 C16 C15 121.7(6)
N4 C16 C17 105.0(6)
C15 C16 C17 133.2(6)
C18 C17 C16 108.6(6)
C18 C17 H17 125.7
C16 C17 H17 125.7
C17 C18 C19 107.5(6)
C17 C18 H18 126.3
C19 C18 H18 126.3
N4 C19 C18 105.3(6)
N4 C19 C1 113.2(5)
C18 C19 C1 141.4(6)
C21 C20 C25 118.3(6)
C21 C20 C5 120.2(6)
C25 C20 C5 121.5(6)
C20 C21 C22 120.7(7)
C20 C21 H21 119.6
C22 C21 H21 119.6
C23 C22 C21 119.6(7)
C23 C22 H22 120.2
C21 C22 H22 120.2
C24 C23 C22 120.9(7)
C24 C23 H23 119.5
C22 C23 H23 119.5
C23 C24 C25 120.2(7)
C23 C24 H24 119.9
C25 C24 H24 119.9
C24 C25 C20 120.2(6)
C24 C25 H25 119.9
C20 C25 H25 119.9
C27 C26 C31 118.4(6)
C27 C26 C10 121.5(6)
C31 C26 C10 120.2(6)
C28 C27 C26 121.7(7)
C28 C27 H27 119.2
C26 C27 H27 119.2
C27 C28 C29 120.0(7)
C27 C28 H28 120.0
C29 C28 H28 120.0
C30 C29 C28 119.3(6)
C30 C29 H29 120.4
C28 C29 H29 120.4
C29 C30 C31 120.9(6)
C29 C30 H30 119.6
C31 C30 H30 119.6
C30 C31 C26 119.7(6)
C30 C31 H31 120.1
C26 C31 H31 120.1
C33 C32 C37 119.3(6)
C33 C32 C15 121.3(6)
C37 C32 C15 119.4(6)
C34 C33 C32 120.5(7)
C34 C33 H33 119.8
C32 C33 H33 119.8
C35 C34 C33 121.0(7)
C35 C34 H34 119.5
C33 C34 H34 119.5
C34 C35 C36 119.4(7)
C34 C35 H35 120.3
C36 C35 H35 120.3
C37 C36 C35 119.5(7)
C37 C36 H36 120.3
C35 C36 H36 120.3
C32 C37 C36 120.3(7)
C32 C37 H37 119.8
C36 C37 H37 119.8
C106 N101 C102 117.7(6)
C106 N101 Pt1 123.0(5)
C102 N101 Pt1 119.3(5)
N101 C102 C103 123.3(7)
N101 C102 H102 118.3
C103 C102 H102 118.3
C104 C103 C102 118.5(8)
C104 C103 H103 120.8
C102 C103 H103 120.8
C105 C104 C103 119.0(8)
C105 C104 H104 120.5
C103 C104 H104 120.5
C104 C105 C106 119.7(7)
C104 C105 H105 120.1
C106 C105 H105 120.1
N101 C106 C105 121.6(7)
N101 C106 H106 119.2
C105 C106 H106 119.2
C206 C201 C202 118.5(6)
C206 C201 Pt1 121.7(5)
C202 C201 Pt1 119.6(5)
C201 C202 C203 119.9(6)
C201 C202 H202 120.1
C203 C202 H202 120.1
C204 C203 C202 122.0(6)
C204 C203 C207 120.7(6)
C202 C203 C207 117.3(6)
C203 C204 C205 118.2(7)
C203 C204 H204 120.9
C205 C204 H204 120.9
C204 C205 C206 120.5(6)
C204 C205 H205 119.7
C206 C205 H205 119.7
C201 C206 C205 120.9(6)
C201 C206 H206 119.5
C205 C206 H206 119.5
N202 C207 C203 178.7(8)
loop_
_geom_bond_atom_site_label_1
_geom_bond_atom_site_label_2
_geom_bond_distance
Pt1 N4 1.944(5)
Pt1 N1 1.944(5)
Pt1 N3 1.955(6)
Pt1 N2 1.966(5)
Pt1 C201 2.033(7)
Pt1 N101 2.216(6)
C1 N1 1.353(8)
C1 C2 1.416(9)
C1 C19 1.435(9)
N1 C4 1.370(9)
N2 C9 1.360(8)
N2 C6 1.384(9)
C2 C3 1.390(9)
C2 H2 0.9500
N3 C11 1.365(8)
N3 C14 1.370(8)
C3 C4 1.418(9)
C3 H3 0.9500
C6 C5 1.406(9)
C6 C7 1.435(9)
C5 C4 1.428(9)
C5 C20 1.477(9)
N4 C16 1.344(9)
N4 C19 1.373(8)
C7 C8 1.356(9)
C7 H7 0.9500
C8 C9 1.442(9)
C8 H8 0.9500
C9 C10 1.398(9)
C10 C11 1.421(9)
C10 C26 1.490(8)
C11 C12 1.432(9)
C12 C13 1.360(9)
C12 H12 0.9500
C13 C14 1.455(9)
C13 H13 0.9500
C14 C15 1.408(9)
C15 C16 1.425(9)
C15 C32 1.496(9)
C16 C17 1.438(9)
C17 C18 1.386(10)
C17 H17 0.9500
C18 C19 1.428(9)
C18 H18 0.9500
C20 C21 1.393(9)
C20 C25 1.401(9)
C21 C22 1.397(10)
C21 H21 0.9500
C22 C23 1.372(11)
C22 H22 0.9500
C23 C24 1.363(11)
C23 H23 0.9500
C24 C25 1.395(10)
C24 H24 0.9500
C25 H25 0.9500
C26 C27 1.380(9)
C26 C31 1.403(9)
C27 C28 1.372(10)
C27 H27 0.9500
C28 C29 1.390(11)
C28 H28 0.9500
C29 C30 1.375(11)
C29 H29 0.9500
C30 C31 1.391(9)
C30 H30 0.9500
C31 H31 0.9500
C32 C33 1.387(10)
C32 C37 1.388(9)
C33 C34 1.377(10)
C33 H33 0.9500
C34 C35 1.370(11)
C34 H34 0.9500
C35 C36 1.407(12)
C35 H35 0.9500
C36 C37 1.392(11)
C36 H36 0.9500
C37 H37 0.9500
N101 C106 1.327(9)
N101 C102 1.332(9)
C102 C103 1.381(11)
C102 H102 0.9500
C103 C104 1.373(12)
C103 H103 0.9500
C104 C105 1.346(11)
C104 H104 0.9500
C105 C106 1.405(11)
C105 H105 0.9500
C106 H106 0.9500
C201 C206 1.372(9)
C201 C202 1.389(9)
N202 C207 1.157(10)
C202 C203 1.390(9)
C202 H202 0.9500
C203 C204 1.366(10)
C203 C207 1.449(11)
C204 C205 1.378(10)
C204 H204 0.9500
C205 C206 1.400(10)
C205 H205 0.9500
C206 H206 0.9500
loop_
_geom_torsion_atom_site_label_1
_geom_torsion_atom_site_label_2
_geom_torsion_atom_site_label_3
_geom_torsion_atom_site_label_4
_geom_torsion
C2 C1 N1 C4 1.6(7)
C19 C1 N1 C4 -175.7(6)
C2 C1 N1 Pt1 169.1(4)
C19 C1 N1 Pt1 -8.2(7)
N1 C1 C2 C3 -1.6(7)
C19 C1 C2 C3 174.5(8)
C1 C2 C3 C4 1.1(8)
C9 N2 C6 C5 -175.7(6)
Pt1 N2 C6 C5 5.5(9)
C9 N2 C6 C7 2.2(7)
Pt1 N2 C6 C7 -176.6(4)
N2 C6 C5 C4 -7.2(11)
C7 C6 C5 C4 175.3(6)
N2 C6 C5 C20 168.5(6)
C7 C6 C5 C20 -9.1(10)
C1 N1 C4 C3 -0.9(7)
Pt1 N1 C4 C3 -166.5(5)
C1 N1 C4 C5 174.3(6)
Pt1 N1 C4 C5 8.7(9)
C2 C3 C4 N1 -0.2(7)
C2 C3 C4 C5 -174.5(7)
C6 C5 C4 N1 -0.3(10)
C20 C5 C4 N1 -176.0(6)
C6 C5 C4 C3 173.3(7)
C20 C5 C4 C3 -2.4(11)
N2 C6 C7 C8 -2.3(7)
C5 C6 C7 C8 175.7(6)
C6 C7 C8 C9 1.5(8)
C6 N2 C9 C10 178.8(6)
Pt1 N2 C9 C10 -2.4(9)
C6 N2 C9 C8 -1.4(7)
Pt1 N2 C9 C8 177.4(4)
C7 C8 C9 N2 -0.1(8)
C7 C8 C9 C10 179.7(7)
N2 C9 C10 C11 2.8(11)
C8 C9 C10 C11 -177.0(6)
N2 C9 C10 C26 -179.5(6)
C8 C9 C10 C26 0.7(10)
C14 N3 C11 C10 178.6(6)
Pt1 N3 C11 C10 1.1(9)
C14 N3 C11 C12 -1.2(7)
Pt1 N3 C11 C12 -178.6(4)
C9 C10 C11 N3 -2.1(10)
C26 C10 C11 N3 -179.9(6)
C9 C10 C11 C12 177.6(6)
C26 C10 C11 C12 -0.1(10)
N3 C11 C12 C13 0.2(7)
C10 C11 C12 C13 -179.6(6)
C11 C12 C13 C14 0.7(8)
C11 N3 C14 C15 -176.8(6)
Pt1 N3 C14 C15 0.7(10)
C11 N3 C14 C13 1.6(7)
Pt1 N3 C14 C13 179.1(4)
C12 C13 C14 N3 -1.4(7)
C12 C13 C14 C15 177.0(7)
N3 C14 C15 C16 -2.0(11)
C13 C14 C15 C16 179.8(6)
N3 C14 C15 C32 177.3(6)
C13 C14 C15 C32 -0.9(10)
C19 N4 C16 C15 -176.3(6)
Pt1 N4 C16 C15 2.4(10)
C19 N4 C16 C17 0.8(8)
Pt1 N4 C16 C17 179.4(5)
C14 C15 C16 N4 0.5(11)
C32 C15 C16 N4 -178.9(6)
C14 C15 C16 C17 -175.6(7)
C32 C15 C16 C17 5.1(11)
N4 C16 C17 C18 -0.8(8)
C15 C16 C17 C18 175.8(7)
C16 C17 C18 C19 0.5(8)
C16 N4 C19 C18 -0.5(8)
Pt1 N4 C19 C18 -179.3(4)
C16 N4 C19 C1 -178.5(6)
Pt1 N4 C19 C1 2.7(7)
C17 C18 C19 N4 -0.1(7)
C17 C18 C19 C1 177.0(9)
N1 C1 C19 N4 3.5(8)
C2 C1 C19 N4 -172.5(8)
N1 C1 C19 C18 -173.4(8)
C2 C1 C19 C18 10.6(16)
C6 C5 C20 C21 -55.3(9)
C4 C5 C20 C21 120.7(7)
C6 C5 C20 C25 127.4(7)
C4 C5 C20 C25 -56.6(8)
C25 C20 C21 C22 0.3(10)
C5 C20 C21 C22 -177.2(6)
C20 C21 C22 C23 -0.5(11)
C21 C22 C23 C24 1.0(11)
C22 C23 C24 C25 -1.2(11)
C23 C24 C25 C20 0.9(10)
C21 C20 C25 C24 -0.5(10)
C5 C20 C25 C24 176.9(6)
C9 C10 C26 C27 79.7(9)
C11 C10 C26 C27 -102.3(8)
C9 C10 C26 C31 -101.6(8)
C11 C10 C26 C31 76.3(8)
C31 C26 C27 C28 -1.5(12)
C10 C26 C27 C28 177.2(8)
C26 C27 C28 C29 1.3(13)
C27 C28 C29 C30 -1.1(13)
C28 C29 C30 C31 1.3(12)
C29 C30 C31 C26 -1.6(11)
C27 C26 C31 C30 1.7(11)
C10 C26 C31 C30 -177.0(7)
C14 C15 C32 C33 63.0(9)
C16 C15 C32 C33 -117.7(7)
C14 C15 C32 C37 -119.5(7)
C16 C15 C32 C37 59.9(9)
C37 C32 C33 C34 0.4(10)
C15 C32 C33 C34 178.0(6)
C32 C33 C34 C35 1.1(11)
C33 C34 C35 C36 -0.5(11)
C34 C35 C36 C37 -1.5(11)
C33 C32 C37 C36 -2.5(10)
C15 C32 C37 C36 179.9(7)
C35 C36 C37 C32 3.0(11)
C106 N101 C102 C103 -2.2(13)
Pt1 N101 C102 C103 176.8(7)
N101 C102 C103 C104 0.7(15)
C102 C103 C104 C105 1.2(14)
C103 C104 C105 C106 -1.6(13)
C102 N101 C106 C105 1.8(10)
Pt1 N101 C106 C105 -177.2(5)
C104 C105 C106 N101 0.1(11)
C206 C201 C202 C203 1.6(9)
Pt1 C201 C202 C203 176.2(4)
C201 C202 C203 C204 -1.1(9)
C201 C202 C203 C207 -179.2(6)
C202 C203 C204 C205 0.8(10)
C207 C203 C204 C205 178.9(6)
C203 C204 C205 C206 -1.0(10)
C202 C201 C206 C205 -1.9(9)
Pt1 C201 C206 C205 -176.3(5)
C204 C205 C206 C201 1.6(10)
