#------------------------------------------------------------------------------
#$Date: 2019-11-17 13:36:00 +0200 (Sun, 17 Nov 2019) $
#$Revision: 230202 $
#$URL: file:///home/coder/svn-repositories/cod/cif/7/05/71/7057103.cif $
#------------------------------------------------------------------------------
#
# This file is available in the Crystallography Open Database (COD),
# http://www.crystallography.net/
#
# All data on this site have been placed in the public domain by the
# contributors.
#
data_7057103
loop_
_publ_author_name
'Savoldelli, A.'
'Nardis, S.'
'Genovese, D.'
'Prodi, L.'
'Fronczek, F. R.'
'Smith, K. M.'
'Paolesse, R.'
_publ_section_title
;
 Moving corrole towards a red-record: synthesis of \b-acrolein Ga and Cu
 corroles using the Vilsmeier reaction
;
_journal_issue                   10
_journal_name_full               'New Journal of Chemistry'
_journal_page_first              8200
_journal_paper_doi               10.1039/C7NJ04705C
_journal_volume                  42
_journal_year                    2018
_chemical_formula_moiety         'C52 H45 Ga N4 O5, 0.65(C H2 Cl2)'
_chemical_formula_sum            'C52.7 H46.4 Cl1.4 Ga N4 O5'
_chemical_formula_weight         934.48
_space_group_crystal_system      monoclinic
_space_group_IT_number           15
_space_group_name_Hall           '-C 2yc'
_space_group_name_H-M_alt        'C 1 2/c 1'
_symmetry_space_group_name_Hall  '-C 2yc'
_symmetry_space_group_name_H-M   'C 1 2/c 1'
_atom_sites_solution_hydrogens   mixed
_audit_creation_method           SHELXL-2018/1
_audit_update_record
;
2018-03-01 deposited with the CCDC.
2018-03-05 downloaded from the CCDC.
;
_cell_angle_alpha                90
_cell_angle_beta                 101.4310(10)
_cell_angle_gamma                90
_cell_formula_units_Z            8
_cell_length_a                   36.7663(9)
_cell_length_b                   17.2278(4)
_cell_length_c                   14.6878(3)
_cell_measurement_reflns_used    5512
_cell_measurement_temperature    90.0(5)
_cell_measurement_theta_max      23.38
_cell_measurement_theta_min      2.31
_cell_volume                     9118.7(4)
_computing_cell_refinement       'Bruker SAINT'
_computing_data_collection       'Bruker APEX3'
_computing_data_reduction        'Bruker SAINT'
_computing_structure_refinement  'SHELXL-2018/1 (Sheldrick, 2018)'
_computing_structure_solution    'SHELXS-97 (Sheldrick, 2008)'
_diffrn_ambient_temperature      90.0(5)
_diffrn_measured_fraction_theta_full 0.999
_diffrn_measured_fraction_theta_max 0.996
_diffrn_measurement_device_type  'Bruker Kappa APEX-II DUO'
_diffrn_measurement_method       '\f and \w scans'
_diffrn_radiation_monochromator  'TRIUMPH curved graphite'
_diffrn_radiation_source         'fine-focus sealed tube'
_diffrn_radiation_type           MoK\a
_diffrn_radiation_wavelength     0.71073
_diffrn_reflns_av_R_equivalents  0.0552
_diffrn_reflns_av_unetI/netI     0.0839
_diffrn_reflns_Laue_measured_fraction_full 0.999
_diffrn_reflns_Laue_measured_fraction_max 0.996
_diffrn_reflns_limit_h_max       42
_diffrn_reflns_limit_h_min       -46
_diffrn_reflns_limit_k_max       21
_diffrn_reflns_limit_k_min       -20
_diffrn_reflns_limit_l_max       18
_diffrn_reflns_limit_l_min       -18
_diffrn_reflns_number            33613
_diffrn_reflns_point_group_measured_fraction_full 0.999
_diffrn_reflns_point_group_measured_fraction_max 0.996
_diffrn_reflns_theta_full        25.000
_diffrn_reflns_theta_max         26.751
_diffrn_reflns_theta_min         1.844
_exptl_absorpt_coefficient_mu    0.739
_exptl_absorpt_correction_T_max  0.980
_exptl_absorpt_correction_T_min  0.883
_exptl_absorpt_correction_type   multi-scan
_exptl_absorpt_process_details   'SADABS (Sheldrick, 2004)'
_exptl_crystal_colour            'dark green'
_exptl_crystal_density_diffrn    1.361
_exptl_crystal_description       needle
_exptl_crystal_F_000             3881
_exptl_crystal_size_max          0.220
_exptl_crystal_size_mid          0.110
_exptl_crystal_size_min          0.030
_refine_diff_density_max         0.359
_refine_diff_density_min         -0.390
_refine_diff_density_rms         0.066
_refine_ls_extinction_method     none
_refine_ls_goodness_of_fit_ref   1.034
_refine_ls_hydrogen_treatment    mixed
_refine_ls_matrix_type           full
_refine_ls_number_parameters     594
_refine_ls_number_reflns         9678
_refine_ls_number_restraints     4
_refine_ls_restrained_S_all      1.034
_refine_ls_R_factor_all          0.1004
_refine_ls_R_factor_gt           0.0501
_refine_ls_shift/su_max          0.001
_refine_ls_shift/su_mean         0.000
_refine_ls_structure_factor_coef Fsqd
_refine_ls_weighting_details
'w=1/[\s^2^(Fo^2^)+(0.0524P)^2^+0.8008P] where P=(Fo^2^+2Fc^2^)/3'
_refine_ls_weighting_scheme      calc
_refine_ls_wR_factor_gt          0.1043
_refine_ls_wR_factor_ref         0.1184
_reflns_Friedel_coverage         0.000
_reflns_number_gt                6080
_reflns_number_total             9678
_reflns_threshold_expression     'I > 2\s(I)'
_cod_data_source_file            c7nj04705c1.cif
_cod_data_source_block           AS3_2016
_cod_depositor_comments
'Adding full bibliography for 7057102--7057103.cif.'
_cod_original_formula_sum        'C52.70 H46.40 Cl1.40 Ga N4 O5'
_cod_database_code               7057103
_shelx_shelxl_version_number     2018/1
_shelx_space_group_comment
;
The symmetry employed for this shelxl refinement is uniquely defined
by the following loop, which should always be used as a source of
symmetry information in preference to the above space-group names.
They are only intended as comments.
;
_shelx_estimated_absorpt_t_min   0.854
_shelx_estimated_absorpt_t_max   0.978
_shelx_res_file
;

TITL Roberto90 in C2/c
    shelx.res
    created by SHELXL-2018/1 at 13:26:58 on 01-Mar-2018
CELL  0.71073  36.7663  17.2278  14.6878   90.000  101.431   90.000
ZERR    8.000   0.0009   0.0004   0.0003    0.000    0.001    0.000
LATT 7
SYMM -X,+Y,0.5-Z
SFAC C H Cl Ga N O
UNIT 421.2 371.2 11.2 8 32 40
DFIX 0.84 O5 H5O
SADI O1B C22B O1A C22A
SADI O2A C22A O2B C22B
SADI O2B C24A O2A C24B
L.S. 15 0   39
PLAN  10
SIZE 0.03 0.11 0.22
TEMP -183
EQIV $1 +X,2-Y,-0.5+Z
HTAB O5 O3_$1
BOND $H
FMAP 2
ACTA 50
OMIT 1 1 0
ABIN
WGHT    0.052400    0.800800
FVAR       0.14453
GA1   4    0.681206    0.743936    0.223662    11.00000    0.03117    0.02006 =
         0.02036   -0.00515    0.00972   -0.00304
PART 1
O1B   6    0.813974    0.875631    0.675626    10.70000    0.02038    0.01678 =
         0.02568    0.00502    0.00573    0.00471
O2B   6    0.792728    1.003569    0.666251    10.70000    0.04161    0.01481 =
         0.02290    0.00057    0.01038   -0.00147
PART 0
O3    6    0.627994    1.048310    0.672692    11.00000    0.04590    0.01951 =
         0.03055   -0.00754    0.01774    0.00094
O4    6    0.926057    0.825796    0.408606    11.00000    0.04280    0.08523 =
         0.05611    0.00546   -0.00086   -0.00896
O5    6    0.678327    0.843798    0.144069    11.00000    0.03372    0.02010 =
         0.02812    0.00170    0.01356    0.00104
H5O   2    0.665258    0.879554    0.156917    11.00000   -1.50000
N1    5    0.675057    0.800255    0.333415    11.00000    0.02864    0.01769 =
         0.02081   -0.00206    0.00815   -0.00308
N2    5    0.629318    0.724817    0.191386    11.00000    0.03050    0.01872 =
         0.02015   -0.00363    0.00910   -0.00077
N3    5    0.694685    0.675588    0.133769    11.00000    0.02818    0.01778 =
         0.02098   -0.00210    0.00972   -0.00198
N4    5    0.732869    0.757724    0.280714    11.00000    0.03114    0.01964 =
         0.02062   -0.00139    0.00700   -0.00338
C1    1    0.706845    0.823704    0.391823    11.00000    0.03636    0.01675 =
         0.01816    0.00011    0.00317   -0.00294
C2    1    0.696956    0.862599    0.467965    11.00000    0.04561    0.01266 =
         0.02036   -0.00084    0.00858   -0.00242
PART 2
AFIX  43
H2    2    0.713401    0.884776    0.519469    10.30000   -1.20000
AFIX   0
PART 0
C3    1    0.657684    0.862041    0.452439    11.00000    0.04618    0.01663 =
         0.01810    0.00053    0.01444   -0.00264
C4    1    0.644562    0.821626    0.366011    11.00000    0.03718    0.01457 =
         0.02108    0.00026    0.01225   -0.00099
C5    1    0.608722    0.803856    0.314219    11.00000    0.03502    0.01337 =
         0.02053    0.00230    0.01448    0.00074
C6    1    0.602140    0.759211    0.232127    11.00000    0.02964    0.01818 =
         0.02240    0.00393    0.01069    0.00085
C7    1    0.567070    0.739105    0.176738    11.00000    0.02855    0.02543 =
         0.02808    0.00390    0.01122    0.00470
AFIX  43
H7    2    0.543572    0.754989    0.187721    11.00000   -1.20000
AFIX   0
C8    1    0.572831    0.693554    0.105798    11.00000    0.03427    0.02623 =
         0.02409   -0.00301    0.00228   -0.00154
AFIX  43
H8    2    0.554171    0.672262    0.058282    11.00000   -1.20000
AFIX   0
C9    1    0.611994    0.683184    0.115097    11.00000    0.03226    0.01909 =
         0.01984    0.00071    0.00669   -0.00060
C10   1    0.630965    0.638693    0.057982    11.00000    0.03768    0.01273 =
         0.02122   -0.00237    0.01159   -0.00554
C11   1    0.669723    0.635037    0.068736    11.00000    0.03420    0.01389 =
         0.01981    0.00085    0.01105   -0.00358
C12   1    0.690757    0.590197    0.014166    11.00000    0.04245    0.01541 =
         0.02051   -0.00412    0.01092   -0.00136
AFIX  43
H12   2    0.680763    0.556736   -0.035979    11.00000   -1.20000
AFIX   0
C13   1    0.727120    0.604156    0.046895    11.00000    0.03448    0.01866 =
         0.02652    0.00192    0.01455    0.00392
AFIX  43
H13   2    0.747131    0.582197    0.023515    11.00000   -1.20000
AFIX   0
C14   1    0.730484    0.657620    0.122782    11.00000    0.03284    0.01685 =
         0.02379    0.00332    0.00866    0.00253
C15   1    0.763575    0.686035    0.177057    11.00000    0.03466    0.01533 =
         0.02623    0.00501    0.01082    0.00117
C16   1    0.765054    0.734193    0.256285    11.00000    0.02795    0.01939 =
         0.02300    0.00546    0.00553   -0.00027
C17   1    0.795109    0.765219    0.324857    11.00000    0.03241    0.01618 =
         0.03209    0.00435    0.00140    0.00180
C18   1    0.778804    0.805372    0.390077    11.00000    0.03760    0.01471 =
         0.02731    0.00257   -0.00293   -0.00271
PART 1
AFIX  43
H18   2    0.791653    0.831608    0.443809    10.70000   -1.20000
AFIX   0
PART 0
C19   1    0.740343    0.799668    0.361523    11.00000    0.03653    0.01504 =
         0.02063    0.00077    0.00626   -0.00317
PART 1
C20   1    0.724504    0.885756    0.553863    10.70000    0.03168    0.01208 =
         0.01944   -0.00196    0.01166    0.00183
AFIX  43
H20   2    0.716077    0.878974    0.610449    10.70000   -1.20000
AFIX   0
C21   1    0.758443    0.913933    0.563336    10.70000    0.02785    0.01663 =
         0.01660    0.00176    0.00973   -0.00112
AFIX  43
H21   2    0.768075    0.926634    0.509779    10.70000   -1.20000
AFIX   0
C22B  1    0.781772    0.925954    0.657718    10.70000    0.02324    0.01416 =
         0.02986    0.00061    0.01077    0.00101
AFIX  13
H22B  2    0.766277    0.914780    0.704970    10.70000   -1.20000
AFIX   0
PART 0
PART 2
C20A  1    0.791809    0.837556    0.492084    10.30000    0.02208
AFIX  43
H20A  2    0.811553    0.809069    0.528720    10.30000   -1.20000
AFIX   0
C21A  1    0.780291    0.896432    0.535303    10.30000    0.02240
AFIX  43
H21A  2    0.763691    0.932183    0.499389    10.30000   -1.20000
AFIX   0
PART 0
PART 1
C23B  1    0.841571    0.890746    0.623079    10.70000    0.02699    0.03960 =
         0.02282   -0.00095    0.00613   -0.00238
AFIX  33
H23A  2    0.861992    0.853688    0.640435    10.70000   -1.50000
H23B  2    0.830838    0.885332    0.556779    10.70000   -1.50000
H23C  2    0.850991    0.943684    0.635641    10.70000   -1.50000
AFIX   0
PART 0
PART 2
C24B  1    0.797493    1.013094    0.750706    10.30000    0.03613
AFIX  33
H24A  2    0.799162    1.069632    0.757643    10.30000   -1.50000
H24B  2    0.775561    0.994280    0.772524    10.30000   -1.50000
H24C  2    0.819810    0.989112    0.787519    10.30000   -1.50000
AFIX   0
PART 0
C25   1    0.635409    0.896792    0.512165    11.00000    0.04776    0.01741 =
         0.02324    0.00087    0.01501   -0.00415
AFIX  43
H25   2    0.611040    0.876967    0.508314    11.00000   -1.20000
AFIX   0
C26   1    0.646191    0.954942    0.572934    11.00000    0.03621    0.02143 =
         0.02866   -0.00277    0.01109    0.00125
AFIX  43
H26   2    0.670918    0.973700    0.580897    11.00000   -1.20000
AFIX   0
C27   1    0.621746    0.989253    0.625667    11.00000    0.03680    0.02424 =
         0.02747   -0.00030    0.01064   -0.00190
AFIX  43
H27   2    0.598626    0.964178    0.624228    11.00000   -1.20000
AFIX   0
C28   1    0.575196    0.832605    0.346556    11.00000    0.02959    0.02192 =
         0.02520   -0.00468    0.01198   -0.00469
C29   1    0.562413    0.908046    0.325970    11.00000    0.03234    0.02507 =
         0.02951   -0.00087    0.01283   -0.00197
AFIX  43
H29   2    0.575220    0.941190    0.291279    11.00000   -1.20000
AFIX   0
C30   1    0.531274    0.935110    0.355549    11.00000    0.03687    0.02286 =
         0.04097   -0.00787    0.01177    0.00196
AFIX  43
H30   2    0.523152    0.986798    0.340995    11.00000   -1.20000
AFIX   0
C31   1    0.511662    0.888667    0.405857    11.00000    0.02629    0.04321 =
         0.04385   -0.02225    0.01444   -0.00710
C32   1    0.524845    0.813638    0.427306    11.00000    0.04783    0.03594 =
         0.04257   -0.01059    0.02756   -0.01744
AFIX  43
H32   2    0.512227    0.780862    0.462842    11.00000   -1.20000
AFIX   0
C33   1    0.555848    0.785969    0.397995    11.00000    0.04675    0.02010 =
         0.03728   -0.00388    0.01984   -0.00744
AFIX  43
H33   2    0.564071    0.734435    0.413145    11.00000   -1.20000
AFIX   0
C34   1    0.476740    0.916699    0.434574    11.00000    0.03333    0.04986 =
         0.07111   -0.02614    0.02370   -0.00955
AFIX 137
H34A  2    0.455074    0.894159    0.393378    11.00000   -1.50000
H34B  2    0.475483    0.973437    0.430285    11.00000   -1.50000
H34C  2    0.476969    0.900718    0.498720    11.00000   -1.50000
AFIX   0
C35   1    0.608627    0.590840   -0.017871    11.00000    0.03400    0.02648 =
         0.02572   -0.00629    0.00626   -0.00004
C36   1    0.607581    0.608483   -0.110643    11.00000    0.07422    0.03630 =
         0.03219   -0.00505    0.00051   -0.01576
AFIX  43
H36   2    0.620651    0.652509   -0.126257    11.00000   -1.20000
AFIX   0
C37   1    0.587751    0.562733   -0.180412    11.00000    0.08876    0.05349 =
         0.02869   -0.00834   -0.00179   -0.00476
AFIX  43
H37   2    0.586733    0.576889   -0.243379    11.00000   -1.20000
AFIX   0
C38   1    0.569503    0.497337   -0.160800    11.00000    0.05586    0.04819 =
         0.05249   -0.02546    0.00933   -0.01381
C39   1    0.571360    0.478864   -0.068540    11.00000    0.07919    0.04873 =
         0.05660   -0.02187    0.01924   -0.03109
AFIX  43
H39   2    0.559157    0.433562   -0.053063    11.00000   -1.20000
AFIX   0
C40   1    0.590495    0.524687    0.001237    11.00000    0.06130    0.03884 =
         0.03831   -0.01256    0.01420   -0.02058
AFIX  43
H40   2    0.591250    0.510470    0.064077    11.00000   -1.20000
AFIX   0
C41   1    0.549434    0.446438   -0.239250    11.00000    0.09521    0.09705 =
         0.07502   -0.04983    0.00870   -0.04070
AFIX 137
H41A  2    0.532242    0.478261   -0.283546    11.00000   -1.50000
H41B  2    0.535526    0.406038   -0.213871    11.00000   -1.50000
H41C  2    0.567576    0.422153   -0.270981    11.00000   -1.50000
AFIX   0
C42   1    0.799036    0.663018    0.149128    11.00000    0.02732    0.02142 =
         0.02713    0.00222    0.00577    0.00418
C43   1    0.816746    0.715073    0.100468    11.00000    0.03504    0.02010 =
         0.03669    0.00684    0.00701    0.00509
AFIX  43
H43   2    0.806013    0.764578    0.084266    11.00000   -1.20000
AFIX   0
C44   1    0.849952    0.695528    0.075269    11.00000    0.03098    0.02758 =
         0.03336    0.00424    0.00694   -0.00113
AFIX  43
H44   2    0.861769    0.732167    0.042453    11.00000   -1.20000
AFIX   0
C45   1    0.866260    0.623697    0.096939    11.00000    0.03164    0.02651 =
         0.02782   -0.00409    0.00570    0.00458
C46   1    0.847905    0.570533    0.143046    11.00000    0.04231    0.02398 =
         0.03095    0.00300    0.00898    0.01210
AFIX  43
H46   2    0.858246    0.520436    0.157504    11.00000   -1.20000
AFIX   0
C47   1    0.814597    0.590064    0.168118    11.00000    0.04064    0.02282 =
         0.02814    0.00494    0.01066    0.00201
AFIX  43
H47   2    0.802257    0.552792    0.198815    11.00000   -1.20000
AFIX   0
C48   1    0.902913    0.605605    0.070435    11.00000    0.03512    0.03652 =
         0.04742   -0.00560    0.01025    0.00272
AFIX 137
H48A  2    0.902692    0.624739    0.007494    11.00000   -1.50000
H48B  2    0.906903    0.549335    0.072372    11.00000   -1.50000
H48C  2    0.922972    0.630978    0.114210    11.00000   -1.50000
AFIX   0
C49   1    0.834406    0.757604    0.327594    11.00000    0.03847    0.02348 =
         0.03790    0.00517   -0.00227    0.00849
AFIX  43
H49   2    0.841608    0.718238    0.289462    11.00000   -1.20000
AFIX   0
C50   1    0.861991    0.799868    0.377954    11.00000    0.03904    0.03765 =
         0.03613    0.00217    0.00305    0.00193
AFIX  43
H50   2    0.856456    0.838494    0.419327    11.00000   -1.20000
AFIX   0
C51   1    0.899585    0.786992    0.369573    11.00000    0.03824    0.05186 =
         0.04758    0.00969   -0.00396    0.00659
AFIX  43
H51   2    0.904388    0.745465    0.331066    11.00000   -1.20000
AFIX   0
C52   1    0.710178    0.877813    0.118231    11.00000    0.03702    0.03630 =
         0.04645    0.01071    0.02083    0.00155
AFIX 137
H52A  2    0.722842    0.911305    0.168595    11.00000   -1.50000
H52B  2    0.702450    0.908776    0.061734    11.00000   -1.50000
H52C  2    0.727123    0.836727    0.106614    11.00000   -1.50000
AFIX   0

PART 2
C22A  1    0.792013    0.911730    0.641740    10.30000    0.02438
AFIX  13
H22A  2    0.771413    0.892924    0.671449    10.30000   -1.20000
AFIX   0
C23A  1    0.857567    0.901179    0.655771    10.30000    0.02935
AFIX  33
H23D  2    0.879290    0.871385    0.686295    10.30000   -1.50000
H23E  2    0.854813    0.896715    0.588232    10.30000   -1.50000
H23F  2    0.860864    0.955858    0.673931    10.30000   -1.50000
AFIX   0
O1A   6    0.824701    0.871032    0.683604    10.30000    0.02604
O2A   6    0.794467    0.992835    0.654054    10.30000    0.03007
PART 0
PART 1
C24A  1    0.810394    1.024648    0.759368    10.70000    0.04074    0.02416 =
         0.02313   -0.00688    0.00840   -0.00466
AFIX  33
H24D  2    0.817426    1.079574    0.760949    10.70000   -1.50000
H24E  2    0.793150    1.015947    0.801386    10.70000   -1.50000
H24F  2    0.832633    0.992772    0.779162    10.70000   -1.50000

AFIX   0
HKLF 4




REM  Roberto90 in C2/c
REM R1 =  0.0501 for    6080 Fo > 4sig(Fo)  and  0.1004 for all    9678 data
REM    594 parameters refined using      4 restraints

END

WGHT      0.0525      0.6191

REM Highest difference peak  0.359,  deepest hole -0.390,  1-sigma level  0.066
Q1    1   0.6754  0.7876  0.2811  11.00000  0.05    0.36
Q2    1   0.7107  0.7790  0.2443  11.00000  0.05    0.35
Q3    1   0.6675  0.6928  0.2018  11.00000  0.05    0.35
Q4    1   0.9211  0.7323  0.3801  11.00000  0.05    0.33
Q5    1   0.9628  0.8324  0.4197  11.00000  0.05    0.33
Q6    1   0.5846  0.6413 -0.1003  11.00000  0.05    0.32
Q7    1   0.7231  0.7294  0.2806  11.00000  0.05    0.32
Q8    1   0.7452  0.7618  0.2615  11.00000  0.05    0.32
Q9    1   0.6726  0.8085  0.1970  11.00000  0.05    0.31
Q10   1   0.7060  0.7829  0.4014  11.00000  0.05    0.30
;
_shelx_res_checksum              77567
_shelx_fab_file
;
    4    0    0    232.44      0.00
    6    0    0    158.82      0.00
    8    0    0     87.18      0.00
   10    0    0     30.38      0.00
   12    0    0     -7.60      0.00
   16    0    0    -36.65      0.00
   18    0    0    -34.10      0.00
   20    0    0    -23.90      0.00
   22    0    0     -9.81      0.00
   24    0    0      3.80      0.00
   26    0    0     13.82      0.00
   28    0    0     19.62      0.00
   30    0    0     22.43      0.00
   32    0    0     23.44      0.00
   34    0    0     22.58      0.00
   36    0    0     19.13      0.00
   38    0    0     13.23      0.00
   40    0    0      6.60      0.00
   42    0    0      1.52      0.00
   44    0    0     -0.85      0.00
    3    1    0    -15.32      0.00
    5    1    0     -2.02      0.00
    7    1    0     11.70      0.00
    9    1    0     22.18      0.00
   11    1    0     28.07      0.00
   13    1    0     30.02      0.00
   15    1    0     29.43      0.00
   17    1    0     27.31      0.00
   19    1    0     24.04      0.00
   21    1    0     19.83      0.00
   23    1    0     15.12      0.00
   25    1    0     10.53      0.00
   27    1    0      6.49      0.00
   29    1    0      3.08      0.00
   31    1    0      0.19      0.00
   33    1    0     -2.18      0.00
   35    1    0     -3.77      0.00
   37    1    0     -4.39      0.00
   39    1    0     -4.13      0.00
   41    1    0     -3.43      0.00
   43    1    0     -2.75      0.00
   45    1    0     -2.27      0.00
    0    2    0   -123.36      0.00
    2    2    0   -114.66      0.00
    4    2    0    -91.59      0.00
    6    2    0    -61.57      0.00
    8    2    0    -32.52      0.00
   10    2    0     -9.51      0.00
   12    2    0      6.05      0.00
   14    2    0     15.00      0.00
   16    2    0     18.53      0.00
   18    2    0     17.46      0.00
   20    2    0     12.75      0.00
   22    2    0      6.08      0.00
   24    2    0     -0.41      0.00
   26    2    0     -5.19      0.00
   28    2    0     -8.00      0.00
   30    2    0     -9.47      0.00
   32    2    0    -10.22      0.00
   34    2    0    -10.18      0.00
   36    2    0     -8.93      0.00
   38    2    0     -6.46      0.00
   40    2    0     -3.56      0.00
   42    2    0     -1.27      0.00
   44    2    0     -0.14      0.00
    1    3    0     37.12      0.00
    3    3    0     30.36      0.00
    5    3    0     18.58      0.00
    7    3    0      4.55      0.00
    9    3    0     -8.87      0.00
   11    3    0    -19.65      0.00
   13    3    0    -26.86      0.00
   15    3    0    -30.47      0.00
   17    3    0    -30.93      0.00
   19    3    0    -28.80      0.00
   21    3    0    -24.71      0.00
   23    3    0    -19.37      0.00
   25    3    0    -13.64      0.00
   27    3    0     -8.34      0.00
   29    3    0     -4.05      0.00
   31    3    0     -0.92      0.00
   33    3    0      1.25      0.00
   35    3    0      2.72      0.00
   37    3    0      3.60      0.00
   39    3    0      3.89      0.00
   41    3    0      3.56      0.00
   43    3    0      2.79      0.00
   45    3    0      1.89      0.00
    0    4    0    -28.24      0.00
    2    4    0    -27.32      0.00
    4    4    0    -24.56      0.00
    6    4    0    -20.02      0.00
    8    4    0    -14.17      0.00
   10    4    0     -7.96      0.00
   12    4    0     -2.42      0.00
   14    4    0      1.79      0.00
   16    4    0      4.61      0.00
   18    4    0      6.40      0.00
   20    4    0      7.46      0.00
   22    4    0      7.74      0.00
   24    4    0      7.04      0.00
   26    4    0      5.31      0.00
   28    4    0      2.87      0.00
   30    4    0      0.28      0.00
   32    4    0     -1.92      0.00
   34    4    0     -3.41      0.00
   36    4    0     -4.07      0.00
   38    4    0     -3.84      0.00
   40    4    0     -2.80      0.00
   42    4    0     -1.22      0.00
   44    4    0      0.37      0.00
    1    5    0     43.06      0.00
    3    5    0     35.34      0.00
    5    5    0     22.82      0.00
    7    5    0      9.53      0.00
    9    5    0     -1.56      0.00
   11    5    0     -9.48      0.00
   13    5    0    -14.56      0.00
   15    5    0    -17.18      0.00
   17    5    0    -17.18      0.00
   19    5    0    -14.38      0.00
   21    5    0     -9.37      0.00
   23    5    0     -3.63      0.00
   25    5    0      1.29      0.00
   27    5    0      4.64      0.00
   29    5    0      6.66      0.00
   31    5    0      7.85      0.00
   33    5    0      8.29      0.00
   35    5    0      7.64      0.00
   37    5    0      5.72      0.00
   39    5    0      3.10      0.00
   41    5    0      0.85      0.00
   43    5    0     -0.19      0.00
    0    6    0      2.61      0.00
    2    6    0      3.81      0.00
    4    6    0      6.77      0.00
    6    6    0      9.91      0.00
    8    6    0     11.82      0.00
   10    6    0     11.98      0.00
   12    6    0     10.67      0.00
   14    6    0      8.36      0.00
   16    6    0      5.25      0.00
   18    6    0      1.33      0.00
   20    6    0     -3.07      0.00
   22    6    0     -7.06      0.00
   24    6    0     -9.43      0.00
   26    6    0     -9.42      0.00
   28    6    0     -7.18      0.00
   30    6    0     -3.68      0.00
   32    6    0     -0.17      0.00
   34    6    0      2.48      0.00
   36    6    0      3.98      0.00
   38    6    0      4.47      0.00
   40    6    0      4.23      0.00
   42    6    0      3.61      0.00
    1    7    0    -80.08      0.00
    3    7    0    -69.22      0.00
    5    7    0    -50.38      0.00
    7    7    0    -27.88      0.00
    9    7    0     -5.81      0.00
   11    7    0     13.02      0.00
   13    7    0     26.92      0.00
   15    7    0     34.88      0.00
   17    7    0     36.46      0.00
   19    7    0     32.14      0.00
   21    7    0     23.62      0.00
   23    7    0     13.36      0.00
   25    7    0      3.61      0.00
   27    7    0     -4.31      0.00
   29    7    0     -9.93      0.00
   31    7    0    -13.06      0.00
   33    7    0    -13.35      0.00
   35    7    0    -10.60      0.00
   37    7    0     -5.49      0.00
   39    7    0      0.21      0.00
   41    7    0      4.38      0.00
   43    7    0      5.73      0.00
    0    8    0     36.15      0.00
    2    8    0     32.79      0.00
    4    8    0     23.53      0.00
    6    8    0     10.51      0.00
    8    8    0     -3.57      0.00
   10    8    0    -16.14      0.00
   12    8    0    -25.26      0.00
   14    8    0    -29.79      0.00
   16    8    0    -29.46      0.00
   18    8    0    -24.94      0.00
   20    8    0    -17.75      0.00
   22    8    0     -9.84      0.00
   24    8    0     -2.99      0.00
   26    8    0      1.78      0.00
   28    8    0      4.34      0.00
   30    8    0      5.18      0.00
   32    8    0      4.90      0.00
   34    8    0      3.92      0.00
   36    8    0      2.52      0.00
   38    8    0      1.04      0.00
   40    8    0     -0.08      0.00
   42    8    0     -0.51      0.00
    1    9    0     25.02      0.00
    3    9    0     21.34      0.00
    5    9    0     15.01      0.00
    7    9    0      7.53      0.00
    9    9    0      0.24      0.00
   11    9    0     -5.99      0.00
   13    9    0    -10.61      0.00
   15    9    0    -13.20      0.00
   17    9    0    -13.56      0.00
   19    9    0    -11.93      0.00
   21    9    0     -9.06      0.00
   23    9    0     -5.90      0.00
   25    9    0     -3.12      0.00
   27    9    0     -0.87      0.00
   29    9    0      0.97      0.00
   31    9    0      2.33      0.00
   33    9    0      2.87      0.00
   35    9    0      2.25      0.00
   37    9    0      0.70      0.00
   39    9    0     -0.93      0.00
   41    9    0     -1.72      0.00
    0   10    0    -23.54      0.00
    2   10    0    -21.94      0.00
    4   10    0    -17.25      0.00
    6   10    0     -9.94      0.00
    8   10    0     -0.88      0.00
   10   10    0      8.59      0.00
   12   10    0     16.85      0.00
   14   10    0     22.44      0.00
   16   10    0     24.54      0.00
   18   10    0     23.24      0.00
   20   10    0     19.43      0.00
   22   10    0     14.41      0.00
   24   10    0      9.31      0.00
   26   10    0      4.81      0.00
   28   10    0      1.19      0.00
   30   10    0     -1.40      0.00
   32   10    0     -2.78      0.00
   34   10    0     -2.88      0.00
   36   10    0     -1.92      0.00
   38   10    0     -0.50      0.00
   40   10    0      0.64      0.00
    1   11    0     10.60      0.00
    3   11    0     10.66      0.00
    5   11    0     10.61      0.00
    7   11    0     10.21      0.00
    9   11    0      9.20      0.00
   11   11    0      7.44      0.00
   13   11    0      4.98      0.00
   15   11    0      2.07      0.00
   17   11    0     -0.85      0.00
   19   11    0     -3.35      0.00
   21   11    0     -5.09      0.00
   23   11    0     -5.90      0.00
   25   11    0     -5.72      0.00
   27   11    0     -4.63      0.00
   29   11    0     -2.81      0.00
   31   11    0     -0.58      0.00
   33   11    0      1.59      0.00
   35   11    0      3.19      0.00
   37   11    0      3.83      0.00
   39   11    0      3.44      0.00
    0   12    0     -8.18      0.00
    2   12    0     -7.50      0.00
    4   12    0     -5.82      0.00
    6   12    0     -3.85      0.00
    8   12    0     -2.27      0.00
   10   12    0     -1.35      0.00
   12   12    0     -0.99      0.00
   14   12    0     -0.93      0.00
   16   12    0     -1.03      0.00
   18   12    0     -1.22      0.00
   20   12    0     -1.43      0.00
   22   12    0     -1.50      0.00
   24   12    0     -1.36      0.00
   26   12    0     -1.18      0.00
   28   12    0     -1.29      0.00
   30   12    0     -1.95      0.00
   32   12    0     -3.01      0.00
   34   12    0     -4.00      0.00
   36   12    0     -4.37      0.00
   38   12    0     -3.89      0.00
    1   13    0      1.97      0.00
    3   13    0      0.59      0.00
    5   13    0     -1.98      0.00
    7   13    0     -5.30      0.00
    9   13    0     -8.65      0.00
   11   13    0    -11.11      0.00
   13   13    0    -11.86      0.00
   15   13    0    -10.46      0.00
   17   13    0     -7.11      0.00
   19   13    0     -2.61      0.00
   21   13    0      1.92      0.00
   23   13    0      5.50      0.00
   25   13    0      7.56      0.00
   27   13    0      8.02      0.00
   29   13    0      7.18      0.00
   31   13    0      5.48      0.00
   33   13    0      3.39      0.00
   35   13    0      1.33      0.00
    0   14    0      9.89      0.00
    2   14    0      9.17      0.00
    4   14    0      7.18      0.00
    6   14    0      4.29      0.00
    8   14    0      1.01      0.00
   10   14    0     -2.14      0.00
   12   14    0     -4.72      0.00
   14   14    0     -6.54      0.00
   16   14    0     -7.61      0.00
   18   14    0     -8.11      0.00
   20   14    0     -8.20      0.00
   22   14    0     -7.92      0.00
   24   14    0     -7.17      0.00
   26   14    0     -5.84      0.00
   28   14    0     -4.00      0.00
   30   14    0     -1.99      0.00
   32   14    0     -0.31      0.00
   34   14    0      0.62      0.00
    1   15    0    -20.25      0.00
    3   15    0    -17.62      0.00
    5   15    0    -12.56      0.00
    7   15    0     -5.72      0.00
    9   15    0      1.68      0.00
   11   15    0      8.03      0.00
   13   15    0     11.93      0.00
   15   15    0     12.78      0.00
   17   15    0     11.01      0.00
   19   15    0      7.71      0.00
   21   15    0      4.05      0.00
   23   15    0      0.85      0.00
   25   15    0     -1.56      0.00
   27   15    0     -3.11      0.00
   29   15    0     -3.77      0.00
   31   15    0     -3.55      0.00
   33   15    0     -2.63      0.00
    0   16    0      5.89      0.00
    2   16    0      5.56      0.00
    4   16    0      4.60      0.00
    6   16    0      3.20      0.00
    8   16    0      1.65      0.00
   10   16    0      0.28      0.00
   12   16    0     -0.61      0.00
   14   16    0     -0.83      0.00
   16   16    0     -0.37      0.00
   18   16    0      0.61      0.00
   20   16    0      1.78      0.00
   22   16    0      2.79      0.00
   24   16    0      3.33      0.00
   26   16    0      3.28      0.00
   28   16    0      2.70      0.00
   30   16    0      1.83      0.00
    1   17    0     15.25      0.00
    3   17    0     13.50      0.00
    5   17    0     10.38      0.00
    7   17    0      6.54      0.00
    9   17    0      2.75      0.00
   11   17    0     -0.30      0.00
   13   17    0     -2.27      0.00
   15   17    0     -3.19      0.00
   17   17    0     -3.33      0.00
   19   17    0     -3.05      0.00
   21   17    0     -2.56      0.00
   23   17    0     -1.95      0.00
   25   17    0     -1.28      0.00
   27   17    0     -0.66      0.00
    0   18    0     -9.00      0.00
    2   18    0     -8.34      0.00
    4   18    0     -6.60      0.00
    6   18    0     -4.29      0.00
    8   18    0     -1.97      0.00
   10   18    0      0.02      0.00
   12   18    0      1.56      0.00
   14   18    0      2.69      0.00
   16   18    0      3.42      0.00
   18   18    0      3.74      0.00
   20   18    0      3.62      0.00
   22   18    0      3.17      0.00
   24   18    0      2.56      0.00
    1   19    0     -1.37      0.00
    3   19    0     -0.90      0.00
    5   19    0     -0.27      0.00
    7   19    0      0.14      0.00
    9   19    0      0.17      0.00
   11   19    0     -0.03      0.00
   13   19    0     -0.17      0.00
   15   19    0     -0.05      0.00
   17   19    0      0.29      0.00
   19   19    0      0.69      0.00
   21   19    0      1.01      0.00
    0   20    0     -3.28      0.00
    2   20    0     -2.87      0.00
    4   20    0     -1.68      0.00
    6   20    0      0.05      0.00
    8   20    0      1.81      0.00
   10   20    0      2.96      0.00
   12   20    0      3.04      0.00
   14   20    0      2.07      0.00
   16   20    0      0.60      0.00
   18   20    0     -0.67      0.00
    1   21    0      3.23      0.00
    3   21    0      1.82      0.00
    5   21    0     -0.40      0.00
    7   21    0     -2.51      0.00
    9   21    0     -3.77      0.00
   11   21    0     -3.87      0.00
  -45    1    1     -0.87      0.00
  -43    1    1     -0.08      0.00
  -41    1    1      3.11      0.00
  -39    1    1      8.09      0.00
  -37    1    1     12.99      0.00
  -35    1    1     16.01      0.00
  -33    1    1     16.57      0.00
  -31    1    1     15.17      0.00
  -29    1    1     12.16      0.00
  -27    1    1      6.93      0.00
  -25    1    1     -1.51      0.00
  -23    1    1    -13.07      0.00
  -21    1    1    -25.71      0.00
  -19    1    1    -36.11      0.00
  -17    1    1    -41.27      0.00
  -15    1    1    -39.23      0.00
  -13    1    1    -28.36      0.00
  -11    1    1     -6.44      0.00
   -9    1    1     28.64      0.00
   -7    1    1     76.01      0.00
   -5    1    1    128.88      0.00
   -3    1    1    174.79      0.00
   -1    1    1    200.17      0.00
    1    1    1    196.93      0.00
    3    1    1    166.71      0.00
    5    1    1    119.85      0.00
    7    1    1     69.85      0.00
    9    1    1     27.32      0.00
   11    1    1     -2.97      0.00
   13    1    1    -21.03      0.00
   15    1    1    -28.77      0.00
   17    1    1    -28.18      0.00
   19    1    1    -21.31      0.00
   21    1    1    -10.96      0.00
   23    1    1     -0.53      0.00
   25    1    1      7.36      0.00
   27    1    1     11.90      0.00
   29    1    1     13.99      0.00
   31    1    1     14.80      0.00
   33    1    1     14.62      0.00
   35    1    1     12.93      0.00
   37    1    1      9.47      0.00
   39    1    1      4.99      0.00
   41    1    1      1.01      0.00
   43    1    1     -1.33      0.00
   45    1    1     -2.01      0.00
  -44    2    1     -0.66      0.00
  -42    2    1     -1.18      0.00
  -40    2    1     -2.42      0.00
  -38    2    1     -4.40      0.00
  -36    2    1     -6.62      0.00
  -34    2    1     -8.31      0.00
  -32    2    1     -8.83      0.00
  -30    2    1     -7.87      0.00
  -28    2    1     -5.28      0.00
  -26    2    1     -0.93      0.00
  -24    2    1      5.28      0.00
  -22    2    1     13.06      0.00
  -20    2    1     21.59      0.00
  -18    2    1     29.72      0.00
  -16    2    1     36.45      0.00
  -14    2    1     41.00      0.00
  -12    2    1     42.39      0.00
  -10    2    1     38.87      0.00
   -8    2    1     28.30      0.00
   -6    2    1      9.55      0.00
   -4    2    1    -15.64      0.00
   -2    2    1    -42.09      0.00
    0    2    1    -62.70      0.00
    2    2    1    -71.63      0.00
    4    2    1    -67.07      0.00
    6    2    1    -51.82      0.00
    8    2    1    -31.48      0.00
   10    2    1    -11.44      0.00
   12    2    1      5.07      0.00
   14    2    1     17.13      0.00
   16    2    1     24.96      0.00
   18    2    1     28.86      0.00
   20    2    1     28.98      0.00
   22    2    1     25.82      0.00
   24    2    1     20.55      0.00
   26    2    1     14.57      0.00
   28    2    1      8.89      0.00
   30    2    1      3.82      0.00
   32    2    1     -0.72      0.00
   34    2    1     -4.56      0.00
   36    2    1     -7.16      0.00
   38    2    1     -7.99      0.00
   40    2    1     -7.13      0.00
   42    2    1     -5.30      0.00
   44    2    1     -3.47      0.00
  -45    3    1      0.40      0.00
  -43    3    1      0.78      0.00
  -41    3    1      0.72      0.00
  -39    3    1      0.39      0.00
  -37    3    1      0.20      0.00
  -35    3    1      0.37      0.00
  -33    3    1      0.80      0.00
  -31    3    1      1.38      0.00
  -29    3    1      2.25      0.00
  -27    3    1      3.74      0.00
  -25    3    1      5.80      0.00
  -23    3    1      7.74      0.00
  -21    3    1      8.39      0.00
  -19    3    1      6.80      0.00
  -17    3    1      2.78      0.00
  -15    3    1     -3.27      0.00
  -13    3    1    -10.92      0.00
  -11    3    1    -19.86      0.00
   -9    3    1    -29.39      0.00
   -7    3    1    -37.68      0.00
   -5    3    1    -41.82      0.00
   -3    3    1    -39.09      0.00
   -1    3    1    -28.88      0.00
    1    3    1    -13.61      0.00
    3    3    1      2.18      0.00
    5    3    1     14.10      0.00
    7    3    1     20.02      0.00
    9    3    1     20.45      0.00
   11    3    1     17.35      0.00
   13    3    1     12.50      0.00
   15    3    1      6.70      0.00
   17    3    1      0.29      0.00
   19    3    1     -6.07      0.00
   21    3    1    -11.15      0.00
   23    3    1    -13.79      0.00
   25    3    1    -13.75      0.00
   27    3    1    -11.79      0.00
   29    3    1     -9.10      0.00
   31    3    1     -6.46      0.00
   33    3    1     -4.11      0.00
   35    3    1     -2.01      0.00
   37    3    1     -0.32      0.00
   39    3    1      0.62      0.00
   41    3    1      0.65      0.00
   43    3    1      0.09      0.00
  -44    4    1      1.70      0.00
  -42    4    1      0.93      0.00
  -40    4    1     -0.51      0.00
  -38    4    1     -1.70      0.00
  -36    4    1     -1.77      0.00
  -34    4    1     -0.63      0.00
  -32    4    1      0.93      0.00
  -30    4    1      1.86      0.00
  -28    4    1      1.62      0.00
  -26    4    1      0.50      0.00
  -24    4    1     -0.86      0.00
  -22    4    1     -2.12      0.00
  -20    4    1     -3.44      0.00
  -18    4    1     -5.03      0.00
  -16    4    1     -6.75      0.00
  -14    4    1     -8.06      0.00
  -12    4    1     -8.54      0.00
  -10    4    1     -8.27      0.00
   -8    4    1     -7.66      0.00
   -6    4    1     -6.76      0.00
   -4    4    1     -4.93      0.00
   -2    4    1     -1.18      0.00
    0    4    1      4.76      0.00
    2    4    1     11.76      0.00
    4    4    1     17.64      0.00
    6    4    1     20.41      0.00
    8    4    1     19.39      0.00
   10    4    1     15.42      0.00
   12    4    1     10.06      0.00
   14    4    1      4.61      0.00
   16    4    1     -0.40      0.00
   18    4    1     -4.82      0.00
   20    4    1     -8.41      0.00
   22    4    1    -10.69      0.00
   24    4    1    -11.35      0.00
   26    4    1    -10.55      0.00
   28    4    1     -8.88      0.00
   30    4    1     -6.92      0.00
   32    4    1     -4.92      0.00
   34    4    1     -2.90      0.00
   36    4    1     -1.01      0.00
   38    4    1      0.28      0.00
   40    4    1      0.55      0.00
   42    4    1     -0.15      0.00
   44    4    1     -1.20      0.00
  -43    5    1     -0.61      0.00
  -41    5    1     -0.93      0.00
  -39    5    1     -1.69      0.00
  -37    5    1     -2.95      0.00
  -35    5    1     -4.33      0.00
  -33    5    1     -5.21      0.00
  -31    5    1     -5.07      0.00
  -29    5    1     -3.94      0.00
  -27    5    1     -2.27      0.00
  -25    5    1     -0.50      0.00
  -23    5    1      1.49      0.00
  -21    5    1      4.20      0.00
  -19    5    1      7.99      0.00
  -17    5    1     12.49      0.00
  -15    5    1     16.69      0.00
  -13    5    1     19.46      0.00
  -11    5    1     20.14      0.00
   -9    5    1     18.48      0.00
   -7    5    1     14.18      0.00
   -5    5    1      6.72      0.00
   -3    5    1     -4.25      0.00
   -1    5    1    -17.90      0.00
    1    5    1    -31.83      0.00
    3    5    1    -42.66      0.00
    5    5    1    -47.59      0.00
    7    5    1    -45.78      0.00
    9    5    1    -38.47      0.00
   11    5    1    -28.03      0.00
   13    5    1    -16.61      0.00
   15    5    1     -5.48      0.00
   17    5    1      4.64      0.00
   19    5    1     12.96      0.00
   21    5    1     18.39      0.00
   23    5    1     20.09      0.00
   25    5    1     18.03      0.00
   27    5    1     13.18      0.00
   29    5    1      7.02      0.00
   31    5    1      0.92      0.00
   33    5    1     -4.21      0.00
   35    5    1     -7.75      0.00
   37    5    1     -9.30      0.00
   39    5    1     -8.76      0.00
   41    5    1     -6.61      0.00
   43    5    1     -3.88      0.00
  -44    6    1     -3.78      0.00
  -42    6    1     -2.41      0.00
  -40    6    1      1.24      0.00
  -38    6    1      6.01      0.00
  -36    6    1     10.08      0.00
  -34    6    1     12.07      0.00
  -32    6    1     11.69      0.00
  -30    6    1      9.31      0.00
  -28    6    1      5.17      0.00
  -26    6    1     -0.90      0.00
  -24    6    1     -9.08      0.00
  -22    6    1    -18.66      0.00
  -20    6    1    -27.91      0.00
  -18    6    1    -34.64      0.00
  -16    6    1    -37.18      0.00
  -14    6    1    -34.77      0.00
  -12    6    1    -27.27      0.00
  -10    6    1    -14.70      0.00
   -8    6    1      2.57      0.00
   -6    6    1     22.99      0.00
   -4    6    1     43.22      0.00
   -2    6    1     58.72      0.00
    0    6    1     65.53      0.00
    2    6    1     62.13      0.00
    4    6    1     50.06      0.00
    6    6    1     32.91      0.00
    8    6    1     14.60      0.00
   10    6    1     -2.01      0.00
   12    6    1    -15.20      0.00
   14    6    1    -23.97      0.00
   16    6    1    -27.73      0.00
   18    6    1    -26.48      0.00
   20    6    1    -21.25      0.00
   22    6    1    -13.96      0.00
   24    6    1     -6.65      0.00
   26    6    1     -0.74      0.00
   28    6    1      3.31      0.00
   30    6    1      5.55      0.00
   32    6    1      6.04      0.00
   34    6    1      4.85      0.00
   36    6    1      2.35      0.00
   38    6    1     -0.54      0.00
   40    6    1     -2.61      0.00
   42    6    1     -3.10      0.00
  -43    7    1      1.01      0.00
  -41    7    1      0.58      0.00
  -39    7    1     -0.12      0.00
  -37    7    1     -0.99      0.00
  -35    7    1     -2.08      0.00
  -33    7    1     -3.55      0.00
  -31    7    1     -5.39      0.00
  -29    7    1     -7.08      0.00
  -27    7    1     -7.65      0.00
  -25    7    1     -6.19      0.00
  -23    7    1     -2.47      0.00
  -21    7    1      2.75      0.00
  -19    7    1      7.97      0.00
  -17    7    1     11.70      0.00
  -15    7    1     12.93      0.00
  -13    7    1     11.31      0.00
  -11    7    1      6.91      0.00
   -9    7    1      0.20      0.00
   -7    7    1     -7.86      0.00
   -5    7    1    -15.65      0.00
   -3    7    1    -21.07      0.00
   -1    7    1    -22.29      0.00
    1    7    1    -18.63      0.00
    3    7    1    -10.93      0.00
    5    7    1     -1.17      0.00
    7    7    1      8.37      0.00
    9    7    1     15.91      0.00
   11    7    1     20.49      0.00
   13    7    1     21.79      0.00
   15    7    1     19.91      0.00
   17    7    1     15.37      0.00
   19    7    1      9.13      0.00
   21    7    1      2.60      0.00
   23    7    1     -2.82      0.00
   25    7    1     -6.17      0.00
   27    7    1     -7.27      0.00
   29    7    1     -6.55      0.00
   31    7    1     -4.72      0.00
   33    7    1     -2.42      0.00
   35    7    1     -0.16      0.00
   37    7    1      1.63      0.00
   39    7    1      2.62      0.00
   41    7    1      2.72      0.00
  -42    8    1      1.87      0.00
  -40    8    1     -0.40      0.00
  -38    8    1     -4.23      0.00
  -36    8    1     -8.17      0.00
  -34    8    1    -10.71      0.00
  -32    8    1    -10.96      0.00
  -30    8    1     -8.84      0.00
  -28    8    1     -4.64      0.00
  -26    8    1      1.35      0.00
  -24    8    1      8.77      0.00
  -22    8    1     16.83      0.00
  -20    8    1     24.11      0.00
  -18    8    1     28.91      0.00
  -16    8    1     29.85      0.00
  -14    8    1     26.23      0.00
  -12    8    1     18.09      0.00
  -10    8    1      5.98      0.00
   -8    8    1     -8.95      0.00
   -6    8    1    -24.83      0.00
   -4    8    1    -38.98      0.00
   -2    8    1    -48.53      0.00
    0    8    1    -51.45      0.00
    2    8    1    -47.39      0.00
    4    8    1    -37.71      0.00
    6    8    1    -24.79      0.00
    8    8    1    -11.01      0.00
   10    8    1      1.71      0.00
   12    8    1     12.00      0.00
   14    8    1     18.79      0.00
   16    8    1     21.47      0.00
   18    8    1     20.26      0.00
   20    8    1     16.29      0.00
   22    8    1     11.19      0.00
   24    8    1      6.31      0.00
   26    8    1      2.26      0.00
   28    8    1     -0.93      0.00
   30    8    1     -3.23      0.00
   32    8    1     -4.27      0.00
   34    8    1     -3.62      0.00
   36    8    1     -1.40      0.00
   38    8    1      1.45      0.00
   40    8    1      3.59      0.00
  -41    9    1     -0.97      0.00
  -39    9    1      0.49      0.00
  -37    9    1      3.00      0.00
  -35    9    1      5.77      0.00
  -33    9    1      7.82      0.00
  -31    9    1      8.39      0.00
  -29    9    1      7.15      0.00
  -27    9    1      4.02      0.00
  -25    9    1     -1.00      0.00
  -23    9    1     -7.74      0.00
  -21    9    1    -15.62      0.00
  -19    9    1    -23.36      0.00
  -17    9    1    -29.16      0.00
  -15    9    1    -31.24      0.00
  -13    9    1    -28.53      0.00
  -11    9    1    -21.03      0.00
   -9    9    1     -9.76      0.00
   -7    9    1      3.52      0.00
   -5    9    1     16.75      0.00
   -3    9    1     27.88      0.00
   -1    9    1     35.10      0.00
    1    9    1     37.18      0.00
    3    9    1     33.75      0.00
    5    9    1     25.45      0.00
    7    9    1     13.88      0.00
    9    9    1      1.23      0.00
   11    9    1    -10.23      0.00
   13    9    1    -18.60      0.00
   15    9    1    -22.79      0.00
   17    9    1    -22.77      0.00
   19    9    1    -19.45      0.00
   21    9    1    -14.37      0.00
   23    9    1     -9.10      0.00
   25    9    1     -4.67      0.00
   27    9    1     -1.39      0.00
   29    9    1      0.89      0.00
   31    9    1      2.43      0.00
   33    9    1      3.26      0.00
   35    9    1      3.28      0.00
   37    9    1      2.56      0.00
   39    9    1      1.48      0.00
   41    9    1      0.63      0.00
  -40   10    1      0.51      0.00
  -38   10    1      0.17      0.00
  -36   10    1     -0.11      0.00
  -34   10    1     -0.26      0.00
  -32   10    1     -0.28      0.00
  -30   10    1     -0.30      0.00
  -28   10    1     -0.54      0.00
  -26   10    1     -1.20      0.00
  -24   10    1     -2.13      0.00
  -22   10    1     -2.87      0.00
  -20   10    1     -2.83      0.00
  -18   10    1     -1.69      0.00
  -16   10    1      0.45      0.00
  -14   10    1      3.13      0.00
  -12   10    1      5.79      0.00
  -10   10    1      8.02      0.00
   -8   10    1      9.48      0.00
   -6   10    1      9.78      0.00
   -4   10    1      8.48      0.00
   -2   10    1      5.37      0.00
    0   10    1      0.72      0.00
    2   10    1     -4.64      0.00
    4   10    1     -9.56      0.00
    6   10    1    -13.05      0.00
    8   10    1    -14.53      0.00
   10   10    1    -13.88      0.00
   12   10    1    -11.38      0.00
   14   10    1     -7.56      0.00
   16   10    1     -3.20      0.00
   18   10    1      0.78      0.00
   20   10    1      3.60      0.00
   22   10    1      4.94      0.00
   24   10    1      5.03      0.00
   26   10    1      4.41      0.00
   28   10    1      3.51      0.00
   30   10    1      2.35      0.00
   32   10    1      0.77      0.00
   34   10    1     -1.22      0.00
   36   10    1     -3.09      0.00
   38   10    1     -4.09      0.00
   40   10    1     -3.76      0.00
  -39   11    1      2.77      0.00
  -37   11    1      2.35      0.00
  -35   11    1      1.34      0.00
  -33   11    1      0.47      0.00
  -31   11    1      0.60      0.00
  -29   11    1      2.18      0.00
  -27   11    1      5.06      0.00
  -25   11    1      8.58      0.00
  -23   11    1     11.97      0.00
  -21   11    1     14.59      0.00
  -19   11    1     15.94      0.00
  -17   11    1     15.68      0.00
  -15   11    1     13.63      0.00
  -13   11    1      9.96      0.00
  -11   11    1      5.37      0.00
   -9   11    1      0.84      0.00
   -7   11    1     -2.73      0.00
   -5   11    1     -4.94      0.00
   -3   11    1     -5.95      0.00
   -1   11    1     -6.15      0.00
    1   11    1     -5.78      0.00
    3   11    1     -4.75      0.00
    5   11    1     -2.87      0.00
    7   11    1     -0.18      0.00
    9   11    1      2.85      0.00
   11   11    1      5.48      0.00
   13   11    1      7.08      0.00
   15   11    1      7.43      0.00
   17   11    1      6.79      0.00
   19   11    1      5.64      0.00
   21   11    1      4.43      0.00
   23   11    1      3.45      0.00
   25   11    1      2.77      0.00
   27   11    1      2.37      0.00
   29   11    1      2.16      0.00
   31   11    1      2.06      0.00
   33   11    1      2.02      0.00
   35   11    1      1.96      0.00
   37   11    1      1.80      0.00
  -38   12    1      2.20      0.00
  -36   12    1      1.78      0.00
  -34   12    1      0.77      0.00
  -32   12    1     -0.86      0.00
  -30   12    1     -2.75      0.00
  -28   12    1     -4.25      0.00
  -26   12    1     -4.77      0.00
  -24   12    1     -4.19      0.00
  -22   12    1     -2.89      0.00
  -20   12    1     -1.59      0.00
  -18   12    1     -0.86      0.00
  -16   12    1     -0.95      0.00
  -14   12    1     -1.73      0.00
  -12   12    1     -2.86      0.00
  -10   12    1     -3.93      0.00
   -8   12    1     -4.45      0.00
   -6   12    1     -3.96      0.00
   -4   12    1     -2.10      0.00
   -2   12    1      1.19      0.00
    0   12    1      5.60      0.00
    2   12    1     10.48      0.00
    4   12    1     15.02      0.00
    6   12    1     18.44      0.00
    8   12    1     20.00      0.00
   10   12    1     19.17      0.00
   12   12    1     15.78      0.00
   14   12    1     10.27      0.00
   16   12    1      3.70      0.00
   18   12    1     -2.52      0.00
   20   12    1     -7.17      0.00
   22   12    1     -9.71      0.00
   24   12    1    -10.27      0.00
   26   12    1     -9.38      0.00
   28   12    1     -7.55      0.00
   30   12    1     -5.07      0.00
   32   12    1     -2.24      0.00
   34   12    1      0.45      0.00
   36   12    1      2.32      0.00
  -37   13    1     -2.03      0.00
  -35   13    1     -2.89      0.00
  -33   13    1     -3.14      0.00
  -31   13    1     -2.76      0.00
  -29   13    1     -2.03      0.00
  -27   13    1     -1.21      0.00
  -25   13    1     -0.34      0.00
  -23   13    1      0.73      0.00
  -21   13    1      2.19      0.00
  -19   13    1      3.97      0.00
  -17   13    1      5.73      0.00
  -15   13    1      6.97      0.00
  -13   13    1      7.17      0.00
  -11   13    1      5.98      0.00
   -9   13    1      3.33      0.00
   -7   13    1     -0.49      0.00
   -5   13    1     -4.85      0.00
   -3   13    1     -8.88      0.00
   -1   13    1    -11.79      0.00
    1   13    1    -13.17      0.00
    3   13    1    -13.04      0.00
    5   13    1    -11.75      0.00
    7   13    1     -9.70      0.00
    9   13    1     -7.12      0.00
   11   13    1     -4.16      0.00
   13   13    1     -0.99      0.00
   15   13    1      2.11      0.00
   17   13    1      4.78      0.00
   19   13    1      6.74      0.00
   21   13    1      7.89      0.00
   23   13    1      8.18      0.00
   25   13    1      7.60      0.00
   27   13    1      6.11      0.00
   29   13    1      3.90      0.00
   31   13    1      1.43      0.00
   33   13    1     -0.65      0.00
   35   13    1     -1.80      0.00
  -34   14    1      3.88      0.00
  -32   14    1      5.84      0.00
  -30   14    1      7.05      0.00
  -28   14    1      7.09      0.00
  -26   14    1      5.74      0.00
  -24   14    1      3.03      0.00
  -22   14    1     -0.73      0.00
  -20   14    1     -4.93      0.00
  -18   14    1     -8.70      0.00
  -16   14    1    -11.07      0.00
  -14   14    1    -11.29      0.00
  -12   14    1     -9.11      0.00
  -10   14    1     -4.91      0.00
   -8   14    1      0.39      0.00
   -6   14    1      5.65      0.00
   -4   14    1      9.84      0.00
   -2   14    1     12.27      0.00
    0   14    1     12.55      0.00
    2   14    1     10.63      0.00
    4   14    1      6.72      0.00
    6   14    1      1.39      0.00
    8   14    1     -4.31      0.00
   10   14    1     -9.10      0.00
   12   14    1    -11.80      0.00
   14   14    1    -11.84      0.00
   16   14    1     -9.51      0.00
   18   14    1     -5.79      0.00
   20   14    1     -1.84      0.00
   22   14    1      1.49      0.00
   24   14    1      3.88      0.00
   26   14    1      5.41      0.00
   28   14    1      6.20      0.00
   30   14    1      6.22      0.00
   32   14    1      5.41      0.00
   34   14    1      3.90      0.00
  -33   15    1     -1.18      0.00
  -31   15    1     -1.72      0.00
  -29   15    1     -2.64      0.00
  -27   15    1     -3.72      0.00
  -25   15    1     -4.62      0.00
  -23   15    1     -5.11      0.00
  -21   15    1     -5.17      0.00
  -19   15    1     -4.98      0.00
  -17   15    1     -4.73      0.00
  -15   15    1     -4.47      0.00
  -13   15    1     -4.10      0.00
  -11   15    1     -3.47      0.00
   -9   15    1     -2.57      0.00
   -7   15    1     -1.42      0.00
   -5   15    1     -0.14      0.00
   -3   15    1      1.20      0.00
   -1   15    1      2.50      0.00
    1   15    1      3.54      0.00
    3   15    1      4.06      0.00
    5   15    1      3.86      0.00
    7   15    1      2.96      0.00
    9   15    1      1.68      0.00
   11   15    1      0.39      0.00
   13   15    1     -0.69      0.00
   15   15    1     -1.60      0.00
   17   15    1     -2.53      0.00
   19   15    1     -3.59      0.00
   21   15    1     -4.60      0.00
   23   15    1     -5.20      0.00
   25   15    1     -5.08      0.00
   27   15    1     -4.24      0.00
   29   15    1     -2.98      0.00
   31   15    1     -1.71      0.00
  -30   16    1     -1.65      0.00
  -28   16    1     -0.61      0.00
  -26   16    1      1.27      0.00
  -24   16    1      3.63      0.00
  -22   16    1      6.14      0.00
  -20   16    1      8.52      0.00
  -18   16    1     10.48      0.00
  -16   16    1     11.50      0.00
  -14   16    1     10.93      0.00
  -12   16    1      8.32      0.00
  -10   16    1      3.77      0.00
   -8   16    1     -2.00      0.00
   -6   16    1     -7.92      0.00
   -4   16    1    -13.04      0.00
   -2   16    1    -16.67      0.00
    0   16    1    -18.36      0.00
    2   16    1    -17.79      0.00
    4   16    1    -14.89      0.00
    6   16    1    -10.10      0.00
    8   16    1     -4.53      0.00
   10   16    1      0.36      0.00
   12   16    1      3.40      0.00
   14   16    1      4.27      0.00
   16   16    1      3.58      0.00
   18   16    1      2.38      0.00
   20   16    1      1.43      0.00
   22   16    1      0.92      0.00
   24   16    1      0.61      0.00
   26   16    1      0.22      0.00
   28   16    1     -0.20      0.00
   30   16    1     -0.42      0.00
  -29   17    1     -0.60      0.00
  -27   17    1     -0.13      0.00
  -25   17    1      0.23      0.00
  -23   17    1      0.24      0.00
  -21   17    1     -0.25      0.00
  -19   17    1     -1.26      0.00
  -17   17    1     -2.58      0.00
  -15   17    1     -3.75      0.00
  -13   17    1     -4.18      0.00
  -11   17    1     -3.40      0.00
   -9   17    1     -1.30      0.00
   -7   17    1      1.75      0.00
   -5   17    1      5.06      0.00
   -3   17    1      7.84      0.00
   -1   17    1      9.56      0.00
    1   17    1      9.99      0.00
    3   17    1      9.20      0.00
    5   17    1      7.40      0.00
    7   17    1      4.89      0.00
    9   17    1      2.04      0.00
   11   17    1     -0.69      0.00
   13   17    1     -2.82      0.00
   15   17    1     -4.02      0.00
   17   17    1     -4.18      0.00
   19   17    1     -3.51      0.00
   21   17    1     -2.40      0.00
   23   17    1     -1.28      0.00
   25   17    1     -0.46      0.00
   27   17    1     -0.11      0.00
  -26   18    1     -3.86      0.00
  -24   18    1     -5.47      0.00
  -22   18    1     -6.52      0.00
  -20   18    1     -6.68      0.00
  -18   18    1     -5.80      0.00
  -16   18    1     -3.97      0.00
  -14   18    1     -1.57      0.00
  -12   18    1      0.92      0.00
  -10   18    1      3.13      0.00
   -8   18    1      4.87      0.00
   -6   18    1      6.16      0.00
   -4   18    1      6.93      0.00
   -2   18    1      7.00      0.00
    0   18    1      6.11      0.00
    2   18    1      4.24      0.00
    4   18    1      1.82      0.00
    6   18    1     -0.34      0.00
    8   18    1     -1.46      0.00
   10   18    1     -1.24      0.00
   12   18    1      0.00      0.00
   14   18    1      1.54      0.00
   16   18    1      2.62      0.00
   18   18    1      2.91      0.00
   20   18    1      2.45      0.00
   22   18    1      1.57      0.00
   24   18    1      0.60      0.00
  -21   19    1      1.36      0.00
  -19   19    1      1.42      0.00
  -17   19    1      1.07      0.00
  -15   19    1      0.31      0.00
  -13   19    1     -0.59      0.00
  -11   19    1     -1.29      0.00
   -9   19    1     -1.69      0.00
   -7   19    1     -1.94      0.00
   -5   19    1     -2.25      0.00
   -3   19    1     -2.67      0.00
   -1   19    1     -3.08      0.00
    1   19    1     -3.31      0.00
    3   19    1     -3.35      0.00
    5   19    1     -3.34      0.00
    7   19    1     -3.35      0.00
    9   19    1     -3.24      0.00
   11   19    1     -2.67      0.00
   13   19    1     -1.46      0.00
   15   19    1      0.21      0.00
   17   19    1      1.83      0.00
   19   19    1      2.85      0.00
   21   19    1      3.02      0.00
  -18   20    1     -0.01      0.00
  -16   20    1     -0.05      0.00
  -14   20    1      0.06      0.00
  -12   20    1      0.07      0.00
  -10   20    1     -0.31      0.00
   -8   20    1     -1.21      0.00
   -6   20    1     -2.38      0.00
   -4   20    1     -3.24      0.00
   -2   20    1     -3.21      0.00
    0   20    1     -2.06      0.00
    2   20    1     -0.09      0.00
    4   20    1      2.06      0.00
    6   20    1      3.72      0.00
    8   20    1      4.50      0.00
   10   20    1      4.38      0.00
   12   20    1      3.57      0.00
   14   20    1      2.37      0.00
   16   20    1      1.09      0.00
  -11   21    1      1.17      0.00
   -9   21    1      1.14      0.00
   -7   21    1      0.29      0.00
   -5   21    1     -1.41      0.00
   -3   21    1     -3.56      0.00
   -1   21    1     -5.39      0.00
    1   21    1     -6.13      0.00
    3   21    1     -5.37      0.00
    5   21    1     -3.36      0.00
    7   21    1     -0.96      0.00
    9   21    1      0.89      0.00
  -46    0    2      2.73      0.00
  -44    0    2      3.86      0.00
  -42    0    2      2.57      0.00
  -40    0    2     -1.28      0.00
  -38    0    2     -6.17      0.00
  -36    0    2    -10.06      0.00
  -34    0    2    -11.71      0.00
  -32    0    2    -11.19      0.00
  -30    0    2     -8.92      0.00
  -28    0    2     -4.64      0.00
  -26    0    2      2.66      0.00
  -24    0    2     13.60      0.00
  -22    0    2     27.23      0.00
  -20    0    2     40.98      0.00
  -18    0    2     51.97      0.00
  -16    0    2     58.17      0.00
  -14    0    2     58.40      0.00
  -12    0    2     51.24      0.00
  -10    0    2     34.54      0.00
   -8    0    2      6.80      0.00
   -6    0    2    -30.17      0.00
   -4    0    2    -69.60      0.00
   -2    0    2   -101.28      0.00
    0    0    2   -115.90      0.00
    2    0    2   -109.69      0.00
    4    0    2    -86.10      0.00
    6    0    2    -53.53      0.00
    8    0    2    -21.04      0.00
   10    0    2      5.19      0.00
   12    0    2     22.80      0.00
   14    0    2     31.94      0.00
   16    0    2     33.78      0.00
   18    0    2     29.86      0.00
   20    0    2     22.26      0.00
   22    0    2     13.51      0.00
   24    0    2      5.87      0.00
   26    0    2      0.38      0.00
   28    0    2     -3.20      0.00
   30    0    2     -5.60      0.00
   32    0    2     -7.07      0.00
   34    0    2     -7.21      0.00
   36    0    2     -5.57      0.00
   38    0    2     -2.52      0.00
   40    0    2      0.74      0.00
  -45    1    2     -0.67      0.00
  -43    1    2     -0.97      0.00
  -41    1    2     -0.31      0.00
  -39    1    2      1.79      0.00
  -37    1    2      5.06      0.00
  -35    1    2      8.63      0.00
  -33    1    2     11.47      0.00
  -31    1    2     13.02      0.00
  -29    1    2     13.15      0.00
  -27    1    2     11.90      0.00
  -25    1    2      9.16      0.00
  -23    1    2      4.78      0.00
  -21    1    2     -0.99      0.00
  -19    1    2     -7.38      0.00
  -17    1    2    -13.39      0.00
  -15    1    2    -18.23      0.00
  -13    1    2    -21.29      0.00
  -11    1    2    -21.64      0.00
   -9    1    2    -17.54      0.00
   -7    1    2     -7.00      0.00
   -5    1    2     10.70      0.00
   -3    1    2     33.45      0.00
   -1    1    2     56.22      0.00
    1    1    2     72.82      0.00
    3    1    2     78.83      0.00
    5    1    2     73.60      0.00
    7    1    2     60.12      0.00
    9    1    2     43.07      0.00
   11    1    2     26.48      0.00
   13    1    2     12.58      0.00
   15    1    2      2.02      0.00
   17    1    2     -5.18      0.00
   19    1    2     -9.09      0.00
   21    1    2     -9.97      0.00
   23    1    2     -8.54      0.00
   25    1    2     -5.91      0.00
   27    1    2     -3.09      0.00
   29    1    2     -0.53      0.00
   31    1    2      1.75      0.00
   33    1    2      3.74      0.00
   35    1    2      5.10      0.00
   37    1    2      5.39      0.00
   39    1    2      4.53      0.00
   41    1    2      3.00      0.00
  -46    2    2     -1.34      0.00
  -44    2    2     -1.48      0.00
  -42    2    2     -0.16      0.00
  -40    2    2      2.16      0.00
  -38    2    2      4.32      0.00
  -36    2    2      5.39      0.00
  -34    2    2      5.23      0.00
  -32    2    2      4.15      0.00
  -30    2    2      2.17      0.00
  -28    2    2     -1.22      0.00
  -26    2    2     -6.57      0.00
  -24    2    2    -13.51      0.00
  -22    2    2    -20.45      0.00
  -20    2    2    -25.21      0.00
  -18    2    2    -26.04      0.00
  -16    2    2    -22.12      0.00
  -14    2    2    -13.26      0.00
  -12    2    2      0.62      0.00
  -10    2    2     19.13      0.00
   -8    2    2     40.40      0.00
   -6    2    2     60.34      0.00
   -4    2    2     73.48      0.00
   -2    2    2     75.41      0.00
    0    2    2     65.19      0.00
    2    2    2     46.06      0.00
    4    2    2     23.81      0.00
    6    2    2      3.98      0.00
    8    2    2    -10.26      0.00
   10    2    2    -18.27      0.00
   12    2    2    -20.80      0.00
   14    2    2    -18.81      0.00
   16    2    2    -13.25      0.00
   18    2    2     -5.55      0.00
   20    2    2      2.27      0.00
   22    2    2      8.13      0.00
   24    2    2     10.93      0.00
   26    2    2     10.92      0.00
   28    2    2      9.26      0.00
   30    2    2      7.05      0.00
   32    2    2      4.80      0.00
   34    2    2      2.51      0.00
   36    2    2      0.24      0.00
   38    2    2     -1.66      0.00
   40    2    2     -2.79      0.00
   42    2    2     -3.06      0.00
  -45    3    2      1.52      0.00
  -43    3    2      1.70      0.00
  -41    3    2      1.58      0.00
  -39    3    2      0.35      0.00
  -37    3    2     -2.47      0.00
  -35    3    2     -6.45      0.00
  -33    3    2    -10.48      0.00
  -31    3    2    -13.40      0.00
  -29    3    2    -14.51      0.00
  -27    3    2    -13.65      0.00
  -25    3    2    -10.83      0.00
  -23    3    2     -6.04      0.00
  -21    3    2      0.61      0.00
  -19    3    2      8.58      0.00
  -17    3    2     16.79      0.00
  -15    3    2     23.97      0.00
  -13    3    2     28.94      0.00
  -11    3    2     30.59      0.00
   -9    3    2     27.48      0.00
   -7    3    2     17.99      0.00
   -5    3    2      1.18      0.00
   -3    3    2    -21.81      0.00
   -1    3    2    -47.15      0.00
    1    3    2    -69.16      0.00
    3    3    2    -82.62      0.00
    5    3    2    -85.00      0.00
    7    3    2    -77.26      0.00
    9    3    2    -62.80      0.00
   11    3    2    -45.43      0.00
   13    3    2    -28.05      0.00
   15    3    2    -12.36      0.00
   17    3    2      0.52      0.00
   19    3    2      9.61      0.00
   21    3    2     14.31      0.00
   23    3    2     14.88      0.00
   25    3    2     12.50      0.00
   27    3    2      8.69      0.00
   29    3    2      4.56      0.00
   31    3    2      0.57      0.00
   33    3    2     -3.04      0.00
   35    3    2     -5.79      0.00
   37    3    2     -7.00      0.00
   39    3    2     -6.28      0.00
   41    3    2     -4.08      0.00
   43    3    2     -1.53      0.00
  -44    4    2      1.16      0.00
  -42    4    2      1.25      0.00
  -40    4    2      1.77      0.00
  -38    4    2      3.24      0.00
  -36    4    2      5.58      0.00
  -34    4    2      8.14      0.00
  -32    4    2     10.20      0.00
  -30    4    2     11.59      0.00
  -28    4    2     12.48      0.00
  -26    4    2     12.80      0.00
  -24    4    2     11.63      0.00
  -22    4    2      7.64      0.00
  -20    4    2      0.00      0.00
  -18    4    2    -10.81      0.00
  -16    4    2    -23.26      0.00
  -14    4    2    -35.57      0.00
  -12    4    2    -46.31      0.00
  -10    4    2    -54.12      0.00
   -8    4    2    -56.92      0.00
   -6    4    2    -51.99      0.00
   -4    4    2    -37.43      0.00
   -2    4    2    -14.13      0.00
    0    4    2     13.37      0.00
    2    4    2     38.25      0.00
    4    4    2     54.51      0.00
    6    4    2     59.51      0.00
    8    4    2     54.44      0.00
   10    4    2     42.72      0.00
   12    4    2     27.72      0.00
   14    4    2     11.69      0.00
   16    4    2     -3.87      0.00
   18    4    2    -17.26      0.00
   20    4    2    -26.56      0.00
   22    4    2    -30.38      0.00
   24    4    2    -28.82      0.00
   26    4    2    -23.44      0.00
   28    4    2    -16.36      0.00
   30    4    2     -9.18      0.00
   32    4    2     -2.66      0.00
   34    4    2      2.76      0.00
   36    4    2      6.54      0.00
   38    4    2      8.12      0.00
   40    4    2      7.44      0.00
   42    4    2      5.29      0.00
  -45    5    2      4.57      0.00
  -43    5    2      3.91      0.00
  -41    5    2      1.51      0.00
  -39    5    2     -1.50      0.00
  -37    5    2     -3.54      0.00
  -35    5    2     -3.68      0.00
  -33    5    2     -2.20      0.00
  -31    5    2     -0.16      0.00
  -29    5    2      1.67      0.00
  -27    5    2      3.34      0.00
  -25    5    2      5.55      0.00
  -23    5    2      8.77      0.00
  -21    5    2     12.66      0.00
  -19    5    2     16.20      0.00
  -17    5    2     18.38      0.00
  -15    5    2     18.63      0.00
  -13    5    2     16.81      0.00
  -11    5    2     12.82      0.00
   -9    5    2      6.55      0.00
   -7    5    2     -1.61      0.00
   -5    5    2    -10.29      0.00
   -3    5    2    -17.23      0.00
   -1    5    2    -20.19      0.00
    1    5    2    -18.11      0.00
    3    5    2    -11.70      0.00
    5    5    2     -2.98      0.00
    7    5    2      5.75      0.00
    9    5    2     12.77      0.00
   11    5    2     17.25      0.00
   13    5    2     18.98      0.00
   15    5    2     18.09      0.00
   17    5    2     15.08      0.00
   19    5    2     10.79      0.00
   21    5    2      6.34      0.00
   23    5    2      2.67      0.00
   25    5    2      0.27      0.00
   27    5    2     -0.92      0.00
   29    5    2     -1.18      0.00
   31    5    2     -0.77      0.00
   33    5    2      0.12      0.00
   35    5    2      1.16      0.00
   37    5    2      1.90      0.00
   39    5    2      1.91      0.00
   41    5    2      1.20      0.00
   43    5    2      0.22      0.00
  -44    6    2     -1.10      0.00
  -42    6    2     -0.48      0.00
  -40    6    2     -0.10      0.00
  -38    6    2     -0.51      0.00
  -36    6    2     -1.84      0.00
  -34    6    2     -3.55      0.00
  -32    6    2     -4.81      0.00
  -30    6    2     -5.16      0.00
  -28    6    2     -4.73      0.00
  -26    6    2     -3.97      0.00
  -24    6    2     -3.04      0.00
  -22    6    2     -1.49      0.00
  -20    6    2      1.39      0.00
  -18    6    2      5.98      0.00
  -16    6    2     11.92      0.00
  -14    6    2     18.28      0.00
  -12    6    2     23.95      0.00
  -10    6    2     27.98      0.00
   -8    6    2     29.42      0.00
   -6    6    2     27.20      0.00
   -4    6    2     20.44      0.00
   -2    6    2      9.14      0.00
    0    6    2     -5.18      0.00
    2    6    2    -19.67      0.00
    4    6    2    -31.15      0.00
    6    6    2    -37.40      0.00
    8    6    2    -37.85      0.00
   10    6    2    -33.33      0.00
   12    6    2    -25.31      0.00
   14    6    2    -15.22      0.00
   16    6    2     -4.44      0.00
   18    6    2      5.59      0.00
   20    6    2     13.38      0.00
   22    6    2     17.81      0.00
   24    6    2     18.64      0.00
   26    6    2     16.56      0.00
   28    6    2     12.73      0.00
   30    6    2      8.25      0.00
   32    6    2      3.84      0.00
   34    6    2      0.03      0.00
   36    6    2     -2.64      0.00
   38    6    2     -3.73      0.00
   40    6    2     -3.18      0.00
   42    6    2     -1.58      0.00
  -43    7    2     -3.74      0.00
  -41    7    2     -2.84      0.00
  -39    7    2     -0.39      0.00
  -37    7    2      2.75      0.00
  -35    7    2      5.46      0.00
  -33    7    2      6.95      0.00
  -31    7    2      6.78      0.00
  -29    7    2      4.70      0.00
  -27    7    2      0.46      0.00
  -25    7    2     -6.06      0.00
  -23    7    2    -14.48      0.00
  -21    7    2    -23.73      0.00
  -19    7    2    -32.27      0.00
  -17    7    2    -38.47      0.00
  -15    7    2    -40.91      0.00
  -13    7    2    -38.58      0.00
  -11    7    2    -31.01      0.00
   -9    7    2    -18.48      0.00
   -7    7    2     -2.38      0.00
   -5    7    2     14.78      0.00
   -3    7    2     29.89      0.00
   -1    7    2     40.14      0.00
    1    7    2     43.97      0.00
    3    7    2     41.31      0.00
    5    7    2     33.42      0.00
    7    7    2     22.25      0.00
    9    7    2      9.94      0.00
   11    7    2     -1.51      0.00
   13    7    2    -10.42      0.00
   15    7    2    -15.80      0.00
   17    7    2    -17.57      0.00
   19    7    2    -16.47      0.00
   21    7    2    -13.71      0.00
   23    7    2    -10.38      0.00
   25    7    2     -7.13      0.00
   27    7    2     -4.20      0.00
   29    7    2     -1.77      0.00
   31    7    2     -0.07      0.00
   33    7    2      0.71      0.00
   35    7    2      0.67      0.00
   37    7    2      0.25      0.00
   39    7    2     -0.05      0.00
   41    7    2      0.05      0.00
  -42    8    2      0.16      0.00
  -40    8    2     -0.90      0.00
  -38    8    2     -3.02      0.00
  -36    8    2     -5.91      0.00
  -34    8    2     -8.93      0.00
  -32    8    2    -11.38      0.00
  -30    8    2    -12.62      0.00
  -28    8    2    -12.18      0.00
  -26    8    2     -9.76      0.00
  -24    8    2     -5.29      0.00
  -22    8    2      0.83      0.00
  -20    8    2      7.67      0.00
  -18    8    2     13.84      0.00
  -16    8    2     17.77      0.00
  -14    8    2     18.21      0.00
  -12    8    2     14.63      0.00
  -10    8    2      7.37      0.00
   -8    8    2     -2.42      0.00
   -6    8    2    -13.04      0.00
   -4    8    2    -22.61      0.00
   -2    8    2    -29.41      0.00
    0    8    2    -32.27      0.00
    2    8    2    -30.73      0.00
    4    8    2    -25.18      0.00
    6    8    2    -16.80      0.00
    8    8    2     -7.26      0.00
   10    8    2      1.63      0.00
   12    8    2      8.32      0.00
   14    8    2     11.93      0.00
   16    8    2     12.39      0.00
   18    8    2     10.38      0.00
   20    8    2      7.02      0.00
   22    8    2      3.44      0.00
   24    8    2      0.42      0.00
   26    8    2     -1.69      0.00
   28    8    2     -2.85      0.00
   30    8    2     -3.17      0.00
   32    8    2     -2.74      0.00
   34    8    2     -1.68      0.00
   36    8    2     -0.25      0.00
   38    8    2      1.12      0.00
   40    8    2      2.02      0.00
  -41    9    2     -2.42      0.00
  -39    9    2     -3.77      0.00
  -37    9    2     -5.15      0.00
  -35    9    2     -6.11      0.00
  -33    9    2     -6.22      0.00
  -31    9    2     -5.10      0.00
  -29    9    2     -2.52      0.00
  -27    9    2      1.43      0.00
  -25    9    2      6.20      0.00
  -23    9    2     10.77      0.00
  -21    9    2     14.02      0.00
  -19    9    2     15.04      0.00
  -17    9    2     13.50      0.00
  -15    9    2      9.60      0.00
  -13    9    2      3.87      0.00
  -11    9    2     -2.97      0.00
   -9    9    2    -10.01      0.00
   -7    9    2    -16.07      0.00
   -5    9    2    -19.86      0.00
   -3    9    2    -20.39      0.00
   -1    9    2    -17.50      0.00
    1    9    2    -11.97      0.00
    3    9    2     -5.24      0.00
    5    9    2      1.16      0.00
    7    9    2      6.12      0.00
    9    9    2      9.11      0.00
   11    9    2     10.01      0.00
   13    9    2      9.02      0.00
   15    9    2      6.61      0.00
   17    9    2      3.53      0.00
   19    9    2      0.65      0.00
   21    9    2     -1.39      0.00
   23    9    2     -2.40      0.00
   25    9    2     -2.60      0.00
   27    9    2     -2.32      0.00
   29    9    2     -1.65      0.00
   31    9    2     -0.47      0.00
   33    9    2      1.22      0.00
   35    9    2      3.03      0.00
   37    9    2      4.29      0.00
   39    9    2      4.47      0.00
  -40   10    2     -1.54      0.00
  -38   10    2     -0.20      0.00
  -36   10    2      2.34      0.00
  -34   10    2      5.08      0.00
  -32   10    2      6.70      0.00
  -30   10    2      6.33      0.00
  -28   10    2      3.89      0.00
  -26   10    2     -0.11      0.00
  -24   10    2     -5.00      0.00
  -22   10    2    -10.23      0.00
  -20   10    2    -15.25      0.00
  -18   10    2    -19.22      0.00
  -16   10    2    -21.12      0.00
  -14   10    2    -20.05      0.00
  -12   10    2    -15.83      0.00
  -10   10    2     -9.09      0.00
   -8   10    2     -1.04      0.00
   -6   10    2      7.07      0.00
   -4   10    2     14.25      0.00
   -2   10    2     19.78      0.00
    0   10    2     23.07      0.00
    2   10    2     23.63      0.00
    4   10    2     21.39      0.00
    6   10    2     16.83      0.00
    8   10    2     11.02      0.00
   10   10    2      5.23      0.00
   12   10    2      0.53      0.00
   14   10    2     -2.56      0.00
   16   10    2     -4.07      0.00
   18   10    2     -4.40      0.00
   20   10    2     -4.09      0.00
   22   10    2     -3.66      0.00
   24   10    2     -3.41      0.00
   26   10    2     -3.35      0.00
   28   10    2     -3.26      0.00
   30   10    2     -2.83      0.00
   32   10    2     -1.95      0.00
   34   10    2     -0.83      0.00
   36   10    2      0.18      0.00
   38   10    2      0.80      0.00
  -39   11    2      0.19      0.00
  -37   11    2     -0.69      0.00
  -35   11    2     -1.67      0.00
  -33   11    2     -2.35      0.00
  -31   11    2     -2.62      0.00
  -29   11    2     -2.76      0.00
  -27   11    2     -3.05      0.00
  -25   11    2     -3.29      0.00
  -23   11    2     -2.78      0.00
  -21   11    2     -0.72      0.00
  -19   11    2      3.18      0.00
  -17   11    2      8.41      0.00
  -15   11    2     13.91      0.00
  -13   11    2     18.60      0.00
  -11   11    2     21.67      0.00
   -9   11    2     22.64      0.00
   -7   11    2     21.12      0.00
   -5   11    2     16.89      0.00
   -3   11    2     10.09      0.00
   -1   11    2      1.46      0.00
    1   11    2     -7.69      0.00
    3   11    2    -15.84      0.00
    5   11    2    -21.63      0.00
    7   11    2    -24.13      0.00
    9   11    2    -22.94      0.00
   11   11    2    -18.23      0.00
   13   11    2    -10.89      0.00
   15   11    2     -2.46      0.00
   17   11    2      5.17      0.00
   19   11    2     10.51      0.00
   21   11    2     13.05      0.00
   23   11    2     13.28      0.00
   25   11    2     12.13      0.00
   27   11    2     10.28      0.00
   29   11    2      7.86      0.00
   31   11    2      4.78      0.00
   33   11    2      1.32      0.00
   35   11    2     -1.71      0.00
   37   11    2     -3.35      0.00
  -38   12    2      0.13      0.00
  -36   12    2      0.23      0.00
  -34   12    2      0.22      0.00
  -32   12    2      0.53      0.00
  -30   12    2      1.61      0.00
  -28   12    2      3.51      0.00
  -26   12    2      5.73      0.00
  -24   12    2      7.51      0.00
  -22   12    2      8.16      0.00
  -20   12    2      7.41      0.00
  -18   12    2      5.38      0.00
  -16   12    2      2.50      0.00
  -14   12    2     -0.64      0.00
  -12   12    2     -3.35      0.00
  -10   12    2     -4.93      0.00
   -8   12    2     -4.90      0.00
   -6   12    2     -3.24      0.00
   -4   12    2     -0.41      0.00
   -2   12    2      2.85      0.00
    0   12    2      5.92      0.00
    2   12    2      8.48      0.00
    4   12    2     10.46      0.00
    6   12    2     11.69      0.00
    8   12    2     11.84      0.00
   10   12    2     10.54      0.00
   12   12    2      7.73      0.00
   14   12    2      3.91      0.00
   16   12    2     -0.02      0.00
   18   12    2     -3.15      0.00
   20   12    2     -4.92      0.00
   22   12    2     -5.27      0.00
   24   12    2     -4.49      0.00
   26   12    2     -2.99      0.00
   28   12    2     -1.16      0.00
   30   12    2      0.60      0.00
   32   12    2      1.95      0.00
   34   12    2      2.66      0.00
   36   12    2      2.70      0.00
  -37   13    2     -2.56      0.00
  -35   13    2     -4.24      0.00
  -33   13    2     -5.68      0.00
  -31   13    2     -6.63      0.00
  -29   13    2     -6.83      0.00
  -27   13    2     -6.15      0.00
  -25   13    2     -4.66      0.00
  -23   13    2     -2.78      0.00
  -21   13    2     -1.14      0.00
  -19   13    2     -0.33      0.00
  -17   13    2     -0.67      0.00
  -15   13    2     -2.12      0.00
  -13   13    2     -4.36      0.00
  -11   13    2     -6.94      0.00
   -9   13    2     -9.39      0.00
   -7   13    2    -11.15      0.00
   -5   13    2    -11.67      0.00
   -3   13    2    -10.45      0.00
   -1   13    2     -7.28      0.00
    1   13    2     -2.42      0.00
    3   13    2      3.39      0.00
    5   13    2      9.03      0.00
    7   13    2     13.30      0.00
    9   13    2     15.23      0.00
   11   13    2     14.42      0.00
   13   13    2     11.14      0.00
   15   13    2      6.33      0.00
   17   13    2      1.24      0.00
   19   13    2     -3.05      0.00
   21   13    2     -5.98      0.00
   23   13    2     -7.54      0.00
   25   13    2     -8.04      0.00
   27   13    2     -7.70      0.00
   29   13    2     -6.57      0.00
   31   13    2     -4.68      0.00
   33   13    2     -2.34      0.00
   35   13    2     -0.18      0.00
  -34   14    2     -0.63      0.00
  -32   14    2     -1.45      0.00
  -30   14    2     -1.84      0.00
  -28   14    2     -1.63      0.00
  -26   14    2     -0.92      0.00
  -24   14    2      0.11      0.00
  -22   14    2      1.39      0.00
  -20   14    2      3.03      0.00
  -18   14    2      5.05      0.00
  -16   14    2      7.15      0.00
  -14   14    2      8.68      0.00
  -12   14    2      8.95      0.00
  -10   14    2      7.58      0.00
   -8   14    2      4.75      0.00
   -6   14    2      1.00      0.00
   -4   14    2     -3.00      0.00
   -2   14    2     -6.75      0.00
    0   14    2     -9.91      0.00
    2   14    2    -12.21      0.00
    4   14    2    -13.37      0.00
    6   14    2    -13.21      0.00
    8   14    2    -11.78      0.00
   10   14    2     -9.41      0.00
   12   14    2     -6.57      0.00
   14   14    2     -3.63      0.00
   16   14    2     -0.75      0.00
   18   14    2      2.00      0.00
   20   14    2      4.43      0.00
   22   14    2      6.20      0.00
   24   14    2      6.95      0.00
   26   14    2      6.55      0.00
   28   14    2      5.23      0.00
   30   14    2      3.51      0.00
   32   14    2      1.94      0.00
  -33   15    2      4.49      0.00
  -31   15    2      5.31      0.00
  -29   15    2      4.81      0.00
  -27   15    2      3.02      0.00
  -25   15    2      0.41      0.00
  -23   15    2     -2.46      0.00
  -21   15    2     -5.22      0.00
  -19   15    2     -7.73      0.00
  -17   15    2     -9.73      0.00
  -15   15    2    -10.72      0.00
  -13   15    2    -10.12      0.00
  -11   15    2     -7.63      0.00
   -9   15    2     -3.47      0.00
   -7   15    2      1.59      0.00
   -5   15    2      6.58      0.00
   -3   15    2     10.64      0.00
   -1   15    2     13.13      0.00
    1   15    2     13.67      0.00
    3   15    2     12.13      0.00
    5   15    2      8.81      0.00
    7   15    2      4.56      0.00
    9   15    2      0.55      0.00
   11   15    2     -2.17      0.00
   13   15    2     -3.20      0.00
   15   15    2     -2.92      0.00
   17   15    2     -2.17      0.00
   19   15    2     -1.61      0.00
   21   15    2     -1.34      0.00
   23   15    2     -1.00      0.00
   25   15    2     -0.22      0.00
   27   15    2      0.96      0.00
   29   15    2      2.05      0.00
   31   15    2      2.47      0.00
  -30   16    2      0.33      0.00
  -28   16    2     -0.58      0.00
  -26   16    2     -1.64      0.00
  -24   16    2     -2.44      0.00
  -22   16    2     -2.69      0.00
  -20   16    2     -2.31      0.00
  -18   16    2     -1.42      0.00
  -16   16    2     -0.28      0.00
  -14   16    2      0.81      0.00
  -12   16    2      1.49      0.00
  -10   16    2      1.47      0.00
   -8   16    2      0.70      0.00
   -6   16    2     -0.58      0.00
   -4   16    2     -1.89      0.00
   -2   16    2     -2.76      0.00
    0   16    2     -2.98      0.00
    2   16    2     -2.66      0.00
    4   16    2     -2.03      0.00
    6   16    2     -1.22      0.00
    8   16    2     -0.17      0.00
   10   16    2      1.19      0.00
   12   16    2      2.69      0.00
   14   16    2      3.93      0.00
   16   16    2      4.46      0.00
   18   16    2      4.11      0.00
   20   16    2      3.13      0.00
   22   16    2      2.02      0.00
   24   16    2      1.19      0.00
   26   16    2      0.74      0.00
   28   16    2      0.48      0.00
  -29   17    2      2.43      0.00
  -27   17    2      5.03      0.00
  -25   17    2      7.61      0.00
  -23   17    2      9.55      0.00
  -21   17    2     10.56      0.00
  -19   17    2     10.62      0.00
  -17   17    2      9.79      0.00
  -15   17    2      8.07      0.00
  -13   17    2      5.52      0.00
  -11   17    2      2.40      0.00
   -9   17    2     -0.85      0.00
   -7   17    2     -3.77      0.00
   -5   17    2     -6.07      0.00
   -3   17    2     -7.58      0.00
   -1   17    2     -8.13      0.00
    1   17    2     -7.51      0.00
    3   17    2     -5.66      0.00
    5   17    2     -2.98      0.00
    7   17    2     -0.39      0.00
    9   17    2      1.10      0.00
   11   17    2      0.96      0.00
   13   17    2     -0.43      0.00
   15   17    2     -2.02      0.00
   17   17    2     -2.76      0.00
   19   17    2     -2.25      0.00
   21   17    2     -0.87      0.00
   23   17    2      0.60      0.00
   25   17    2      1.53      0.00
   27   17    2      1.82      0.00
  -26   18    2      0.55      0.00
  -24   18    2      0.68      0.00
  -22   18    2      0.39      0.00
  -20   18    2     -0.39      0.00
  -18   18    2     -1.49      0.00
  -16   18    2     -2.62      0.00
  -14   18    2     -3.39      0.00
  -12   18    2     -3.48      0.00
  -10   18    2     -2.73      0.00
   -8   18    2     -1.20      0.00
   -6   18    2      0.88      0.00
   -4   18    2      3.20      0.00
   -2   18    2      5.44      0.00
    0   18    2      7.31      0.00
    2   18    2      8.46      0.00
    4   18    2      8.59      0.00
    6   18    2      7.53      0.00
    8   18    2      5.43      0.00
   10   18    2      2.73      0.00
   12   18    2      0.12      0.00
   14   18    2     -1.80      0.00
   16   18    2     -2.70      0.00
   18   18    2     -2.64      0.00
   20   18    2     -1.95      0.00
   22   18    2     -1.04      0.00
   24   18    2     -0.22      0.00
  -21   19    2     -3.66      0.00
  -19   19    2     -3.44      0.00
  -17   19    2     -2.39      0.00
  -15   19    2     -0.61      0.00
  -13   19    2      1.60      0.00
  -11   19    2      3.89      0.00
   -9   19    2      5.88      0.00
   -7   19    2      7.24      0.00
   -5   19    2      7.60      0.00
   -3   19    2      6.62      0.00
   -1   19    2      4.11      0.00
    1   19    2      0.36      0.00
    3   19    2     -3.75      0.00
    5   19    2     -7.02      0.00
    7   19    2     -8.43      0.00
    9   19    2     -7.66      0.00
   11   19    2     -5.24      0.00
   13   19    2     -2.20      0.00
   15   19    2      0.46      0.00
   17   19    2      2.19      0.00
   19   19    2      2.93      0.00
  -18   20    2      2.19      0.00
  -16   20    2      1.61      0.00
  -14   20    2      0.50      0.00
  -12   20    2     -0.69      0.00
  -10   20    2     -1.41      0.00
   -8   20    2     -1.33      0.00
   -6   20    2     -0.46      0.00
   -4   20    2      0.84      0.00
   -2   20    2      2.04      0.00
    0   20    2      2.67      0.00
    2   20    2      2.39      0.00
    4   20    2      1.21      0.00
    6   20    2     -0.51      0.00
    8   20    2     -2.17      0.00
   10   20    2     -3.19      0.00
   12   20    2     -3.29      0.00
   14   20    2     -2.63      0.00
   16   20    2     -1.66      0.00
  -11   21    2      1.00      0.00
   -9   21    2      0.40      0.00
   -7   21    2     -1.03      0.00
   -5   21    2     -2.67      0.00
   -3   21    2     -3.63      0.00
   -1   21    2     -3.28      0.00
    1   21    2     -1.66      0.00
    3   21    2      0.55      0.00
    5   21    2      2.53      0.00
    7   21    2      3.69      0.00
    9   21    2      3.94      0.00
  -45    1    3      4.72      0.00
  -43    1    3      4.57      0.00
  -41    1    3      2.55      0.00
  -39    1    3     -0.49      0.00
  -37    1    3     -3.36      0.00
  -35    1    3     -5.26      0.00
  -33    1    3     -6.10      0.00
  -31    1    3     -5.93      0.00
  -29    1    3     -4.42      0.00
  -27    1    3     -0.79      0.00
  -25    1    3      5.50      0.00
  -23    1    3     14.02      0.00
  -21    1    3     23.21      0.00
  -19    1    3     31.14      0.00
  -17    1    3     36.36      0.00
  -15    1    3     38.30      0.00
  -13    1    3     36.87      0.00
  -11    1    3     31.95      0.00
   -9    1    3     23.37      0.00
   -7    1    3     11.47      0.00
   -5    1    3     -2.12      0.00
   -3    1    3    -14.58      0.00
   -1    1    3    -22.80      0.00
    1    1    3    -24.85      0.00
    3    1    3    -20.74      0.00
    5    1    3    -12.35      0.00
    7    1    3     -2.50      0.00
    9    1    3      6.24      0.00
   11    1    3     12.16      0.00
   13    1    3     14.68      0.00
   15    1    3     14.14      0.00
   17    1    3     11.54      0.00
   19    1    3      8.19      0.00
   21    1    3      5.20      0.00
   23    1    3      3.15      0.00
   25    1    3      2.03      0.00
   27    1    3      1.43      0.00
   29    1    3      1.01      0.00
   31    1    3      0.75      0.00
   33    1    3      0.83      0.00
   35    1    3      1.40      0.00
   37    1    3      2.34      0.00
   39    1    3      3.28      0.00
   41    1    3      3.81      0.00
  -46    2    3     -3.00      0.00
  -44    2    3     -4.24      0.00
  -42    2    3     -4.80      0.00
  -40    2    3     -3.51      0.00
  -38    2    3      0.19      0.00
  -36    2    3      5.73      0.00
  -34    2    3     11.68      0.00
  -32    2    3     16.65      0.00
  -30    2    3     19.96      0.00
  -28    2    3     21.48      0.00
  -26    2    3     21.02      0.00
  -24    2    3     17.97      0.00
  -22    2    3     11.74      0.00
  -20    2    3      2.40      0.00
  -18    2    3     -8.86      0.00
  -16    2    3    -20.29      0.00
  -14    2    3    -30.10      0.00
  -12    2    3    -36.76      0.00
  -10    2    3    -38.41      0.00
   -8    2    3    -32.65      0.00
   -6    2    3    -17.32      0.00
   -4    2    3      7.73      0.00
   -2    2    3     39.13      0.00
    0    2    3     70.31      0.00
    2    2    3     93.91      0.00
    4    2    3    104.95      0.00
    6    2    3    102.69      0.00
    8    2    3     90.15      0.00
   10    2    3     71.91      0.00
   12    2    3     51.98      0.00
   14    2    3     32.97      0.00
   16    2    3     16.51      0.00
   18    2    3      3.81      0.00
   20    2    3     -4.28      0.00
   22    2    3     -7.71      0.00
   24    2    3     -7.48      0.00
   26    2    3     -5.14      0.00
   28    2    3     -1.97      0.00
   30    2    3      1.32      0.00
   32    2    3      4.43      0.00
   34    2    3      6.89      0.00
   36    2    3      8.02      0.00
   38    2    3      7.39      0.00
   40    2    3      5.34      0.00
   42    2    3      2.91      0.00
  -45    3    3     -2.00      0.00
  -43    3    3     -1.10      0.00
  -41    3    3     -0.12      0.00
  -39    3    3     -0.22      0.00
  -37    3    3     -1.83      0.00
  -35    3    3     -4.33      0.00
  -33    3    3     -6.72      0.00
  -31    3    3     -8.59      0.00
  -29    3    3    -10.40      0.00
  -27    3    3    -12.75      0.00
  -25    3    3    -15.26      0.00
  -23    3    3    -16.40      0.00
  -21    3    3    -14.28      0.00
  -19    3    3     -7.91      0.00
  -17    3    3      2.35      0.00
  -15    3    3     15.27      0.00
  -13    3    3     29.44      0.00
  -11    3    3     43.24      0.00
   -9    3    3     54.23      0.00
   -7    3    3     58.92      0.00
   -5    3    3     53.94      0.00
   -3    3    3     38.15      0.00
   -1    3    3     14.18      0.00
    1    3    3    -12.05      0.00
    3    3    3    -33.86      0.00
    5    3    3    -46.73      0.00
    7    3    3    -49.63      0.00
    9    3    3    -44.30      0.00
   11    3    3    -33.46      0.00
   13    3    3    -19.51      0.00
   15    3    3     -4.51      0.00
   17    3    3      9.38      0.00
   19    3    3     19.83      0.00
   21    3    3     25.18      0.00
   23    3    3     25.24      0.00
   25    3    3     21.31      0.00
   27    3    3     15.37      0.00
   29    3    3      8.94      0.00
   31    3    3      2.82      0.00
   33    3    3     -2.59      0.00
   35    3    3     -6.71      0.00
   37    3    3     -8.88      0.00
   39    3    3     -8.83      0.00
   41    3    3     -7.10      0.00
  -44    4    3     -3.12      0.00
  -42    4    3     -2.68      0.00
  -40    4    3     -1.92      0.00
  -38    4    3     -1.91      0.00
  -36    4    3     -3.34      0.00
  -34    4    3     -5.97      0.00
  -32    4    3     -8.86      0.00
  -30    4    3    -11.03      0.00
  -28    4    3    -12.02      0.00
  -26    4    3    -11.87      0.00
  -24    4    3    -10.74      0.00
  -22    4    3     -8.57      0.00
  -20    4    3     -5.20      0.00
  -18    4    3     -0.68      0.00
  -16    4    3      4.43      0.00
  -14    4    3      9.21      0.00
  -12    4    3     12.66      0.00
  -10    4    3     13.92      0.00
   -8    4    3     12.22      0.00
   -6    4    3      6.96      0.00
   -4    4    3     -2.09      0.00
   -2    4    3    -14.31      0.00
    0    4    3    -27.98      0.00
    2    4    3    -40.65      0.00
    4    4    3    -49.90      0.00
    6    4    3    -54.19      0.00
    8    4    3    -53.25      0.00
   10    4    3    -47.79      0.00
   12    4    3    -39.06      0.00
   14    4    3    -28.56      0.00
   16    4    3    -17.83      0.00
   18    4    3     -8.44      0.00
   20    4    3     -1.59      0.00
   22    4    3      2.17      0.00
   24    4    3      3.15      0.00
   26    4    3      2.21      0.00
   28    4    3      0.34      0.00
   30    4    3     -1.77      0.00
   32    4    3     -3.65      0.00
   34    4    3     -4.91      0.00
   36    4    3     -5.19      0.00
   38    4    3     -4.31      0.00
   40    4    3     -2.59      0.00
   42    4    3     -0.72      0.00
  -45    5    3      0.47      0.00
  -43    5    3      0.30      0.00
  -41    5    3      0.25      0.00
  -39    5    3      1.13      0.00
  -37    5    3      3.42      0.00
  -35    5    3      6.83      0.00
  -33    5    3     10.52      0.00
  -31    5    3     13.68      0.00
  -29    5    3     15.93      0.00
  -27    5    3     17.07      0.00
  -25    5    3     16.56      0.00
  -23    5    3     13.36      0.00
  -21    5    3      6.33      0.00
  -19    5    3     -4.83      0.00
  -17    5    3    -19.10      0.00
  -15    5    3    -34.40      0.00
  -13    5    3    -48.28      0.00
  -11    5    3    -58.41      0.00
   -9    5    3    -62.72      0.00
   -7    5    3    -59.34      0.00
   -5    5    3    -47.14      0.00
   -3    5    3    -26.67      0.00
   -1    5    3     -0.89      0.00
    1    5    3     25.20      0.00
    3    5    3     46.18      0.00
    5    5    3     58.22      0.00
    7    5    3     60.20      0.00
    9    5    3     53.44      0.00
   11    5    3     40.52      0.00
   13    5    3     24.12      0.00
   15    5    3      6.71      0.00
   17    5    3     -9.34      0.00
   19    5    3    -21.83      0.00
   21    5    3    -29.16      0.00
   23    5    3    -31.02      0.00
   25    5    3    -28.47      0.00
   27    5    3    -23.26      0.00
   29    5    3    -17.00      0.00
   31    5    3    -10.65      0.00
   33    5    3     -4.77      0.00
   35    5    3      0.10      0.00
   37    5    3      3.27      0.00
   39    5    3      4.34      0.00
   41    5    3      3.57      0.00
  -44    6    3      5.91      0.00
  -42    6    3      6.28      0.00
  -40    6    3      5.39      0.00
  -38    6    3      3.83      0.00
  -36    6    3      2.19      0.00
  -34    6    3      0.80      0.00
  -32    6    3     -0.30      0.00
  -30    6    3     -1.00      0.00
  -28    6    3     -0.91      0.00
  -26    6    3      0.52      0.00
  -24    6    3      3.75      0.00
  -22    6    3      8.79      0.00
  -20    6    3     15.14      0.00
  -18    6    3     21.83      0.00
  -16    6    3     27.61      0.00
  -14    6    3     31.20      0.00
  -12    6    3     31.53      0.00
  -10    6    3     28.13      0.00
   -8    6    3     21.34      0.00
   -6    6    3     12.29      0.00
   -4    6    3      2.58      0.00
   -2    6    3     -6.18      0.00
    0    6    3    -12.66      0.00
    4    6    3    -16.00      0.00
    6    6    3    -12.97      0.00
    8    6    3     -7.93      0.00
   10    6    3     -2.32      0.00
   12    6    3      2.52      0.00
   14    6    3      5.81      0.00
   16    6    3      7.55      0.00
   18    6    3      8.27      0.00
   20    6    3      8.44      0.00
   22    6    3      8.20      0.00
   24    6    3      7.41      0.00
   26    6    3      5.97      0.00
   28    6    3      4.10      0.00
   30    6    3      2.19      0.00
   32    6    3      0.55      0.00
   34    6    3     -0.81      0.00
   36    6    3     -1.97      0.00
   38    6    3     -2.85      0.00
   40    6    3     -3.17      0.00
  -43    7    3     -0.60      0.00
  -41    7    3      0.01      0.00
  -39    7    3      0.90      0.00
  -37    7    3      1.75      0.00
  -35    7    3      2.28      0.00
  -33    7    3      2.43      0.00
  -31    7    3      2.26      0.00
  -29    7    3      1.84      0.00
  -27    7    3      1.14      0.00
  -25    7    3      0.12      0.00
  -23    7    3     -1.04      0.00
  -21    7    3     -1.94      0.00
  -19    7    3     -2.04      0.00
  -17    7    3     -0.83      0.00
  -15    7    3      1.88      0.00
  -13    7    3      5.87      0.00
  -11    7    3     10.47      0.00
   -9    7    3     14.63      0.00
   -7    7    3     17.18      0.00
   -5    7    3     17.20      0.00
   -3    7    3     14.40      0.00
   -1    7    3      9.25      0.00
    1    7    3      2.81      0.00
    3    7    3     -3.61      0.00
    5    7    3     -8.90      0.00
    7    7    3    -12.33      0.00
    9    7    3    -13.53      0.00
   11    7    3    -12.41      0.00
   13    7    3     -9.17      0.00
   15    7    3     -4.44      0.00
   17    7    3      0.74      0.00
   19    7    3      5.20      0.00
   21    7    3      8.07      0.00
   23    7    3      9.07      0.00
   25    7    3      8.55      0.00
   27    7    3      7.10      0.00
   29    7    3      5.27      0.00
   31    7    3      3.31      0.00
   33    7    3      1.40      0.00
   35    7    3     -0.24      0.00
   37    7    3     -1.30      0.00
   39    7    3     -1.55      0.00
   41    7    3     -1.05      0.00
  -42    8    3     -0.66      0.00
  -40    8    3     -0.30      0.00
  -38    8    3      0.77      0.00
  -36    8    3      2.45      0.00
  -34    8    3      4.26      0.00
  -32    8    3      5.40      0.00
  -30    8    3      4.99      0.00
  -28    8    3      2.49      0.00
  -26    8    3     -2.01      0.00
  -24    8    3     -7.81      0.00
  -22    8    3    -13.94      0.00
  -20    8    3    -19.49      0.00
  -18    8    3    -23.77      0.00
  -16    8    3    -26.18      0.00
  -14    8    3    -26.15      0.00
  -12    8    3    -23.30      0.00
  -10    8    3    -17.78      0.00
   -8    8    3    -10.49      0.00
   -6    8    3     -2.91      0.00
   -4    8    3      3.49      0.00
   -2    8    3      7.76      0.00
    0    8    3      9.66      0.00
    2    8    3      9.48      0.00
    4    8    3      7.77      0.00
    6    8    3      5.14      0.00
    8    8    3      2.30      0.00
   10    8    3     -0.05      0.00
   12    8    3     -1.40      0.00
   14    8    3     -1.71      0.00
   16    8    3     -1.40      0.00
   18    8    3     -1.09      0.00
   20    8    3     -1.17      0.00
   22    8    3     -1.65      0.00
   24    8    3     -2.28      0.00
   26    8    3     -2.92      0.00
   28    8    3     -3.62      0.00
   30    8    3     -4.43      0.00
   32    8    3     -5.16      0.00
   34    8    3     -5.35      0.00
   36    8    3     -4.58      0.00
   38    8    3     -2.93      0.00
   40    8    3     -1.00      0.00
  -41    9    3      1.90      0.00
  -39    9    3      1.11      0.00
  -37    9    3     -1.32      0.00
  -35    9    3     -4.83      0.00
  -33    9    3     -8.23      0.00
  -31    9    3    -10.40      0.00
  -29    9    3    -10.75      0.00
  -27    9    3     -9.33      0.00
  -25    9    3     -6.42      0.00
  -23    9    3     -2.26      0.00
  -21    9    3      2.94      0.00
  -19    9    3      8.68      0.00
  -17    9    3     13.92      0.00
  -15    9    3     17.30      0.00
  -13    9    3     17.72      0.00
  -11    9    3     14.82      0.00
   -9    9    3      9.14      0.00
   -7    9    3      1.79      0.00
   -5    9    3     -6.04      0.00
   -3    9    3    -13.32      0.00
   -1    9    3    -19.25      0.00
    1    9    3    -23.19      0.00
    3    9    3    -24.69      0.00
    5    9    3    -23.70      0.00
    7    9    3    -20.68      0.00
    9    9    3    -16.48      0.00
   11    9    3    -12.04      0.00
   13    9    3     -8.05      0.00
   15    9    3     -4.80      0.00
   17    9    3     -2.29      0.00
   19    9    3     -0.37      0.00
   21    9    3      1.08      0.00
   23    9    3      2.15      0.00
   25    9    3      2.87      0.00
   27    9    3      3.26      0.00
   29    9    3      3.29      0.00
   31    9    3      2.97      0.00
   33    9    3      2.39      0.00
   35    9    3      1.73      0.00
   37    9    3      1.17      0.00
   39    9    3      0.81      0.00
  -40   10    3     -1.10      0.00
  -38   10    3     -1.07      0.00
  -36   10    3     -0.67      0.00
  -34   10    3      0.09      0.00
  -32   10    3      1.37      0.00
  -30   10    3      3.47      0.00
  -28   10    3      6.38      0.00
  -26   10    3      9.49      0.00
  -24   10    3     11.62      0.00
  -22   10    3     11.53      0.00
  -20   10    3      8.61      0.00
  -18   10    3      3.17      0.00
  -16   10    3     -3.80      0.00
  -14   10    3    -11.07      0.00
  -12   10    3    -17.52      0.00
  -10   10    3    -22.15      0.00
   -8   10    3    -24.01      0.00
   -6   10    3    -22.41      0.00
   -4   10    3    -17.14      0.00
   -2   10    3     -8.89      0.00
    0   10    3      0.90      0.00
    2   10    3     10.36      0.00
    4   10    3     17.75      0.00
    6   10    3     21.85      0.00
    8   10    3     22.10      0.00
   10   10    3     18.62      0.00
   12   10    3     12.28      0.00
   14   10    3      4.60      0.00
   16   10    3     -2.64      0.00
   18   10    3     -7.96      0.00
   20   10    3    -10.71      0.00
   22   10    3    -11.13      0.00
   24   10    3    -10.00      0.00
   26   10    3     -7.97      0.00
   28   10    3     -5.36      0.00
   30   10    3     -2.33      0.00
   32   10    3      0.78      0.00
   34   10    3      3.27      0.00
   36   10    3      4.44      0.00
   38   10    3      4.08      0.00
  -39   11    3      2.22      0.00
  -37   11    3      3.51      0.00
  -35   11    3      5.26      0.00
  -33   11    3      6.58      0.00
  -31   11    3      6.50      0.00
  -29   11    3      4.65      0.00
  -27   11    3      1.46      0.00
  -25   11    3     -2.15      0.00
  -23   11    3     -5.34      0.00
  -21   11    3     -7.67      0.00
  -19   11    3     -8.99      0.00
  -17   11    3     -9.18      0.00
  -15   11    3     -8.07      0.00
  -13   11    3     -5.65      0.00
  -11   11    3     -2.28      0.00
   -9   11    3      1.31      0.00
   -7   11    3      4.31      0.00
   -5   11    3      6.18      0.00
   -3   11    3      6.78      0.00
   -1   11    3      6.26      0.00
    1   11    3      4.85      0.00
    3   11    3      2.90      0.00
    5   11    3      0.91      0.00
    7   11    3     -0.47      0.00
    9   11    3     -0.64      0.00
   11   11    3      0.54      0.00
   13   11    3      2.67      0.00
   15   11    3      4.88      0.00
   17   11    3      6.31      0.00
   19   11    3      6.45      0.00
   21   11    3      5.28      0.00
   23   11    3      3.21      0.00
   25   11    3      0.81      0.00
   27   11    3     -1.32      0.00
   29   11    3     -2.71      0.00
   31   11    3     -3.14      0.00
   33   11    3     -2.74      0.00
   35   11    3     -1.89      0.00
   37   11    3     -1.06      0.00
  -38   12    3      4.27      0.00
  -36   12    3      4.33      0.00
  -34   12    3      3.51      0.00
  -32   12    3      2.07      0.00
  -30   12    3      0.37      0.00
  -28   12    3     -1.17      0.00
  -26   12    3     -2.12      0.00
  -24   12    3     -1.96      0.00
  -22   12    3     -0.27      0.00
  -20   12    3      3.10      0.00
  -18   12    3      7.80      0.00
  -16   12    3     13.07      0.00
  -14   12    3     18.03      0.00
  -12   12    3     21.88      0.00
  -10   12    3     24.07      0.00
   -8   12    3     24.23      0.00
   -6   12    3     22.09      0.00
   -4   12    3     17.53      0.00
   -2   12    3     10.81      0.00
    0   12    3      2.63      0.00
    2   12    3     -5.82      0.00
    4   12    3    -13.13      0.00
    6   12    3    -17.96      0.00
    8   12    3    -19.43      0.00
   10   12    3    -17.34      0.00
   12   12    3    -12.29      0.00
   14   12    3     -5.53      0.00
   16   12    3      1.41      0.00
   18   12    3      7.25      0.00
   20   12    3     11.29      0.00
   22   12    3     13.47      0.00
   24   12    3     14.05      0.00
   26   12    3     13.24      0.00
   28   12    3     11.12      0.00
   30   12    3      7.89      0.00
   32   12    3      4.09      0.00
   34   12    3      0.69      0.00
  -35   13    3     -1.47      0.00
  -33   13    3     -0.59      0.00
  -31   13    3      0.96      0.00
  -29   13    3      2.88      0.00
  -27   13    3      4.69      0.00
  -25   13    3      5.91      0.00
  -23   13    3      6.03      0.00
  -21   13    3      4.71      0.00
  -19   13    3      1.90      0.00
  -17   13    3     -2.05      0.00
  -15   13    3     -6.31      0.00
  -13   13    3     -9.85      0.00
  -11   13    3    -11.71      0.00
   -9   13    3    -11.41      0.00
   -7   13    3     -8.99      0.00
   -5   13    3     -4.94      0.00
   -3   13    3      0.08      0.00
   -1   13    3      5.41      0.00
    1   13    3     10.45      0.00
    3   13    3     14.59      0.00
    5   13    3     17.24      0.00
    7   13    3     17.97      0.00
    9   13    3     16.66      0.00
   11   13    3     13.60      0.00
   13   13    3      9.39      0.00
   15   13    3      4.80      0.00
   17   13    3      0.55      0.00
   19   13    3     -2.78      0.00
   21   13    3     -4.83      0.00
   23   13    3     -5.45      0.00
   25   13    3     -4.80      0.00
   27   13    3     -3.27      0.00
   29   13    3     -1.43      0.00
   31   13    3      0.21      0.00
   33   13    3      1.28      0.00
  -34   14    3     -6.31      0.00
  -32   14    3     -7.13      0.00
  -30   14    3     -6.97      0.00
  -28   14    3     -5.96      0.00
  -26   14    3     -4.50      0.00
  -24   14    3     -3.00      0.00
  -22   14    3     -1.72      0.00
  -20   14    3     -0.73      0.00
  -18   14    3     -0.12      0.00
  -16   14    3      0.03      0.00
  -14   14    3     -0.47      0.00
  -12   14    3     -1.71      0.00
  -10   14    3     -3.65      0.00
   -8   14    3     -6.00      0.00
   -6   14    3     -8.23      0.00
   -4   14    3     -9.70      0.00
   -2   14    3     -9.81      0.00
    0   14    3     -8.30      0.00
    2   14    3     -5.45      0.00
    4   14    3     -2.01      0.00
    6   14    3      0.96      0.00
    8   14    3      2.63      0.00
   10   14    3      2.73      0.00
   12   14    3      1.65      0.00
   14   14    3      0.17      0.00
   16   14    3     -0.96      0.00
   18   14    3     -1.45      0.00
   20   14    3     -1.47      0.00
   22   14    3     -1.41      0.00
   24   14    3     -1.57      0.00
   26   14    3     -1.93      0.00
   28   14    3     -2.18      0.00
   30   14    3     -1.98      0.00
   32   14    3     -1.25      0.00
  -33   15    3     -2.01      0.00
  -31   15    3     -2.50      0.00
  -29   15    3     -2.23      0.00
  -27   15    3     -1.26      0.00
  -25   15    3     -0.01      0.00
  -23   15    3      1.13      0.00
  -21   15    3      2.13      0.00
  -19   15    3      3.20      0.00
  -17   15    3      4.41      0.00
  -15   15    3      5.43      0.00
  -13   15    3      5.76      0.00
  -11   15    3      5.08      0.00
   -9   15    3      3.61      0.00
   -7   15    3      1.90      0.00
   -5   15    3      0.36      0.00
   -3   15    3     -0.98      0.00
   -1   15    3     -2.42      0.00
    1   15    3     -4.11      0.00
    3   15    3     -5.84      0.00
    5   15    3     -7.16      0.00
    7   15    3     -7.77      0.00
    9   15    3     -7.80      0.00
   11   15    3     -7.60      0.00
   13   15    3     -7.39      0.00
   15   15    3     -7.03      0.00
   17   15    3     -6.20      0.00
   19   15    3     -4.79      0.00
   21   15    3     -3.11      0.00
   23   15    3     -1.63      0.00
   25   15    3     -0.66      0.00
   27   15    3     -0.10      0.00
   29   15    3      0.37      0.00
  -30   16    3     -0.84      0.00
  -28   16    3     -2.56      0.00
  -26   16    3     -4.44      0.00
  -24   16    3     -5.84      0.00
  -22   16    3     -6.59      0.00
  -20   16    3     -7.01      0.00
  -18   16    3     -7.52      0.00
  -16   16    3     -8.09      0.00
  -14   16    3     -8.22      0.00
  -12   16    3     -7.34      0.00
  -10   16    3     -5.25      0.00
   -8   16    3     -2.34      0.00
   -6   16    3      0.71      0.00
   -4   16    3      3.34      0.00
   -2   16    3      5.25      0.00
    0   16    3      6.33      0.00
    2   16    3      6.53      0.00
    4   16    3      5.86      0.00
    6   16    3      4.60      0.00
    8   16    3      3.28      0.00
   10   16    3      2.45      0.00
   12   16    3      2.26      0.00
   14   16    3      2.30      0.00
   16   16    3      1.90      0.00
   18   16    3      0.70      0.00
   20   16    3     -1.05      0.00
   22   16    3     -2.64      0.00
   24   16    3     -3.42      0.00
   26   16    3     -3.24      0.00
   28   16    3     -2.50      0.00
  -29   17    3     -1.57      0.00
  -27   17    3     -2.56      0.00
  -25   17    3     -3.30      0.00
  -23   17    3     -3.58      0.00
  -21   17    3     -3.28      0.00
  -19   17    3     -2.36      0.00
  -17   17    3     -0.81      0.00
  -15   17    3      1.17      0.00
  -13   17    3      3.15      0.00
  -11   17    3      4.55      0.00
   -9   17    3      4.92      0.00
   -7   17    3      4.17      0.00
   -5   17    3      2.54      0.00
   -3   17    3      0.46      0.00
   -1   17    3     -1.73      0.00
    1   17    3     -3.73      0.00
    3   17    3     -5.22      0.00
    5   17    3     -5.77      0.00
    7   17    3     -5.05      0.00
    9   17    3     -3.11      0.00
   11   17    3     -0.54      0.00
   13   17    3      1.77      0.00
   15   17    3      3.09      0.00
   17   17    3      3.25      0.00
   19   17    3      2.64      0.00
   21   17    3      1.86      0.00
   23   17    3      1.29      0.00
   25   17    3      0.95      0.00
  -26   18    3      3.21      0.00
  -24   18    3      4.65      0.00
  -22   18    3      5.65      0.00
  -20   18    3      6.06      0.00
  -18   18    3      5.67      0.00
  -16   18    3      4.27      0.00
  -14   18    3      1.88      0.00
  -12   18    3     -1.08      0.00
  -10   18    3     -3.90      0.00
   -8   18    3     -5.90      0.00
   -6   18    3     -6.68      0.00
   -4   18    3     -6.13      0.00
   -2   18    3     -4.28      0.00
    0   18    3     -1.30      0.00
    2   18    3      2.42      0.00
    4   18    3      6.02      0.00
    6   18    3      8.36      0.00
    8   18    3      8.55      0.00
   10   18    3      6.47      0.00
   12   18    3      2.97      0.00
   14   18    3     -0.55      0.00
   16   18    3     -2.89      0.00
   18   18    3     -3.63      0.00
   20   18    3     -3.12      0.00
   22   18    3     -2.09      0.00
  -21   19    3     -2.73      0.00
  -19   19    3     -3.40      0.00
  -17   19    3     -3.58      0.00
  -15   19    3     -3.19      0.00
  -13   19    3     -2.44      0.00
  -11   19    3     -1.68      0.00
   -9   19    3     -1.23      0.00
   -7   19    3     -1.13      0.00
   -5   19    3     -1.09      0.00
   -3   19    3     -0.68      0.00
   -1   19    3      0.36      0.00
    1   19    3      1.87      0.00
    3   19    3      3.34      0.00
    5   19    3      4.16      0.00
    7   19    3      4.06      0.00
    9   19    3      3.23      0.00
   11   19    3      2.24      0.00
   13   19    3      1.60      0.00
   15   19    3      1.50      0.00
   17   19    3      1.76      0.00
   19   19    3      2.00      0.00
  -18   20    3     -1.41      0.00
  -16   20    3     -0.90      0.00
  -14   20    3      0.01      0.00
  -12   20    3      1.36      0.00
  -10   20    3      3.10      0.00
   -8   20    3      4.98      0.00
   -6   20    3      6.39      0.00
   -4   20    3      6.48      0.00
   -2   20    3      4.67      0.00
    0   20    3      1.06      0.00
    2   20    3     -3.39      0.00
    4   20    3     -7.19      0.00
    6   20    3     -9.11      0.00
    8   20    3     -8.74      0.00
   10   20    3     -6.60      0.00
   12   20    3     -3.76      0.00
   14   20    3     -1.17      0.00
  -11   21    3     -1.79      0.00
   -9   21    3     -2.27      0.00
   -7   21    3     -2.38      0.00
   -5   21    3     -2.02      0.00
   -3   21    3     -1.28      0.00
   -1   21    3     -0.53      0.00
    1   21    3     -0.23      0.00
    3   21    3     -0.62      0.00
    5   21    3     -1.52      0.00
    7   21    3     -2.41      0.00
  -46    0    4     -3.35      0.00
  -44    0    4     -4.47      0.00
  -42    0    4     -4.30      0.00
  -40    0    4     -2.78      0.00
  -38    0    4     -0.25      0.00
  -36    0    4      2.84      0.00
  -34    0    4      6.09      0.00
  -32    0    4      9.06      0.00
  -30    0    4     11.12      0.00
  -24    0    4      5.12      0.00
  -22    0    4     -1.07      0.00
  -20    0    4     -7.96      0.00
  -18    0    4    -14.51      0.00
  -16    0    4    -20.26      0.00
  -14    0    4    -25.38      0.00
  -12    0    4    -30.18      0.00
  -10    0    4    -34.42      0.00
   -8    0    4    -36.93      0.00
   -6    0    4    -36.02      0.00
   -4    0    4    -30.54      0.00
   -2    0    4    -20.82      0.00
    0    0    4     -8.93      0.00
    2    0    4      2.19      0.00
    4    0    4     10.17      0.00
    6    0    4     14.27      0.00
    8    0    4     15.48      0.00
   10    0    4     15.47      0.00
   12    0    4     15.40      0.00
   14    0    4     15.26      0.00
   16    0    4     14.27      0.00
   18    0    4     11.76      0.00
   20    0    4      7.87      0.00
   22    0    4      3.52      0.00
   24    0    4     -0.17      0.00
   26    0    4     -2.50      0.00
   28    0    4     -3.41      0.00
   30    0    4     -3.24      0.00
   32    0    4     -2.44      0.00
   34    0    4     -1.40      0.00
   36    0    4     -0.46      0.00
   38    0    4      0.06      0.00
   40    0    4      0.03      0.00
  -45    1    4      3.42      0.00
  -43    1    4      5.19      0.00
  -41    1    4      6.28      0.00
  -39    1    4      5.72      0.00
  -37    1    4      3.25      0.00
  -35    1    4     -0.54      0.00
  -33    1    4     -4.65      0.00
  -31    1    4     -8.33      0.00
  -29    1    4    -11.30      0.00
  -27    1    4    -13.39      0.00
  -25    1    4    -14.15      0.00
  -23    1    4    -12.80      0.00
  -21    1    4     -8.70      0.00
  -19    1    4     -1.92      0.00
  -17    1    4      6.68      0.00
  -15    1    4     15.87      0.00
  -13    1    4     24.40      0.00
  -11    1    4     31.05      0.00
   -9    1    4     34.27      0.00
   -7    1    4     32.27      0.00
   -5    1    4     23.67      0.00
   -3    1    4      8.73      0.00
   -1    1    4    -10.08      0.00
    1    1    4    -28.63      0.00
    3    1    4    -42.73      0.00
    5    1    4    -49.84      0.00
    7    1    4    -49.77      0.00
    9    1    4    -44.13      0.00
   11    1    4    -35.17      0.00
   13    1    4    -24.88      0.00
   15    1    4    -14.74      0.00
   17    1    4     -5.91      0.00
   19    1    4      0.71      0.00
   21    1    4      4.63      0.00
   23    1    4      5.96      0.00
   25    1    4      5.34      0.00
   27    1    4      3.56      0.00
   29    1    4      1.25      0.00
   31    1    4     -1.16      0.00
   33    1    4     -3.25      0.00
   35    1    4     -4.50      0.00
   37    1    4     -4.59      0.00
   39    1    4     -3.62      0.00
   41    1    4     -2.18      0.00
  -46    2    4      5.07      0.00
  -44    2    4      4.60      0.00
  -42    2    4      2.96      0.00
  -40    2    4      1.34      0.00
  -38    2    4      0.65      0.00
  -36    2    4      0.89      0.00
  -34    2    4      1.32      0.00
  -32    2    4      1.32      0.00
  -30    2    4      1.10      0.00
  -28    2    4      1.49      0.00
  -26    2    4      3.09      0.00
  -24    2    4      5.55      0.00
  -22    2    4      7.67      0.00
  -20    2    4      8.22      0.00
  -18    2    4      6.65      0.00
  -16    2    4      3.27      0.00
  -14    2    4     -1.12      0.00
  -12    2    4     -5.61      0.00
  -10    2    4     -9.29      0.00
   -8    2    4    -11.10      0.00
   -6    2    4     -9.97      0.00
   -4    2    4     -5.35      0.00
   -2    2    4      2.15      0.00
    0    2    4     10.76      0.00
    2    2    4     18.17      0.00
    4    2    4     22.49      0.00
    6    2    4     22.86      0.00
    8    2    4     19.43      0.00
   10    2    4     13.02      0.00
   12    2    4      4.83      0.00
   14    2    4     -3.62      0.00
   16    2    4    -10.63      0.00
   18    2    4    -14.78      0.00
   20    2    4    -15.48      0.00
   22    2    4    -13.28      0.00
   24    2    4     -9.49      0.00
   26    2    4     -5.38      0.00
   28    2    4     -1.65      0.00
   30    2    4      1.59      0.00
   32    2    4      4.35      0.00
   34    2    4      6.36      0.00
   36    2    4      7.20      0.00
   38    2    4      6.69      0.00
   40    2    4      5.19      0.00
   42    2    4      3.38      0.00
  -45    3    4     -0.26      0.00
  -43    3    4     -0.88      0.00
  -41    3    4     -1.14      0.00
  -39    3    4     -0.18      0.00
  -37    3    4      2.40      0.00
  -35    3    4      6.25      0.00
  -33    3    4     10.50      0.00
  -31    3    4     14.30      0.00
  -29    3    4     17.11      0.00
  -27    3    4     18.60      0.00
  -25    3    4     18.23      0.00
  -23    3    4     15.17      0.00
  -21    3    4      8.72      0.00
  -19    3    4     -1.04      0.00
  -17    3    4    -12.99      0.00
  -15    3    4    -25.19      0.00
  -13    3    4    -35.44      0.00
  -11    3    4    -41.77      0.00
   -9    3    4    -42.52      0.00
   -7    3    4    -36.50      0.00
   -5    3    4    -23.28      0.00
   -3    3    4     -3.90      0.00
   -1    3    4     18.88      0.00
    1    3    4     41.01      0.00
    3    3    4     58.39      0.00
    5    3    4     68.24      0.00
    7    3    4     69.86      0.00
    9    3    4     64.32      0.00
   11    3    4     53.75      0.00
   13    3    4     40.42      0.00
   15    3    4     26.45      0.00
   17    3    4     13.63      0.00
   19    3    4      3.41      0.00
   21    3    4     -3.38      0.00
   23    3    4     -6.68      0.00
   25    3    4     -7.07      0.00
   27    3    4     -5.49      0.00
   29    3    4     -2.82      0.00
   31    3    4      0.17      0.00
   33    3    4      2.80      0.00
   35    3    4      4.45      0.00
   37    3    4      4.76      0.00
   39    3    4      3.85      0.00
   41    3    4      2.28      0.00
  -44    4    4      1.13      0.00
  -42    4    4      2.35      0.00
  -40    4    4      2.49      0.00
  -38    4    4      0.71      0.00
  -36    4    4     -2.83      0.00
  -34    4    4     -7.14      0.00
  -32    4    4    -11.23      0.00
  -30    4    4    -14.73      0.00
  -28    4    4    -17.80      0.00
  -26    4    4    -20.27      0.00
  -24    4    4    -21.00      0.00
  -22    4    4    -18.11      0.00
  -20    4    4    -10.08      0.00
  -18    4    4      3.18      0.00
  -16    4    4     20.11      0.00
  -14    4    4     37.94      0.00
  -12    4    4     53.59      0.00
  -10    4    4     64.08      0.00
   -8    4    4     66.77      0.00
   -6    4    4     59.75      0.00
   -4    4    4     42.69      0.00
   -2    4    4     17.72      0.00
    0    4    4    -10.58      0.00
    2    4    4    -36.39      0.00
    4    4    4    -54.64      0.00
    6    4    4    -62.61      0.00
    8    4    4    -60.32      0.00
   10    4    4    -49.82      0.00
   12    4    4    -34.09      0.00
   14    4    4    -16.24      0.00
   16    4    4      0.77      0.00
   18    4    4     14.44      0.00
   20    4    4     23.08      0.00
   22    4    4     26.31      0.00
   24    4    4     24.99      0.00
   26    4    4     20.71      0.00
   28    4    4     14.96      0.00
   30    4    4      8.72      0.00
   32    4    4      2.63      0.00
   34    4    4     -2.65      0.00
   36    4    4     -6.34      0.00
   38    4    4     -7.85      0.00
   40    4    4     -7.24      0.00
  -45    5    4     -6.52      0.00
  -43    5    4     -7.89      0.00
  -41    5    4     -8.07      0.00
  -39    5    4     -7.35      0.00
  -37    5    4     -6.24      0.00
  -35    5    4     -5.20      0.00
  -33    5    4     -4.40      0.00
  -31    5    4     -3.77      0.00
  -29    5    4     -3.19      0.00
  -27    5    4     -2.56      0.00
  -25    5    4     -1.93      0.00
  -23    5    4     -1.43      0.00
  -21    5    4     -1.22      0.00
  -19    5    4     -1.41      0.00
  -17    5    4     -1.98      0.00
  -15    5    4     -2.80      0.00
  -13    5    4     -3.74      0.00
  -11    5    4     -4.78      0.00
   -9    5    4     -6.07      0.00
   -7    5    4     -7.73      0.00
   -5    5    4     -9.70      0.00
   -3    5    4    -11.70      0.00
   -1    5    4    -13.34      0.00
    1    5    4    -14.35      0.00
    3    5    4    -14.70      0.00
    5    5    4    -14.46      0.00
    7    5    4    -13.64      0.00
    9    5    4    -12.13      0.00
   11    5    4     -9.90      0.00
   13    5    4     -7.22      0.00
   15    5    4     -4.69      0.00
   17    5    4     -2.89      0.00
   19    5    4     -2.05      0.00
   21    5    4     -1.93      0.00
   23    5    4     -2.01      0.00
   25    5    4     -1.93      0.00
   27    5    4     -1.59      0.00
   29    5    4     -1.11      0.00
   31    5    4     -0.48      0.00
   33    5    4      0.43      0.00
   35    5    4      1.69      0.00
   37    5    4      3.04      0.00
   39    5    4      3.95      0.00
   41    5    4      3.92      0.00
  -44    6    4     -0.38      0.00
  -42    6    4     -0.79      0.00
  -40    6    4     -1.31      0.00
  -38    6    4     -1.30      0.00
  -36    6    4     -0.19      0.00
  -34    6    4      2.12      0.00
  -32    6    4      5.22      0.00
  -30    6    4      8.42      0.00
  -28    6    4     11.07      0.00
  -26    6    4     12.55      0.00
  -24    6    4     12.29      0.00
  -22    6    4      9.66      0.00
  -20    6    4      4.19      0.00
  -18    6    4     -4.10      0.00
  -16    6    4    -14.42      0.00
  -14    6    4    -25.20      0.00
  -12    6    4    -34.35      0.00
  -10    6    4    -39.76      0.00
   -8    6    4    -39.83      0.00
   -6    6    4    -33.87      0.00
   -4    6    4    -22.37      0.00
   -2    6    4     -7.06      0.00
    0    6    4      9.39      0.00
    2    6    4     24.01      0.00
    4    6    4     34.33      0.00
    6    6    4     39.01      0.00
    8    6    4     37.96      0.00
   10    6    4     32.15      0.00
   12    6    4     23.07      0.00
   14    6    4     12.41      0.00
   16    6    4      1.82      0.00
   18    6    4     -7.19      0.00
   20    6    4    -13.49      0.00
   22    6    4    -16.57      0.00
   24    6    4    -16.64      0.00
   26    6    4    -14.48      0.00
   28    6    4    -11.09      0.00
   30    6    4     -7.30      0.00
   32    6    4     -3.71      0.00
   34    6    4     -0.70      0.00
   36    6    4      1.40      0.00
   38    6    4      2.39      0.00
   40    6    4      2.32      0.00
  -43    7    4      2.07      0.00
  -41    7    4      2.88      0.00
  -39    7    4      2.99      0.00
  -37    7    4      2.03      0.00
  -35    7    4     -0.08      0.00
  -33    7    4     -2.89      0.00
  -31    7    4     -5.49      0.00
  -29    7    4     -6.94      0.00
  -27    7    4     -6.75      0.00
  -25    7    4     -4.97      0.00
  -23    7    4     -1.87      0.00
  -21    7    4      2.40      0.00
  -19    7    4      7.81      0.00
  -17    7    4     14.08      0.00
  -15    7    4     20.38      0.00
  -13    7    4     25.46      0.00
  -11    7    4     28.20      0.00
   -9    7    4     28.17      0.00
   -7    7    4     25.68      0.00
   -5    7    4     21.40      0.00
   -3    7    4     15.89      0.00
   -1    7    4      9.56      0.00
    1    7    4      2.96      0.00
    3    7    4     -3.08      0.00
    5    7    4     -7.69      0.00
    7    7    4    -10.38      0.00
    9    7    4    -11.34      0.00
   11    7    4    -11.14      0.00
   13    7    4    -10.22      0.00
   15    7    4     -8.56      0.00
   17    7    4     -5.96      0.00
   19    7    4     -2.49      0.00
   21    7    4      1.21      0.00
   23    7    4      4.30      0.00
   25    7    4      6.27      0.00
   27    7    4      7.23      0.00
   29    7    4      7.55      0.00
   31    7    4      7.43      0.00
   33    7    4      6.68      0.00
   35    7    4      5.10      0.00
   37    7    4      2.93      0.00
   39    7    4      0.97      0.00
  -42    8    4     -3.48      0.00
  -40    8    4     -4.00      0.00
  -38    8    4     -3.51      0.00
  -36    8    4     -2.13      0.00
  -34    8    4     -0.31      0.00
  -32    8    4      1.34      0.00
  -30    8    4      2.44      0.00
  -28    8    4      2.91      0.00
  -26    8    4      2.80      0.00
  -24    8    4      2.07      0.00
  -22    8    4      0.54      0.00
  -20    8    4     -1.90      0.00
  -18    8    4     -5.04      0.00
  -16    8    4     -8.25      0.00
  -14    8    4    -10.69      0.00
  -12    8    4    -11.80      0.00
  -10    8    4    -11.53      0.00
   -8    8    4    -10.36      0.00
   -6    8    4     -8.85      0.00
   -4    8    4     -7.27      0.00
   -2    8    4     -5.50      0.00
    0    8    4     -3.26      0.00
    2    8    4     -0.49      0.00
    4    8    4      2.48      0.00
    6    8    4      5.13      0.00
    8    8    4      7.01      0.00
   10    8    4      8.04      0.00
   12    8    4      8.42      0.00
   14    8    4      8.35      0.00
   16    8    4      7.87      0.00
   18    8    4      6.82      0.00
   20    8    4      5.10      0.00
   22    8    4      2.84      0.00
   24    8    4      0.46      0.00
   26    8    4     -1.53      0.00
   28    8    4     -2.79      0.00
   30    8    4     -3.20      0.00
   32    8    4     -2.91      0.00
   34    8    4     -2.13      0.00
   36    8    4     -1.12      0.00
   38    8    4     -0.12      0.00
  -41    9    4     -1.98      0.00
  -39    9    4     -1.97      0.00
  -37    9    4     -1.37      0.00
  -35    9    4     -0.25      0.00
  -33    9    4      0.78      0.00
  -31    9    4      0.77      0.00
  -29    9    4     -0.96      0.00
  -27    9    4     -4.24      0.00
  -25    9    4     -8.15      0.00
  -23    9    4    -11.47      0.00
  -21    9    4    -13.34      0.00
  -19    9    4    -13.54      0.00
  -17    9    4    -12.23      0.00
  -15    9    4     -9.73      0.00
  -13    9    4     -6.36      0.00
  -11    9    4     -2.64      0.00
   -9    9    4      0.60      0.00
   -7    9    4      2.38      0.00
   -5    9    4      2.02      0.00
   -3    9    4     -0.50      0.00
   -1    9    4     -4.55      0.00
    1    9    4     -9.12      0.00
    3    9    4    -13.10      0.00
    5    9    4    -15.51      0.00
    7    9    4    -15.56      0.00
    9    9    4    -12.93      0.00
   11    9    4     -7.96      0.00
   13    9    4     -1.79      0.00
   15    9    4      3.99      0.00
   17    9    4      7.96      0.00
   19    9    4      9.47      0.00
   21    9    4      8.74      0.00
   23    9    4      6.40      0.00
   25    9    4      3.11      0.00
   27    9    4     -0.68      0.00
   29    9    4     -4.46      0.00
   31    9    4     -7.50      0.00
   33    9    4     -8.98      0.00
   35    9    4     -8.47      0.00
   37    9    4     -6.30      0.00
  -40   10    4      0.12      0.00
  -38   10    4     -0.92      0.00
  -36   10    4     -3.03      0.00
  -34   10    4     -5.53      0.00
  -32   10    4     -7.37      0.00
  -30   10    4     -7.83      0.00
  -28   10    4     -6.84      0.00
  -26   10    4     -4.83      0.00
  -24   10    4     -2.27      0.00
  -22   10    4      0.69      0.00
  -20   10    4      4.07      0.00
  -18   10    4      7.70      0.00
  -16   10    4     10.97      0.00
  -14   10    4     13.10      0.00
  -12   10    4     13.52      0.00
  -10   10    4     12.26      0.00
   -8   10    4      9.87      0.00
   -6   10    4      7.03      0.00
   -4   10    4      4.24      0.00
   -2   10    4      1.65      0.00
    0   10    4     -0.76      0.00
    2   10    4     -3.02      0.00
    4   10    4     -5.16      0.00
    6   10    4     -7.16      0.00
    8   10    4     -9.02      0.00
   10   10    4    -10.61      0.00
   12   10    4    -11.63      0.00
   14   10    4    -11.68      0.00
   16   10    4    -10.43      0.00
   18   10    4     -7.90      0.00
   20   10    4     -4.45      0.00
   22   10    4     -0.69      0.00
   24   10    4      2.69      0.00
   26   10    4      5.15      0.00
   28   10    4      6.39      0.00
   30   10    4      6.38      0.00
   32   10    4      5.37      0.00
   34   10    4      3.85      0.00
   36   10    4      2.37      0.00
  -39   11    4     -2.36      0.00
  -37   11    4     -2.45      0.00
  -35   11    4     -1.54      0.00
  -33   11    4      0.46      0.00
  -31   11    4      3.48      0.00
  -29   11    4      7.07      0.00
  -27   11    4     10.42      0.00
  -25   11    4     12.44      0.00
  -23   11    4     12.18      0.00
  -21   11    4      9.20      0.00
  -19   11    4      3.77      0.00
  -17   11    4     -3.25      0.00
  -15   11    4    -10.76      0.00
  -13   11    4    -17.60      0.00
  -11   11    4    -22.69      0.00
   -9   11    4    -25.10      0.00
   -7   11    4    -24.14      0.00
   -5   11    4    -19.62      0.00
   -3   11    4    -12.02      0.00
   -1   11    4     -2.49      0.00
    1   11    4      7.41      0.00
    3   11    4     16.03      0.00
    5   11    4     21.99      0.00
    7   11    4     24.37      0.00
    9   11    4     22.91      0.00
   11   11    4     18.10      0.00
   13   11    4     11.11      0.00
   15   11    4      3.51      0.00
   17   11    4     -3.23      0.00
   19   11    4     -8.10      0.00
   21   11    4    -10.73      0.00
   23   11    4    -11.22      0.00
   25   11    4     -9.89      0.00
   27   11    4     -7.21      0.00
   29   11    4     -3.78      0.00
   31   11    4     -0.42      0.00
   33   11    4      2.03      0.00
   35   11    4      3.05      0.00
  -38   12    4      3.17      0.00
  -36   12    4      4.41      0.00
  -34   12    4      5.22      0.00
  -32   12    4      4.97      0.00
  -30   12    4      3.36      0.00
  -28   12    4      0.66      0.00
  -26   12    4     -2.34      0.00
  -24   12    4     -4.64      0.00
  -22   12    4     -5.51      0.00
  -20   12    4     -4.74      0.00
  -18   12    4     -2.56      0.00
  -16   12    4      0.50      0.00
  -14   12    4      3.86      0.00
  -12   12    4      6.93      0.00
  -10   12    4      9.14      0.00
   -8   12    4      9.96      0.00
   -6   12    4      9.06      0.00
   -4   12    4      6.44      0.00
   -2   12    4      2.55      0.00
    0   12    4     -1.89      0.00
    2   12    4     -6.01      0.00
    4   12    4     -9.05      0.00
    6   12    4    -10.47      0.00
    8   12    4    -10.04      0.00
   10   12    4     -7.86      0.00
   12   12    4     -4.38      0.00
   14   12    4     -0.32      0.00
   16   12    4      3.44      0.00
   18   12    4      6.10      0.00
   20   12    4      7.17      0.00
   22   12    4      6.64      0.00
   24   12    4      4.93      0.00
   26   12    4      2.77      0.00
   28   12    4      0.87      0.00
   30   12    4     -0.32      0.00
   32   12    4     -0.72      0.00
   34   12    4     -0.56      0.00
  -35   13    4      5.47      0.00
  -33   13    4      4.26      0.00
  -31   13    4      2.32      0.00
  -29   13    4      0.53      0.00
  -27   13    4     -0.40      0.00
  -25   13    4     -0.20      0.00
  -23   13    4      0.96      0.00
  -21   13    4      2.77      0.00
  -19   13    4      5.04      0.00
  -17   13    4      7.69      0.00
  -15   13    4     10.59      0.00
  -13   13    4     13.38      0.00
  -11   13    4     15.53      0.00
   -9   13    4     16.59      0.00
   -7   13    4     16.30      0.00
   -5   13    4     14.57      0.00
   -3   13    4     11.43      0.00
   -1   13    4      7.12      0.00
    1   13    4      2.15      0.00
    3   13    4     -2.57      0.00
    5   13    4     -5.94      0.00
    7   13    4     -7.19      0.00
    9   13    4     -6.27      0.00
   11   13    4     -3.85      0.00
   13   13    4     -0.96      0.00
   15   13    4      1.62      0.00
   17   13    4      3.62      0.00
   19   13    4      5.17      0.00
   21   13    4      6.44      0.00
   23   13    4      7.35      0.00
   25   13    4      7.63      0.00
   27   13    4      7.04      0.00
   29   13    4      5.64      0.00
   31   13    4      3.82      0.00
   33   13    4      2.06      0.00
  -34   14    4     -1.05      0.00
  -32   14    4      0.20      0.00
  -30   14    4      1.80      0.00
  -28   14    4      3.17      0.00
  -26   14    4      4.02      0.00
  -24   14    4      4.25      0.00
  -22   14    4      3.66      0.00
  -20   14    4      1.92      0.00
  -18   14    4     -1.14      0.00
  -16   14    4     -5.09      0.00
  -14   14    4     -8.93      0.00
  -12   14    4    -11.54      0.00
  -10   14    4    -12.26      0.00
   -8   14    4    -11.17      0.00
   -6   14    4     -8.79      0.00
   -4   14    4     -5.62      0.00
   -2   14    4     -1.86      0.00
    0   14    4      2.35      0.00
    2   14    4      6.65      0.00
    4   14    4     10.32      0.00
    6   14    4     12.67      0.00
    8   14    4     13.40      0.00
   10   14    4     12.77      0.00
   12   14    4     11.29      0.00
   14   14    4      9.39      0.00
   16   14    4      7.21      0.00
   18   14    4      4.82      0.00
   20   14    4      2.47      0.00
   22   14    4      0.61      0.00
   24   14    4     -0.41      0.00
   26   14    4     -0.58      0.00
   28   14    4     -0.25      0.00
   30   14    4      0.15      0.00
  -33   15    4     -0.74      0.00
  -31   15    4     -0.64      0.00
  -29   15    4     -0.36      0.00
  -27   15    4     -0.15      0.00
  -25   15    4     -0.27      0.00
  -23   15    4     -0.62      0.00
  -21   15    4     -0.81      0.00
  -19   15    4     -0.46      0.00
  -17   15    4      0.53      0.00
  -15   15    4      1.75      0.00
  -13   15    4      2.58      0.00
  -11   15    4      2.53      0.00
   -9   15    4      1.58      0.00
   -7   15    4      0.15      0.00
   -5   15    4     -1.20      0.00
   -3   15    4     -2.04      0.00
   -1   15    4     -2.29      0.00
    1   15    4     -2.21      0.00
    3   15    4     -2.19      0.00
    5   15    4     -2.55      0.00
    7   15    4     -3.38      0.00
    9   15    4     -4.48      0.00
   11   15    4     -5.41      0.00
   13   15    4     -5.66      0.00
   15   15    4     -4.90      0.00
   17   15    4     -3.16      0.00
   19   15    4     -0.85      0.00
   21   15    4      1.44      0.00
   23   15    4      3.17      0.00
   25   15    4      4.05      0.00
   27   15    4      4.09      0.00
   29   15    4      3.50      0.00
  -30   16    4      0.42      0.00
  -28   16    4      1.75      0.00
  -26   16    4      3.16      0.00
  -24   16    4      4.27      0.00
  -22   16    4      4.95      0.00
  -20   16    4      5.30      0.00
  -18   16    4      5.32      0.00
  -16   16    4      4.78      0.00
  -14   16    4      3.40      0.00
  -12   16    4      1.28      0.00
  -10   16    4     -1.03      0.00
   -8   16    4     -2.73      0.00
   -6   16    4     -3.28      0.00
   -4   16    4     -2.75      0.00
   -2   16    4     -1.65      0.00
    0   16    4     -0.55      0.00
    2   16    4      0.29      0.00
    4   16    4      0.83      0.00
    6   16    4      1.09      0.00
    8   16    4      0.94      0.00
   10   16    4      0.25      0.00
   12   16    4     -0.91      0.00
   14   16    4     -2.15      0.00
   16   16    4     -2.99      0.00
   18   16    4     -3.23      0.00
   20   16    4     -3.01      0.00
   22   16    4     -2.65      0.00
   24   16    4     -2.31      0.00
   26   16    4     -1.88      0.00
  -27   17    4     -2.03      0.00
  -25   17    4     -2.83      0.00
  -23   17    4     -3.37      0.00
  -21   17    4     -3.84      0.00
  -19   17    4     -4.44      0.00
  -17   17    4     -5.00      0.00
  -15   17    4     -5.06      0.00
  -13   17    4     -4.22      0.00
  -11   17    4     -2.51      0.00
   -9   17    4     -0.53      0.00
   -7   17    4      0.98      0.00
   -5   17    4      1.49      0.00
   -3   17    4      1.00      0.00
   -1   17    4     -0.11      0.00
    1   17    4     -1.38      0.00
    3   17    4     -2.43      0.00
    5   17    4     -2.98      0.00
    7   17    4     -2.78      0.00
    9   17    4     -1.71      0.00
   11   17    4      0.06      0.00
   13   17    4      2.04      0.00
   15   17    4      3.57      0.00
   17   17    4      4.16      0.00
   19   17    4      3.78      0.00
   21   17    4      2.83      0.00
   23   17    4      1.80      0.00
  -24   18    4     -0.91      0.00
  -22   18    4     -0.85      0.00
  -20   18    4     -0.95      0.00
  -18   18    4     -0.97      0.00
  -16   18    4     -0.58      0.00
  -14   18    4      0.34      0.00
  -12   18    4      1.63      0.00
  -10   18    4      2.97      0.00
   -8   18    4      4.06      0.00
   -6   18    4      4.68      0.00
   -4   18    4      4.62      0.00
   -2   18    4      3.62      0.00
    0   18    4      1.61      0.00
    2   18    4     -1.06      0.00
    4   18    4     -3.61      0.00
    6   18    4     -5.17      0.00
    8   18    4     -5.32      0.00
   10   18    4     -4.35      0.00
   12   18    4     -3.04      0.00
   14   18    4     -2.08      0.00
   16   18    4     -1.66      0.00
   18   18    4     -1.46      0.00
   20   18    4     -1.10      0.00
  -21   19    4      2.04      0.00
  -19   19    4      2.37      0.00
  -17   19    4      1.89      0.00
  -15   19    4      0.39      0.00
  -13   19    4     -1.87      0.00
  -11   19    4     -4.28      0.00
   -9   19    4     -6.18      0.00
   -7   19    4     -7.08      0.00
   -5   19    4     -6.69      0.00
   -3   19    4     -4.81      0.00
   -1   19    4     -1.48      0.00
    1   19    4      2.83      0.00
    3   19    4      7.07      0.00
    5   19    4      9.87      0.00
    7   19    4     10.19      0.00
    9   19    4      7.95      0.00
   11   19    4      4.12      0.00
   13   19    4      0.17      0.00
   15   19    4     -2.64      0.00
   17   19    4     -3.83      0.00
  -16   20    4     -0.95      0.00
  -14   20    4      0.08      0.00
  -12   20    4      1.10      0.00
  -10   20    4      1.83      0.00
   -8   20    4      2.17      0.00
   -6   20    4      2.24      0.00
   -4   20    4      2.29      0.00
   -2   20    4      2.54      0.00
    0   20    4      2.96      0.00
    2   20    4      3.29      0.00
    4   20    4      3.18      0.00
    6   20    4      2.49      0.00
    8   20    4      1.47      0.00
   10   20    4      0.57      0.00
   12   20    4      0.17      0.00
   -9   21    4      3.71      0.00
   -7   21    4      4.82      0.00
   -5   21    4      5.53      0.00
   -3   21    4      5.22      0.00
   -1   21    4      3.55      0.00
    1   21    4      0.89      0.00
    3   21    4     -1.82      0.00
    5   21    4     -3.57      0.00
  -45    1    5     -3.98      0.00
  -43    1    5     -4.21      0.00
  -41    1    5     -3.92      0.00
  -39    1    5     -3.22      0.00
  -37    1    5     -1.87      0.00
  -35    1    5      0.50      0.00
  -33    1    5      3.96      0.00
  -31    1    5      7.95      0.00
  -29    1    5     11.46      0.00
  -27    1    5     13.62      0.00
  -25    1    5     14.15      0.00
  -23    1    5     13.38      0.00
  -21    1    5     11.89      0.00
  -19    1    5      9.98      0.00
  -17    1    5      7.47      0.00
  -15    1    5      3.81      0.00
  -13    1    5     -1.51      0.00
  -11    1    5     -8.46      0.00
   -9    1    5    -16.21      0.00
   -7    1    5    -23.16      0.00
   -5    1    5    -27.44      0.00
   -3    1    5    -27.60      0.00
   -1    1    5    -23.31      0.00
    1    1    5    -15.42      0.00
    3    1    5     -5.54      0.00
    5    1    5      4.85      0.00
    7    1    5     14.80      0.00
    9    1    5     23.86      0.00
   11    1    5     31.47      0.00
   13    1    5     36.61      0.00
   15    1    5     38.04      0.00
   17    1    5     35.10      0.00
   19    1    5     28.37      0.00
   21    1    5     19.59      0.00
   23    1    5     10.90      0.00
   25    1    5      3.88      0.00
   27    1    5     -0.88      0.00
   29    1    5     -3.50      0.00
   31    1    5     -4.35      0.00
   33    1    5     -3.76      0.00
   35    1    5     -2.09      0.00
   37    1    5      0.02      0.00
   39    1    5      1.76      0.00
   41    1    5      2.57      0.00
  -46    2    5     -0.13      0.00
  -44    2    5      1.67      0.00
  -42    2    5      3.99      0.00
  -40    2    5      5.62      0.00
  -38    2    5      5.44      0.00
  -36    2    5      3.08      0.00
  -34    2    5     -0.97      0.00
  -32    2    5     -5.78      0.00
  -30    2    5    -10.58      0.00
  -28    2    5    -14.85      0.00
  -26    2    5    -18.03      0.00
  -24    2    5    -19.18      0.00
  -22    2    5    -17.12      0.00
  -20    2    5    -10.99      0.00
  -18    2    5     -0.85      0.00
  -16    2    5     12.18      0.00
  -14    2    5     26.25      0.00
  -12    2    5     39.32      0.00
  -10    2    5     49.31      0.00
   -8    2    5     54.21      0.00
   -6    2    5     52.28      0.00
   -4    2    5     42.67      0.00
   -2    2    5     26.22      0.00
    0    2    5      5.69      0.00
    2    2    5    -14.82      0.00
    4    2    5    -31.31      0.00
    6    2    5    -41.15      0.00
    8    2    5    -43.72      0.00
   10    2    5    -40.11      0.00
   12    2    5    -32.25      0.00
   14    2    5    -22.20      0.00
   16    2    5    -11.79      0.00
   18    2    5     -2.47      0.00
   20    2    5      4.68      0.00
   22    2    5      9.07      0.00
   24    2    5     10.66      0.00
   26    2    5      9.86      0.00
   28    2    5      7.36      0.00
   30    2    5      3.95      0.00
   32    2    5      0.49      0.00
   34    2    5     -2.22      0.00
   36    2    5     -3.60      0.00
   38    2    5     -3.54      0.00
   40    2    5     -2.44      0.00
  -45    3    5     -0.07      0.00
  -43    3    5     -2.58      0.00
  -41    3    5     -4.82      0.00
  -39    3    5     -5.32      0.00
  -37    3    5     -3.60      0.00
  -35    3    5     -0.43      0.00
  -33    3    5      2.90      0.00
  -31    3    5      5.62      0.00
  -29    3    5      7.82      0.00
  -27    3    5      9.95      0.00
  -25    3    5     11.87      0.00
  -23    3    5     12.46      0.00
  -21    3    5     10.17      0.00
  -19    3    5      4.09      0.00
  -17    3    5     -5.38      0.00
  -15    3    5    -16.53      0.00
  -13    3    5    -27.08      0.00
  -11    3    5    -34.87      0.00
   -9    3    5    -38.15      0.00
   -7    3    5    -35.77      0.00
   -5    3    5    -27.38      0.00
   -3    3    5    -13.81      0.00
   -1    3    5      2.71      0.00
    1    3    5     18.91      0.00
    3    3    5     31.43      0.00
    5    3    5     37.82      0.00
    7    3    5     37.29      0.00
    9    3    5     30.70      0.00
   11    3    5     20.10      0.00
   13    3    5      8.07      0.00
   15    3    5     -2.87      0.00
   17    3    5    -10.82      0.00
   19    3    5    -14.91      0.00
   21    3    5    -15.36      0.00
   23    3    5    -13.20      0.00
   25    3    5     -9.66      0.00
   27    3    5     -5.61      0.00
   29    3    5     -1.48      0.00
   31    3    5      2.50      0.00
   33    3    5      5.91      0.00
   35    3    5      8.15      0.00
   37    3    5      8.78      0.00
   39    3    5      7.87      0.00
   41    3    5      6.00      0.00
  -44    4    5      1.78      0.00
  -42    4    5      2.27      0.00
  -40    4    5      2.46      0.00
  -38    4    5      2.55      0.00
  -36    4    5      2.93      0.00
  -34    4    5      3.88      0.00
  -32    4    5      5.47      0.00
  -30    4    5      7.34      0.00
  -28    4    5      8.87      0.00
  -26    4    5      9.34      0.00
  -24    4    5      8.12      0.00
  -22    4    5      4.94      0.00
  -20    4    5     -0.16      0.00
  -18    4    5     -6.69      0.00
  -16    4    5    -13.82      0.00
  -14    4    5    -20.38      0.00
  -12    4    5    -25.06      0.00
  -10    4    5    -26.73      0.00
   -8    4    5    -24.79      0.00
   -6    4    5    -19.33      0.00
   -4    4    5    -11.15      0.00
   -2    4    5     -1.49      0.00
    0    4    5      8.20      0.00
    2    4    5     16.54      0.00
    4    4    5     22.37      0.00
    6    4    5     25.00      0.00
    8    4    5     24.36      0.00
   10    4    5     21.11      0.00
   12    4    5     16.40      0.00
   14    4    5     11.38      0.00
   16    4    5      6.82      0.00
   18    4    5      2.91      0.00
   20    4    5     -0.49      0.00
   22    4    5     -3.41      0.00
   24    4    5     -5.59      0.00
   26    4    5     -6.63      0.00
   28    4    5     -6.37      0.00
   30    4    5     -5.12      0.00
   32    4    5     -3.59      0.00
   34    4    5     -2.41      0.00
   36    4    5     -1.82      0.00
   38    4    5     -1.61      0.00
   40    4    5     -1.41      0.00
  -45    5    5      0.98      0.00
  -43    5    5      2.52      0.00
  -41    5    5      4.05      0.00
  -39    5    5      4.66      0.00
  -37    5    5      3.61      0.00
  -35    5    5      0.72      0.00
  -33    5    5     -3.55      0.00
  -31    5    5     -8.43      0.00
  -29    5    5    -13.15      0.00
  -27    5    5    -17.09      0.00
  -25    5    5    -19.56      0.00
  -23    5    5    -19.55      0.00
  -21    5    5    -15.85      0.00
  -19    5    5     -7.58      0.00
  -17    5    5      5.08      0.00
  -15    5    5     20.47      0.00
  -13    5    5     35.68      0.00
  -11    5    5     47.39      0.00
   -9    5    5     52.82      0.00
   -7    5    5     50.48      0.00
   -5    5    5     40.41      0.00
   -3    5    5     24.13      0.00
   -1    5    5      4.30      0.00
    1    5    5    -15.72      0.00
    3    5    5    -32.50      0.00
    5    5    5    -43.33      0.00
    7    5    5    -46.93      0.00
    9    5    5    -43.67      0.00
   11    5    5    -35.26      0.00
   13    5    5    -24.09      0.00
   15    5    5    -12.48      0.00
   17    5    5     -2.17      0.00
   19    5    5      5.74      0.00
   21    5    5     10.75      0.00
   23    5    5     12.80      0.00
   25    5    5     12.24      0.00
   27    5    5      9.71      0.00
   29    5    5      6.07      0.00
   31    5    5      2.14      0.00
   33    5    5     -1.33      0.00
   35    5    5     -3.82      0.00
   37    5    5     -5.03      0.00
   39    5    5     -4.91      0.00
  -44    6    5     -3.27      0.00
  -42    6    5     -4.19      0.00
  -40    6    5     -4.49      0.00
  -38    6    5     -3.84      0.00
  -36    6    5     -2.10      0.00
  -34    6    5      0.47      0.00
  -32    6    5      3.26      0.00
  -30    6    5      5.65      0.00
  -28    6    5      7.43      0.00
  -26    6    5      8.82      0.00
  -24    6    5     10.05      0.00
  -22    6    5     10.89      0.00
  -20    6    5     10.57      0.00
  -18    6    5      8.22      0.00
  -16    6    5      3.54      0.00
  -14    6    5     -2.88      0.00
  -12    6    5     -9.90      0.00
  -10    6    5    -16.33      0.00
   -8    6    5    -21.36      0.00
   -6    6    5    -24.49      0.00
   -4    6    5    -25.24      0.00
   -2    6    5    -23.20      0.00
    0    6    5    -18.27      0.00
    2    6    5    -11.01      0.00
    4    6    5     -2.68      0.00
    6    6    5      5.23      0.00
    8    6    5     11.51      0.00
   10    6    5     15.50      0.00
   12    6    5     17.00      0.00
   14    6    5     16.08      0.00
   16    6    5     13.08      0.00
   18    6    5      8.64      0.00
   20    6    5      3.78      0.00
   22    6    5     -0.52      0.00
   24    6    5     -3.66      0.00
   26    6    5     -5.64      0.00
   28    6    5     -6.77      0.00
   30    6    5     -7.19      0.00
   32    6    5     -6.72      0.00
   34    6    5     -5.16      0.00
   36    6    5     -2.75      0.00
   38    6    5     -0.30      0.00
  -43    7    5      3.06      0.00
  -41    7    5      3.70      0.00
  -39    7    5      3.95      0.00
  -37    7    5      4.08      0.00
  -35    7    5      4.45      0.00
  -33    7    5      5.23      0.00
  -31    7    5      6.26      0.00
  -29    7    5      7.10      0.00
  -27    7    5      7.28      0.00
  -25    7    5      6.53      0.00
  -23    7    5      4.91      0.00
  -21    7    5      2.68      0.00
  -19    7    5      0.21      0.00
  -17    7    5     -2.21      0.00
  -15    7    5     -4.27      0.00
  -13    7    5     -5.59      0.00
  -11    7    5     -5.65      0.00
   -9    7    5     -3.92      0.00
   -7    7    5     -0.20      0.00
   -5    7    5      5.13      0.00
   -3    7    5     11.04      0.00
   -1    7    5     16.13      0.00
    1    7    5     19.14      0.00
    3    7    5     19.42      0.00
    5    7    5     17.17      0.00
    7    7    5     13.19      0.00
    9    7    5      8.51      0.00
   11    7    5      3.94      0.00
   13    7    5     -0.02      0.00
   15    7    5     -3.11      0.00
   17    7    5     -5.15      0.00
   19    7    5     -6.00      0.00
   21    7    5     -5.64      0.00
   23    7    5     -4.31      0.00
   25    7    5     -2.48      0.00
   27    7    5     -0.73      0.00
   29    7    5      0.49      0.00
   31    7    5      1.00      0.00
   33    7    5      0.89      0.00
   35    7    5      0.38      0.00
   37    7    5     -0.23      0.00
  -42    8    5      3.36      0.00
  -40    8    5      4.28      0.00
  -38    8    5      4.27      0.00
  -36    8    5      2.91      0.00
  -34    8    5      0.39      0.00
  -32    8    5     -2.40      0.00
  -30    8    5     -4.42      0.00
  -28    8    5     -5.12      0.00
  -26    8    5     -4.62      0.00
  -24    8    5     -3.44      0.00
  -22    8    5     -1.88      0.00
  -20    8    5      0.15      0.00
  -18    8    5      2.91      0.00
  -16    8    5      6.40      0.00
  -14    8    5     10.14      0.00
  -12    8    5     13.48      0.00
  -10    8    5     15.98      0.00
   -8    8    5     17.57      0.00
   -6    8    5     18.34      0.00
   -4    8    5     18.25      0.00
   -2    8    5     17.11      0.00
    0    8    5     14.79      0.00
    2    8    5     11.42      0.00
    4    8    5      7.37      0.00
    6    8    5      2.97      0.00
    8    8    5     -1.61      0.00
   10    8    5     -6.21      0.00
   12    8    5    -10.42      0.00
   14    8    5    -13.44      0.00
   16    8    5    -14.46      0.00
   18    8    5    -13.14      0.00
   20    8    5     -9.82      0.00
   22    8    5     -5.27      0.00
   24    8    5     -0.30      0.00
   26    8    5      4.55      0.00
   28    8    5      8.82      0.00
   30    8    5     11.95      0.00
   32    8    5     13.31      0.00
   34    8    5     12.59      0.00
   36    8    5     10.19      0.00
   38    8    5      7.10      0.00
  -41    9    5     -2.06      0.00
  -39    9    5     -2.75      0.00
  -37    9    5     -2.65      0.00
  -35    9    5     -1.79      0.00
  -33    9    5     -0.52      0.00
  -31    9    5      0.72      0.00
  -29    9    5      1.70      0.00
  -27    9    5      2.35      0.00
  -25    9    5      2.57      0.00
  -23    9    5      2.05      0.00
  -21    9    5      0.35      0.00
  -19    9    5     -2.84      0.00
  -17    9    5     -7.36      0.00
  -15    9    5    -12.53      0.00
  -13    9    5    -17.51      0.00
  -11    9    5    -21.63      0.00
   -9    9    5    -24.62      0.00
   -7    9    5    -26.46      0.00
   -5    9    5    -27.06      0.00
   -3    9    5    -26.10      0.00
   -1    9    5    -23.16      0.00
    1    9    5    -18.13      0.00
    3    9    5    -11.44      0.00
    5    9    5     -4.08      0.00
    7    9    5      2.78      0.00
    9    9    5      8.22      0.00
   11    9    5     11.75      0.00
   13    9    5     13.27      0.00
   15    9    5     12.86      0.00
   17    9    5     10.66      0.00
   19    9    5      6.96      0.00
   21    9    5      2.38      0.00
   23    9    5     -2.19      0.00
   25    9    5     -5.80      0.00
   27    9    5     -7.77      0.00
   29    9    5     -7.95      0.00
   31    9    5     -6.71      0.00
   33    9    5     -4.73      0.00
   35    9    5     -2.66      0.00
   37    9    5     -0.92      0.00
  -40   10    5     -0.69      0.00
  -38   10    5     -0.46      0.00
  -36   10    5     -0.06      0.00
  -34   10    5      0.05      0.00
  -32   10    5     -0.83      0.00
  -30   10    5     -3.20      0.00
  -28   10    5     -6.83      0.00
  -26   10    5    -10.79      0.00
  -24   10    5    -13.86      0.00
  -22   10    5    -15.08      0.00
  -20   10    5    -14.11      0.00
  -18   10    5    -11.12      0.00
  -16   10    5     -6.59      0.00
  -14   10    5     -1.17      0.00
  -12   10    5      4.25      0.00
  -10   10    5      8.53      0.00
   -8   10    5     10.52      0.00
   -6   10    5      9.49      0.00
   -4   10    5      5.42      0.00
   -2   10    5     -0.93      0.00
    0   10    5     -8.35      0.00
    2   10    5    -15.45      0.00
    4   10    5    -20.90      0.00
    6   10    5    -23.59      0.00
    8   10    5    -22.83      0.00
   10   10    5    -18.63      0.00
   12   10    5    -11.89      0.00
   14   10    5     -4.17      0.00
   16   10    5      2.78      0.00
   18   10    5      7.59      0.00
   20   10    5      9.60      0.00
   22   10    5      8.78      0.00
   24   10    5      5.65      0.00
   26   10    5      1.13      0.00
   28   10    5     -3.53      0.00
   30   10    5     -7.03      0.00
   32   10    5     -8.41      0.00
   34   10    5     -7.55      0.00
   36   10    5     -5.24      0.00
  -39   11    5      0.15      0.00
  -37   11    5     -0.86      0.00
  -35   11    5     -2.48      0.00
  -33   11    5     -4.10      0.00
  -31   11    5     -4.93      0.00
  -29   11    5     -4.52      0.00
  -27   11    5     -3.04      0.00
  -25   11    5     -1.12      0.00
  -23   11    5      0.59      0.00
  -21   11    5      1.80      0.00
  -19   11    5      2.62      0.00
  -17   11    5      3.23      0.00
  -15   11    5      3.72      0.00
  -13   11    5      4.00      0.00
  -11   11    5      4.04      0.00
   -9   11    5      4.05      0.00
   -7   11    5      4.39      0.00
   -5   11    5      5.32      0.00
   -3   11    5      6.67      0.00
   -1   11    5      7.96      0.00
    1   11    5      8.57      0.00
    3   11    5      8.19      0.00
    5   11    5      6.84      0.00
    7   11    5      4.78      0.00
    9   11    5      2.30      0.00
   11   11    5     -0.35      0.00
   13   11    5     -2.90      0.00
   15   11    5     -4.89      0.00
   17   11    5     -5.78      0.00
   19   11    5     -5.18      0.00
   21   11    5     -3.15      0.00
   23   11    5     -0.29      0.00
   25   11    5      2.46      0.00
   27   11    5      4.24      0.00
   29   11    5      4.62      0.00
   31   11    5      3.75      0.00
   33   11    5      2.24      0.00
  -38   12    5     -2.90      0.00
  -36   12    5     -3.19      0.00
  -34   12    5     -2.02      0.00
  -32   12    5      0.55      0.00
  -30   12    5      3.80      0.00
  -28   12    5      6.72      0.00
  -26   12    5      8.49      0.00
  -24   12    5      8.73      0.00
  -22   12    5      7.45      0.00
  -20   12    5      4.74      0.00
  -18   12    5      0.67      0.00
  -16   12    5     -4.53      0.00
  -14   12    5    -10.25      0.00
  -12   12    5    -15.44      0.00
  -10   12    5    -18.88      0.00
   -8   12    5    -19.63      0.00
   -6   12    5    -17.43      0.00
   -4   12    5    -12.68      0.00
   -2   12    5     -6.28      0.00
    0   12    5      0.65      0.00
    2   12    5      6.98      0.00
    4   12    5     11.70      0.00
    6   12    5     14.18      0.00
    8   12    5     14.29      0.00
   10   12    5     12.47      0.00
   12   12    5      9.52      0.00
   14   12    5      6.20      0.00
   16   12    5      2.97      0.00
   18   12    5      0.07      0.00
   20   12    5     -2.31      0.00
   22   12    5     -3.89      0.00
   24   12    5     -4.38      0.00
   26   12    5     -3.77      0.00
   28   12    5     -2.45      0.00
   30   12    5     -1.05      0.00
   32   12    5     -0.12      0.00
  -35   13    5      3.33      0.00
  -33   13    5      2.99      0.00
  -31   13    5      1.54      0.00
  -29   13    5     -0.72      0.00
  -27   13    5     -3.24      0.00
  -25   13    5     -5.34      0.00
  -23   13    5     -6.33      0.00
  -21   13    5     -5.75      0.00
  -19   13    5     -3.49      0.00
  -17   13    5      0.14      0.00
  -15   13    5      4.42      0.00
  -13   13    5      8.50      0.00
  -11   13    5     11.62      0.00
   -9   13    5     13.23      0.00
   -7   13    5     13.07      0.00
   -5   13    5     11.14      0.00
   -3   13    5      7.73      0.00
   -1   13    5      3.37      0.00
    1   13    5     -1.18      0.00
    3   13    5     -5.19      0.00
    5   13    5     -8.12      0.00
    7   13    5     -9.76      0.00
    9   13    5    -10.16      0.00
   11   13    5     -9.41      0.00
   13   13    5     -7.63      0.00
   15   13    5     -4.99      0.00
   17   13    5     -1.89      0.00
   19   13    5      1.05      0.00
   21   13    5      3.20      0.00
   23   13    5      4.17      0.00
   25   13    5      4.02      0.00
   27   13    5      3.17      0.00
   29   13    5      2.13      0.00
   31   13    5      1.25      0.00
  -34   14    5     -0.65      0.00
  -32   14    5     -2.15      0.00
  -30   14    5     -3.02      0.00
  -28   14    5     -2.64      0.00
  -26   14    5     -1.02      0.00
  -24   14    5      1.20      0.00
  -22   14    5      3.15      0.00
  -20   14    5      4.36      0.00
  -18   14    5      4.89      0.00
  -16   14    5      5.12      0.00
  -14   14    5      5.33      0.00
  -12   14    5      5.45      0.00
  -10   14    5      5.21      0.00
   -8   14    5      4.42      0.00
   -6   14    5      3.14      0.00
   -4   14    5      1.58      0.00
   -2   14    5      0.00      0.00
    0   14    5     -1.34      0.00
    2   14    5     -2.11      0.00
    4   14    5     -1.95      0.00
    6   14    5     -0.69      0.00
    8   14    5      1.41      0.00
   10   14    5      3.63      0.00
   12   14    5      5.12      0.00
   14   14    5      5.35      0.00
   16   14    5      4.35      0.00
   18   14    5      2.61      0.00
   20   14    5      0.69      0.00
   22   14    5     -1.00      0.00
   24   14    5     -2.25      0.00
   26   14    5     -2.86      0.00
   28   14    5     -2.67      0.00
   30   14    5     -1.70      0.00
  -33   15    5     -1.76      0.00
  -31   15    5     -1.22      0.00
  -29   15    5     -0.85      0.00
  -27   15    5     -0.76      0.00
  -25   15    5     -0.79      0.00
  -23   15    5     -0.88      0.00
  -21   15    5     -1.25      0.00
  -19   15    5     -2.28      0.00
  -17   15    5     -4.01      0.00
  -15   15    5     -5.95      0.00
  -13   15    5     -7.30      0.00
  -11   15    5     -7.56      0.00
   -9   15    5     -6.84      0.00
   -7   15    5     -5.72      0.00
   -5   15    5     -4.70      0.00
   -3   15    5     -3.84      0.00
   -1   15    5     -2.86      0.00
    1   15    5     -1.55      0.00
    3   15    5     -0.10      0.00
    5   15    5      1.03      0.00
    7   15    5      1.52      0.00
    9   15    5      1.45      0.00
   11   15    5      1.19      0.00
   13   15    5      1.03      0.00
   15   15    5      0.97      0.00
   17   15    5      0.79      0.00
   19   15    5      0.39      0.00
   21   15    5     -0.09      0.00
   23   15    5     -0.39      0.00
   25   15    5     -0.43      0.00
   27   15    5     -0.33      0.00
  -30   16    5      0.58      0.00
  -28   16    5      0.15      0.00
  -26   16    5     -0.49      0.00
  -24   16    5     -1.20      0.00
  -22   16    5     -1.69      0.00
  -20   16    5     -1.54      0.00
  -18   16    5     -0.58      0.00
  -16   16    5      0.98      0.00
  -14   16    5      2.53      0.00
  -12   16    5      3.47      0.00
  -10   16    5      3.65      0.00
   -8   16    5      3.44      0.00
   -6   16    5      3.50      0.00
   -4   16    5      4.18      0.00
   -2   16    5      5.23      0.00
    0   16    5      5.92      0.00
    2   16    5      5.52      0.00
    4   16    5      3.80      0.00
    6   16    5      1.07      0.00
    8   16    5     -1.99      0.00
   10   16    5     -4.77      0.00
   12   16    5     -6.89      0.00
   14   16    5     -8.13      0.00
   16   16    5     -8.37      0.00
   18   16    5     -7.56      0.00
   20   16    5     -5.86      0.00
   22   16    5     -3.66      0.00
   24   16    5     -1.56      0.00
   26   16    5     -0.03      0.00
  -27   17    5      1.68      0.00
  -25   17    5      2.66      0.00
  -23   17    5      3.79      0.00
  -21   17    5      5.11      0.00
  -19   17    5      6.22      0.00
  -17   17    5      6.46      0.00
  -15   17    5      5.29      0.00
  -13   17    5      2.81      0.00
  -11   17    5     -0.22      0.00
   -9   17    5     -2.85      0.00
   -7   17    5     -4.47      0.00
   -5   17    5     -4.97      0.00
   -3   17    5     -4.54      0.00
   -1   17    5     -3.31      0.00
    1   17    5     -1.27      0.00
    3   17    5      1.47      0.00
    5   17    5      4.41      0.00
    7   17    5      6.73      0.00
    9   17    5      7.73      0.00
   11   17    5      7.23      0.00
   13   17    5      5.61      0.00
   15   17    5      3.50      0.00
   17   17    5      1.44      0.00
   19   17    5     -0.32      0.00
   21   17    5     -1.64      0.00
   23   17    5     -2.37      0.00
  -24   18    5     -0.38      0.00
  -22   18    5     -1.17      0.00
  -20   18    5     -2.11      0.00
  -18   18    5     -2.69      0.00
  -16   18    5     -2.41      0.00
  -14   18    5     -1.11      0.00
  -12   18    5      0.81      0.00
  -10   18    5      2.62      0.00
   -8   18    5      3.62      0.00
   -6   18    5      3.48      0.00
   -4   18    5      2.32      0.00
   -2   18    5      0.51      0.00
    0   18    5     -1.51      0.00
    2   18    5     -3.33      0.00
    4   18    5     -4.53      0.00
    6   18    5     -4.76      0.00
    8   18    5     -3.78      0.00
   10   18    5     -1.72      0.00
   12   18    5      0.90      0.00
   14   18    5      3.35      0.00
   16   18    5      4.92      0.00
   18   18    5      5.31      0.00
   20   18    5      4.63      0.00
  -21   19    5      0.12      0.00
  -19   19    5     -0.70      0.00
  -17   19    5     -1.52      0.00
  -15   19    5     -1.96      0.00
  -13   19    5     -1.90      0.00
  -11   19    5     -1.41      0.00
   -9   19    5     -0.58      0.00
   -7   19    5      0.43      0.00
   -5   19    5      1.38      0.00
   -3   19    5      1.89      0.00
   -1   19    5      1.62      0.00
    1   19    5      0.56      0.00
    3   19    5     -0.89      0.00
    5   19    5     -2.09      0.00
    7   19    5     -2.58      0.00
    9   19    5     -2.40      0.00
   11   19    5     -1.94      0.00
   13   19    5     -1.57      0.00
   15   19    5     -1.36      0.00
  -16   20    5     -1.10      0.00
  -14   20    5     -2.40      0.00
  -12   20    5     -3.65      0.00
  -10   20    5     -4.58      0.00
   -8   20    5     -5.17      0.00
   -6   20    5     -5.43      0.00
   -4   20    5     -5.13      0.00
   -2   20    5     -3.93      0.00
    0   20    5     -1.71      0.00
    2   20    5      1.01      0.00
    4   20    5      3.28      0.00
    6   20    5      4.15      0.00
    8   20    5      3.33      0.00
   10   20    5      1.37      0.00
   -3   21    5      3.64      0.00
   -1   21    5      3.89      0.00
  -46    0    6      3.35      0.00
  -44    0    6      4.32      0.00
  -42    0    6      5.60      0.00
  -40    0    6      6.93      0.00
  -38    0    6      7.36      0.00
  -36    0    6      5.77      0.00
  -34    0    6      1.65      0.00
  -32    0    6     -4.45      0.00
  -30    0    6    -11.20      0.00
  -28    0    6    -17.23      0.00
  -26    0    6    -21.77      0.00
  -24    0    6    -24.78      0.00
  -22    0    6    -26.51      0.00
  -20    0    6    -26.94      0.00
  -18    0    6    -25.48      0.00
  -16    0    6    -21.19      0.00
  -14    0    6    -13.31      0.00
  -12    0    6     -1.84      0.00
  -10    0    6     11.97      0.00
   -8    0    6     25.72      0.00
   -6    0    6     36.33      0.00
   -4    0    6     41.08      0.00
   -2    0    6     38.52      0.00
    0    0    6     29.00      0.00
    2    0    6     14.39      0.00
    4    0    6     -2.75      0.00
    6    0    6    -19.99      0.00
    8    0    6    -35.36      0.00
   10    0    6    -47.25      0.00
   12    0    6    -54.23      0.00
   14    0    6    -55.26      0.00
   16    0    6    -50.19      0.00
   18    0    6    -40.22      0.00
   20    0    6    -27.64      0.00
   22    0    6    -15.05      0.00
   24    0    6     -4.45      0.00
   26    0    6      3.16      0.00
   28    0    6      7.60      0.00
   30    0    6      9.08      0.00
   32    0    6      7.99      0.00
   34    0    6      5.04      0.00
   36    0    6      1.35      0.00
   38    0    6     -1.76      0.00
   40    0    6     -3.33      0.00
  -45    1    6      3.45      0.00
  -43    1    6      1.98      0.00
  -41    1    6     -0.42      0.00
  -39    1    6     -2.70      0.00
  -37    1    6     -3.81      0.00
  -35    1    6     -3.21      0.00
  -33    1    6     -1.10      0.00
  -31    1    6      1.95      0.00
  -29    1    6      5.33      0.00
  -27    1    6      8.55      0.00
  -25    1    6     11.16      0.00
  -23    1    6     12.59      0.00
  -21    1    6     12.17      0.00
  -19    1    6      9.39      0.00
  -17    1    6      4.14      0.00
  -15    1    6     -3.20      0.00
  -13    1    6    -11.87      0.00
  -11    1    6    -20.80      0.00
   -9    1    6    -28.68      0.00
   -7    1    6    -34.03      0.00
   -5    1    6    -35.46      0.00
   -3    1    6    -32.23      0.00
   -1    1    6    -24.67      0.00
    1    1    6    -14.32      0.00
    3    1    6     -3.42      0.00
    5    1    6      5.81      0.00
    7    1    6     11.97      0.00
    9    1    6     14.66      0.00
   11    1    6     14.35      0.00
   13    1    6     11.92      0.00
   15    1    6      8.30      0.00
   17    1    6      4.34      0.00
   19    1    6      0.73      0.00
   21    1    6     -2.01      0.00
   23    1    6     -3.55      0.00
   25    1    6     -3.82      0.00
   27    1    6     -2.94      0.00
   29    1    6     -1.25      0.00
   31    1    6      0.80      0.00
   33    1    6      2.70      0.00
   35    1    6      3.93      0.00
   37    1    6      4.21      0.00
   39    1    6      3.58      0.00
  -44    2    6      0.75      0.00
  -42    2    6      2.05      0.00
  -40    2    6      2.92      0.00
  -38    2    6      2.89      0.00
  -36    2    6      2.32      0.00
  -34    2    6      1.98      0.00
  -32    2    6      2.39      0.00
  -30    2    6      3.32      0.00
  -28    2    6      4.10      0.00
  -26    2    6      4.30      0.00
  -24    2    6      4.17      0.00
  -22    2    6      4.51      0.00
  -20    2    6      5.97      0.00
  -18    2    6      8.41      0.00
  -16    2    6     10.82      0.00
  -14    2    6     11.84      0.00
  -12    2    6     10.48      0.00
  -10    2    6      6.60      0.00
   -8    2    6      0.81      0.00
   -6    2    6     -5.78      0.00
   -4    2    6    -11.98      0.00
   -2    2    6    -16.68      0.00
    0    2    6    -18.94      0.00
    2    2    6    -18.09      0.00
    4    2    6    -13.85      0.00
    6    2    6     -6.54      0.00
    8    2    6      2.84      0.00
   10    2    6     12.67      0.00
   12    2    6     21.06      0.00
   14    2    6     26.29      0.00
   16    2    6     27.44      0.00
   18    2    6     24.65      0.00
   20    2    6     19.05      0.00
   22    2    6     12.30      0.00
   24    2    6      5.86      0.00
   26    2    6      0.61      0.00
   28    2    6     -3.17      0.00
   30    2    6     -5.49      0.00
   32    2    6     -6.41      0.00
   34    2    6     -6.00      0.00
   36    2    6     -4.52      0.00
   38    2    6     -2.58      0.00
   40    2    6     -0.90      0.00
  -45    3    6      0.67      0.00
  -43    3    6      1.80      0.00
  -41    3    6      3.29      0.00
  -39    3    6      4.54      0.00
  -37    3    6      4.77      0.00
  -35    3    6      3.31      0.00
  -33    3    6      0.03      0.00
  -31    3    6     -4.57      0.00
  -29    3    6     -9.61      0.00
  -27    3    6    -14.08      0.00
  -25    3    6    -17.15      0.00
  -23    3    6    -18.11      0.00
  -21    3    6    -16.33      0.00
  -19    3    6    -11.34      0.00
  -17    3    6     -3.07      0.00
  -15    3    6      7.81      0.00
  -13    3    6     19.82      0.00
  -11    3    6     30.94      0.00
   -9    3    6     39.10      0.00
   -7    3    6     42.73      0.00
   -5    3    6     41.09      0.00
   -3    3    6     34.34      0.00
   -1    3    6     23.59      0.00
    1    3    6     10.72      0.00
    3    3    6     -1.91      0.00
    5    3    6    -12.08      0.00
    7    3    6    -18.32      0.00
    9    3    6    -20.37      0.00
   11    3    6    -19.06      0.00
   13    3    6    -15.71      0.00
   15    3    6    -11.44      0.00
   17    3    6     -6.85      0.00
   19    3    6     -2.19      0.00
   21    3    6      2.25      0.00
   23    3    6      5.90      0.00
   25    3    6      8.07      0.00
   27    3    6      8.39      0.00
   29    3    6      7.07      0.00
   31    3    6      4.86      0.00
   33    3    6      2.61      0.00
   35    3    6      0.90      0.00
   37    3    6     -0.12      0.00
   39    3    6     -0.59      0.00
  -44    4    6     -3.52      0.00
  -42    4    6     -6.48      0.00
  -40    4    6     -8.60      0.00
  -38    4    6     -8.75      0.00
  -36    4    6     -6.59      0.00
  -34    4    6     -2.63      0.00
  -32    4    6      2.12      0.00
  -30    4    6      6.81      0.00
  -28    4    6     11.03      0.00
  -26    4    6     14.65      0.00
  -24    4    6     17.25      0.00
  -22    4    6     17.81      0.00
  -20    4    6     14.97      0.00
  -18    4    6      7.85      0.00
  -16    4    6     -3.17      0.00
  -14    4    6    -16.18      0.00
  -12    4    6    -28.38      0.00
  -10    4    6    -36.98      0.00
   -8    4    6    -40.13      0.00
   -6    4    6    -37.25      0.00
   -4    4    6    -28.90      0.00
   -2    4    6    -16.49      0.00
    0    4    6     -2.04      0.00
    2    4    6     12.03      0.00
    4    4    6     23.31      0.00
    6    4    6     29.92      0.00
    8    4    6     31.11      0.00
   10    4    6     27.50      0.00
   12    4    6     20.77      0.00
   14    4    6     12.94      0.00
   16    4    6      5.70      0.00
   18    4    6      0.02      0.00
   20    4    6     -3.77      0.00
   22    4    6     -5.66      0.00
   24    4    6     -5.81      0.00
   26    4    6     -4.46      0.00
   28    4    6     -2.03      0.00
   30    4    6      0.89      0.00
   32    4    6      3.60      0.00
   34    4    6      5.52      0.00
   36    4    6      6.34      0.00
   38    4    6      6.05      0.00
  -43    5    6     -0.05      0.00
  -41    5    6      0.93      0.00
  -39    5    6      1.37      0.00
  -37    5    6      1.04      0.00
  -35    5    6      0.23      0.00
  -33    5    6     -0.51      0.00
  -31    5    6     -0.79      0.00
  -29    5    6     -0.78      0.00
  -27    5    6     -1.15      0.00
  -25    5    6     -2.60      0.00
  -23    5    6     -5.29      0.00
  -21    5    6     -8.59      0.00
  -19    5    6    -11.43      0.00
  -17    5    6    -12.84      0.00
  -15    5    6    -12.36      0.00
  -13    5    6    -10.02      0.00
  -11    5    6     -6.17      0.00
   -9    5    6     -1.27      0.00
   -7    5    6      4.14      0.00
   -5    5    6      9.28      0.00
   -3    5    6     13.23      0.00
   -1    5    6     15.07      0.00
    1    5    6     14.26      0.00
    3    5    6     10.86      0.00
    5    5    6      5.61      0.00
    7    5    6     -0.33      0.00
    9    5    6     -5.61      0.00
   11    5    6     -9.09      0.00
   13    5    6    -10.21      0.00
   15    5    6     -9.18      0.00
   17    5    6     -6.93      0.00
   19    5    6     -4.62      0.00
   21    5    6     -3.03      0.00
   23    5    6     -2.22      0.00
   25    5    6     -1.64      0.00
   27    5    6     -0.70      0.00
   29    5    6      0.70      0.00
   31    5    6      2.04      0.00
   33    5    6      2.62      0.00
   35    5    6      2.15      0.00
   37    5    6      0.93      0.00
  -44    6    6     -1.95      0.00
  -42    6    6     -1.24      0.00
  -40    6    6     -0.40      0.00
  -38    6    6      0.03      0.00
  -36    6    6     -0.55      0.00
  -34    6    6     -2.44      0.00
  -32    6    6     -5.45      0.00
  -30    6    6     -8.86      0.00
  -28    6    6    -11.78      0.00
  -26    6    6    -13.48      0.00
  -24    6    6    -13.55      0.00
  -22    6    6    -11.80      0.00
  -20    6    6     -8.10      0.00
  -18    6    6     -2.48      0.00
  -16    6    6      4.60      0.00
  -14    6    6     12.08      0.00
  -12    6    6     18.33      0.00
  -10    6    6     21.75      0.00
   -8    6    6     21.34      0.00
   -6    6    6     17.08      0.00
   -4    6    6      9.89      0.00
   -2    6    6      1.25      0.00
    0    6    6     -7.22      0.00
    2    6    6    -14.10      0.00
    4    6    6    -18.36      0.00
    6    6    6    -19.53      0.00
    8    6    6    -17.89      0.00
   10    6    6    -14.33      0.00
   12    6    6    -10.10      0.00
   14    6    6     -6.29      0.00
   16    6    6     -3.48      0.00
   18    6    6     -1.73      0.00
   20    6    6     -0.76      0.00
   22    6    6     -0.30      0.00
   24    6    6     -0.21      0.00
   26    6    6     -0.39      0.00
   28    6    6     -0.71      0.00
   30    6    6     -1.00      0.00
   32    6    6     -1.09      0.00
   34    6    6     -0.91      0.00
   36    6    6     -0.53      0.00
   38    6    6     -0.04      0.00
  -43    7    6     -3.04      0.00
  -41    7    6     -4.14      0.00
  -39    7    6     -4.86      0.00
  -37    7    6     -4.61      0.00
  -35    7    6     -3.05      0.00
  -33    7    6     -0.39      0.00
  -31    7    6      2.75      0.00
  -29    7    6      5.78      0.00
  -27    7    6      8.43      0.00
  -25    7    6     10.75      0.00
  -23    7    6     12.62      0.00
  -21    7    6     13.54      0.00
  -19    7    6     12.64      0.00
  -17    7    6      9.25      0.00
  -15    7    6      3.38      0.00
  -13    7    6     -4.22      0.00
  -11    7    6    -12.37      0.00
   -9    7    6    -19.92      0.00
   -7    7    6    -25.93      0.00
   -5    7    6    -29.62      0.00
   -3    7    6    -30.26      0.00
   -1    7    6    -27.33      0.00
    1    7    6    -20.89      0.00
    3    7    6    -11.78      0.00
    5    7    6     -1.54      0.00
    7    7    6      8.09      0.00
    9    7    6     15.74      0.00
   11    7    6     20.64      0.00
   13    7    6     22.60      0.00
   15    7    6     21.83      0.00
   17    7    6     18.74      0.00
   19    7    6     13.90      0.00
   21    7    6      7.98      0.00
   23    7    6      1.63      0.00
   25    7    6     -4.52      0.00
   27    7    6     -9.83      0.00
   29    7    6    -13.63      0.00
   31    7    6    -15.35      0.00
   33    7    6    -14.72      0.00
   35    7    6    -12.10      0.00
   37    7    6     -8.45      0.00
  -42    8    6      1.44      0.00
  -40    8    6      2.76      0.00
  -38    8    6      4.06      0.00
  -36    8    6      5.15      0.00
  -34    8    6      5.81      0.00
  -32    8    6      5.84      0.00
  -30    8    6      5.08      0.00
  -28    8    6      3.46      0.00
  -26    8    6      1.09      0.00
  -24    8    6     -1.68      0.00
  -22    8    6     -4.23      0.00
  -20    8    6     -5.82      0.00
  -18    8    6     -5.78      0.00
  -16    8    6     -3.71      0.00
  -14    8    6      0.35      0.00
  -12    8    6      6.03      0.00
  -10    8    6     12.68      0.00
   -8    8    6     19.55      0.00
   -6    8    6     25.72      0.00
   -4    8    6     30.10      0.00
   -2    8    6     31.61      0.00
    0    8    6     29.54      0.00
    2    8    6     23.93      0.00
    4    8    6     15.83      0.00
    6    8    6      6.92      0.00
    8    8    6     -1.07      0.00
   10    8    6     -6.94      0.00
   12    8    6    -10.27      0.00
   14    8    6    -11.19      0.00
   16    8    6    -10.06      0.00
   18    8    6     -7.29      0.00
   20    8    6     -3.45      0.00
   22    8    6      0.64      0.00
   24    8    6      3.95      0.00
   26    8    6      5.67      0.00
   28    8    6      5.54      0.00
   30    8    6      4.00      0.00
   32    8    6      1.90      0.00
   34    8    6      0.00      0.00
   36    8    6     -1.27      0.00
  -41    9    6      2.64      0.00
  -39    9    6      3.15      0.00
  -37    9    6      2.83      0.00
  -35    9    6      1.70      0.00
  -33    9    6      0.31      0.00
  -31    9    6     -0.61      0.00
  -29    9    6     -0.65      0.00
  -27    9    6      0.08      0.00
  -25    9    6      1.12      0.00
  -23    9    6      2.10      0.00
  -21    9    6      2.90      0.00
  -19    9    6      3.51      0.00
  -17    9    6      3.87      0.00
  -15    9    6      3.81      0.00
  -13    9    6      3.33      0.00
  -11    9    6      2.76      0.00
   -9    9    6      2.66      0.00
   -7    9    6      3.49      0.00
   -5    9    6      5.29      0.00
   -3    9    6      7.62      0.00
   -1    9    6      9.86      0.00
    1    9    6     11.53      0.00
    3    9    6     12.32      0.00
    5    9    6     11.98      0.00
    7    9    6     10.25      0.00
    9    9    6      6.97      0.00
   11    9    6      2.41      0.00
   13    9    6     -2.64      0.00
   15    9    6     -7.03      0.00
   17    9    6     -9.71      0.00
   19    9    6    -10.02      0.00
   21    9    6     -7.86      0.00
   23    9    6     -3.65      0.00
   25    9    6      1.70      0.00
   27    9    6      6.95      0.00
   29    9    6     10.75      0.00
   31    9    6     12.13      0.00
   33    9    6     10.98      0.00
   35    9    6      8.13      0.00
  -40   10    6     -1.75      0.00
  -38   10    6     -2.30      0.00
  -36   10    6     -2.03      0.00
  -34   10    6     -0.91      0.00
  -32   10    6      0.71      0.00
  -30   10    6      2.35      0.00
  -28   10    6      3.59      0.00
  -26   10    6      4.28      0.00
  -24   10    6      4.34      0.00
  -22   10    6      3.69      0.00
  -20   10    6      2.15      0.00
  -18   10    6     -0.40      0.00
  -16   10    6     -3.90      0.00
  -14   10    6     -8.02      0.00
  -12   10    6    -12.37      0.00
  -10   10    6    -16.60      0.00
   -8   10    6    -20.48      0.00
   -6   10    6    -23.70      0.00
   -4   10    6    -25.74      0.00
   -2   10    6    -25.99      0.00
    0   10    6    -24.04      0.00
    2   10    6    -20.01      0.00
    4   10    6    -14.58      0.00
    6   10    6     -8.71      0.00
    8   10    6     -3.16      0.00
   10   10    6      1.68      0.00
   12   10    6      5.65      0.00
   14   10    6      8.49      0.00
   16   10    6      9.74      0.00
   18   10    6      8.94      0.00
   20   10    6      6.08      0.00
   22   10    6      1.90      0.00
   24   10    6     -2.34      0.00
   26   10    6     -5.39      0.00
   28   10    6     -6.58      0.00
   30   10    6     -6.04      0.00
   32   10    6     -4.47      0.00
   34   10    6     -2.74      0.00
  -39   11    6      1.13      0.00
  -37   11    6      2.01      0.00
  -35   11    6      2.59      0.00
  -33   11    6      2.20      0.00
  -31   11    6      0.44      0.00
  -29   11    6     -2.53      0.00
  -27   11    6     -6.04      0.00
  -25   11    6     -9.23      0.00
  -23   11    6    -11.33      0.00
  -21   11    6    -11.82      0.00
  -19   11    6    -10.35      0.00
  -17   11    6     -6.80      0.00
  -15   11    6     -1.46      0.00
  -13   11    6      4.79      0.00
  -11   11    6     10.57      0.00
   -9   11    6     14.34      0.00
   -7   11    6     15.07      0.00
   -5   11    6     12.58      0.00
   -3   11    6      7.55      0.00
   -1   11    6      1.20      0.00
    1   11    6     -5.16      0.00
    3   11    6    -10.47      0.00
    5   11    6    -13.98      0.00
    7   11    6    -15.31      0.00
    9   11    6    -14.48      0.00
   11   11    6    -11.81      0.00
   13   11    6     -7.97      0.00
   15   11    6     -3.74      0.00
   17   11    6      0.05      0.00
   19   11    6      2.68      0.00
   21   11    6      3.65      0.00
   23   11    6      2.83      0.00
   25   11    6      0.66      0.00
   27   11    6     -1.93      0.00
   29   11    6     -3.82      0.00
   31   11    6     -4.28      0.00
   33   11    6     -3.33      0.00
  -38   12    6      0.86      0.00
  -36   12    6      0.60      0.00
  -34   12    6     -0.04      0.00
  -32   12    6     -0.61      0.00
  -30   12    6     -0.50      0.00
  -28   12    6      0.59      0.00
  -26   12    6      2.36      0.00
  -24   12    6      4.07      0.00
  -22   12    6      4.95      0.00
  -20   12    6      4.72      0.00
  -18   12    6      3.61      0.00
  -16   12    6      2.06      0.00
  -14   12    6      0.45      0.00
  -12   12    6     -1.02      0.00
  -10   12    6     -2.15      0.00
   -8   12    6     -2.59      0.00
   -6   12    6     -1.99      0.00
   -4   12    6     -0.30      0.00
   -2   12    6      2.05      0.00
    0   12    6      4.35      0.00
    2   12    6      6.08      0.00
    4   12    6      7.18      0.00
    6   12    6      7.91      0.00
    8   12    6      8.48      0.00
   10   12    6      8.71      0.00
   12   12    6      8.14      0.00
   14   12    6      6.47      0.00
   16   12    6      4.01      0.00
   18   12    6      1.52      0.00
   20   12    6     -0.16      0.00
   22   12    6     -0.66      0.00
   24   12    6     -0.22      0.00
   26   12    6      0.52      0.00
   28   12    6      1.02      0.00
   30   12    6      1.01      0.00
  -35   13    6     -0.42      0.00
  -33   13    6      1.47      0.00
  -31   13    6      3.79      0.00
  -29   13    6      5.48      0.00
  -27   13    6      5.84      0.00
  -25   13    6      5.05      0.00
  -23   13    6      3.80      0.00
  -21   13    6      2.60      0.00
  -19   13    6      1.31      0.00
  -17   13    6     -0.62      0.00
  -15   13    6     -3.46      0.00
  -13   13    6     -6.68      0.00
  -11   13    6     -9.15      0.00
   -9   13    6     -9.85      0.00
   -7   13    6     -8.51      0.00
   -5   13    6     -5.71      0.00
   -3   13    6     -2.37      0.00
   -1   13    6      0.69      0.00
    1   13    6      3.05      0.00
    3   13    6      4.47      0.00
    5   13    6      4.84      0.00
    7   13    6      4.24      0.00
    9   13    6      3.01      0.00
   11   13    6      1.78      0.00
   13   13    6      1.14      0.00
   15   13    6      1.34      0.00
   17   13    6      2.17      0.00
   19   13    6      3.24      0.00
   21   13    6      4.18      0.00
   23   13    6      4.80      0.00
   25   13    6      4.91      0.00
   27   13    6      4.33      0.00
   29   13    6      3.00      0.00
  -34   14    6      1.71      0.00
  -32   14    6      1.09      0.00
  -30   14    6     -0.03      0.00
  -28   14    6     -1.29      0.00
  -26   14    6     -2.47      0.00
  -24   14    6     -3.43      0.00
  -22   14    6     -3.93      0.00
  -20   14    6     -3.62      0.00
  -18   14    6     -2.20      0.00
  -16   14    6      0.37      0.00
  -14   14    6      3.68      0.00
  -12   14    6      6.97      0.00
  -10   14    6      9.53      0.00
   -8   14    6     10.90      0.00
   -6   14    6     11.04      0.00
   -4   14    6     10.12      0.00
   -2   14    6      8.46      0.00
    0   14    6      6.34      0.00
    2   14    6      4.05      0.00
    4   14    6      1.87      0.00
    6   14    6      0.02      0.00
    8   14    6     -1.36      0.00
   10   14    6     -2.20      0.00
   12   14    6     -2.43      0.00
   14   14    6     -1.98      0.00
   16   14    6     -0.84      0.00
   18   14    6      0.82      0.00
   20   14    6      2.61      0.00
   22   14    6      4.06      0.00
   24   14    6      4.82      0.00
   26   14    6      4.83      0.00
   28   14    6      4.25      0.00
  -31   15    6     -4.53      0.00
  -29   15    6     -3.63      0.00
  -27   15    6     -1.58      0.00
  -25   15    6      1.04      0.00
  -23   15    6      3.48      0.00
  -21   15    6      5.12      0.00
  -19   15    6      5.68      0.00
  -17   15    6      5.23      0.00
  -15   15    6      4.01      0.00
  -13   15    6      2.27      0.00
  -11   15    6      0.20      0.00
   -9   15    6     -2.07      0.00
   -7   15    6     -4.40      0.00
   -5   15    6     -6.57      0.00
   -3   15    6     -8.26      0.00
   -1   15    6     -9.05      0.00
    1   15    6     -8.57      0.00
    3   15    6     -6.62      0.00
    5   15    6     -3.39      0.00
    7   15    6      0.63      0.00
    9   15    6      4.72      0.00
   11   15    6      8.15      0.00
   13   15    6     10.35      0.00
   15   15    6     10.99      0.00
   17   15    6      9.96      0.00
   19   15    6      7.48      0.00
   21   15    6      4.10      0.00
   23   15    6      0.72      0.00
   25   15    6     -1.74      0.00
  -30   16    6     -0.75      0.00
  -28   16    6     -1.16      0.00
  -26   16    6     -1.81      0.00
  -24   16    6     -2.64      0.00
  -22   16    6     -3.69      0.00
  -20   16    6     -4.93      0.00
  -18   16    6     -6.08      0.00
  -16   16    6     -6.66      0.00
  -14   16    6     -6.28      0.00
  -12   16    6     -4.92      0.00
  -10   16    6     -3.00      0.00
   -8   16    6     -1.19      0.00
   -6   16    6      0.03      0.00
   -4   16    6      0.52      0.00
   -2   16    6      0.36      0.00
    0   16    6     -0.36      0.00
    2   16    6     -1.65      0.00
    4   16    6     -3.49      0.00
    6   16    6     -5.59      0.00
    8   16    6     -7.39      0.00
   10   16    6     -8.29      0.00
   12   16    6     -7.96      0.00
   14   16    6     -6.50      0.00
   16   16    6     -4.39      0.00
   18   16    6     -2.16      0.00
   20   16    6     -0.27      0.00
   22   16    6      1.05      0.00
   24   16    6      1.69      0.00
  -27   17    6     -1.37      0.00
  -25   17    6     -1.81      0.00
  -23   17    6     -2.03      0.00
  -21   17    6     -1.99      0.00
  -19   17    6     -1.67      0.00
  -17   17    6     -1.15      0.00
  -15   17    6     -0.57      0.00
  -13   17    6     -0.12      0.00
  -11   17    6      0.21      0.00
   -9   17    6      0.64      0.00
   -7   17    6      1.55      0.00
   -5   17    6      3.08      0.00
   -3   17    6      4.94      0.00
   -1   17    6      6.46      0.00
    1   17    6      6.94      0.00
    3   17    6      6.09      0.00
    5   17    6      4.16      0.00
    7   17    6      1.66      0.00
    9   17    6     -0.94      0.00
   11   17    6     -3.38      0.00
   13   17    6     -5.44      0.00
   15   17    6     -6.84      0.00
   17   17    6     -7.19      0.00
   19   17    6     -6.33      0.00
   21   17    6     -4.57      0.00
  -24   18    6     -0.41      0.00
  -22   18    6      0.68      0.00
  -20   18    6      2.25      0.00
  -18   18    6      3.48      0.00
  -16   18    6      3.59      0.00
  -14   18    6      2.43      0.00
  -12   18    6      0.54      0.00
  -10   18    6     -1.30      0.00
   -8   18    6     -2.66      0.00
   -6   18    6     -3.59      0.00
   -4   18    6     -4.26      0.00
   -2   18    6     -4.55      0.00
    0   18    6     -3.97      0.00
    2   18    6     -2.18      0.00
    4   18    6      0.60      0.00
    6   18    6      3.52      0.00
    8   18    6      5.60      0.00
   10   18    6      6.25      0.00
   12   18    6      5.53      0.00
   14   18    6      3.94      0.00
   16   18    6      2.07      0.00
   18   18    6      0.35      0.00
  -19   19    6     -2.80      0.00
  -17   19    6     -2.64      0.00
  -15   19    6     -1.55      0.00
  -13   19    6     -0.02      0.00
  -11   19    6      1.27      0.00
   -9   19    6      1.93      0.00
   -7   19    6      2.00      0.00
   -5   19    6      1.83      0.00
   -3   19    6      1.65      0.00
   -1   19    6      1.45      0.00
    1   19    6      1.03      0.00
    3   19    6      0.34      0.00
    5   19    6     -0.41      0.00
    7   19    6     -0.78      0.00
    9   19    6     -0.46      0.00
   11   19    6      0.53      0.00
   13   19    6      1.77      0.00
  -12   20    6     -1.79      0.00
  -10   20    6     -1.34      0.00
   -8   20    6     -0.76      0.00
   -6   20    6     -0.10      0.00
   -4   20    6      0.51      0.00
   -2   20    6      0.88      0.00
    0   20    6      0.93      0.00
    2   20    6      0.73      0.00
    4   20    6      0.50      0.00
    6   20    6      0.41      0.00
  -45    1    7      0.58      0.00
  -43    1    7      0.86      0.00
  -41    1    7      1.89      0.00
  -39    1    7      3.50      0.00
  -37    1    7      4.76      0.00
  -35    1    7      4.55      0.00
  -33    1    7      2.30      0.00
  -31    1    7     -1.64      0.00
  -29    1    7     -6.18      0.00
  -27    1    7    -10.30      0.00
  -25    1    7    -13.61      0.00
  -23    1    7    -16.37      0.00
  -21    1    7    -18.87      0.00
  -19    1    7    -20.77      0.00
  -17    1    7    -20.90      0.00
  -15    1    7    -17.74      0.00
  -13    1    7    -10.31      0.00
  -11    1    7      1.09      0.00
   -9    1    7     14.68      0.00
   -7    1    7     27.73      0.00
   -5    1    7     37.44      0.00
   -3    1    7     41.69      0.00
   -1    1    7     39.55      0.00
    1    1    7     31.32      0.00
    3    1    7     18.35      0.00
    5    1    7      2.71      0.00
    7    1    7    -13.12      0.00
    9    1    7    -26.68      0.00
   11    1    7    -35.88      0.00
   13    1    7    -39.52      0.00
   15    1    7    -37.56      0.00
   19    1    7    -22.00      0.00
   21    1    7    -12.27      0.00
   23    1    7     -3.45      0.00
   25    1    7      3.54      0.00
   27    1    7      8.32      0.00
   29    1    7     10.80      0.00
   31    1    7     11.04      0.00
   33    1    7      9.36      0.00
   35    1    7      6.46      0.00
   37    1    7      3.36      0.00
  -44    2    7      2.69      0.00
  -42    2    7      0.65      0.00
  -40    2    7     -2.53      0.00
  -38    2    7     -5.50      0.00
  -36    2    7     -6.75      0.00
  -34    2    7     -5.34      0.00
  -32    2    7     -1.35      0.00
  -30    2    7      4.28      0.00
  -28    2    7     10.39      0.00
  -26    2    7     16.05      0.00
  -24    2    7     20.65      0.00
  -22    2    7     23.66      0.00
  -20    2    7     24.33      0.00
  -18    2    7     21.80      0.00
  -16    2    7     15.51      0.00
  -14    2    7      5.66      0.00
  -12    2    7     -6.58      0.00
  -10    2    7    -19.30      0.00
   -8    2    7    -30.29      0.00
   -6    2    7    -37.61      0.00
   -4    2    7    -39.99      0.00
   -2    2    7    -37.08      0.00
    0    2    7    -29.56      0.00
    2    2    7    -19.01      0.00
    4    2    7     -7.54      0.00
    6    2    7      2.78      0.00
    8    2    7     10.51      0.00
   10    2    7     15.13      0.00
   12    2    7     16.88      0.00
   14    2    7     16.39      0.00
   16    2    7     14.31      0.00
   18    2    7     11.16      0.00
   20    2    7      7.44      0.00
   22    2    7      3.73      0.00
   24    2    7      0.68      0.00
   26    2    7     -1.15      0.00
   28    2    7     -1.59      0.00
   30    2    7     -0.84      0.00
   32    2    7      0.53      0.00
   34    2    7      1.95      0.00
   36    2    7      2.94      0.00
   38    2    7      3.32      0.00
  -45    3    7      0.44      0.00
  -43    3    7      2.16      0.00
  -41    3    7      4.23      0.00
  -39    3    7      5.71      0.00
  -37    3    7      5.94      0.00
  -35    3    7      4.92      0.00
  -33    3    7      3.21      0.00
  -31    3    7      1.37      0.00
  -29    3    7     -0.48      0.00
  -27    3    7     -2.56      0.00
  -25    3    7     -4.99      0.00
  -23    3    7     -7.33      0.00
  -21    3    7     -8.60      0.00
  -19    3    7     -7.82      0.00
  -17    3    7     -4.75      0.00
  -15    3    7     -0.10      0.00
  -13    3    7      4.69      0.00
  -11    3    7      8.24      0.00
   -9    3    7      9.77      0.00
   -7    3    7      9.24      0.00
   -5    3    7      7.08      0.00
   -3    3    7      3.88      0.00
   -1    3    7      0.22      0.00
    1    3    7     -3.26      0.00
    3    3    7     -5.81      0.00
    5    3    7     -6.73      0.00
    7    3    7     -5.66      0.00
    9    3    7     -2.87      0.00
   11    3    7      0.82      0.00
   13    3    7      4.36      0.00
   15    3    7      6.88      0.00
   17    3    7      7.98      0.00
   19    3    7      7.70      0.00
   21    3    7      6.33      0.00
   23    3    7      4.17      0.00
   25    3    7      1.52      0.00
   27    3    7     -1.29      0.00
   29    3    7     -3.80      0.00
   31    3    7     -5.50      0.00
   33    3    7     -6.04      0.00
   35    3    7     -5.40      0.00
   37    3    7     -3.94      0.00
  -44    4    7      0.65      0.00
  -42    4    7      0.66      0.00
  -40    4    7      1.13      0.00
  -38    4    7      2.05      0.00
  -36    4    7      2.84      0.00
  -34    4    7      2.65      0.00
  -32    4    7      0.98      0.00
  -30    4    7     -1.90      0.00
  -28    4    7     -5.13      0.00
  -26    4    7     -7.74      0.00
  -24    4    7     -9.15      0.00
  -22    4    7     -9.29      0.00
  -20    4    7     -8.28      0.00
  -18    4    7     -6.11      0.00
  -16    4    7     -2.74      0.00
  -14    4    7      1.66      0.00
  -12    4    7      6.38      0.00
  -10    4    7     10.32      0.00
   -8    4    7     12.47      0.00
   -6    4    7     12.37      0.00
   -4    4    7     10.28      0.00
   -2    4    7      6.93      0.00
    0    4    7      3.25      0.00
    2    4    7      0.03      0.00
    4    4    7     -2.14      0.00
    6    4    7     -2.98      0.00
    8    4    7     -2.70      0.00
   10    4    7     -1.87      0.00
   12    4    7     -1.24      0.00
   14    4    7     -1.25      0.00
   16    4    7     -1.74      0.00
   18    4    7     -2.08      0.00
   20    4    7     -1.69      0.00
   22    4    7     -0.53      0.00
   24    4    7      0.84      0.00
   26    4    7      1.70      0.00
   28    4    7      1.70      0.00
   30    4    7      1.07      0.00
   32    4    7      0.39      0.00
   34    4    7      0.08      0.00
   36    4    7      0.18      0.00
  -43    5    7     -2.35      0.00
  -41    5    7     -4.00      0.00
  -39    5    7     -5.19      0.00
  -37    5    7     -5.24      0.00
  -35    5    7     -3.67      0.00
  -33    5    7     -0.47      0.00
  -31    5    7      3.81      0.00
  -29    5    7      8.27      0.00
  -27    5    7     12.17      0.00
  -25    5    7     15.09      0.00
  -23    5    7     16.80      0.00
  -21    5    7     16.88      0.00
  -19    5    7     14.68      0.00
  -17    5    7      9.68      0.00
  -15    5    7      2.12      0.00
  -13    5    7     -6.69      0.00
  -11    5    7    -14.79      0.00
   -9    5    7    -20.40      0.00
   -7    5    7    -22.65      0.00
   -5    5    7    -21.63      0.00
   -3    5    7    -17.98      0.00
   -1    5    7    -12.44      0.00
    1    5    7     -5.72      0.00
    3    5    7      1.30      0.00
    5    5    7      7.45      0.00
    7    5    7     11.62      0.00
    9    5    7     13.25      0.00
   11    5    7     12.69      0.00
   13    5    7     10.96      0.00
   15    5    7      9.09      0.00
   17    5    7      7.56      0.00
   19    5    7      6.30      0.00
   21    5    7      5.05      0.00
   23    5    7      3.75      0.00
   25    5    7      2.62      0.00
   27    5    7      1.93      0.00
   29    5    7      1.70      0.00
   31    5    7      1.70      0.00
   33    5    7      1.66      0.00
   35    5    7      1.42      0.00
   37    5    7      1.04      0.00
  -42    6    7      1.85      0.00
  -40    6    7      3.53      0.00
  -38    6    7      4.80      0.00
  -36    6    7      5.18      0.00
  -34    6    7      4.49      0.00
  -32    6    7      2.88      0.00
  -30    6    7      0.68      0.00
  -28    6    7     -1.87      0.00
  -26    6    7     -4.69      0.00
  -24    6    7     -7.72      0.00
  -22    6    7    -10.65      0.00
  -20    6    7    -12.78      0.00
  -18    6    7    -13.16      0.00
  -16    6    7    -11.03      0.00
  -14    6    7     -6.17      0.00
  -12    6    7      0.98      0.00
  -10    6    7      9.50      0.00
   -8    6    7     18.25      0.00
   -6    6    7     26.01      0.00
   -4    6    7     31.52      0.00
   -2    6    7     33.58      0.00
    0    6    7     31.33      0.00
    2    6    7     24.73      0.00
    4    6    7     14.81      0.00
    6    6    7      3.52      0.00
    8    6    7     -6.84      0.00
   10    6    7    -14.46      0.00
   12    6    7    -18.51      0.00
   14    6    7    -19.16      0.00
   16    6    7    -17.24      0.00
   18    6    7    -13.65      0.00
   20    6    7     -9.12      0.00
   22    6    7     -4.06      0.00
   24    6    7      1.15      0.00
   26    6    7      6.04      0.00
   28    6    7      9.96      0.00
   30    6    7     12.29      0.00
   32    6    7     12.62      0.00
   34    6    7     11.05      0.00
   36    6    7      8.17      0.00
  -43    7    7      0.83      0.00
  -41    7    7      0.84      0.00
  -39    7    7      0.40      0.00
  -37    7    7     -0.53      0.00
  -35    7    7     -1.88      0.00
  -33    7    7     -3.43      0.00
  -31    7    7     -4.83      0.00
  -29    7    7     -5.64      0.00
  -27    7    7     -5.44      0.00
  -25    7    7     -3.95      0.00
  -23    7    7     -1.19      0.00
  -21    7    7      2.51      0.00
  -19    7    7      6.48      0.00
  -17    7    7      9.82      0.00
  -15    7    7     11.63      0.00
  -13    7    7     11.26      0.00
  -11    7    7      8.52      0.00
   -9    7    7      3.78      0.00
   -7    7    7     -2.09      0.00
   -5    7    7     -7.93      0.00
   -3    7    7    -12.56      0.00
   -1    7    7    -15.04      0.00
    1    7    7    -14.89      0.00
    3    7    7    -12.20      0.00
    5    7    7     -7.63      0.00
    7    7    7     -2.25      0.00
    9    7    7      2.68      0.00
   11    7    7      6.07      0.00
   13    7    7      7.24      0.00
   15    7    7      6.12      0.00
   17    7    7      3.20      0.00
   19    7    7     -0.57      0.00
   21    7    7     -4.03      0.00
   23    7    7     -6.16      0.00
   25    7    7     -6.43      0.00
   27    7    7     -4.93      0.00
   29    7    7     -2.36      0.00
   31    7    7      0.34      0.00
   33    7    7      2.38      0.00
   35    7    7      3.41      0.00
  -42    8    7     -0.77      0.00
  -40    8    7     -1.86      0.00
  -38    8    7     -2.75      0.00
  -36    8    7     -3.03      0.00
  -34    8    7     -2.45      0.00
  -32    8    7     -1.00      0.00
  -30    8    7      1.16      0.00
  -28    8    7      3.73      0.00
  -26    8    7      6.28      0.00
  -24    8    7      8.32      0.00
  -22    8    7      9.36      0.00
  -20    8    7      9.11      0.00
  -18    8    7      7.61      0.00
  -16    8    7      5.08      0.00
  -14    8    7      1.78      0.00
  -12    8    7     -2.20      0.00
  -10    8    7     -6.81      0.00
   -8    8    7    -11.83      0.00
   -6    8    7    -16.66      0.00
   -4    8    7    -20.31      0.00
   -2    8    7    -21.79      0.00
    0    8    7    -20.53      0.00
    2    8    7    -16.71      0.00
    4    8    7    -11.12      0.00
    6    8    7     -4.84      0.00
    8    8    7      1.14      0.00
   10    8    7      6.22      0.00
   12    8    7     10.10      0.00
   14    8    7     12.63      0.00
   16    8    7     13.64      0.00
   18    8    7     12.86      0.00
   20    8    7     10.12      0.00
   22    8    7      5.55      0.00
   24    8    7     -0.22      0.00
   26    8    7     -6.02      0.00
   28    8    7    -10.49      0.00
   30    8    7    -12.58      0.00
   32    8    7    -12.01      0.00
   34    8    7     -9.42      0.00
  -41    9    7      1.96      0.00
  -39    9    7      3.22      0.00
  -37    9    7      4.20      0.00
  -35    9    7      4.51      0.00
  -33    9    7      3.82      0.00
  -31    9    7      2.01      0.00
  -29    9    7     -0.79      0.00
  -27    9    7     -4.21      0.00
  -25    9    7     -7.73      0.00
  -23    9    7    -10.77      0.00
  -21    9    7    -12.76      0.00
  -19    9    7    -13.15      0.00
  -17    9    7    -11.50      0.00
  -15    9    7     -7.63      0.00
  -13    9    7     -1.69      0.00
  -11    9    7      5.78      0.00
   -9    9    7     13.86      0.00
   -7    9    7     21.37      0.00
   -5    9    7     27.03      0.00
   -3    9    7     29.75      0.00
   -1    9    7     28.92      0.00
    1    9    7     24.66      0.00
    3    9    7     17.85      0.00
    5    9    7      9.82      0.00
    7    9    7      1.90      0.00
    9    9    7     -4.89      0.00
   11    9    7    -10.00      0.00
   13    9    7    -13.12      0.00
   15    9    7    -14.04      0.00
   17    9    7    -12.65      0.00
   19    9    7     -9.21      0.00
   21    9    7     -4.57      0.00
   23    9    7      0.01      0.00
   25    9    7      3.27      0.00
   27    9    7      4.59      0.00
   29    9    7      4.19      0.00
   31    9    7      2.92      0.00
   33    9    7      1.71      0.00
  -40   10    7      0.58      0.00
  -38   10    7     -0.10      0.00
  -36   10    7     -1.37      0.00
  -34   10    7     -2.80      0.00
  -32   10    7     -3.75      0.00
  -30   10    7     -3.77      0.00
  -28   10    7     -2.79      0.00
  -26   10    7     -1.11      0.00
  -24   10    7      0.82      0.00
  -22   10    7      2.53      0.00
  -20   10    7      3.53      0.00
  -18   10    7      3.35      0.00
  -16   10    7      1.68      0.00
  -14   10    7     -1.32      0.00
  -12   10    7     -4.91      0.00
  -10   10    7     -7.96      0.00
   -8   10    7     -9.47      0.00
   -6   10    7     -9.05      0.00
   -4   10    7     -7.02      0.00
   -2   10    7     -4.15      0.00
    0   10    7     -1.17      0.00
    2   10    7      1.46      0.00
    4   10    7      3.54      0.00
    6   10    7      4.92      0.00
    8   10    7      5.43      0.00
   10   10    7      4.92      0.00
   12   10    7      3.40      0.00
   14   10    7      1.22      0.00
   16   10    7     -1.02      0.00
   18   10    7     -2.60      0.00
   20   10    7     -2.87      0.00
   22   10    7     -1.58      0.00
   24   10    7      1.00      0.00
   26   10    7      4.00      0.00
   28   10    7      6.30      0.00
   30   10    7      6.98      0.00
   32   10    7      5.86      0.00
  -37   11    7     -3.54      0.00
  -35   11    7     -3.62      0.00
  -33   11    7     -2.57      0.00
  -31   11    7     -0.95      0.00
  -29   11    7      0.44      0.00
  -27   11    7      1.08      0.00
  -25   11    7      1.02      0.00
  -23   11    7      0.62      0.00
  -21   11    7      0.18      0.00
  -19   11    7     -0.34      0.00
  -17   11    7     -1.19      0.00
  -15   11    7     -2.56      0.00
  -13   11    7     -4.42      0.00
  -11   11    7     -6.55      0.00
   -9   11    7     -8.81      0.00
   -7   11    7    -11.05      0.00
   -5   11    7    -13.07      0.00
   -3   11    7    -14.51      0.00
   -1   11    7    -14.92      0.00
    1   11    7    -14.13      0.00
    3   11    7    -12.37      0.00
    5   11    7    -10.18      0.00
    7   11    7     -7.93      0.00
    9   11    7     -5.65      0.00
   11   11    7     -3.08      0.00
   13   11    7     -0.14      0.00
   15   11    7      2.77      0.00
   17   11    7      4.82      0.00
   19   11    7      5.31      0.00
   21   11    7      4.12      0.00
   23   11    7      1.83      0.00
   25   11    7     -0.59      0.00
   27   11    7     -2.30      0.00
   29   11    7     -2.96      0.00
   31   11    7     -2.66      0.00
  -36   12    7      2.14      0.00
  -34   12    7      1.90      0.00
  -32   12    7      0.61      0.00
  -30   12    7     -1.39      0.00
  -28   12    7     -3.47      0.00
  -26   12    7     -5.21      0.00
  -24   12    7     -6.53      0.00
  -22   12    7     -7.42      0.00
  -20   12    7     -7.55      0.00
  -18   12    7     -6.33      0.00
  -16   12    7     -3.28      0.00
  -14   12    7      1.33      0.00
  -12   12    7      6.38      0.00
  -10   12    7     10.37      0.00
   -8   12    7     12.21      0.00
   -6   12    7     11.72      0.00
   -4   12    7      9.55      0.00
   -2   12    7      6.65      0.00
    0   12    7      3.80      0.00
    2   12    7      1.43      0.00
    4   12    7     -0.30      0.00
    6   12    7     -1.35      0.00
    8   12    7     -1.73      0.00
   10   12    7     -1.63      0.00
   12   12    7     -1.32      0.00
   14   12    7     -1.07      0.00
   16   12    7     -1.06      0.00
   18   12    7     -1.32      0.00
   20   12    7     -1.83      0.00
   22   12    7     -2.49      0.00
   24   12    7     -3.12      0.00
   26   12    7     -3.38      0.00
   28   12    7     -3.00      0.00
   30   12    7     -1.95      0.00
  -35   13    7      1.57      0.00
  -33   13    7      1.21      0.00
  -31   13    7      1.00      0.00
  -29   13    7      1.38      0.00
  -27   13    7      2.51      0.00
  -25   13    7      4.11      0.00
  -23   13    7      5.70      0.00
  -21   13    7      6.81      0.00
  -19   13    7      7.17      0.00
  -17   13    7      6.66      0.00
  -15   13    7      5.21      0.00
  -13   13    7      2.86      0.00
  -11   13    7     -0.11      0.00
   -9   13    7     -3.09      0.00
   -7   13    7     -5.31      0.00
   -5   13    7     -6.25      0.00
   -3   13    7     -5.88      0.00
   -1   13    7     -4.62      0.00
    1   13    7     -2.99      0.00
    3   13    7     -1.25      0.00
    5   13    7      0.64      0.00
    7   13    7      2.78      0.00
    9   13    7      4.96      0.00
   11   13    7      6.68      0.00
   13   13    7      7.38      0.00
   15   13    7      6.79      0.00
   17   13    7      5.10      0.00
   19   13    7      2.82      0.00
   21   13    7      0.53      0.00
   23   13    7     -1.37      0.00
   25   13    7     -2.63      0.00
   27   13    7     -3.16      0.00
  -32   14    7      4.10      0.00
  -30   14    7      4.99      0.00
  -28   14    7      4.63      0.00
  -26   14    7      3.13      0.00
  -24   14    7      1.20      0.00
  -22   14    7     -0.42      0.00
  -20   14    7     -1.55      0.00
  -18   14    7     -2.54      0.00
  -16   14    7     -3.73      0.00
  -14   14    7     -4.92      0.00
  -12   14    7     -5.36      0.00
  -10   14    7     -4.34      0.00
   -8   14    7     -1.81      0.00
   -6   14    7      1.44      0.00
   -4   14    7      4.27      0.00
   -2   14    7      5.85      0.00
    0   14    7      6.00      0.00
    2   14    7      5.03      0.00
    4   14    7      3.28      0.00
    6   14    7      0.93      0.00
    8   14    7     -1.91      0.00
   10   14    7     -4.90      0.00
   12   14    7     -7.39      0.00
   14   14    7     -8.66      0.00
   16   14    7     -8.22      0.00
   18   14    7     -6.14      0.00
   20   14    7     -2.99      0.00
   22   14    7      0.32      0.00
   24   14    7      2.81      0.00
   26   14    7      3.81      0.00
  -31   15    7     -0.06      0.00
  -29   15    7     -0.19      0.00
  -27   15    7     -0.09      0.00
  -25   15    7      0.14      0.00
  -23   15    7      0.33      0.00
  -21   15    7      0.40      0.00
  -19   15    7      0.50      0.00
  -17   15    7      0.90      0.00
  -15   15    7      1.73      0.00
  -13   15    7      2.83      0.00
  -11   15    7      3.77      0.00
   -9   15    7      4.20      0.00
   -7   15    7      4.12      0.00
   -5   15    7      3.84      0.00
   -3   15    7      3.77      0.00
   -1   15    7      4.14      0.00
    1   15    7      4.83      0.00
    3   15    7      5.54      0.00
    5   15    7      5.93      0.00
    7   15    7      5.84      0.00
    9   15    7      5.23      0.00
   11   15    7      4.20      0.00
   13   15    7      2.90      0.00
   15   15    7      1.55      0.00
   17   15    7      0.39      0.00
   19   15    7     -0.35      0.00
   21   15    7     -0.60      0.00
   23   15    7     -0.47      0.00
  -28   16    7     -0.26      0.00
  -26   16    7      1.57      0.00
  -24   16    7      3.42      0.00
  -22   16    7      5.12      0.00
  -20   16    7      6.46      0.00
  -18   16    7      7.14      0.00
  -16   16    7      6.82      0.00
  -14   16    7      5.36      0.00
  -12   16    7      2.95      0.00
  -10   16    7      0.04      0.00
   -8   16    7     -2.94      0.00
   -6   16    7     -5.67      0.00
   -4   16    7     -7.93      0.00
   -2   16    7     -9.45      0.00
    0   16    7     -9.91      0.00
    2   16    7     -9.05      0.00
    4   16    7     -6.91      0.00
    6   16    7     -3.82      0.00
    8   16    7     -0.30      0.00
   10   16    7      3.14      0.00
   12   16    7      5.97      0.00
   14   16    7      7.68      0.00
   16   16    7      7.82      0.00
   18   16    7      6.25      0.00
   20   16    7      3.46      0.00
   22   16    7      0.47      0.00
  -25   17    7      1.29      0.00
  -23   17    7      0.54      0.00
  -21   17    7     -0.97      0.00
  -19   17    7     -2.61      0.00
  -17   17    7     -3.48      0.00
  -15   17    7     -2.99      0.00
  -13   17    7     -1.25      0.00
  -11   17    7      1.04      0.00
   -9   17    7      3.10      0.00
   -7   17    7      4.56      0.00
   -5   17    7      5.45      0.00
   -3   17    7      5.84      0.00
   -1   17    7      5.58      0.00
    1   17    7      4.30      0.00
    3   17    7      1.87      0.00
    5   17    7     -1.34      0.00
    7   17    7     -4.53      0.00
    9   17    7     -6.79      0.00
   11   17    7     -7.64      0.00
   13   17    7     -7.09      0.00
   15   17    7     -5.54      0.00
   17   17    7     -3.52      0.00
   19   17    7     -1.56      0.00
  -22   18    7      1.32      0.00
  -20   18    7      2.07      0.00
  -18   18    7      2.47      0.00
  -16   18    7      2.44      0.00
  -14   18    7      2.16      0.00
  -12   18    7      2.01      0.00
  -10   18    7      2.33      0.00
   -8   18    7      3.21      0.00
   -6   18    7      4.37      0.00
   -4   18    7      5.31      0.00
   -2   18    7      5.58      0.00
    0   18    7      5.03      0.00
    2   18    7      3.93      0.00
    4   18    7      2.71      0.00
    6   18    7      1.67      0.00
    8   18    7      0.79      0.00
   10   18    7     -0.11      0.00
   12   18    7     -1.16      0.00
   14   18    7     -2.17      0.00
  -17   19    7      1.94      0.00
  -15   19    7      1.83      0.00
  -13   19    7      1.19      0.00
  -11   19    7      0.40      0.00
   -9   19    7     -0.33      0.00
   -7   19    7     -1.11      0.00
   -5   19    7     -2.07      0.00
   -3   19    7     -3.03      0.00
   -1   19    7     -3.53      0.00
    1   19    7     -3.12      0.00
    3   19    7     -1.80      0.00
    5   19    7     -0.12      0.00
    7   19    7      1.21      0.00
    9   19    7      1.74      0.00
   -8   20    7     -1.30      0.00
   -6   20    7     -1.48      0.00
   -4   20    7     -1.10      0.00
   -2   20    7     -0.31      0.00
    0   20    7      0.45      0.00
    2   20    7      0.80      0.00
  -44    0    8      2.36      0.00
  -42    0    8      1.83      0.00
  -40    0    8     -0.46      0.00
  -38    0    8     -3.90      0.00
  -36    0    8     -6.97      0.00
  -34    0    8     -8.11      0.00
  -32    0    8     -6.58      0.00
  -30    0    8     -2.78      0.00
  -28    0    8      2.13      0.00
  -26    0    8      7.12      0.00
  -24    0    8     11.84      0.00
  -22    0    8     16.34      0.00
  -20    0    8     20.47      0.00
  -18    0    8     23.16      0.00
  -16    0    8     22.58      0.00
  -14    0    8     16.99      0.00
  -12    0    8      5.82      0.00
  -10    0    8     -9.65      0.00
   -8    0    8    -26.59      0.00
   -6    0    8    -41.51      0.00
   -4    0    8    -51.34      0.00
   -2    0    8    -54.18      0.00
    0    0    8    -49.59      0.00
    2    0    8    -38.51      0.00
    4    0    8    -22.97      0.00
    6    0    8     -5.84      0.00
    8    0    8      9.78      0.00
   10    0    8     21.25      0.00
   12    0    8     27.09      0.00
   14    0    8     27.35      0.00
   16    0    8     23.36      0.00
   18    0    8     17.04      0.00
   20    0    8     10.14      0.00
   22    0    8      3.75      0.00
   24    0    8     -1.63      0.00
   26    0    8     -5.80      0.00
   28    0    8     -8.49      0.00
   30    0    8     -9.43      0.00
   32    0    8     -8.60      0.00
   34    0    8     -6.44      0.00
   36    0    8     -3.80      0.00
  -43    1    8     -1.25      0.00
  -41    1    8     -0.02      0.00
  -39    1    8      2.13      0.00
  -37    1    8      4.17      0.00
  -35    1    8      5.03      0.00
  -33    1    8      4.12      0.00
  -31    1    8      1.55      0.00
  -29    1    8     -2.11      0.00
  -27    1    8     -6.19      0.00
  -25    1    8    -10.24      0.00
  -23    1    8    -13.92      0.00
  -21    1    8    -16.88      0.00
  -19    1    8    -18.57      0.00
  -17    1    8    -18.34      0.00
  -15    1    8    -15.77      0.00
  -13    1    8    -10.87      0.00
  -11    1    8     -4.25      0.00
   -9    1    8      3.09      0.00
   -7    1    8      9.98      0.00
   -5    1    8     15.31      0.00
   -3    1    8     18.27      0.00
   -1    1    8     18.42      0.00
    1    1    8     15.85      0.00
    3    1    8     11.11      0.00
    5    1    8      5.15      0.00
    7    1    8     -0.94      0.00
    9    1    8     -6.20      0.00
   11    1    8    -10.00      0.00
   13    1    8    -12.11      0.00
   15    1    8    -12.63      0.00
   17    1    8    -11.79      0.00
   19    1    8     -9.91      0.00
   21    1    8     -7.31      0.00
   23    1    8     -4.40      0.00
   25    1    8     -1.64      0.00
   27    1    8      0.48      0.00
   29    1    8      1.65      0.00
   31    1    8      1.83      0.00
   33    1    8      1.26      0.00
   35    1    8      0.40      0.00
   37    1    8     -0.33      0.00
  -44    2    8      1.46      0.00
  -42    2    8      1.15      0.00
  -40    2    8      0.96      0.00
  -38    2    8      1.15      0.00
  -36    2    8      1.57      0.00
  -34    2    8      1.67      0.00
  -32    2    8      1.02      0.00
  -30    2    8     -0.31      0.00
  -28    2    8     -1.75      0.00
  -26    2    8     -2.73      0.00
  -24    2    8     -3.17      0.00
  -22    2    8     -3.53      0.00
  -20    2    8     -4.33      0.00
  -18    2    8     -5.43      0.00
  -16    2    8     -5.90      0.00
  -14    2    8     -4.50      0.00
  -12    2    8     -0.54      0.00
  -10    2    8      5.58      0.00
   -8    2    8     12.41      0.00
   -6    2    8     18.21      0.00
   -4    2    8     21.59      0.00
   -2    2    8     21.92      0.00
    0    2    8     19.23      0.00
    2    2    8     13.96      0.00
    4    2    8      6.85      0.00
    6    2    8     -1.06      0.00
    8    2    8     -8.47      0.00
   10    2    8    -14.09      0.00
   12    2    8    -17.08      0.00
   14    2    8    -17.28      0.00
   16    2    8    -15.21      0.00
   18    2    8    -11.74      0.00
   20    2    8     -7.63      0.00
   22    2    8     -3.39      0.00
   24    2    8      0.70      0.00
   26    2    8      4.40      0.00
   28    2    8      7.32      0.00
   30    2    8      9.03      0.00
   32    2    8      9.25      0.00
   34    2    8      8.04      0.00
   36    2    8      5.89      0.00
  -43    3    8      2.79      0.00
  -41    3    8      1.04      0.00
  -39    3    8     -1.84      0.00
  -37    3    8     -4.75      0.00
  -35    3    8     -6.21      0.00
  -33    3    8     -5.21      0.00
  -31    3    8     -1.67      0.00
  -29    3    8      3.52      0.00
  -27    3    8      9.22      0.00
  -25    3    8     14.59      0.00
  -23    3    8     19.25      0.00
  -21    3    8     22.88      0.00
  -19    3    8     24.80      0.00
  -17    3    8     24.04      0.00
  -15    3    8     19.91      0.00
  -13    3    8     12.62      0.00
  -11    3    8      3.44      0.00
   -9    3    8     -5.76      0.00
   -7    3    8    -13.33      0.00
   -5    3    8    -18.33      0.00
   -3    3    8    -20.47      0.00
   -1    3    8    -19.89      0.00
    1    3    8    -16.85      0.00
    3    3    8    -11.84      0.00
    5    3    8     -5.67      0.00
    7    3    8      0.59      0.00
    9    3    8      5.94      0.00
   11    3    8      9.80      0.00
   13    3    8     12.09      0.00
   15    3    8     13.01      0.00
   17    3    8     12.75      0.00
   19    3    8     11.38      0.00
   21    3    8      9.02      0.00
   23    3    8      6.06      0.00
   25    3    8      3.13      0.00
   27    3    8      0.86      0.00
   29    3    8     -0.46      0.00
   31    3    8     -0.95      0.00
   33    3    8     -0.92      0.00
   35    3    8     -0.69      0.00
  -44    4    8      0.10      0.00
  -42    4    8      1.17      0.00
  -40    4    8      2.73      0.00
  -38    4    8      4.24      0.00
  -36    4    8      4.96      0.00
  -34    4    8      4.40      0.00
  -32    4    8      2.55      0.00
  -30    4    8     -0.22      0.00
  -28    4    8     -3.46      0.00
  -26    4    8     -6.98      0.00
  -24    4    8    -10.67      0.00
  -22    4    8    -14.22      0.00
  -20    4    8    -16.89      0.00
  -18    4    8    -17.67      0.00
  -16    4    8    -15.91      0.00
  -14    4    8    -11.76      0.00
  -12    4    8     -6.16      0.00
  -10    4    8     -0.28      0.00
   -8    4    8      5.00      0.00
   -6    4    8      9.39      0.00
   -4    4    8     12.81      0.00
   -2    4    8     15.03      0.00
    0    4    8     15.59      0.00
    2    4    8     14.14      0.00
    4    4    8     10.90      0.00
    6    4    8      6.70      0.00
    8    4    8      2.62      0.00
   10    4    8     -0.61      0.00
   12    4    8     -2.81      0.00
   14    4    8     -4.25      0.00
   16    4    8     -5.20      0.00
   18    4    8     -5.72      0.00
   20    4    8     -5.79      0.00
   22    4    8     -5.47      0.00
   24    4    8     -5.06      0.00
   26    4    8     -4.83      0.00
   28    4    8     -4.81      0.00
   30    4    8     -4.73      0.00
   32    4    8     -4.22      0.00
   34    4    8     -3.14      0.00
   36    4    8     -1.74      0.00
  -43    5    8     -2.49      0.00
  -41    5    8     -3.29      0.00
  -39    5    8     -3.63      0.00
  -37    5    8     -3.46      0.00
  -35    5    8     -2.96      0.00
  -33    5    8     -2.50      0.00
  -31    5    8     -2.37      0.00
  -29    5    8     -2.65      0.00
  -27    5    8     -3.16      0.00
  -25    5    8     -3.55      0.00
  -23    5    8     -3.46      0.00
  -21    5    8     -2.75      0.00
  -19    5    8     -1.54      0.00
  -17    5    8     -0.25      0.00
  -15    5    8      0.50      0.00
  -13    5    8      0.06      0.00
  -11    5    8     -1.96      0.00
   -9    5    8     -5.59      0.00
   -7    5    8    -10.30      0.00
   -5    5    8    -15.16      0.00
   -3    5    8    -18.98      0.00
   -1    5    8    -20.69      0.00
    1    5    8    -19.68      0.00
    3    5    8    -15.96      0.00
    5    5    8    -10.26      0.00
    7    5    8     -3.79      0.00
    9    5    8      2.06      0.00
   11    5    8      6.18      0.00
   13    5    8      7.95      0.00
   15    5    8      7.40      0.00
   17    5    8      5.04      0.00
   19    5    8      1.65      0.00
   21    5    8     -1.99      0.00
   23    5    8     -5.26      0.00
   25    5    8     -7.72      0.00
   27    5    8     -9.10      0.00
   29    5    8     -9.30      0.00
   31    5    8     -8.40      0.00
   33    5    8     -6.71      0.00
   35    5    8     -4.66      0.00
  -42    6    8     -3.42      0.00
  -40    6    8     -3.77      0.00
  -38    6    8     -3.91      0.00
  -36    6    8     -3.63      0.00
  -34    6    8     -2.60      0.00
  -32    6    8     -0.67      0.00
  -30    6    8      1.95      0.00
  -28    6    8      4.67      0.00
  -26    6    8      6.78      0.00
  -24    6    8      7.72      0.00
  -22    6    8      7.27      0.00
  -20    6    8      5.47      0.00
  -18    6    8      2.62      0.00
  -16    6    8     -0.79      0.00
  -14    6    8     -4.05      0.00
  -12    6    8     -6.50      0.00
  -10    6    8     -7.70      0.00
   -8    6    8     -7.71      0.00
   -6    6    8     -6.97      0.00
   -4    6    8     -5.99      0.00
   -2    6    8     -5.08      0.00
    0    6    8     -4.22      0.00
    2    6    8     -3.36      0.00
    4    6    8     -2.57      0.00
    6    6    8     -2.12      0.00
    8    6    8     -2.14      0.00
   10    6    8     -2.35      0.00
   12    6    8     -2.11      0.00
   14    6    8     -0.83      0.00
   16    6    8      1.56      0.00
   18    6    8      4.43      0.00
   20    6    8      6.72      0.00
   22    6    8      7.54      0.00
   24    6    8      6.58      0.00
   26    6    8      4.21      0.00
   28    6    8      1.21      0.00
   30    6    8     -1.55      0.00
   32    6    8     -3.45      0.00
   34    6    8     -4.23      0.00
  -41    7    8     -0.11      0.00
  -39    7    8      1.55      0.00
  -37    7    8      3.40      0.00
  -35    7    8      4.77      0.00
  -33    7    8      4.88      0.00
  -31    7    8      3.28      0.00
  -29    7    8      0.15      0.00
  -27    7    8     -3.73      0.00
  -25    7    8     -7.42      0.00
  -23    7    8    -10.26      0.00
  -21    7    8    -12.02      0.00
  -19    7    8    -12.72      0.00
  -17    7    8    -12.20      0.00
  -15    7    8    -10.05      0.00
  -13    7    8     -5.77      0.00
  -11    7    8      0.81      0.00
   -9    7    8      9.23      0.00
   -7    7    8     18.31      0.00
   -5    7    8     26.44      0.00
   -3    7    8     31.95      0.00
   -1    7    8     33.60      0.00
    1    7    8     30.90      0.00
    3    7    8     24.40      0.00
    5    7    8     15.50      0.00
    7    7    8      6.08      0.00
    9    7    8     -2.18      0.00
   11    7    8     -8.29      0.00
   13    7    8    -12.04      0.00
   15    7    8    -13.69      0.00
   17    7    8    -13.52      0.00
   19    7    8    -11.60      0.00
   21    7    8     -7.99      0.00
   23    7    8     -3.12      0.00
   25    7    8      2.12      0.00
   27    7    8      6.51      0.00
   29    7    8      9.07      0.00
   31    7    8      9.42      0.00
   33    7    8      7.92      0.00
  -40    8    8      0.02      0.00
  -38    8    8     -0.97      0.00
  -36    8    8     -2.22      0.00
  -34    8    8     -3.26      0.00
  -32    8    8     -3.56      0.00
  -30    8    8     -2.79      0.00
  -28    8    8     -0.86      0.00
  -26    8    8      2.12      0.00
  -24    8    8      5.90      0.00
  -22    8    8     10.13      0.00
  -20    8    8     14.25      0.00
  -18    8    8     17.37      0.00
  -16    8    8     18.45      0.00
  -14    8    8     16.68      0.00
  -12    8    8     11.88      0.00
  -10    8    8      4.75      0.00
   -8    8    8     -3.37      0.00
   -6    8    8    -10.86      0.00
   -4    8    8    -16.36      0.00
   -2    8    8    -18.94      0.00
    0    8    8    -18.26      0.00
    2    8    8    -14.50      0.00
    4    8    8     -8.36      0.00
    6    8    8     -0.98      0.00
    8    8    8      6.26      0.00
   10    8    8     11.99      0.00
   12    8    8     15.21      0.00
   14    8    8     15.51      0.00
   16    8    8     13.11      0.00
   18    8    8      8.81      0.00
   20    8    8      3.77      0.00
   22    8    8     -0.72      0.00
   24    8    8     -3.64      0.00
   26    8    8     -4.52      0.00
   28    8    8     -3.67      0.00
   30    8    8     -1.97      0.00
   32    8    8     -0.44      0.00
  -39    9    8      0.78      0.00
  -37    9    8      1.15      0.00
  -35    9    8      1.78      0.00
  -33    9    8      2.65      0.00
  -31    9    8      3.74      0.00
  -29    9    8      4.94      0.00
  -27    9    8      6.01      0.00
  -25    9    8      6.63      0.00
  -23    9    8      6.54      0.00
  -21    9    8      5.84      0.00
  -19    9    8      4.97      0.00
  -17    9    8      4.44      0.00
  -15    9    8      4.43      0.00
  -13    9    8      4.53      0.00
  -11    9    8      4.04      0.00
   -9    9    8      2.41      0.00
   -7    9    8     -0.24      0.00
   -5    9    8     -3.17      0.00
   -3    9    8     -5.38      0.00
   -1    9    8     -6.24      0.00
    1    9    8     -5.70      0.00
    3    9    8     -4.22      0.00
    5    9    8     -2.41      0.00
    7    9    8     -0.66      0.00
    9    9    8      0.91      0.00
   11    9    8      2.38      0.00
   13    9    8      3.81      0.00
   15    9    8      5.06      0.00
   17    9    8      5.81      0.00
   19    9    8      5.65      0.00
   21    9    8      4.26      0.00
   23    9    8      1.70      0.00
   25    9    8     -1.48      0.00
   27    9    8     -4.36      0.00
   29    9    8     -6.02      0.00
   31    9    8     -5.98      0.00
  -38   10    8      4.49      0.00
  -36   10    8      5.26      0.00
  -34   10    8      5.05      0.00
  -32   10    8      3.76      0.00
  -30   10    8      1.56      0.00
  -28   10    8     -1.26      0.00
  -26   10    8     -4.35      0.00
  -24   10    8     -7.32      0.00
  -22   10    8     -9.74      0.00
  -20   10    8    -11.14      0.00
  -18   10    8    -11.09      0.00
  -16   10    8     -9.33      0.00
  -14   10    8     -5.87      0.00
  -12   10    8     -1.02      0.00
  -10   10    8      4.61      0.00
   -8   10    8     10.16      0.00
   -6   10    8     14.70      0.00
   -4   10    8     17.43      0.00
   -2   10    8     17.94      0.00
    0   10    8     16.32      0.00
    2   10    8     13.09      0.00
    4   10    8      8.95      0.00
    6   10    8      4.51      0.00
    8   10    8      0.14      0.00
   10   10    8     -3.87      0.00
   12   10    8     -7.19      0.00
   14   10    8     -9.36      0.00
   16   10    8     -9.95      0.00
   18   10    8     -8.84      0.00
   20   10    8     -6.35      0.00
   22   10    8     -3.26      0.00
   24   10    8     -0.43      0.00
   26   10    8      1.51      0.00
   28   10    8      2.38      0.00
   30   10    8      2.38      0.00
  -37   11    8     -1.10      0.00
  -35   11    8     -1.77      0.00
  -33   11    8     -2.14      0.00
  -31   11    8     -1.97      0.00
  -29   11    8     -1.19      0.00
  -27   11    8      0.17      0.00
  -25   11    8      1.91      0.00
  -23   11    8      3.67      0.00
  -21   11    8      4.92      0.00
  -19   11    8      5.07      0.00
  -17   11    8      3.71      0.00
  -15   11    8      0.89      0.00
  -13   11    8     -2.80      0.00
  -11   11    8     -6.49      0.00
   -9   11    8     -9.42      0.00
   -7   11    8    -11.19      0.00
   -5   11    8    -11.88      0.00
   -3   11    8    -11.82      0.00
   -1   11    8    -11.32      0.00
    1   11    8    -10.49      0.00
    3   11    8     -9.31      0.00
    5   11    8     -7.70      0.00
    7   11    8     -5.70      0.00
    9   11    8     -3.45      0.00
   11   11    8     -1.19      0.00
   13   11    8      0.80      0.00
   15   11    8      2.29      0.00
   17   11    8      3.20      0.00
   19   11    8      3.66      0.00
   21   11    8      3.88      0.00
   23   11    8      4.05      0.00
   25   11    8      4.13      0.00
   27   11    8      3.94      0.00
   29   11    8      3.28      0.00
  -36   12    8     -2.60      0.00
  -34   12    8     -2.07      0.00
  -32   12    8     -0.76      0.00
  -30   12    8      0.45      0.00
  -28   12    8      0.79      0.00
  -26   12    8      0.05      0.00
  -24   12    8     -1.36      0.00
  -22   12    8     -2.87      0.00
  -20   12    8     -4.19      0.00
  -18   12    8     -5.33      0.00
  -16   12    8     -6.35      0.00
  -14   12    8     -7.07      0.00
  -12   12    8     -7.17      0.00
  -10   12    8     -6.45      0.00
   -8   12    8     -5.18      0.00
   -6   12    8     -3.90      0.00
   -4   12    8     -3.11      0.00
   -2   12    8     -2.89      0.00
    0   12    8     -2.98      0.00
    2   12    8     -3.02      0.00
    4   12    8     -2.86      0.00
    6   12    8     -2.57      0.00
    8   12    8     -2.25      0.00
   10   12    8     -1.85      0.00
   12   12    8     -1.27      0.00
   14   12    8     -0.47      0.00
   16   12    8      0.40      0.00
   18   12    8      1.13      0.00
   20   12    8      1.59      0.00
   22   12    8      1.79      0.00
   24   12    8      1.78      0.00
   26   12    8      1.59      0.00
   28   12    8      1.20      0.00
  -33   13    8     -0.59      0.00
  -31   13    8     -1.87      0.00
  -29   13    8     -3.01      0.00
  -27   13    8     -3.57      0.00
  -25   13    8     -3.67      0.00
  -23   13    8     -3.67      0.00
  -21   13    8     -3.69      0.00
  -19   13    8     -3.27      0.00
  -17   13    8     -1.81      0.00
  -15   13    8      0.79      0.00
  -13   13    8      3.77      0.00
  -11   13    8      5.89      0.00
   -9   13    8      6.31      0.00
   -7   13    8      5.18      0.00
   -5   13    8      3.48      0.00
   -3   13    8      2.28      0.00
   -1   13    8      2.07      0.00
    1   13    8      2.66      0.00
    3   13    8      3.56      0.00
    5   13    8      4.50      0.00
    7   13    8      5.53      0.00
    9   13    8      6.73      0.00
   11   13    8      7.93      0.00
   13   13    8      8.67      0.00
   15   13    8      8.52      0.00
   17   13    8      7.34      0.00
   19   13    8      5.36      0.00
   21   13    8      3.09      0.00
   23   13    8      1.03      0.00
   25   13    8     -0.34      0.00
  -32   14    8     -0.25      0.00
  -30   14    8     -0.34      0.00
  -28   14    8     -0.08      0.00
  -26   14    8      0.46      0.00
  -24   14    8      1.27      0.00
  -22   14    8      2.45      0.00
  -20   14    8      3.99      0.00
  -18   14    8      5.56      0.00
  -16   14    8      6.51      0.00
  -14   14    8      6.25      0.00
  -12   14    8      4.64      0.00
  -10   14    8      2.15      0.00
   -8   14    8     -0.45      0.00
   -6   14    8     -2.57      0.00
   -4   14    8     -4.09      0.00
   -2   14    8     -5.20      0.00
    0   14    8     -6.07      0.00
    2   14    8     -6.55      0.00
    4   14    8     -6.29      0.00
    6   14    8     -4.99      0.00
    8   14    8     -2.70      0.00
   10   14    8      0.21      0.00
   12   14    8      3.18      0.00
   14   14    8      5.63      0.00
   16   14    8      7.11      0.00
   18   14    8      7.34      0.00
   20   14    8      6.28      0.00
   22   14    8      4.27      0.00
   24   14    8      1.97      0.00
  -29   15    8      0.07      0.00
  -27   15    8     -1.13      0.00
  -25   15    8     -2.50      0.00
  -23   15    8     -3.82      0.00
  -21   15    8     -5.15      0.00
  -19   15    8     -6.62      0.00
  -17   15    8     -8.08      0.00
  -15   15    8     -8.98      0.00
  -13   15    8     -8.51      0.00
  -11   15    8     -6.22      0.00
   -9   15    8     -2.38      0.00
   -7   15    8      2.03      0.00
   -5   15    8      5.81      0.00
   -3   15    8      8.15      0.00
   -1   15    8      8.85      0.00
    1   15    8      8.24      0.00
    3   15    8      6.72      0.00
    5   15    8      4.50      0.00
    7   15    8      1.65      0.00
    9   15    8     -1.70      0.00
   11   15    8     -5.06      0.00
   13   15    8     -7.63      0.00
   15   15    8     -8.64      0.00
   17   15    8     -7.70      0.00
   19   15    8     -5.14      0.00
   21   15    8     -1.88      0.00
  -26   16    8     -2.07      0.00
  -24   16    8     -1.89      0.00
  -22   16    8     -1.29      0.00
  -20   16    8     -0.50      0.00
  -18   16    8      0.20      0.00
  -16   16    8      0.59      0.00
  -14   16    8      0.58      0.00
  -12   16    8      0.11      0.00
  -10   16    8     -0.82      0.00
   -8   16    8     -2.05      0.00
   -6   16    8     -3.26      0.00
   -4   16    8     -3.95      0.00
   -2   16    8     -3.70      0.00
    0   16    8     -2.42      0.00
    2   16    8     -0.45      0.00
    4   16    8      1.65      0.00
    6   16    8      3.32      0.00
    8   16    8      4.30      0.00
   10   16    8      4.57      0.00
   12   16    8      4.26      0.00
   14   16    8      3.49      0.00
   16   16    8      2.41      0.00
   18   16    8      1.21      0.00
   20   16    8      0.16      0.00
  -23   17    8     -0.04      0.00
  -21   17    8      0.35      0.00
  -19   17    8      0.97      0.00
  -17   17    8      1.50      0.00
  -15   17    8      1.47      0.00
  -13   17    8      0.56      0.00
  -11   17    8     -1.16      0.00
   -9   17    8     -3.30      0.00
   -7   17    8     -5.36      0.00
   -5   17    8     -6.96      0.00
   -3   17    8     -7.89      0.00
   -1   17    8     -8.12      0.00
    1   17    8     -7.70      0.00
    3   17    8     -6.74      0.00
    5   17    8     -5.37      0.00
    7   17    8     -3.72      0.00
    9   17    8     -1.93      0.00
   11   17    8     -0.22      0.00
   13   17    8      1.07      0.00
   15   17    8      1.59      0.00
  -20   18    8     -1.33      0.00
  -18   18    8     -2.60      0.00
  -16   18    8     -2.83      0.00
  -14   18    8     -1.85      0.00
  -12   18    8     -0.13      0.00
  -10   18    8      1.67      0.00
   -8   18    8      3.17      0.00
   -6   18    8      4.37      0.00
   -4   18    8      5.34      0.00
   -2   18    8      5.92      0.00
    0   18    8      5.72      0.00
    2   18    8      4.54      0.00
    4   18    8      2.60      0.00
    6   18    8      0.54      0.00
    8   18    8     -1.02      0.00
   10   18    8     -1.80      0.00
   12   18    8     -1.94      0.00
  -13   19    8      1.49      0.00
  -11   19    8      2.11      0.00
   -9   19    8      3.30      0.00
   -7   19    8      4.65      0.00
   -5   19    8      5.52      0.00
   -3   19    8      5.44      0.00
   -1   19    8      4.46      0.00
    1   19    8      3.11      0.00
    3   19    8      2.00      0.00
    5   19    8      1.41      0.00
  -43    1    9      2.12      0.00
  -41    1    9      1.98      0.00
  -39    1    9      0.33      0.00
  -37    1    9     -2.51      0.00
  -35    1    9     -5.31      0.00
  -33    1    9     -6.66      0.00
  -31    1    9     -5.81      0.00
  -29    1    9     -3.05      0.00
  -27    1    9      0.69      0.00
  -25    1    9      4.60      0.00
  -23    1    9      8.47      0.00
  -21    1    9     12.41      0.00
  -19    1    9     16.11      0.00
  -17    1    9     18.38      0.00
  -15    1    9     17.54      0.00
  -13    1    9     12.34      0.00
  -11    1    9      2.96      0.00
   -9    1    9     -8.93      0.00
   -7    1    9    -20.80      0.00
   -5    1    9    -30.25      0.00
   -3    1    9    -35.70      0.00
   -1    1    9    -36.50      0.00
    1    1    9    -32.72      0.00
    3    1    9    -25.07      0.00
    5    1    9    -14.92      0.00
    7    1    9     -4.19      0.00
    9    1    9      5.01      0.00
   11    1    9     11.10      0.00
   13    1    9     13.62      0.00
   15    1    9     13.22      0.00
   17    1    9     11.10      0.00
   19    1    9      8.31      0.00
   21    1    9      5.32      0.00
   23    1    9      2.17      0.00
   25    1    9     -1.10      0.00
   27    1    9     -4.10      0.00
   29    1    9     -6.21      0.00
   31    1    9     -6.92      0.00
   33    1    9     -6.20      0.00
   35    1    9     -4.55      0.00
  -42    2    9     -1.75      0.00
  -40    2    9      0.43      0.00
  -38    2    9      3.80      0.00
  -36    2    9      7.05      0.00
  -34    2    9      8.74      0.00
  -32    2    9      8.06      0.00
  -30    2    9      5.05      0.00
  -28    2    9      0.38      0.00
  -26    2    9     -5.19      0.00
  -24    2    9    -11.13      0.00
  -22    2    9    -17.02      0.00
  -20    2    9    -22.24      0.00
  -18    2    9    -25.86      0.00
  -16    2    9    -26.82      0.00
  -14    2    9    -24.49      0.00
  -12    2    9    -19.01      0.00
  -10    2    9    -11.30      0.00
   -8    2    9     -2.66      0.00
   -6    2    9      5.72      0.00
   -4    2    9     12.84      0.00
   -2    2    9     17.91      0.00
    0    2    9     20.17      0.00
    2    2    9     19.13      0.00
    4    2    9     14.87      0.00
    6    2    9      8.23      0.00
    8    2    9      0.70      0.00
   10    2    9     -6.18      0.00
   12    2    9    -11.35      0.00
   14    2    9    -14.46      0.00
   16    2    9    -15.63      0.00
   18    2    9    -15.16      0.00
   20    2    9    -13.28      0.00
   22    2    9    -10.22      0.00
   24    2    9     -6.47      0.00
   26    2    9     -2.80      0.00
   28    2    9     -0.01      0.00
   30    2    9      1.46      0.00
   32    2    9      1.69      0.00
   34    2    9      1.18      0.00
  -43    3    9      1.93      0.00
  -41    3    9      1.59      0.00
  -39    3    9      0.82      0.00
  -37    3    9      0.14      0.00
  -35    3    9     -0.14      0.00
  -33    3    9     -0.02      0.00
  -31    3    9      0.30      0.00
  -29    3    9      0.74      0.00
  -27    3    9      1.49      0.00
  -25    3    9      2.80      0.00
  -23    3    9      4.68      0.00
  -21    3    9      6.75      0.00
  -19    3    9      8.48      0.00
  -17    3    9      9.56      0.00
  -15    3    9     10.08      0.00
  -13    3    9     10.33      0.00
  -11    3    9     10.41      0.00
   -9    3    9     10.02      0.00
   -7    3    9      8.59      0.00
   -5    3    9      5.76      0.00
   -3    3    9      1.70      0.00
   -1    3    9     -2.86      0.00
    1    3    9     -7.00      0.00
    3    3    9    -10.00      0.00
    5    3    9    -11.54      0.00
    7    3    9    -11.63      0.00
    9    3    9    -10.44      0.00
   11    3    9     -8.23      0.00
   13    3    9     -5.37      0.00
   15    3    9     -2.36      0.00
   17    3    9      0.29      0.00
   19    3    9      2.24      0.00
   21    3    9      3.48      0.00
   23    3    9      4.22      0.00
   25    3    9      4.75      0.00
   27    3    9      5.15      0.00
   29    3    9      5.27      0.00
   31    3    9      4.87      0.00
   33    3    9      3.83      0.00
  -42    4    9      4.02      0.00
  -40    4    9      3.05      0.00
  -38    4    9      1.29      0.00
  -36    4    9     -0.58      0.00
  -34    4    9     -1.69      0.00
  -32    4    9     -1.36      0.00
  -30    4    9      0.63      0.00
  -28    4    9      3.89      0.00
  -26    4    9      7.71      0.00
  -24    4    9     11.36      0.00
  -22    4    9     14.23      0.00
  -20    4    9     15.87      0.00
  -18    4    9     16.02      0.00
  -16    4    9     14.66      0.00
  -14    4    9     12.14      0.00
  -12    4    9      9.18      0.00
  -10    4    9      6.57      0.00
   -8    4    9      4.83      0.00
   -6    4    9      3.93      0.00
   -4    4    9      3.46      0.00
   -2    4    9      2.96      0.00
    0    4    9      2.28      0.00
    2    4    9      1.63      0.00
    4    4    9      1.26      0.00
    6    4    9      1.27      0.00
    8    4    9      1.54      0.00
   10    4    9      1.93      0.00
   12    4    9      2.50      0.00
   14    4    9      3.50      0.00
   16    4    9      5.03      0.00
   18    4    9      6.84      0.00
   20    4    9      8.35      0.00
   22    4    9      8.90      0.00
   24    4    9      8.22      0.00
   26    4    9      6.48      0.00
   28    4    9      4.20      0.00
   30    4    9      1.95      0.00
   32    4    9      0.13      0.00
   34    4    9     -1.10      0.00
  -41    5    9      1.09      0.00
  -39    5    9      2.09      0.00
  -37    5    9      3.63      0.00
  -35    5    9      4.99      0.00
  -33    5    9      5.35      0.00
  -31    5    9      4.22      0.00
  -29    5    9      1.70      0.00
  -27    5    9     -1.66      0.00
  -25    5    9     -5.23      0.00
  -23    5    9     -8.56      0.00
  -21    5    9    -11.34      0.00
  -19    5    9    -13.25      0.00
  -17    5    9    -13.91      0.00
  -15    5    9    -13.06      0.00
  -13    5    9    -10.74      0.00
  -11    5    9     -7.26      0.00
   -9    5    9     -2.97      0.00
   -7    5    9      1.84      0.00
   -5    5    9      6.98      0.00
   -3    5    9     12.02      0.00
   -1    5    9     16.23      0.00
    1    5    9     18.71      0.00
    3    5    9     18.85      0.00
    5    5    9     16.71      0.00
    7    5    9     12.97      0.00
    9    5    9      8.47      0.00
   11    5    9      3.87      0.00
   13    5    9     -0.55      0.00
   15    5    9     -4.61      0.00
   17    5    9     -7.96      0.00
   19    5    9    -10.14      0.00
   21    5    9    -10.73      0.00
   23    5    9     -9.75      0.00
   25    5    9     -7.62      0.00
   27    5    9     -4.98      0.00
   29    5    9     -2.42      0.00
   31    5    9     -0.32      0.00
   33    5    9      1.11      0.00
  -42    6    9     -0.08      0.00
  -40    6    9     -0.30      0.00
  -38    6    9     -1.10      0.00
  -36    6    9     -2.30      0.00
  -34    6    9     -3.31      0.00
  -32    6    9     -3.52      0.00
  -30    6    9     -2.79      0.00
  -28    6    9     -1.53      0.00
  -26    6    9     -0.22      0.00
  -24    6    9      1.03      0.00
  -22    6    9      2.62      0.00
  -20    6    9      4.99      0.00
  -18    6    9      7.96      0.00
  -16    6    9     10.50      0.00
  -14    6    9     11.11      0.00
  -12    6    9      8.67      0.00
  -10    6    9      3.03      0.00
   -8    6    9     -4.86      0.00
   -6    6    9    -13.44      0.00
   -4    6    9    -21.02      0.00
   -2    6    9    -26.22      0.00
    0    6    9    -28.08      0.00
    2    6    9    -26.26      0.00
    4    6    9    -21.16      0.00
    6    6    9    -13.88      0.00
    8    6    9     -6.02      0.00
   10    6    9      0.88      0.00
   12    6    9      5.75      0.00
   14    6    9      8.19      0.00
   16    6    9      8.34      0.00
   18    6    9      6.62      0.00
   20    6    9      3.62      0.00
   22    6    9      0.04      0.00
   24    6    9     -3.27      0.00
   26    6    9     -5.56      0.00
   28    6    9     -6.40      0.00
   30    6    9     -5.89      0.00
   32    6    9     -4.54      0.00
  -41    7    9     -1.07      0.00
  -39    7    9     -0.82      0.00
  -37    7    9     -0.30      0.00
  -35    7    9      0.37      0.00
  -33    7    9      1.09      0.00
  -31    7    9      1.81      0.00
  -29    7    9      2.44      0.00
  -27    7    9      2.79      0.00
  -25    7    9      2.52      0.00
  -23    7    9      1.25      0.00
  -21    7    9     -1.16      0.00
  -19    7    9     -4.31      0.00
  -17    7    9     -7.29      0.00
  -15    7    9     -9.02      0.00
  -13    7    9     -8.78      0.00
  -11    7    9     -6.57      0.00
   -9    7    9     -3.10      0.00
   -7    7    9      0.60      0.00
   -5    7    9      3.67      0.00
   -3    7    9      5.60      0.00
   -1    7    9      6.14      0.00
    1    7    9      5.21      0.00
    3    7    9      2.79      0.00
    5    7    9     -0.83      0.00
    7    7    9     -4.95      0.00
    9    7    9     -8.52      0.00
   11    7    9    -10.49      0.00
   13    7    9    -10.30      0.00
   15    7    9     -8.04      0.00
   17    7    9     -4.42      0.00
   19    7    9     -0.44      0.00
   21    7    9      2.94      0.00
   23    7    9      5.01      0.00
   25    7    9      5.44      0.00
   27    7    9      4.38      0.00
   29    7    9      2.41      0.00
   31    7    9      0.36      0.00
  -40    8    9     -1.77      0.00
  -38    8    9     -1.52      0.00
  -36    8    9     -0.83      0.00
  -34    8    9     -0.11      0.00
  -32    8    9      0.00      0.00
  -30    8    9     -0.95      0.00
  -28    8    9     -2.84      0.00
  -26    8    9     -5.11      0.00
  -24    8    9     -7.09      0.00
  -22    8    9     -8.51      0.00
  -20    8    9     -9.50      0.00
  -18    8    9    -10.28      0.00
  -16    8    9    -10.65      0.00
  -14    8    9     -9.95      0.00
  -12    8    9     -7.37      0.00
  -10    8    9     -2.64      0.00
   -8    8    9      3.63      0.00
   -6    8    9     10.11      0.00
   -4    8    9     15.26      0.00
   -2    8    9     18.00      0.00
    0    8    9     18.03      0.00
    2    8    9     15.72      0.00
    4    8    9     11.89      0.00
    6    8    9      7.41      0.00
    8    8    9      3.05      0.00
   10    8    9     -0.69      0.00
   12    8    9     -3.57      0.00
   14    8    9     -5.58      0.00
   16    8    9     -6.73      0.00
   18    8    9     -6.99      0.00
   20    8    9     -6.23      0.00
   22    8    9     -4.47      0.00
   24    8    9     -1.98      0.00
   26    8    9      0.65      0.00
   28    8    9      2.72      0.00
   30    8    9      3.71      0.00
  -39    9    9     -1.85      0.00
  -37    9    9     -3.16      0.00
  -35    9    9     -4.61      0.00
  -33    9    9     -5.73      0.00
  -31    9    9     -5.90      0.00
  -29    9    9     -4.55      0.00
  -27    9    9     -1.54      0.00
  -25    9    9      2.82      0.00
  -23    9    9      7.76      0.00
  -21    9    9     12.35      0.00
  -19    9    9     15.70      0.00
  -17    9    9     17.08      0.00
  -15    9    9     16.02      0.00
  -13    9    9     12.43      0.00
  -11    9    9      6.74      0.00
   -9    9    9     -0.08      0.00
   -7    9    9     -6.76      0.00
   -5    9    9    -12.05      0.00
   -3    9    9    -15.10      0.00
   -1    9    9    -15.58      0.00
    1    9    9    -13.63      0.00
    3    9    9     -9.71      0.00
    5    9    9     -4.52      0.00
    7    9    9      1.04      0.00
    9    9    9      5.98      0.00
   11    9    9      9.45      0.00
   13    9    9     10.96      0.00
   15    9    9     10.53      0.00
   17    9    9      8.61      0.00
   19    9    9      5.89      0.00
   21    9    9      3.03      0.00
   23    9    9      0.59      0.00
   25    9    9     -1.06      0.00
   27    9    9     -1.77      0.00
   29    9    9     -1.65      0.00
  -38   10    9      0.78      0.00
  -36   10    9      1.13      0.00
  -34   10    9      1.58      0.00
  -32   10    9      2.05      0.00
  -30   10    9      2.31      0.00
  -28   10    9      2.10      0.00
  -26   10    9      1.29      0.00
  -24   10    9      0.09      0.00
  -22   10    9     -1.01      0.00
  -20   10    9     -1.49      0.00
  -18   10    9     -1.09      0.00
  -16   10    9     -0.04      0.00
  -14   10    9      1.10      0.00
  -12   10    9      1.86      0.00
  -10   10    9      2.08      0.00
   -8   10    9      2.06      0.00
   -6   10    9      2.27      0.00
   -4   10    9      3.02      0.00
   -2   10    9      4.28      0.00
    0   10    9      5.68      0.00
    2   10    9      6.75      0.00
    4   10    9      7.15      0.00
    6   10    9      6.77      0.00
    8   10    9      5.69      0.00
   10   10    9      4.10      0.00
   12   10    9      2.32      0.00
   14   10    9      0.67      0.00
   16   10    9     -0.60      0.00
   18   10    9     -1.40      0.00
   20   10    9     -1.80      0.00
   22   10    9     -2.02      0.00
   24   10    9     -2.18      0.00
   26   10    9     -2.29      0.00
   28   10    9     -2.20      0.00
  -37   11    9      1.52      0.00
  -35   11    9      1.34      0.00
  -33   11    9      0.62      0.00
  -31   11    9     -0.38      0.00
  -29   11    9     -1.34      0.00
  -27   11    9     -2.15      0.00
  -25   11    9     -2.83      0.00
  -23   11    9     -3.44      0.00
  -21   11    9     -3.79      0.00
  -19   11    9     -3.58      0.00
  -17   11    9     -2.51      0.00
  -15   11    9     -0.57      0.00
  -13   11    9      1.87      0.00
  -11   11    9      4.28      0.00
   -9   11    9      6.14      0.00
   -7   11    9      7.20      0.00
   -5   11    9      7.47      0.00
   -3   11    9      7.10      0.00
   -1   11    9      6.27      0.00
    1   11    9      5.07      0.00
    3   11    9      3.53      0.00
    5   11    9      1.69      0.00
    7   11    9     -0.34      0.00
    9   11    9     -2.29      0.00
   11   11    9     -3.77      0.00
   13   11    9     -4.46      0.00
   15   11    9     -4.22      0.00
   17   11    9     -3.18      0.00
   19   11    9     -1.76      0.00
   21   11    9     -0.36      0.00
   23   11    9      0.72      0.00
   25   11    9      1.42      0.00
   27   11    9      1.79      0.00
  -34   12    9      0.31      0.00
  -32   12    9      0.97      0.00
  -30   12    9      1.94      0.00
  -28   12    9      3.08      0.00
  -26   12    9      4.27      0.00
  -24   12    9      5.37      0.00
  -22   12    9      6.14      0.00
  -20   12    9      6.24      0.00
  -18   12    9      5.47      0.00
  -16   12    9      3.89      0.00
  -14   12    9      1.92      0.00
  -12   12    9      0.06      0.00
  -10   12    9     -1.42      0.00
   -8   12    9     -2.63      0.00
   -6   12    9     -3.90      0.00
   -4   12    9     -5.46      0.00
   -2   12    9     -7.25      0.00
    0   12    9     -8.94      0.00
    2   12    9    -10.13      0.00
    4   12    9    -10.59      0.00
    6   12    9    -10.25      0.00
    8   12    9     -9.12      0.00
   10   12    9     -7.31      0.00
   12   12    9     -5.03      0.00
   14   12    9     -2.65      0.00
   16   12    9     -0.57      0.00
   18   12    9      0.91      0.00
   20   12    9      1.73      0.00
   22   12    9      2.05      0.00
   24   12    9      2.05      0.00
   26   12    9      1.82      0.00
  -33   13    9      2.34      0.00
  -31   13    9      3.38      0.00
  -29   13    9      3.77      0.00
  -27   13    9      3.34      0.00
  -25   13    9      2.23      0.00
  -23   13    9      0.66      0.00
  -21   13    9     -1.37      0.00
  -19   13    9     -3.92      0.00
  -17   13    9     -6.83      0.00
  -15   13    9     -9.47      0.00
  -13   13    9    -10.96      0.00
  -11   13    9    -10.61      0.00
   -9   13    9     -8.37      0.00
   -7   13    9     -4.87      0.00
   -5   13    9     -1.07      0.00
   -3   13    9      2.27      0.00
   -1   13    9      4.78      0.00
    1   13    9      6.46      0.00
    3   13    9      7.42      0.00
    5   13    9      7.64      0.00
    7   13    9      7.00      0.00
    9   13    9      5.40      0.00
   11   13    9      2.92      0.00
   13   13    9     -0.05      0.00
   15   13    9     -2.87      0.00
   17   13    9     -4.83      0.00
   19   13    9     -5.41      0.00
   21   13    9     -4.55      0.00
   23   13    9     -2.71      0.00
  -30   14    9      2.35      0.00
  -28   14    9      2.68      0.00
  -26   14    9      2.95      0.00
  -24   14    9      2.99      0.00
  -22   14    9      2.88      0.00
  -20   14    9      3.05      0.00
  -18   14    9      3.94      0.00
  -16   14    9      5.55      0.00
  -14   14    9      7.11      0.00
  -12   14    9      7.47      0.00
  -10   14    9      5.89      0.00
   -8   14    9      2.62      0.00
   -6   14    9     -1.11      0.00
   -4   14    9     -3.88      0.00
   -2   14    9     -4.82      0.00
    0   14    9     -3.99      0.00
    2   14    9     -2.07      0.00
    4   14    9      0.26      0.00
    6   14    9      2.64      0.00
    8   14    9      4.98      0.00
   10   14    9      7.17      0.00
   12   14    9      8.92      0.00
   14   14    9      9.83      0.00
   16   14    9      9.64      0.00
   18   14    9      8.39      0.00
   20   14    9      6.37      0.00
   22   14    9      4.05      0.00
  -29   15    9      1.28      0.00
  -27   15    9      2.00      0.00
  -25   15    9      2.41      0.00
  -23   15    9      2.65      0.00
  -21   15    9      3.07      0.00
  -19   15    9      3.77      0.00
  -17   15    9      4.43      0.00
  -15   15    9      4.50      0.00
  -13   15    9      3.75      0.00
  -11   15    9      2.52      0.00
   -9   15    9      1.49      0.00
   -7   15    9      1.04      0.00
   -5   15    9      0.94      0.00
   -3   15    9      0.53      0.00
   -1   15    9     -0.67      0.00
    1   15    9     -2.53      0.00
    3   15    9     -4.31      0.00
    5   15    9     -5.22      0.00
    7   15    9     -4.86      0.00
    9   15    9     -3.37      0.00
   11   15    9     -1.23      0.00
   13   15    9      1.02      0.00
   15   15    9      2.91      0.00
   17   15    9      4.03      0.00
   19   15    9      4.15      0.00
  -26   16    9     -1.59      0.00
  -24   16    9     -1.44      0.00
  -22   16    9     -1.60      0.00
  -20   16    9     -2.53      0.00
  -18   16    9     -4.12      0.00
  -16   16    9     -5.61      0.00
  -14   16    9     -5.94      0.00
  -12   16    9     -4.52      0.00
  -10   16    9     -1.58      0.00
   -8   16    9      1.95      0.00
   -6   16    9      5.04      0.00
   -4   16    9      7.08      0.00
   -2   16    9      8.04      0.00
    0   16    9      8.20      0.00
    2   16    9      7.77      0.00
    4   16    9      6.78      0.00
    6   16    9      5.15      0.00
    8   16    9      2.94      0.00
   10   16    9      0.49      0.00
   12   16    9     -1.69      0.00
   14   16    9     -3.05      0.00
   16   16    9     -3.27      0.00
  -21   17    9      1.19      0.00
  -19   17    9      2.70      0.00
  -17   17    9      3.80      0.00
  -15   17    9      4.10      0.00
  -13   17    9      3.51      0.00
  -11   17    9      2.19      0.00
   -9   17    9      0.39      0.00
   -7   17    9     -1.57      0.00
   -5   17    9     -3.33      0.00
   -3   17    9     -4.46      0.00
   -1   17    9     -4.68      0.00
    1   17    9     -4.02      0.00
    3   17    9     -2.84      0.00
    5   17    9     -1.65      0.00
    7   17    9     -0.76      0.00
    9   17    9     -0.17      0.00
   11   17    9      0.30      0.00
   13   17    9      0.76      0.00
  -16   18    9      2.07      0.00
  -14   18    9      2.21      0.00
  -12   18    9      1.61      0.00
  -10   18    9      0.28      0.00
   -8   18    9     -1.40      0.00
   -6   18    9     -2.91      0.00
   -4   18    9     -3.87      0.00
   -2   18    9     -4.23      0.00
    0   18    9     -4.18      0.00
    2   18    9     -3.98      0.00
    4   18    9     -3.72      0.00
    6   18    9     -3.36      0.00
    8   18    9     -2.83      0.00
   -7   19    9      3.38      0.00
   -5   19    9      3.91      0.00
   -3   19    9      4.21      0.00
   -1   19    9      3.93      0.00
  -42    0   10     -4.93      0.00
  -40    0   10     -4.42      0.00
  -38    0   10     -1.54      0.00
  -36    0   10      2.85      0.00
  -34    0   10      6.92      0.00
  -32    0   10      8.92      0.00
  -30    0   10      8.12      0.00
  -28    0   10      4.96      0.00
  -26    0   10      0.41      0.00
  -24    0   10     -4.85      0.00
  -22    0   10    -10.57      0.00
  -20    0   10    -16.53      0.00
  -18    0   10    -21.82      0.00
  -16    0   10    -24.88      0.00
  -14    0   10    -24.11      0.00
  -12    0   10    -18.84      0.00
  -10    0   10     -9.82      0.00
   -8    0   10      1.12      0.00
   -6    0   10     11.88      0.00
   -4    0   10     20.73      0.00
   -2    0   10     26.53      0.00
    0    0   10     28.58      0.00
    2    0   10     26.57      0.00
    4    0   10     20.89      0.00
    6    0   10     12.76      0.00
    8    0   10      4.14      0.00
   10    0   10     -2.97      0.00
   12    0   10     -7.40      0.00
   14    0   10     -9.14      0.00
   16    0   10     -9.01      0.00
   18    0   10     -7.92      0.00
   20    0   10     -6.29      0.00
   22    0   10     -4.03      0.00
   24    0   10     -1.08      0.00
   26    0   10      2.20      0.00
   28    0   10      4.95      0.00
   30    0   10      6.34      0.00
   32    0   10      6.08      0.00
  -43    1   10     -0.04      0.00
  -41    1   10     -0.34      0.00
  -39    1   10     -1.52      0.00
  -37    1   10     -3.28      0.00
  -35    1   10     -4.94      0.00
  -33    1   10     -5.84      0.00
  -31    1   10     -5.61      0.00
  -29    1   10     -4.22      0.00
  -27    1   10     -1.92      0.00
  -25    1   10      1.03      0.00
  -23    1   10      4.39      0.00
  -21    1   10      7.88      0.00
  -19    1   10     11.16      0.00
  -17    1   10     13.69      0.00
  -15    1   10     14.96      0.00
  -13    1   10     14.61      0.00
  -11    1   10     12.58      0.00
   -9    1   10      9.09      0.00
   -7    1   10      4.52      0.00
   -5    1   10     -0.59      0.00
   -3    1   10     -5.62      0.00
   -1    1   10     -9.82      0.00
    1    1   10    -12.39      0.00
    3    1   10    -12.83      0.00
    5    1   10    -11.12      0.00
    7    1   10     -7.82      0.00
    9    1   10     -3.86      0.00
   11    1   10     -0.10      0.00
   13    1   10      2.97      0.00
   15    1   10      5.25      0.00
   17    1   10      6.84      0.00
   19    1   10      7.76      0.00
   21    1   10      7.90      0.00
   23    1   10      7.18      0.00
   25    1   10      5.80      0.00
   27    1   10      4.20      0.00
   29    1   10      2.90      0.00
   31    1   10      2.17      0.00
   33    1   10      1.93      0.00
  -42    2   10      0.58      0.00
  -40    2   10      0.53      0.00
  -38    2   10     -0.32      0.00
  -36    2   10     -1.81      0.00
  -34    2   10     -3.18      0.00
  -32    2   10     -3.55      0.00
  -30    2   10     -2.60      0.00
  -28    2   10     -0.72      0.00
  -26    2   10      1.35      0.00
  -24    2   10      3.10      0.00
  -22    2   10      4.51      0.00
  -20    2   10      5.74      0.00
  -18    2   10      6.66      0.00
  -16    2   10      6.67      0.00
  -14    2   10      5.07      0.00
  -12    2   10      1.69      0.00
  -10    2   10     -2.80      0.00
   -8    2   10     -7.16      0.00
   -6    2   10    -10.24      0.00
   -4    2   10    -11.45      0.00
   -2    2   10    -10.85      0.00
    0    2   10     -8.78      0.00
    2    2   10     -5.68      0.00
    4    2   10     -2.00      0.00
    6    2   10      1.69      0.00
    8    2   10      4.64      0.00
   10    2   10      6.25      0.00
   12    2   10      6.35      0.00
   14    2   10      5.30      0.00
   16    2   10      3.78      0.00
   18    2   10      2.35      0.00
   20    2   10      1.20      0.00
   22    2   10      0.22      0.00
   24    2   10     -0.69      0.00
   26    2   10     -1.49      0.00
   28    2   10     -1.93      0.00
   30    2   10     -1.84      0.00
   32    2   10     -1.26      0.00
  -41    3   10     -2.29      0.00
  -39    3   10     -0.44      0.00
  -37    3   10      2.34      0.00
  -35    3   10      5.14      0.00
  -33    3   10      6.86      0.00
  -31    3   10      6.70      0.00
  -29    3   10      4.50      0.00
  -27    3   10      0.71      0.00
  -25    3   10     -3.98      0.00
  -23    3   10     -8.93      0.00
  -21    3   10    -13.65      0.00
  -19    3   10    -17.66      0.00
  -17    3   10    -20.34      0.00
  -15    3   10    -21.13      0.00
  -13    3   10    -19.79      0.00
  -11    3   10    -16.55      0.00
   -9    3   10    -12.01      0.00
   -7    3   10     -6.79      0.00
   -5    3   10     -1.35      0.00
   -3    3   10      3.94      0.00
   -1    3   10      8.51      0.00
    1    3   10     11.55      0.00
    3    3   10     12.30      0.00
    5    3   10     10.55      0.00
    7    3   10      6.83      0.00
    9    3   10      2.19      0.00
   11    3   10     -2.35      0.00
   13    3   10     -6.22      0.00
   15    3   10     -9.27      0.00
   17    3   10    -11.42      0.00
   19    3   10    -12.37      0.00
   21    3   10    -11.77      0.00
   23    3   10     -9.56      0.00
   25    3   10     -6.29      0.00
   27    3   10     -2.94      0.00
   29    3   10     -0.43      0.00
   31    3   10      0.88      0.00
   33    3   10      1.24      0.00
  -42    4   10      0.92      0.00
  -40    4   10      0.56      0.00
  -38    4   10     -0.42      0.00
  -36    4   10     -1.70      0.00
  -34    4   10     -2.78      0.00
  -32    4   10     -3.23      0.00
  -30    4   10     -2.90      0.00
  -28    4   10     -1.83      0.00
  -26    4   10     -0.11      0.00
  -24    4   10      2.25      0.00
  -22    4   10      5.25      0.00
  -20    4   10      8.75      0.00
  -18    4   10     12.30      0.00
  -16    4   10     15.27      0.00
  -14    4   10     17.00      0.00
  -12    4   10     17.03      0.00
  -10    4   10     15.16      0.00
   -8    4   10     11.35      0.00
   -6    4   10      5.79      0.00
   -4    4   10     -1.12      0.00
   -2    4   10     -8.57      0.00
    0    4   10    -15.40      0.00
    2    4   10    -20.37      0.00
    4    4   10    -22.52      0.00
    6    4   10    -21.54      0.00
    8    4   10    -17.87      0.00
   10    4   10    -12.45      0.00
   12    4   10     -6.41      0.00
   14    4   10     -0.75      0.00
   16    4   10      3.80      0.00
   18    4   10      6.83      0.00
   20    4   10      8.19      0.00
   22    4   10      8.00      0.00
   24    4   10      6.64      0.00
   26    4   10      4.61      0.00
   28    4   10      2.44      0.00
   30    4   10      0.55      0.00
   32    4   10     -0.79      0.00
  -41    5   10      0.61      0.00
  -39    5   10      0.21      0.00
  -37    5   10      0.11      0.00
  -35    5   10      0.25      0.00
  -33    5   10      0.55      0.00
  -31    5   10      1.11      0.00
  -29    5   10      2.17      0.00
  -27    5   10      3.76      0.00
  -25    5   10      5.43      0.00
  -23    5   10      6.28      0.00
  -21    5   10      5.50      0.00
  -19    5   10      2.94      0.00
  -17    5   10     -0.64      0.00
  -15    5   10     -3.90      0.00
  -13    5   10     -5.55      0.00
  -11    5   10     -5.03      0.00
   -9    5   10     -2.55      0.00
   -7    5   10      1.09      0.00
   -5    5   10      4.99      0.00
   -3    5   10      8.38      0.00
   -1    5   10     10.71      0.00
    1    5   10     11.60      0.00
    3    5   10     10.85      0.00
    5    5   10      8.54      0.00
    7    5   10      5.16      0.00
    9    5   10      1.51      0.00
   11    5   10     -1.50      0.00
   13    5   10     -3.21      0.00
   15    5   10     -3.40      0.00
   17    5   10     -2.40      0.00
   19    5   10     -0.91      0.00
   21    5   10      0.29      0.00
   23    5   10      0.64      0.00
   25    5   10      0.07      0.00
   27    5   10     -1.10      0.00
   29    5   10     -2.30      0.00
   31    5   10     -3.03      0.00
  -40    6   10     -1.42      0.00
  -38    6   10     -0.95      0.00
  -36    6   10      0.12      0.00
  -34    6   10      1.37      0.00
  -32    6   10      2.15      0.00
  -30    6   10      1.90      0.00
  -28    6   10      0.47      0.00
  -26    6   10     -1.82      0.00
  -24    6   10     -4.28      0.00
  -22    6   10     -6.28      0.00
  -20    6   10     -7.51      0.00
  -18    6   10     -8.05      0.00
  -16    6   10     -8.19      0.00
  -14    6   10     -8.15      0.00
  -12    6   10     -7.88      0.00
  -10    6   10     -7.15      0.00
   -8    6   10     -5.67      0.00
   -6    6   10     -3.36      0.00
   -4    6   10     -0.39      0.00
   -2    6   10      2.87      0.00
    0    6   10      6.00      0.00
    2    6   10      8.63      0.00
    4    6   10     10.40      0.00
    6    6   10     11.02      0.00
    8    6   10     10.27      0.00
   10    6   10      8.13      0.00
   12    6   10      4.82      0.00
   14    6   10      0.78      0.00
   16    6   10     -3.39      0.00
   18    6   10     -7.13      0.00
   20    6   10     -9.96      0.00
   22    6   10    -11.51      0.00
   24    6   10    -11.56      0.00
   26    6   10    -10.10      0.00
   28    6   10     -7.49      0.00
   30    6   10     -4.41      0.00
  -39    7   10      3.20      0.00
  -37    7   10      2.53      0.00
  -35    7   10      0.76      0.00
  -33    7   10     -1.32      0.00
  -31    7   10     -2.79      0.00
  -29    7   10     -3.16      0.00
  -27    7   10     -2.45      0.00
  -25    7   10     -0.83      0.00
  -23    7   10      1.67      0.00
  -21    7   10      5.17      0.00
  -19    7   10      9.47      0.00
  -17    7   10     13.71      0.00
  -15    7   10     16.45      0.00
  -13    7   10     16.34      0.00
  -11    7   10     12.85      0.00
   -9    7   10      6.56      0.00
   -7    7   10     -1.13      0.00
   -5    7   10     -8.61      0.00
   -3    7   10    -14.58      0.00
   -1    7   10    -18.24      0.00
    1    7   10    -19.21      0.00
    3    7   10    -17.52      0.00
    5    7   10    -13.69      0.00
    7    7   10     -8.66      0.00
    9    7   10     -3.63      0.00
   11    7   10      0.35      0.00
   13    7   10      2.79      0.00
   15    7   10      3.77      0.00
   17    7   10      3.69      0.00
   19    7   10      3.00      0.00
   21    7   10      1.98      0.00
   23    7   10      0.81      0.00
   25    7   10     -0.37      0.00
   27    7   10     -1.39      0.00
   29    7   10     -2.06      0.00
  -38    8   10      0.80      0.00
  -36    8   10      2.18      0.00
  -34    8   10      4.08      0.00
  -32    8   10      5.86      0.00
  -30    8   10      6.83      0.00
  -28    8   10      6.52      0.00
  -26    8   10      4.86      0.00
  -24    8   10      2.12      0.00
  -22    8   10     -1.28      0.00
  -20    8   10     -4.75      0.00
  -18    8   10     -7.59      0.00
  -16    8   10     -9.10      0.00
  -14    8   10     -8.76      0.00
  -12    8   10     -6.52      0.00
  -10    8   10     -2.86      0.00
   -8    8   10      1.40      0.00
   -6    8   10      5.47      0.00
   -4    8   10      8.73      0.00
   -2    8   10     10.74      0.00
    0    8   10     11.17      0.00
    2    8   10      9.83      0.00
    4    8   10      6.90      0.00
    6    8   10      3.12      0.00
    8    8   10     -0.44      0.00
   10    8   10     -2.82      0.00
   12    8   10     -3.64      0.00
   14    8   10     -3.20      0.00
   16    8   10     -2.14      0.00
   18    8   10     -0.98      0.00
   20    8   10      0.10      0.00
   22    8   10      1.11      0.00
   24    8   10      1.96      0.00
   26    8   10      2.35      0.00
   28    8   10      2.07      0.00
  -37    9   10     -1.42      0.00
  -35    9   10     -1.65      0.00
  -33    9   10     -1.61      0.00
  -31    9   10     -1.28      0.00
  -29    9   10     -0.71      0.00
  -27    9   10     -0.02      0.00
  -25    9   10      0.54      0.00
  -23    9   10      0.66      0.00
  -21    9   10      0.13      0.00
  -19    9   10     -0.98      0.00
  -17    9   10     -2.18      0.00
  -15    9   10     -2.71      0.00
  -13    9   10     -1.99      0.00
  -11    9   10      0.08      0.00
   -9    9   10      2.89      0.00
   -7    9   10      5.47      0.00
   -5    9   10      6.96      0.00
   -3    9   10      7.01      0.00
   -1    9   10      5.89      0.00
    1    9   10      4.26      0.00
    3    9   10      2.72      0.00
    5    9   10      1.63      0.00
    7    9   10      1.05      0.00
    9    9   10      0.86      0.00
   11    9   10      0.92      0.00
   13    9   10      1.10      0.00
   15    9   10      1.25      0.00
   17    9   10      1.27      0.00
   19    9   10      1.09      0.00
   21    9   10      0.77      0.00
   23    9   10      0.45      0.00
   25    9   10      0.27      0.00
   27    9   10      0.28      0.00
  -36   10   10      0.05      0.00
  -34   10   10     -0.72      0.00
  -32   10   10     -1.78      0.00
  -30   10   10     -2.50      0.00
  -28   10   10     -2.15      0.00
  -26   10   10     -0.34      0.00
  -24   10   10      2.62      0.00
  -22   10   10      5.92      0.00
  -20   10   10      8.60      0.00
  -18   10   10      9.98      0.00
  -16   10   10      9.84      0.00
  -14   10   10      8.25      0.00
  -12   10   10      5.49      0.00
  -10   10   10      1.96      0.00
   -8   10   10     -1.79      0.00
   -6   10   10     -5.09      0.00
   -4   10   10     -7.32      0.00
   -2   10   10     -8.12      0.00
    0   10   10     -7.48      0.00
    2   10   10     -5.71      0.00
    4   10   10     -3.27      0.00
    6   10   10     -0.67      0.00
    8   10   10      1.60      0.00
   10   10   10      3.15      0.00
   12   10   10      3.72      0.00
   14   10   10      3.36      0.00
   16   10   10      2.34      0.00
   18   10   10      1.04      0.00
   20   10   10     -0.22      0.00
   22   10   10     -1.23      0.00
   24   10   10     -1.92      0.00
   26   10   10     -2.22      0.00
  -35   11   10      0.66      0.00
  -33   11   10      0.60      0.00
  -31   11   10      0.36      0.00
  -29   11   10     -0.38      0.00
  -27   11   10     -1.81      0.00
  -25   11   10     -3.62      0.00
  -23   11   10     -5.14      0.00
  -21   11   10     -5.76      0.00
  -19   11   10     -5.47      0.00
  -17   11   10     -4.89      0.00
  -15   11   10     -4.79      0.00
  -13   11   10     -5.46      0.00
  -11   11   10     -6.35      0.00
   -9   11   10     -6.50      0.00
   -7   11   10     -5.16      0.00
   -5   11   10     -2.32      0.00
   -3   11   10      1.30      0.00
   -1   11   10      4.78      0.00
    1   11   10      7.50      0.00
    3   11   10      9.25      0.00
    5   11   10     10.02      0.00
    7   11   10      9.77      0.00
    9   11   10      8.44      0.00
   11   11   10      6.14      0.00
   13   11   10      3.30      0.00
   15   11   10      0.59      0.00
   17   11   10     -1.42      0.00
   19   11   10     -2.53      0.00
   21   11   10     -2.87      0.00
   23   11   10     -2.72      0.00
   25   11   10     -2.30      0.00
  -34   12   10     -2.55      0.00
  -32   12   10     -3.43      0.00
  -30   12   10     -3.97      0.00
  -28   12   10     -4.05      0.00
  -26   12   10     -3.76      0.00
  -24   12   10     -3.28      0.00
  -22   12   10     -2.60      0.00
  -20   12   10     -1.46      0.00
  -18   12   10      0.44      0.00
  -16   12   10      3.13      0.00
  -14   12   10      6.12      0.00
  -12   12   10      8.48      0.00
  -10   12   10      9.28      0.00
   -8   12   10      8.08      0.00
   -6   12   10      5.19      0.00
   -4   12   10      1.48      0.00
   -2   12   10     -2.08      0.00
    0   12   10     -4.83      0.00
    2   12   10     -6.55      0.00
    4   12   10     -7.37      0.00
    6   12   10     -7.41      0.00
    8   12   10     -6.65      0.00
   10   12   10     -5.02      0.00
   12   12   10     -2.56      0.00
   14   12   10      0.38      0.00
   16   12   10      3.18      0.00
   18   12   10      5.15      0.00
   20   12   10      5.91      0.00
   22   12   10      5.48      0.00
   24   12   10      4.27      0.00
  -31   13   10     -0.93      0.00
  -29   13   10     -0.95      0.00
  -27   13   10     -0.83      0.00
  -25   13   10     -0.61      0.00
  -23   13   10     -0.36      0.00
  -21   13   10     -0.23      0.00
  -19   13   10     -0.34      0.00
  -17   13   10     -0.66      0.00
  -15   13   10     -0.97      0.00
  -13   13   10     -0.94      0.00
  -11   13   10     -0.35      0.00
   -9   13   10      0.70      0.00
   -7   13   10      1.74      0.00
   -5   13   10      2.21      0.00
   -3   13   10      1.67      0.00
   -1   13   10      0.05      0.00
    1   13   10     -2.34      0.00
    3   13   10     -4.89      0.00
    5   13   10     -6.95      0.00
    7   13   10     -7.94      0.00
    9   13   10     -7.62      0.00
   11   13   10     -6.16      0.00
   13   13   10     -4.14      0.00
   15   13   10     -2.25      0.00
   17   13   10     -1.02      0.00
   19   13   10     -0.50      0.00
   21   13   10     -0.39      0.00
  -28   14   10     -0.04      0.00
  -26   14   10     -0.92      0.00
  -24   14   10     -1.66      0.00
  -22   14   10     -2.50      0.00
  -20   14   10     -3.82      0.00
  -18   14   10     -5.66      0.00
  -16   14   10     -7.57      0.00
  -14   14   10     -8.79      0.00
  -12   14   10     -8.77      0.00
  -10   14   10     -7.48      0.00
   -8   14   10     -5.33      0.00
   -6   14   10     -2.77      0.00
   -4   14   10     -0.06      0.00
   -2   14   10      2.76      0.00
    0   14   10      5.61      0.00
    2   14   10      8.18      0.00
    4   14   10      9.96      0.00
    6   14   10     10.45      0.00
    8   14   10      9.38      0.00
   10   14   10      6.82      0.00
   12   14   10      3.26      0.00
   14   14   10     -0.50      0.00
   16   14   10     -3.49      0.00
   18   14   10     -4.96      0.00
  -27   15   10      3.81      0.00
  -25   15   10      3.40      0.00
  -23   15   10      2.69      0.00
  -21   15   10      2.35      0.00
  -19   15   10      2.90      0.00
  -17   15   10      4.30      0.00
  -15   15   10      5.82      0.00
  -13   15   10      6.45      0.00
  -11   15   10      5.47      0.00
   -9   15   10      2.91      0.00
   -7   15   10     -0.50      0.00
   -5   15   10     -3.70      0.00
   -3   15   10     -5.88      0.00
   -1   15   10     -6.66      0.00
    1   15   10     -6.12      0.00
    3   15   10     -4.61      0.00
    5   15   10     -2.56      0.00
    7   15   10     -0.35      0.00
    9   15   10      1.72      0.00
   11   15   10      3.45      0.00
   13   15   10      4.72      0.00
   15   15   10      5.44      0.00
   17   15   10      5.48      0.00
  -22   16   10     -0.70      0.00
  -20   16   10     -0.96      0.00
  -18   16   10     -1.19      0.00
  -16   16   10     -1.65      0.00
  -14   16   10     -2.47      0.00
  -12   16   10     -3.32      0.00
  -10   16   10     -3.53      0.00
   -8   16   10     -2.60      0.00
   -6   16   10     -0.69      0.00
   -4   16   10      1.38      0.00
   -2   16   10      2.61      0.00
    0   16   10      2.54      0.00
    2   16   10      1.46      0.00
    4   16   10      0.16      0.00
    6   16   10     -0.69      0.00
    8   16   10     -0.86      0.00
   10   16   10     -0.57      0.00
   12   16   10     -0.16      0.00
   14   16   10      0.17      0.00
  -19   17   10     -3.83      0.00
  -17   17   10     -5.24      0.00
  -15   17   10     -5.97      0.00
  -13   17   10     -5.42      0.00
  -11   17   10     -3.66      0.00
   -9   17   10     -1.35      0.00
   -7   17   10      0.70      0.00
   -5   17   10      2.08      0.00
   -3   17   10      2.85      0.00
   -1   17   10      3.35      0.00
    1   17   10      3.76      0.00
    3   17   10      3.96      0.00
    5   17   10      3.74      0.00
    7   17   10      3.04      0.00
    9   17   10      2.05      0.00
  -12   18   10     -0.21      0.00
  -10   18   10     -1.12      0.00
   -8   18   10     -2.29      0.00
   -6   18   10     -3.55      0.00
   -4   18   10     -4.57      0.00
   -2   18   10     -5.01      0.00
    0   18   10     -4.71      0.00
    2   18   10     -3.85      0.00
  -41    1   11     -2.80      0.00
  -39    1   11     -1.45      0.00
  -37    1   11      1.52      0.00
  -35    1   11      5.05      0.00
  -33    1   11      7.64      0.00
  -31    1   11      8.26      0.00
  -29    1   11      6.84      0.00
  -27    1   11      3.99      0.00
  -25    1   11      0.43      0.00
  -23    1   11     -3.55      0.00
  -21    1   11     -7.92      0.00
  -19    1   11    -12.43      0.00
  -17    1   11    -16.29      0.00
  -15    1   11    -18.41      0.00
  -13    1   11    -17.92      0.00
  -11    1   11    -14.80      0.00
   -9    1   11     -9.80      0.00
   -7    1   11     -4.07      0.00
   -5    1   11      1.37      0.00
   -3    1   11      5.79      0.00
   -1    1   11      8.70      0.00
    1    1   11      9.70      0.00
    3    1   11      8.60      0.00
    5    1   11      5.71      0.00
    7    1   11      1.91      0.00
    9    1   11     -1.62      0.00
   11    1   11     -3.94      0.00
   13    1   11     -4.77      0.00
   15    1   11     -4.48      0.00
   17    1   11     -3.68      0.00
   19    1   11     -2.79      0.00
   21    1   11     -1.87      0.00
   23    1   11     -0.84      0.00
   25    1   11      0.27      0.00
   27    1   11      1.15      0.00
   29    1   11      1.45      0.00
   31    1   11      1.04      0.00
  -40    2   11      0.89      0.00
  -38    2   11     -0.47      0.00
  -36    2   11     -2.53      0.00
  -34    2   11     -4.57      0.00
  -32    2   11     -5.78      0.00
  -30    2   11     -5.69      0.00
  -28    2   11     -4.29      0.00
  -26    2   11     -1.86      0.00
  -24    2   11      1.29      0.00
  -22    2   11      5.03      0.00
  -20    2   11      9.25      0.00
  -18    2   11     13.58      0.00
  -16    2   11     17.32      0.00
  -14    2   11     19.65      0.00
  -12    2   11     19.96      0.00
  -10    2   11     18.05      0.00
   -8    2   11     14.16      0.00
   -6    2   11      8.69      0.00
   -4    2   11      2.16      0.00
   -2    2   11     -4.72      0.00
    0    2   11    -10.95      0.00
    2    2   11    -15.38      0.00
    4    2   11    -17.13      0.00
    6    2   11    -15.99      0.00
    8    2   11    -12.61      0.00
   10    2   11     -8.04      0.00
   12    2   11     -3.28      0.00
   14    2   11      1.08      0.00
   16    2   11      4.78      0.00
   18    2   11      7.60      0.00
   20    2   11      9.20      0.00
   22    2   11      9.29      0.00
   24    2   11      7.95      0.00
   26    2   11      5.80      0.00
   28    2   11      3.66      0.00
   30    2   11      2.16      0.00
  -41    3   11      1.19      0.00
  -39    3   11      1.62      0.00
  -37    3   11      1.83      0.00
  -35    3   11      1.92      0.00
  -33    3   11      2.18      0.00
  -31    3   11      2.82      0.00
  -29    3   11      3.79      0.00
  -27    3   11      4.75      0.00
  -25    3   11      5.19      0.00
  -23    3   11      4.72      0.00
  -21    3   11      3.21      0.00
  -19    3   11      0.81      0.00
  -17    3   11     -2.12      0.00
  -15    3   11     -5.11      0.00
  -13    3   11     -7.68      0.00
  -11    3   11     -9.35      0.00
   -9    3   11     -9.73      0.00
   -7    3   11     -8.53      0.00
   -5    3   11     -5.69      0.00
   -3    3   11     -1.46      0.00
   -1    3   11      3.56      0.00
    1    3   11      8.45      0.00
    3    3   11     12.22      0.00
    5    3   11     14.05      0.00
    7    3   11     13.62      0.00
    9    3   11     11.27      0.00
   11    3   11      7.78      0.00
   13    3   11      4.07      0.00
   15    3   11      0.83      0.00
   17    3   11     -1.63      0.00
   19    3   11     -3.24      0.00
   21    3   11     -4.06      0.00
   23    3   11     -4.11      0.00
   25    3   11     -3.46      0.00
   27    3   11     -2.30      0.00
   29    3   11     -1.04      0.00
  -40    4   11     -0.51      0.00
  -38    4   11      0.17      0.00
  -36    4   11      1.35      0.00
  -34    4   11      2.72      0.00
  -32    4   11      3.63      0.00
  -30    4   11      3.41      0.00
  -28    4   11      1.82      0.00
  -26    4   11     -0.74      0.00
  -24    4   11     -3.44      0.00
  -22    4   11     -5.52      0.00
  -20    4   11     -6.60      0.00
  -18    4   11     -6.81      0.00
  -16    4   11     -6.43      0.00
  -14    4   11     -5.73      0.00
  -12    4   11     -4.80      0.00
  -10    4   11     -3.68      0.00
   -8    4   11     -2.41      0.00
   -6    4   11     -1.10      0.00
   -4    4   11      0.17      0.00
   -2    4   11      1.35      0.00
    0    4   11      2.41      0.00
    2    4   11      3.27      0.00
    4    4   11      3.85      0.00
    6    4   11      4.05      0.00
    8    4   11      3.79      0.00
   10    4   11      3.03      0.00
   12    4   11      1.73      0.00
   14    4   11     -0.01      0.00
   16    4   11     -1.85      0.00
   18    4   11     -3.18      0.00
   20    4   11     -3.41      0.00
   22    4   11     -2.33      0.00
   24    4   11     -0.34      0.00
   26    4   11      1.67      0.00
   28    4   11      2.86      0.00
   30    4   11      2.85      0.00
  -39    5   11      2.10      0.00
  -37    5   11      1.37      0.00
  -35    5   11     -0.18      0.00
  -33    5   11     -2.05      0.00
  -31    5   11     -3.55      0.00
  -29    5   11     -4.13      0.00
  -27    5   11     -3.58      0.00
  -25    5   11     -1.94      0.00
  -23    5   11      0.65      0.00
  -21    5   11      4.09      0.00
  -19    5   11      8.18      0.00
  -17    5   11     12.49      0.00
  -15    5   11     16.27      0.00
  -13    5   11     18.68      0.00
  -11    5   11     19.11      0.00
   -9    5   11     17.33      0.00
   -7    5   11     13.47      0.00
   -5    5   11      7.92      0.00
   -3    5   11      1.17      0.00
   -1    5   11     -6.00      0.00
    1    5   11    -12.56      0.00
    3    5   11    -17.28      0.00
    5    5   11    -19.19      0.00
    7    5   11    -17.95      0.00
    9    5   11    -14.08      0.00
   11    5   11     -8.68      0.00
   13    5   11     -2.90      0.00
   15    5   11      2.39      0.00
   17    5   11      6.73      0.00
   19    5   11      9.88      0.00
   21    5   11     11.61      0.00
   23    5   11     11.68      0.00
   25    5   11     10.07      0.00
   27    5   11      7.18      0.00
   29    5   11      3.81      0.00
  -40    6   11     -2.25      0.00
  -38    6   11     -2.13      0.00
  -36    6   11     -0.95      0.00
  -34    6   11      0.93      0.00
  -32    6   11      2.92      0.00
  -30    6   11      4.62      0.00
  -28    6   11      5.82      0.00
  -26    6   11      6.25      0.00
  -24    6   11      5.40      0.00
  -22    6   11      2.75      0.00
  -20    6   11     -1.73      0.00
  -18    6   11     -7.20      0.00
  -16    6   11    -12.17      0.00
  -14    6   11    -15.16      0.00
  -12    6   11    -15.40      0.00
  -10    6   11    -13.09      0.00
   -8    6   11     -9.04      0.00
   -6    6   11     -4.12      0.00
   -4    6   11      0.99      0.00
   -2    6   11      5.69      0.00
    0    6   11      9.29      0.00
    2    6   11     11.03      0.00
    4    6   11     10.46      0.00
    6    6   11      7.85      0.00
    8    6   11      4.24      0.00
   10    6   11      0.94      0.00
   12    6   11     -1.10      0.00
   14    6   11     -1.71      0.00
   16    6   11     -1.47      0.00
   18    6   11     -1.18      0.00
   20    6   11     -1.40      0.00
   22    6   11     -2.16      0.00
   24    6   11     -3.08      0.00
   26    6   11     -3.65      0.00
   28    6   11     -3.55      0.00
  -39    7   11     -1.09      0.00
  -37    7   11     -1.29      0.00
  -35    7   11     -1.72      0.00
  -33    7   11     -2.24      0.00
  -31    7   11     -2.68      0.00
  -29    7   11     -3.05      0.00
  -27    7   11     -3.43      0.00
  -25    7   11     -3.86      0.00
  -23    7   11     -4.16      0.00
  -21    7   11     -4.18      0.00
  -19    7   11     -3.93      0.00
  -17    7   11     -3.71      0.00
  -15    7   11     -3.85      0.00
  -13    7   11     -4.42      0.00
  -11    7   11     -5.13      0.00
   -9    7   11     -5.52      0.00
   -7    7   11     -5.37      0.00
   -5    7   11     -4.76      0.00
   -3    7   11     -3.97      0.00
   -1    7   11     -3.16      0.00
    1    7   11     -2.24      0.00
    3    7   11     -1.15      0.00
    5    7   11     -0.05      0.00
    7    7   11      0.61      0.00
    9    7   11      0.42      0.00
   11    7   11     -0.65      0.00
   13    7   11     -2.21      0.00
   15    7   11     -3.71      0.00
   17    7   11     -4.84      0.00
   19    7   11     -5.66      0.00
   21    7   11     -6.30      0.00
   23    7   11     -6.67      0.00
   25    7   11     -6.45      0.00
   27    7   11     -5.35      0.00
  -38    8   11      2.76      0.00
  -36    8   11      2.88      0.00
  -34    8   11      1.97      0.00
  -32    8   11      0.09      0.00
  -30    8   11     -2.26      0.00
  -28    8   11     -4.28      0.00
  -26    8   11     -5.16      0.00
  -24    8   11     -4.38      0.00
  -22    8   11     -1.94      0.00
  -20    8   11      1.59      0.00
  -18    8   11      5.24      0.00
  -16    8   11      7.95      0.00
  -14    8   11      8.90      0.00
  -12    8   11      7.77      0.00
  -10    8   11      4.82      0.00
   -8    8   11      0.81      0.00
   -6    8   11     -3.30      0.00
   -4    8   11     -6.63      0.00
   -2    8   11     -8.64      0.00
    0    8   11     -9.21      0.00
    2    8   11     -8.56      0.00
    4    8   11     -7.14      0.00
    6    8   11     -5.47      0.00
    8    8   11     -4.03      0.00
   10    8   11     -3.13      0.00
   12    8   11     -2.81      0.00
   14    8   11     -2.84      0.00
   16    8   11     -2.84      0.00
   18    8   11     -2.44      0.00
   20    8   11     -1.55      0.00
   22    8   11     -0.38      0.00
   24    8   11      0.62      0.00
   26    8   11      1.05      0.00
  -37    9   11     -1.69      0.00
  -35    9   11     -0.38      0.00
  -33    9   11      2.08      0.00
  -31    9   11      4.90      0.00
  -29    9   11      6.85      0.00
  -27    9   11      7.00      0.00
  -25    9   11      5.15      0.00
  -23    9   11      1.89      0.00
  -21    9   11     -1.78      0.00
  -19    9   11     -4.99      0.00
  -17    9   11     -7.22      0.00
  -15    9   11     -8.27      0.00
  -13    9   11     -8.10      0.00
  -11    9   11     -6.68      0.00
   -9    9   11     -4.14      0.00
   -7    9   11     -0.83      0.00
   -5    9   11      2.62      0.00
   -3    9   11      5.50      0.00
   -1    9   11      7.25      0.00
    1    9   11      7.70      0.00
    3    9   11      7.11      0.00
    5    9   11      6.06      0.00
    7    9   11      5.20      0.00
    9    9   11      4.90      0.00
   11    9   11      5.12      0.00
   13    9   11      5.46      0.00
   15    9   11      5.50      0.00
   17    9   11      5.05      0.00
   19    9   11      4.25      0.00
   21    9   11      3.44      0.00
   23    9   11      2.81      0.00
   25    9   11      2.33      0.00
  -34   10   11     -3.08      0.00
  -32   10   11     -3.15      0.00
  -30   10   11     -2.29      0.00
  -28   10   11     -0.42      0.00
  -26   10   11      2.03      0.00
  -24   10   11      4.20      0.00
  -22   10   11      5.37      0.00
  -20   10   11      5.41      0.00
  -18   10   11      4.94      0.00
  -16   10   11      4.91      0.00
  -14   10   11      5.91      0.00
  -12   10   11      7.73      0.00
  -10   10   11      9.45      0.00
   -8   10   11     10.08      0.00
   -6   10   11      9.09      0.00
   -4   10   11      6.68      0.00
   -2   10   11      3.59      0.00
    0   10   11      0.61      0.00
    2   10   11     -1.71      0.00
    4   10   11     -3.11      0.00
    6   10   11     -3.58      0.00
    8   10   11     -3.20      0.00
   10   10   11     -2.19      0.00
   12   10   11     -0.85      0.00
   14   10   11      0.49      0.00
   16   10   11      1.57      0.00
   18   10   11      2.27      0.00
   20   10   11      2.60      0.00
   22   10   11      2.64      0.00
   24   10   11      2.45      0.00
  -33   11   11      2.59      0.00
  -31   11   11      2.70      0.00
  -29   11   11      2.74      0.00
  -27   11   11      3.11      0.00
  -25   11   11      3.91      0.00
  -23   11   11      4.89      0.00
  -21   11   11      5.59      0.00
  -19   11   11      5.61      0.00
  -17   11   11      4.83      0.00
  -15   11   11      3.37      0.00
  -13   11   11      1.52      0.00
  -11   11   11     -0.31      0.00
   -9   11   11     -1.69      0.00
   -7   11   11     -2.22      0.00
   -5   11   11     -1.69      0.00
   -3   11   11     -0.23      0.00
   -1   11   11      1.67      0.00
    1   11   11      3.34      0.00
    3   11   11      4.20      0.00
    5   11   11      4.01      0.00
    7   11   11      2.92      0.00
    9   11   11      1.28      0.00
   11   11   11     -0.50      0.00
   13   11   11     -2.13      0.00
   15   11   11     -3.41      0.00
   17   11   11     -4.26      0.00
   19   11   11     -4.63      0.00
   21   11   11     -4.51      0.00
   23   11   11     -3.97      0.00
  -32   12   11      2.24      0.00
  -30   12   11      2.79      0.00
  -28   12   11      2.87      0.00
  -26   12   11      2.47      0.00
  -24   12   11      1.93      0.00
  -22   12   11      1.56      0.00
  -20   12   11      1.29      0.00
  -18   12   11      0.63      0.00
  -16   12   11     -0.99      0.00
  -14   12   11     -3.60      0.00
  -12   12   11     -6.48      0.00
  -10   12   11     -8.50      0.00
   -8   12   11     -8.76      0.00
   -6   12   11     -7.08      0.00
   -4   12   11     -3.99      0.00
   -2   12   11     -0.24      0.00
    0   12   11      3.55      0.00
    2   12   11      7.02      0.00
    4   12   11      9.76      0.00
    6   12   11     11.22      0.00
    8   12   11     10.90      0.00
   10   12   11      8.72      0.00
   12   12   11      5.33      0.00
   14   12   11      1.83      0.00
   16   12   11     -0.76      0.00
   18   12   11     -1.98      0.00
   20   12   11     -2.05      0.00
  -29   13   11      1.03      0.00
  -27   13   11      1.79      0.00
  -25   13   11      2.37      0.00
  -23   13   11      2.66      0.00
  -21   13   11      2.87      0.00
  -19   13   11      3.35      0.00
  -17   13   11      4.45      0.00
  -15   13   11      6.17      0.00
  -13   13   11      8.05      0.00
  -11   13   11      9.32      0.00
   -9   13   11      9.22      0.00
   -7   13   11      7.38      0.00
   -5   13   11      4.04      0.00
   -3   13   11     -0.07      0.00
   -1   13   11     -4.06      0.00
    1   13   11     -7.17      0.00
    3   13   11     -8.98      0.00
    5   13   11     -9.39      0.00
    7   13   11     -8.43      0.00
    9   13   11     -6.24      0.00
   11   13   11     -3.10      0.00
   13   13   11      0.47      0.00
   15   13   11      3.70      0.00
   17   13   11      5.84      0.00
   19   13   11      6.47      0.00
  -26   14   11     -1.92      0.00
  -24   14   11     -2.12      0.00
  -22   14   11     -2.07      0.00
  -20   14   11     -1.87      0.00
  -18   14   11     -1.70      0.00
  -16   14   11     -1.72      0.00
  -14   14   11     -1.96      0.00
  -12   14   11     -2.22      0.00
  -10   14   11     -2.10      0.00
   -8   14   11     -1.26      0.00
   -6   14   11      0.30      0.00
   -4   14   11      2.07      0.00
   -2   14   11      3.26      0.00
    0   14   11      3.22      0.00
    2   14   11      1.86      0.00
    4   14   11     -0.22      0.00
    6   14   11     -2.04      0.00
    8   14   11     -2.84      0.00
   10   14   11     -2.46      0.00
   12   14   11     -1.41      0.00
   14   14   11     -0.43      0.00
   16   14   11     -0.01      0.00
  -23   15   11     -1.08      0.00
  -21   15   11     -1.81      0.00
  -19   15   11     -2.84      0.00
  -17   15   11     -3.69      0.00
  -15   15   11     -3.72      0.00
  -13   15   11     -2.74      0.00
  -11   15   11     -1.19      0.00
   -9   15   11      0.05      0.00
   -7   15   11      0.39      0.00
   -5   15   11     -0.06      0.00
   -3   15   11     -0.54      0.00
   -1   15   11     -0.28      0.00
    1   15   11      1.00      0.00
    3   15   11      2.90      0.00
    5   15   11      4.65      0.00
    7   15   11      5.58      0.00
    9   15   11      5.39      0.00
   11   15   11      4.19      0.00
   13   15   11      2.40      0.00
  -20   16   11      2.89      0.00
  -18   16   11      4.04      0.00
  -16   16   11      5.19      0.00
  -14   16   11      5.69      0.00
  -12   16   11      5.18      0.00
  -10   16   11      3.79      0.00
   -8   16   11      1.97      0.00
   -6   16   11      0.18      0.00
   -4   16   11     -1.31      0.00
   -2   16   11     -2.39      0.00
    0   16   11     -2.99      0.00
    2   16   11     -3.05      0.00
    4   16   11     -2.59      0.00
    6   16   11     -1.80      0.00
    8   16   11     -0.90      0.00
  -13   17   11     -0.58      0.00
  -11   17   11     -0.63      0.00
   -9   17   11      0.03      0.00
   -7   17   11      1.52      0.00
   -5   17   11      3.43      0.00
   -3   17   11      5.04      0.00
   -1   17   11      5.71      0.00
    1   17   11      5.28      0.00
    3   17   11      4.13      0.00
  -40    0   12      0.00      0.00
  -38    0   12     -2.12      0.00
  -36    0   12     -5.13      0.00
  -34    0   12     -7.87      0.00
  -32    0   12     -9.34      0.00
  -30    0   12     -9.19      0.00
  -28    0   12     -7.73      0.00
  -26    0   12     -5.44      0.00
  -24    0   12     -2.57      0.00
  -22    0   12      1.02      0.00
  -20    0   12      5.42      0.00
  -18    0   12     10.31      0.00
  -16    0   12     14.87      0.00
  -14    0   12     18.07      0.00
  -12    0   12     19.20      0.00
  -10    0   12     18.12      0.00
   -8    0   12     15.26      0.00
   -6    0   12     11.25      0.00
   -4    0   12      6.76      0.00
   -2    0   12      2.40      0.00
    0    0   12     -1.22      0.00
    2    0   12     -3.51      0.00
    4    0   12     -4.15      0.00
    6    0   12     -3.31      0.00
    8    0   12     -1.69      0.00
   10    0   12     -0.24      0.00
   12    0   12      0.37      0.00
   14    0   12      0.06      0.00
   16    0   12     -0.68      0.00
   18    0   12     -1.20      0.00
   20    0   12     -1.10      0.00
   22    0   12     -0.45      0.00
   24    0   12      0.37      0.00
   26    0   12      0.99      0.00
   28    0   12      1.35      0.00
  -39    1   12     -0.91      0.00
  -37    1   12      0.42      0.00
  -35    1   12      1.98      0.00
  -33    1   12      3.29      0.00
  -31    1   12      4.02      0.00
  -29    1   12      4.10      0.00
  -27    1   12      3.64      0.00
  -25    1   12      2.75      0.00
  -23    1   12      1.36      0.00
  -21    1   12     -0.66      0.00
  -19    1   12     -3.34      0.00
  -17    1   12     -6.37      0.00
  -15    1   12     -9.23      0.00
  -13    1   12    -11.29      0.00
  -11    1   12    -12.16      0.00
   -9    1   12    -11.67      0.00
   -7    1   12     -9.85      0.00
   -5    1   12     -6.83      0.00
   -3    1   12     -2.87      0.00
   -1    1   12      1.55      0.00
    1    1   12      5.67      0.00
    3    1   12      8.63      0.00
    5    1   12      9.83      0.00
    7    1   12      9.23      0.00
    9    1   12      7.34      0.00
   11    1   12      4.91      0.00
   13    1   12      2.57      0.00
   15    1   12      0.59      0.00
   17    1   12     -0.99      0.00
   19    1   12     -2.20      0.00
   21    1   12     -2.96      0.00
   23    1   12     -3.17      0.00
   25    1   12     -2.82      0.00
   27    1   12     -2.10      0.00
  -40    2   12     -1.97      0.00
  -38    2   12     -0.94      0.00
  -36    2   12      0.69      0.00
  -34    2   12      2.21      0.00
  -32    2   12      2.91      0.00
  -30    2   12      2.45      0.00
  -28    2   12      1.04      0.00
  -26    2   12     -0.81      0.00
  -24    2   12     -2.60      0.00
  -22    2   12     -4.07      0.00
  -20    2   12     -5.18      0.00
  -18    2   12     -5.90      0.00
  -16    2   12     -6.17      0.00
  -14    2   12     -5.84      0.00
  -12    2   12     -4.87      0.00
  -10    2   12     -3.43      0.00
   -8    2   12     -1.93      0.00
   -6    2   12     -0.88      0.00
   -4    2   12     -0.68      0.00
   -2    2   12     -1.41      0.00
    0    2   12     -2.85      0.00
    2    2   12     -4.51      0.00
    4    2   12     -5.81      0.00
    6    2   12     -6.31      0.00
    8    2   12     -5.85      0.00
   10    2   12     -4.55      0.00
   12    2   12     -2.76      0.00
   14    2   12     -0.89      0.00
   16    2   12      0.75      0.00
   18    2   12      2.00      0.00
   20    2   12      2.78      0.00
   22    2   12      3.07      0.00
   24    2   12      2.90      0.00
   26    2   12      2.35      0.00
   28    2   12      1.56      0.00
  -39    3   12      0.68      0.00
  -37    3   12     -0.17      0.00
  -35    3   12     -1.57      0.00
  -33    3   12     -2.92      0.00
  -31    3   12     -3.55      0.00
  -29    3   12     -3.21      0.00
  -27    3   12     -2.07      0.00
  -25    3   12     -0.55      0.00
  -23    3   12      1.19      0.00
  -21    3   12      3.30      0.00
  -19    3   12      5.97      0.00
  -17    3   12      9.04      0.00
  -15    3   12     11.90      0.00
  -13    3   12     13.74      0.00
  -11    3   12     14.03      0.00
   -9    3   12     12.73      0.00
   -7    3   12     10.12      0.00
   -5    3   12      6.53      0.00
   -3    3   12      2.19      0.00
   -1    3   12     -2.56      0.00
    1    3   12     -7.13      0.00
    3    3   12    -10.70      0.00
    5    3   12    -12.52      0.00
    7    3   12    -12.27      0.00
    9    3   12    -10.26      0.00
   11    3   12     -7.12      0.00
   13    3   12     -3.59      0.00
   15    3   12     -0.28      0.00
   17    3   12      2.31      0.00
   19    3   12      3.77      0.00
   21    3   12      3.91      0.00
   23    3   12      2.93      0.00
   25    3   12      1.47      0.00
   27    3   12      0.28      0.00
  -38    4   12      1.20      0.00
  -36    4   12      2.33      0.00
  -34    4   12      3.86      0.00
  -32    4   12      5.57      0.00
  -30    4   12      7.17      0.00
  -28    4   12      8.41      0.00
  -26    4   12      8.95      0.00
  -24    4   12      8.34      0.00
  -22    4   12      6.14      0.00
  -20    4   12      2.21      0.00
  -18    4   12     -3.01      0.00
  -16    4   12     -8.51      0.00
  -14    4   12    -13.12      0.00
  -12    4   12    -15.97      0.00
  -10    4   12    -16.75      0.00
   -8    4   12    -15.53      0.00
   -6    4   12    -12.47      0.00
   -4    4   12     -7.67      0.00
   -2    4   12     -1.41      0.00
    0    4   12      5.50      0.00
    2    4   12     11.70      0.00
    4    4   12     15.69      0.00
    6    4   12     16.58      0.00
    8    4   12     14.48      0.00
   10    4   12     10.43      0.00
   12    4   12      5.71      0.00
   14    4   12      1.27      0.00
   16    4   12     -2.50      0.00
   18    4   12     -5.50      0.00
   20    4   12     -7.61      0.00
   22    4   12     -8.54      0.00
   24    4   12     -8.12      0.00
   26    4   12     -6.54      0.00
  -39    5   12      0.36      0.00
  -37    5   12      0.04      0.00
  -35    5   12     -0.21      0.00
  -33    5   12     -0.41      0.00
  -31    5   12     -0.80      0.00
  -29    5   12     -1.66      0.00
  -27    5   12     -2.93      0.00
  -25    5   12     -4.08      0.00
  -23    5   12     -4.40      0.00
  -21    5   12     -3.42      0.00
  -19    5   12     -1.28      0.00
  -17    5   12      1.31      0.00
  -15    5   12      3.59      0.00
  -13    5   12      5.05      0.00
  -11    5   12      5.67      0.00
   -9    5   12      5.64      0.00
   -7    5   12      5.07      0.00
   -5    5   12      3.90      0.00
   -3    5   12      2.12      0.00
   -1    5   12      0.01      0.00
    1    5   12     -1.84      0.00
    3    5   12     -2.79      0.00
    5    5   12     -2.57      0.00
    7    5   12     -1.51      0.00
    9    5   12     -0.35      0.00
   11    5   12      0.16      0.00
   13    5   12     -0.23      0.00
   15    5   12     -1.18      0.00
   17    5   12     -1.94      0.00
   19    5   12     -1.86      0.00
   21    5   12     -0.81      0.00
   23    5   12      0.78      0.00
   25    5   12      2.13      0.00
   27    5   12      2.63      0.00
  -38    6   12      2.03      0.00
  -36    6   12      1.91      0.00
  -34    6   12      1.12      0.00
  -32    6   12     -0.29      0.00
  -30    6   12     -1.90      0.00
  -28    6   12     -3.08      0.00
  -26    6   12     -3.32      0.00
  -24    6   12     -2.41      0.00
  -22    6   12     -0.45      0.00
  -20    6   12      2.28      0.00
  -18    6   12      5.46      0.00
  -16    6   12      8.71      0.00
  -14    6   12     11.54      0.00
  -12    6   12     13.34      0.00
  -10    6   12     13.53      0.00
   -8    6   12     11.85      0.00
   -6    6   12      8.50      0.00
   -4    6   12      4.05      0.00
   -2    6   12     -0.67      0.00
    0    6   12     -4.88      0.00
    2    6   12     -7.92      0.00
    4    6   12     -9.34      0.00
    6    6   12     -9.05      0.00
    8    6   12     -7.34      0.00
   10    6   12     -4.78      0.00
   12    6   12     -2.04      0.00
   14    6   12      0.46      0.00
   16    6   12      2.59      0.00
   18    6   12      4.42      0.00
   20    6   12      5.86      0.00
   22    6   12      6.62      0.00
   24    6   12      6.32      0.00
   26    6   12      4.83      0.00
  -37    7   12     -2.16      0.00
  -35    7   12     -1.48      0.00
  -33    7   12      0.42      0.00
  -31    7   12      3.19      0.00
  -29    7   12      6.04      0.00
  -27    7   12      7.93      0.00
  -25    7   12      8.03      0.00
  -23    7   12      6.01      0.00
  -21    7   12      2.24      0.00
  -19    7   12     -2.40      0.00
  -17    7   12     -6.83      0.00
  -15    7   12    -10.20      0.00
  -13    7   12    -12.00      0.00
  -11    7   12    -12.14      0.00
   -9    7   12    -10.71      0.00
   -7    7   12     -7.97      0.00
   -5    7   12     -4.29      0.00
   -3    7   12     -0.28      0.00
   -1    7   12      3.27      0.00
    1    7   12      5.61      0.00
    3    7   12      6.35      0.00
    5    7   12      5.66      0.00
    7    7   12      4.26      0.00
    9    7   12      3.03      0.00
   11    7   12      2.55      0.00
   13    7   12      2.81      0.00
   15    7   12      3.20      0.00
   17    7   12      2.98      0.00
   19    7   12      1.71      0.00
   21    7   12     -0.36      0.00
   23    7   12     -2.48      0.00
   25    7   12     -3.76      0.00
  -36    8   12      1.56      0.00
  -34    8   12     -0.29      0.00
  -32    8   12     -2.83      0.00
  -30    8   12     -5.18      0.00
  -28    8   12     -6.57      0.00
  -26    8   12     -6.66      0.00
  -24    8   12     -5.54      0.00
  -22    8   12     -3.57      0.00
  -20    8   12     -1.23      0.00
  -18    8   12      0.98      0.00
  -16    8   12      2.65      0.00
  -14    8   12      3.53      0.00
  -12    8   12      3.65      0.00
  -10    8   12      3.25      0.00
   -8    8   12      2.59      0.00
   -6    8   12      1.81      0.00
   -4    8   12      0.87      0.00
   -2    8   12     -0.26      0.00
    0    8   12     -1.50      0.00
    2    8   12     -2.70      0.00
    4    8   12     -3.73      0.00
    6    8   12     -4.65      0.00
    8    8   12     -5.58      0.00
   10    8   12     -6.55      0.00
   12    8   12     -7.39      0.00
   14    8   12     -7.81      0.00
   16    8   12     -7.61      0.00
   18    8   12     -6.89      0.00
   20    8   12     -5.86      0.00
   22    8   12     -4.74      0.00
   24    8   12     -3.55      0.00
  -35    9   12      4.34      0.00
  -33    9   12      4.66      0.00
  -31    9   12      3.64      0.00
  -29    9   12      1.53      0.00
  -27    9   12     -0.79      0.00
  -25    9   12     -2.32      0.00
  -23    9   12     -2.56      0.00
  -21    9   12     -1.71      0.00
  -19    9   12     -0.47      0.00
  -17    9   12      0.46      0.00
  -15    9   12      0.70      0.00
  -13    9   12      0.23      0.00
  -11    9   12     -0.81      0.00
   -9    9   12     -2.20      0.00
   -7    9   12     -3.62      0.00
   -5    9   12     -4.60      0.00
   -3    9   12     -4.65      0.00
   -1    9   12     -3.57      0.00
    1    9   12     -1.62      0.00
    3    9   12      0.50      0.00
    5    9   12      2.03      0.00
    7    9   12      2.56      0.00
    9    9   12      2.13      0.00
   11    9   12      1.14      0.00
   13    9   12      0.05      0.00
   15    9   12     -0.81      0.00
   17    9   12     -1.30      0.00
   19    9   12     -1.39      0.00
   21    9   12     -1.17      0.00
   23    9   12     -0.80      0.00
  -32   10   12     -0.40      0.00
  -30   10   12      1.08      0.00
  -28   10   12      2.19      0.00
  -26   10   12      2.27      0.00
  -24   10   12      1.31      0.00
  -22   10   12     -0.17      0.00
  -20   10   12     -1.59      0.00
  -18   10   12     -2.70      0.00
  -16   10   12     -3.59      0.00
  -14   10   12     -4.33      0.00
  -12   10   12     -4.78      0.00
  -10   10   12     -4.61      0.00
   -8   10   12     -3.68      0.00
   -6   10   12     -2.23      0.00
   -4   10   12     -0.83      0.00
   -2   10   12      0.11      0.00
    0   10   12      0.64      0.00
    2   10   12      1.27      0.00
    4   10   12      2.54      0.00
    6   10   12      4.59      0.00
    8   10   12      7.01      0.00
   10   10   12      9.09      0.00
   12   10   12     10.21      0.00
   14   10   12     10.17      0.00
   16   10   12      9.17      0.00
   18   10   12      7.63      0.00
   20   10   12      5.90      0.00
  -31   11   12     -4.44      0.00
  -29   11   12     -4.58      0.00
  -27   11   12     -3.95      0.00
  -25   11   12     -2.82      0.00
  -23   11   12     -1.67      0.00
  -21   11   12     -0.78      0.00
  -19   11   12      0.12      0.00
  -17   11   12      1.64      0.00
  -15   11   12      4.16      0.00
  -13   11   12      7.37      0.00
  -11   11   12     10.27      0.00
   -9   11   12     11.68      0.00
   -7   11   12     10.93      0.00
   -5   11   12      8.17      0.00
   -3   11   12      4.19      0.00
   -1   11   12     -0.07      0.00
    1   11   12     -3.84      0.00
    3   11   12     -6.59      0.00
    5   11   12     -8.01      0.00
    7   11   12     -7.94      0.00
    9   11   12     -6.51      0.00
   11   11   12     -4.22      0.00
   13   11   12     -1.80      0.00
   15   11   12      0.09      0.00
   17   11   12      1.16      0.00
   19   11   12      1.51      0.00
  -30   12   12      1.06      0.00
  -28   12   12      0.98      0.00
  -26   12   12      0.78      0.00
  -24   12   12      0.53      0.00
  -22   12   12      0.30      0.00
  -20   12   12      0.15      0.00
  -18   12   12     -0.04      0.00
  -16   12   12     -0.52      0.00
  -14   12   12     -1.59      0.00
  -12   12   12     -3.23      0.00
  -10   12   12     -4.93      0.00
   -8   12   12     -5.85      0.00
   -6   12   12     -5.28      0.00
   -4   12   12     -3.12      0.00
   -2   12   12     -0.04      0.00
    0   12   12      2.82      0.00
    2   12   12      4.48      0.00
    4   12   12      4.52      0.00
    6   12   12      3.20      0.00
    8   12   12      1.17      0.00
   10   12   12     -0.91      0.00
   12   12   12     -2.62      0.00
   14   12   12     -3.77      0.00
   16   12   12     -4.33      0.00
   18   12   12     -4.33      0.00
  -27   13   12      2.79      0.00
  -25   13   12      3.41      0.00
  -23   13   12      3.80      0.00
  -21   13   12      3.69      0.00
  -19   13   12      2.74      0.00
  -17   13   12      0.92      0.00
  -15   13   12     -1.33      0.00
  -13   13   12     -3.27      0.00
  -11   13   12     -4.27      0.00
   -9   13   12     -4.21      0.00
   -7   13   12     -3.44      0.00
   -5   13   12     -2.45      0.00
   -3   13   12     -1.37      0.00
   -1   13   12      0.02      0.00
    1   13   12      1.99      0.00
    3   13   12      4.35      0.00
    5   13   12      6.35      0.00
    7   13   12      7.10      0.00
    9   13   12      6.13      0.00
   11   13   12      3.77      0.00
   13   13   12      0.99      0.00
   15   13   12     -1.18      0.00
  -24   14   12      3.94      0.00
  -22   14   12      4.13      0.00
  -20   14   12      4.25      0.00
  -18   14   12      4.35      0.00
  -16   14   12      4.44      0.00
  -14   14   12      4.50      0.00
  -12   14   12      4.52      0.00
  -10   14   12      4.46      0.00
   -8   14   12      4.25      0.00
   -6   14   12      3.75      0.00
   -4   14   12      2.80      0.00
   -2   14   12      1.38      0.00
    0   14   12     -0.38      0.00
    2   14   12     -2.20      0.00
    4   14   12     -3.74      0.00
    6   14   12     -4.69      0.00
    8   14   12     -4.78      0.00
   10   14   12     -3.89      0.00
   12   14   12     -2.16      0.00
  -21   15   12     -2.14      0.00
  -19   15   12     -1.97      0.00
  -17   15   12     -1.72      0.00
  -15   15   12     -1.72      0.00
  -13   15   12     -2.19      0.00
  -11   15   12     -2.97      0.00
   -9   15   12     -3.57      0.00
   -7   15   12     -3.43      0.00
   -5   15   12     -2.35      0.00
   -3   15   12     -0.68      0.00
   -1   15   12      0.82      0.00
    1   15   12      1.57      0.00
    3   15   12      1.45      0.00
    5   15   12      0.91      0.00
    7   15   12      0.49      0.00
    9   15   12      0.42      0.00
  -14   16   12     -3.08      0.00
  -12   16   12     -1.85      0.00
  -10   16   12     -0.60      0.00
   -8   16   12     -0.15      0.00
   -6   16   12     -0.84      0.00
   -4   16   12     -2.27      0.00
   -2   16   12     -3.60      0.00
    0   16   12     -4.08      0.00
    2   16   12     -3.48      0.00
  -37    1   13     -1.93      0.00
  -35    1   13     -3.83      0.00
  -33    1   13     -5.26      0.00
  -31    1   13     -5.78      0.00
  -29    1   13     -5.37      0.00
  -27    1   13     -4.36      0.00
  -25    1   13     -3.09      0.00
  -23    1   13     -1.66      0.00
  -21    1   13      0.09      0.00
  -19    1   13      2.35      0.00
  -17    1   13      5.08      0.00
  -15    1   13      7.84      0.00
  -13    1   13     10.01      0.00
  -11    1   13     11.16      0.00
   -9    1   13     11.20      0.00
   -7    1   13     10.41      0.00
   -5    1   13      9.13      0.00
   -3    1   13      7.59      0.00
   -1    1   13      5.81      0.00
    1    1   13      3.83      0.00
    3    1   13      1.79      0.00
    5    1   13     -0.05      0.00
    7    1   13     -1.50      0.00
    9    1   13     -2.64      0.00
   11    1   13     -3.69      0.00
   13    1   13     -4.80      0.00
   15    1   13     -5.84      0.00
   17    1   13     -6.40      0.00
   19    1   13     -6.09      0.00
   21    1   13     -4.88      0.00
   23    1   13     -3.19      0.00
   25    1   13     -1.61      0.00
  -38    2   13      1.12      0.00
  -36    2   13      3.00      0.00
  -34    2   13      4.69      0.00
  -32    2   13      5.66      0.00
  -30    2   13      5.86      0.00
  -28    2   13      5.62      0.00
  -26    2   13      5.27      0.00
  -24    2   13      4.74      0.00
  -22    2   13      3.53      0.00
  -20    2   13      1.05      0.00
  -18    2   13     -2.77      0.00
  -16    2   13     -7.30      0.00
  -14    2   13    -11.52      0.00
  -12    2   13    -14.54      0.00
  -10    2   13    -15.96      0.00
   -8    2   13    -15.76      0.00
   -6    2   13    -14.04      0.00
   -4    2   13    -10.79      0.00
   -2    2   13     -6.14      0.00
    0    2   13     -0.64      0.00
    2    2   13      4.63      0.00
    4    2   13      8.39      0.00
    6    2   13      9.81      0.00
    8    2   13      8.88      0.00
   10    2   13      6.41      0.00
   12    2   13      3.49      0.00
   14    2   13      0.96      0.00
   16    2   13     -0.80      0.00
   18    2   13     -1.83      0.00
   20    2   13     -2.30      0.00
   22    2   13     -2.36      0.00
   24    2   13     -2.15      0.00
  -37    3   13     -1.06      0.00
  -35    3   13     -1.42      0.00
  -33    3   13     -1.85      0.00
  -31    3   13     -2.53      0.00
  -29    3   13     -3.62      0.00
  -27    3   13     -5.02      0.00
  -25    3   13     -6.29      0.00
  -23    3   13     -6.79      0.00
  -21    3   13     -6.02      0.00
  -19    3   13     -3.97      0.00
  -17    3   13     -1.14      0.00
  -15    3   13      1.74      0.00
  -13    3   13      4.11      0.00
  -11    3   13      5.76      0.00
   -9    3   13      6.66      0.00
   -7    3   13      6.70      0.00
   -5    3   13      5.55      0.00
   -3    3   13      2.95      0.00
   -1    3   13     -0.94      0.00
    1    3   13     -5.29      0.00
    3    3   13     -8.85      0.00
    5    3   13    -10.57      0.00
    7    3   13    -10.05      0.00
    9    3   13     -7.70      0.00
   11    3   13     -4.42      0.00
   13    3   13     -1.12      0.00
   15    3   13      1.60      0.00
   17    3   13      3.47      0.00
   19    3   13      4.47      0.00
   21    3   13      4.64      0.00
   23    3   13      4.15      0.00
   25    3   13      3.25      0.00
  -36    4   13      0.42      0.00
  -34    4   13     -0.01      0.00
  -32    4   13     -0.38      0.00
  -30    4   13     -0.38      0.00
  -28    4   13      0.05      0.00
  -26    4   13      0.70      0.00
  -24    4   13      1.35      0.00
  -22    4   13      1.91      0.00
  -20    4   13      2.52      0.00
  -18    4   13      3.33      0.00
  -16    4   13      4.30      0.00
  -14    4   13      5.21      0.00
  -12    4   13      5.77      0.00
  -10    4   13      5.82      0.00
   -8    4   13      5.38      0.00
   -6    4   13      4.57      0.00
   -4    4   13      3.44      0.00
   -2    4   13      2.04      0.00
    0    4   13      0.44      0.00
    2    4   13     -1.17      0.00
    4    4   13     -2.46      0.00
    6    4   13     -3.14      0.00
    8    4   13     -3.03      0.00
   10    4   13     -2.17      0.00
   12    4   13     -0.76      0.00
   14    4   13      0.83      0.00
   16    4   13      2.14      0.00
   18    4   13      2.77      0.00
   20    4   13      2.52      0.00
   22    4   13      1.57      0.00
   24    4   13      0.35      0.00
  -37    5   13      0.34      0.00
  -35    5   13      1.46      0.00
  -33    5   13      3.29      0.00
  -31    5   13      5.57      0.00
  -29    5   13      7.85      0.00
  -27    5   13      9.52      0.00
  -25    5   13     10.01      0.00
  -23    5   13      8.85      0.00
  -21    5   13      5.94      0.00
  -19    5   13      1.61      0.00
  -17    5   13     -3.34      0.00
  -15    5   13     -7.96      0.00
  -13    5   13    -11.42      0.00
  -11    5   13    -13.23      0.00
   -9    5   13    -13.26      0.00
   -7    5   13    -11.55      0.00
   -5    5   13     -8.22      0.00
   -3    5   13     -3.57      0.00
   -1    5   13      1.76      0.00
    1    5   13      6.79      0.00
    3    5   13     10.45      0.00
    5    5   13     12.04      0.00
    7    5   13     11.55      0.00
    9    5   13      9.57      0.00
   11    5   13      6.93      0.00
   13    5   13      4.24      0.00
   15    5   13      1.76      0.00
   17    5   13     -0.47      0.00
   19    5   13     -2.36      0.00
   21    5   13     -3.65      0.00
   23    5   13     -4.07      0.00
  -36    6   13      0.45      0.00
  -34    6   13     -0.31      0.00
  -32    6   13     -1.80      0.00
  -30    6   13     -3.79      0.00
  -28    6   13     -5.80      0.00
  -26    6   13     -7.27      0.00
  -24    6   13     -7.65      0.00
  -22    6   13     -6.64      0.00
  -20    6   13     -4.33      0.00
  -18    6   13     -1.13      0.00
  -16    6   13      2.34      0.00
  -14    6   13      5.47      0.00
  -12    6   13      7.85      0.00
  -10    6   13      9.28      0.00
   -8    6   13      9.62      0.00
   -6    6   13      8.78      0.00
   -4    6   13      6.78      0.00
   -2    6   13      3.89      0.00
    0    6   13      0.74      0.00
    2    6   13     -1.87      0.00
    4    6   13     -3.35      0.00
    6    6   13     -3.62      0.00
    8    6   13     -3.15      0.00
   10    6   13     -2.65      0.00
   12    6   13     -2.57      0.00
   14    6   13     -2.86      0.00
   16    6   13     -2.98      0.00
   18    6   13     -2.44      0.00
   20    6   13     -1.12      0.00
   22    6   13      0.54      0.00
  -35    7   13      0.52      0.00
  -33    7   13      1.33      0.00
  -31    7   13      1.57      0.00
  -29    7   13      1.10      0.00
  -27    7   13      0.27      0.00
  -25    7   13     -0.45      0.00
  -23    7   13     -0.84      0.00
  -21    7   13     -0.95      0.00
  -19    7   13     -0.87      0.00
  -17    7   13     -0.53      0.00
  -15    7   13      0.26      0.00
  -13    7   13      1.42      0.00
  -11    7   13      2.44      0.00
   -9    7   13      2.55      0.00
   -7    7   13      1.26      0.00
   -5    7   13     -1.15      0.00
   -3    7   13     -3.75      0.00
   -1    7   13     -5.49      0.00
    1    7   13     -5.75      0.00
    3    7   13     -4.62      0.00
    5    7   13     -2.71      0.00
    7    7   13     -0.67      0.00
    9    7   13      1.11      0.00
   11    7   13      2.50      0.00
   13    7   13      3.54      0.00
   15    7   13      4.26      0.00
   17    7   13      4.66      0.00
   19    7   13      4.69      0.00
   21    7   13      4.29      0.00
  -32    8   13     -2.84      0.00
  -30    8   13     -0.87      0.00
  -28    8   13      1.29      0.00
  -26    8   13      2.49      0.00
  -24    8   13      2.13      0.00
  -22    8   13      0.56      0.00
  -20    8   13     -1.42      0.00
  -18    8   13     -3.17      0.00
  -16    8   13     -4.58      0.00
  -14    8   13     -5.84      0.00
  -12    8   13     -6.95      0.00
  -10    8   13     -7.46      0.00
   -8    8   13     -6.80      0.00
   -6    8   13     -4.86      0.00
   -4    8   13     -2.26      0.00
   -2    8   13     -0.06      0.00
    0    8   13      0.87      0.00
    2    8   13      0.44      0.00
    4    8   13     -0.76      0.00
    6    8   13     -1.83      0.00
    8    8   13     -2.10      0.00
   10    8   13     -1.42      0.00
   12    8   13     -0.07      0.00
   14    8   13      1.41      0.00
   16    8   13      2.45      0.00
   18    8   13      2.65      0.00
   20    8   13      1.94      0.00
  -31    9   13     -2.23      0.00
  -29    9   13     -4.55      0.00
  -27    9   13     -6.09      0.00
  -25    9   13     -6.37      0.00
  -23    9   13     -5.44      0.00
  -21    9   13     -3.74      0.00
  -19    9   13     -1.76      0.00
  -17    9   13      0.17      0.00
  -15    9   13      1.93      0.00
  -13    9   13      3.46      0.00
  -11    9   13      4.68      0.00
   -9    9   13      5.49      0.00
   -7    9   13      5.79      0.00
   -5    9   13      5.53      0.00
   -3    9   13      4.70      0.00
   -1    9   13      3.31      0.00
    1    9   13      1.36      0.00
    3    9   13     -1.02      0.00
    5    9   13     -3.60      0.00
    7    9   13     -6.02      0.00
    9    9   13     -7.93      0.00
   11    9   13     -9.09      0.00
   13    9   13     -9.41      0.00
   15    9   13     -8.93      0.00
   17    9   13     -7.76      0.00
   19    9   13     -6.08      0.00
  -30   10   13      5.87      0.00
  -28   10   13      6.01      0.00
  -26   10   13      5.83      0.00
  -24   10   13      5.41      0.00
  -22   10   13      4.68      0.00
  -20   10   13      3.47      0.00
  -18   10   13      1.73      0.00
  -16   10   13     -0.34      0.00
  -14   10   13     -2.40      0.00
  -12   10   13     -4.12      0.00
  -10   10   13     -5.30      0.00
   -8   10   13     -5.78      0.00
   -6   10   13     -5.37      0.00
   -4   10   13     -3.89      0.00
   -2   10   13     -1.37      0.00
    0   10   13      1.78      0.00
    2   10   13      4.75      0.00
    4   10   13      6.72      0.00
    6   10   13      7.23      0.00
    8   10   13      6.41      0.00
   10   10   13      4.86      0.00
   12   10   13      3.30      0.00
   14   10   13      2.17      0.00
   16   10   13      1.58      0.00
   18   10   13      1.34      0.00
  -29   11   13     -0.03      0.00
  -27   11   13      0.50      0.00
  -25   11   13      0.95      0.00
  -23   11   13      1.37      0.00
  -21   11   13      1.79      0.00
  -19   11   13      2.09      0.00
  -17   11   13      2.08      0.00
  -15   11   13      1.74      0.00
  -13   11   13      1.32      0.00
  -11   11   13      1.20      0.00
   -9   11   13      1.52      0.00
   -7   11   13      2.03      0.00
   -5   11   13      2.23      0.00
   -3   11   13      1.83      0.00
   -1   11   13      1.07      0.00
    1   11   13      0.61      0.00
    3   11   13      1.09      0.00
    5   11   13      2.59      0.00
    7   11   13      4.62      0.00
    9   11   13      6.38      0.00
   11   11   13      7.25      0.00
   13   11   13      7.11      0.00
   15   11   13      6.20      0.00
  -26   12   13     -2.28      0.00
  -24   12   13     -2.37      0.00
  -22   12   13     -2.24      0.00
  -20   12   13     -1.69      0.00
  -18   12   13     -0.44      0.00
  -16   12   13      1.64      0.00
  -14   12   13      4.28      0.00
  -12   12   13      6.82      0.00
  -10   12   13      8.45      0.00
   -8   12   13      8.64      0.00
   -6   12   13      7.33      0.00
   -4   12   13      4.91      0.00
   -2   12   13      1.93      0.00
    0   12   13     -1.09      0.00
    2   12   13     -3.74      0.00
    4   12   13     -5.63      0.00
    6   12   13     -6.41      0.00
    8   12   13     -5.91      0.00
   10   12   13     -4.31      0.00
   12   12   13     -2.19      0.00
   14   12   13     -0.25      0.00
  -23   13   13     -2.21      0.00
  -21   13   13     -2.65      0.00
  -19   13   13     -2.52      0.00
  -17   13   13     -1.99      0.00
  -15   13   13     -1.61      0.00
  -13   13   13     -1.96      0.00
  -11   13   13     -3.19      0.00
   -9   13   13     -4.78      0.00
   -7   13   13     -5.84      0.00
   -5   13   13     -5.70      0.00
   -3   13   13     -4.33      0.00
   -1   13   13     -2.32      0.00
    1   13   13     -0.43      0.00
    3   13   13      0.84      0.00
    5   13   13      1.44      0.00
    7   13   13      1.55      0.00
    9   13   13      1.32      0.00
   11   13   13      0.78      0.00
  -20   14   13      1.59      0.00
  -18   14   13     -0.01      0.00
  -16   14   13     -1.88      0.00
  -14   14   13     -3.04      0.00
  -12   14   13     -2.85      0.00
  -10   14   13     -1.38      0.00
   -8   14   13      0.54      0.00
   -6   14   13      1.95      0.00
   -4   14   13      2.39      0.00
   -2   14   13      2.09      0.00
    0   14   13      1.74      0.00
    2   14   13      1.82      0.00
    4   14   13      2.28      0.00
    6   14   13      2.67      0.00
  -15   15   13      3.08      0.00
  -13   15   13      2.75      0.00
  -11   15   13      1.97      0.00
   -9   15   13      1.17      0.00
   -7   15   13      0.80      0.00
   -5   15   13      1.04      0.00
   -3   15   13      1.69      0.00
   -1   15   13      2.32      0.00
    1   15   13      2.49      0.00
  -36    0   14      3.19      0.00
  -34    0   14      5.18      0.00
  -32    0   14      6.44      0.00
  -30    0   14      6.69      0.00
  -28    0   14      6.18      0.00
  -26    0   14      5.42      0.00
  -24    0   14      4.75      0.00
  -22    0   14      4.03      0.00
  -20    0   14      2.79      0.00
  -18    0   14      0.63      0.00
  -16    0   14     -2.38      0.00
  -14    0   14     -5.72      0.00
  -12    0   14     -8.72      0.00
  -10    0   14    -11.01      0.00
   -8    0   14    -12.55      0.00
   -6    0   14    -13.38      0.00
   -4    0   14    -13.28      0.00
   -2    0   14    -11.84      0.00
    0    0   14     -8.77      0.00
    2    0   14     -4.36      0.00
    4    0   14      0.51      0.00
    6    0   14      4.76      0.00
    8    0   14      7.71      0.00
   10    0   14      9.37      0.00
   12    0   14     10.14      0.00
   14    0   14     10.35      0.00
   16    0   14      9.99      0.00
   18    0   14      8.81      0.00
   20    0   14      6.81      0.00
   22    0   14      4.39      0.00
  -35    1   14     -1.71      0.00
  -33    1   14     -2.28      0.00
  -31    1   14     -2.57      0.00
  -29    1   14     -2.85      0.00
  -27    1   14     -3.40      0.00
  -25    1   14     -4.17      0.00
  -23    1   14     -4.73      0.00
  -21    1   14     -4.46      0.00
  -19    1   14     -3.01      0.00
  -17    1   14     -0.54      0.00
  -15    1   14      2.39      0.00
  -13    1   14      5.12      0.00
  -11    1   14      7.24      0.00
   -9    1   14      8.59      0.00
   -7    1   14      9.12      0.00
   -5    1   14      8.71      0.00
   -3    1   14      7.22      0.00
   -1    1   14      4.70      0.00
    1    1   14      1.64      0.00
    3    1   14     -1.14      0.00
    5    1   14     -2.83      0.00
    7    1   14     -3.05      0.00
    9    1   14     -2.03      0.00
   11    1   14     -0.46      0.00
   13    1   14      0.90      0.00
   15    1   14      1.63      0.00
   17    1   14      1.72      0.00
   19    1   14      1.42      0.00
   21    1   14      1.05      0.00
  -36    2   14      0.45      0.00
  -34    2   14      0.07      0.00
  -32    2   14     -0.28      0.00
  -30    2   14     -0.26      0.00
  -28    2   14      0.23      0.00
  -26    2   14      0.98      0.00
  -24    2   14      1.60      0.00
  -22    2   14      1.82      0.00
  -20    2   14      1.68      0.00
  -18    2   14      1.46      0.00
  -16    2   14      1.40      0.00
  -14    2   14      1.51      0.00
  -12    2   14      1.61      0.00
  -10    2   14      1.57      0.00
   -8    2   14      1.48      0.00
   -6    2   14      1.61      0.00
   -4    2   14      2.20      0.00
   -2    2   14      3.19      0.00
    0    2   14      4.22      0.00
    2    2   14      4.83      0.00
    4    2   14      4.67      0.00
    6    2   14      3.63      0.00
    8    2   14      1.83      0.00
   10    2   14     -0.43      0.00
   12    2   14     -2.74      0.00
   14    2   14     -4.61      0.00
   16    2   14     -5.59      0.00
   18    2   14     -5.47      0.00
   20    2   14     -4.44      0.00
   22    2   14     -3.03      0.00
  -35    3   14      4.01      0.00
  -33    3   14      4.67      0.00
  -31    3   14      4.75      0.00
  -29    3   14      4.51      0.00
  -27    3   14      4.32      0.00
  -25    3   14      4.25      0.00
  -23    3   14      3.89      0.00
  -21    3   14      2.65      0.00
  -19    3   14      0.21      0.00
  -17    3   14     -3.11      0.00
  -15    3   14     -6.59      0.00
  -13    3   14     -9.47      0.00
  -11    3   14    -11.41      0.00
   -9    3   14    -12.42      0.00
   -7    3   14    -12.57      0.00
   -5    3   14    -11.77      0.00
   -3    3   14     -9.79      0.00
   -1    3   14     -6.64      0.00
    1    3   14     -2.87      0.00
    3    3   14      0.62      0.00
    5    3   14      2.91      0.00
    7    3   14      3.60      0.00
    9    3   14      2.92      0.00
   11    3   14      1.49      0.00
   13    3   14      0.00      0.00
   15    3   14     -1.12      0.00
   17    3   14     -1.74      0.00
   19    3   14     -1.88      0.00
   21    3   14     -1.66      0.00
  -34    4   14     -2.13      0.00
  -32    4   14     -3.73      0.00
  -30    4   14     -5.55      0.00
  -28    4   14     -7.55      0.00
  -26    4   14     -9.39      0.00
  -24    4   14    -10.45      0.00
  -22    4   14    -10.08      0.00
  -20    4   14     -8.02      0.00
  -18    4   14     -4.64      0.00
  -16    4   14     -0.77      0.00
  -14    4   14      2.69      0.00
  -12    4   14      5.26      0.00
  -10    4   14      6.87      0.00
   -8    4   14      7.62      0.00
   -6    4   14      7.46      0.00
   -4    4   14      6.15      0.00
   -2    4   14      3.53      0.00
    0    4   14     -0.11      0.00
    2    4   14     -3.94      0.00
    4    4   14     -6.90      0.00
    6    4   14     -8.21      0.00
    8    4   14     -7.67      0.00
   10    4   14     -5.72      0.00
   12    4   14     -3.18      0.00
   14    4   14     -0.84      0.00
   16    4   14      0.75      0.00
   18    4   14      1.39      0.00
   20    4   14      1.23      0.00
  -35    5   14      0.84      0.00
  -33    5   14      1.50      0.00
  -31    5   14      2.20      0.00
  -29    5   14      2.84      0.00
  -27    5   14      3.44      0.00
  -25    5   14      4.02      0.00
  -23    5   14      4.46      0.00
  -21    5   14      4.52      0.00
  -19    5   14      3.91      0.00
  -17    5   14      2.62      0.00
  -15    5   14      0.93      0.00
  -13    5   14     -0.66      0.00
  -11    5   14     -1.77      0.00
   -9    5   14     -2.32      0.00
   -7    5   14     -2.47      0.00
   -5    5   14     -2.40      0.00
   -3    5   14     -2.14      0.00
   -1    5   14     -1.53      0.00
    1    5   14     -0.52      0.00
    3    5   14      0.78      0.00
    5    5   14      2.03      0.00
    7    5   14      2.91      0.00
    9    5   14      3.29      0.00
   11    5   14      3.28      0.00
   13    5   14      3.03      0.00
   15    5   14      2.62      0.00
   17    5   14      2.04      0.00
   19    5   14      1.27      0.00
   21    5   14      0.44      0.00
  -32    6   14      1.16      0.00
  -30    6   14      3.08      0.00
  -28    6   14      5.27      0.00
  -26    6   14      6.81      0.00
  -24    6   14      7.01      0.00
  -22    6   14      5.85      0.00
  -20    6   14      3.81      0.00
  -18    6   14      1.45      0.00
  -16    6   14     -0.90      0.00
  -14    6   14     -3.17      0.00
  -12    6   14     -5.20      0.00
  -10    6   14     -6.51      0.00
   -8    6   14     -6.48      0.00
   -6    6   14     -4.80      0.00
   -4    6   14     -1.78      0.00
   -2    6   14      1.65      0.00
    0    6   14      4.45      0.00
    2    6   14      5.94      0.00
    4    6   14      6.04      0.00
    6    6   14      5.10      0.00
    8    6   14      3.61      0.00
   10    6   14      1.96      0.00
   12    6   14      0.40      0.00
   14    6   14     -0.87      0.00
   16    6   14     -1.72      0.00
   18    6   14     -2.10      0.00
   20    6   14     -2.08      0.00
  -31    7   14      0.13      0.00
  -29    7   14     -2.01      0.00
  -27    7   14     -3.80      0.00
  -25    7   14     -4.62      0.00
  -23    7   14     -4.33      0.00
  -21    7   14     -3.16      0.00
  -19    7   14     -1.46      0.00
  -17    7   14      0.58      0.00
  -15    7   14      2.90      0.00
  -13    7   14      5.32      0.00
  -11    7   14      7.42      0.00
   -9    7   14      8.64      0.00
   -7    7   14      8.58      0.00
   -5    7   14      7.23      0.00
   -3    7   14      5.05      0.00
   -1    7   14      2.72      0.00
    1    7   14      0.85      0.00
    3    7   14     -0.24      0.00
    5    7   14     -0.60      0.00
    7    7   14     -0.61      0.00
    9    7   14     -0.71      0.00
   11    7   14     -1.22      0.00
   13    7   14     -2.14      0.00
   15    7   14     -3.12      0.00
   17    7   14     -3.65      0.00
   19    7   14     -3.38      0.00
  -30    8   14      3.20      0.00
  -28    8   14      4.01      0.00
  -26    8   14      4.53      0.00
  -24    8   14      4.72      0.00
  -22    8   14      4.46      0.00
  -20    8   14      3.62      0.00
  -18    8   14      2.37      0.00
  -16    8   14      1.15      0.00
  -14    8   14      0.32      0.00
  -12    8   14     -0.20      0.00
  -10    8   14     -0.96      0.00
   -8    8   14     -2.51      0.00
   -6    8   14     -4.82      0.00
   -4    8   14     -7.13      0.00
   -2    8   14     -8.31      0.00
    0    8   14     -7.66      0.00
    2    8   14     -5.31      0.00
    4    8   14     -2.14      0.00
    6    8   14      0.86      0.00
    8    8   14      3.10      0.00
   10    8   14      4.54      0.00
   12    8   14      5.35      0.00
   14    8   14      5.64      0.00
   16    8   14      5.36      0.00
  -29    9   14     -3.95      0.00
  -27    9   14     -4.60      0.00
  -25    9   14     -5.52      0.00
  -23    9   14     -6.22      0.00
  -21    9   14     -5.98      0.00
  -19    9   14     -4.52      0.00
  -17    9   14     -2.36      0.00
  -15    9   14     -0.54      0.00
  -13    9   14      0.21      0.00
  -11    9   14     -0.01      0.00
   -9    9   14     -0.45      0.00
   -7    9   14     -0.43      0.00
   -5    9   14      0.10      0.00
   -3    9   14      0.49      0.00
   -1    9   14      0.06      0.00
    1    9   14     -1.32      0.00
    3    9   14     -3.07      0.00
    5    9   14     -4.36      0.00
    7    9   14     -4.65      0.00
    9    9   14     -3.99      0.00
   11    9   14     -2.81      0.00
   13    9   14     -1.59      0.00
   15    9   14     -0.65      0.00
  -28   10   14     -2.43      0.00
  -26   10   14     -3.45      0.00
  -24   10   14     -3.90      0.00
  -22   10   14     -3.92      0.00
  -20   10   14     -3.77      0.00
  -18   10   14     -3.56      0.00
  -16   10   14     -3.17      0.00
  -14   10   14     -2.38      0.00
  -12   10   14     -1.14      0.00
  -10   10   14      0.34      0.00
   -8   10   14      1.70      0.00
   -6   10   14      2.63      0.00
   -4   10   14      3.00      0.00
   -2   10   14      2.81      0.00
    0   10   14      2.09      0.00
    2   10   14      0.91      0.00
    4   10   14     -0.59      0.00
    6   10   14     -2.13      0.00
    8   10   14     -3.41      0.00
   10   10   14     -4.19      0.00
   12   10   14     -4.39      0.00
   14   10   14     -4.08      0.00
  -25   11   14      4.65      0.00
  -23   11   14      4.64      0.00
  -21   11   14      3.73      0.00
  -19   11   14      2.03      0.00
  -17   11   14     -0.17      0.00
  -15   11   14     -2.57      0.00
  -13   11   14     -4.84      0.00
  -11   11   14     -6.66      0.00
   -9   11   14     -7.66      0.00
   -7   11   14     -7.52      0.00
   -5   11   14     -6.12      0.00
   -3   11   14     -3.68      0.00
   -1   11   14     -0.73      0.00
    1   11   14      2.02      0.00
    3   11   14      4.00      0.00
    5   11   14      4.92      0.00
    7   11   14      4.82      0.00
    9   11   14      4.04      0.00
   11   11   14      3.00      0.00
  -22   12   14      1.80      0.00
  -20   12   14      2.51      0.00
  -18   12   14      2.72      0.00
  -16   12   14      2.40      0.00
  -14   12   14      1.94      0.00
  -12   12   14      1.87      0.00
  -10   12   14      2.43      0.00
   -8   12   14      3.31      0.00
   -6   12   14      3.91      0.00
   -4   12   14      3.80      0.00
   -2   12   14      3.00      0.00
    0   12   14      1.98      0.00
    2   12   14      1.25      0.00
    4   12   14      1.03      0.00
    6   12   14      1.17      0.00
    8   12   14      1.42      0.00
  -19   13   14      0.96      0.00
  -17   13   14      2.13      0.00
  -15   13   14      3.65      0.00
  -13   13   14      4.95      0.00
  -11   13   14      5.45      0.00
   -9   13   14      4.87      0.00
   -7   13   14      3.44      0.00
   -5   13   14      1.68      0.00
   -3   13   14      0.10      0.00
   -1   13   14     -1.07      0.00
    1   13   14     -1.90      0.00
    3   13   14     -2.53      0.00
    5   13   14     -3.00      0.00
  -12   14   14     -0.41      0.00
  -10   14   14     -0.98      0.00
   -8   14   14     -1.68      0.00
   -6   14   14     -2.25      0.00
   -4   14   14     -2.56      0.00
   -2   14   14     -2.61      0.00
  -33    1   15      3.24      0.00
  -31    1   15      3.87      0.00
  -29    1   15      3.74      0.00
  -27    1   15      3.23      0.00
  -25    1   15      2.86      0.00
  -23    1   15      2.79      0.00
  -21    1   15      2.71      0.00
  -19    1   15      2.10      0.00
  -17    1   15      0.68      0.00
  -15    1   15     -1.36      0.00
  -13    1   15     -3.56      0.00
  -11    1   15     -5.59      0.00
   -9    1   15     -7.40      0.00
   -7    1   15     -9.11      0.00
   -5    1   15    -10.57      0.00
   -3    1   15    -11.32      0.00
   -1    1   15    -10.75      0.00
    1    1   15     -8.61      0.00
    3    1   15     -5.24      0.00
    5    1   15     -1.43      0.00
    7    1   15      1.99      0.00
    9    1   15      4.53      0.00
   11    1   15      6.05      0.00
   13    1   15      6.59      0.00
   15    1   15      6.21      0.00
   17    1   15      5.01      0.00
   19    1   15      3.33      0.00
  -34    2   15     -1.98      0.00
  -32    2   15     -2.22      0.00
  -30    2   15     -2.50      0.00
  -28    2   15     -3.28      0.00
  -26    2   15     -4.72      0.00
  -24    2   15     -6.37      0.00
  -22    2   15     -7.35      0.00
  -20    2   15     -6.89      0.00
  -18    2   15     -4.86      0.00
  -16    2   15     -1.78      0.00
  -14    2   15      1.51      0.00
  -12    2   15      4.39      0.00
  -10    2   15      6.69      0.00
   -8    2   15      8.48      0.00
   -6    2   15      9.67      0.00
   -4    2   15      9.92      0.00
   -2    2   15      8.83      0.00
    0    2   15      6.39      0.00
    2    2   15      3.15      0.00
    4    2   15      0.07      0.00
    6    2   15     -1.97      0.00
    8    2   15     -2.61      0.00
   10    2   15     -2.12      0.00
   12    2   15     -1.08      0.00
   14    2   15     -0.11      0.00
   16    2   15      0.45      0.00
   18    2   15      0.54      0.00
  -33    3   15      2.51      0.00
  -31    3   15      3.18      0.00
  -29    3   15      3.96      0.00
  -27    3   15      4.89      0.00
  -25    3   15      5.72      0.00
  -23    3   15      6.04      0.00
  -21    3   15      5.47      0.00
  -19    3   15      4.00      0.00
  -17    3   15      1.92      0.00
  -15    3   15     -0.25      0.00
  -13    3   15     -2.06      0.00
  -11    3   15     -3.32      0.00
   -9    3   15     -4.04      0.00
   -7    3   15     -4.29      0.00
   -5    3   15     -4.07      0.00
   -3    3   15     -3.29      0.00
   -1    3   15     -1.88      0.00
    1    3   15      0.01      0.00
    3    3   15      1.92      0.00
    5    3   15      3.22      0.00
    7    3   15      3.33      0.00
    9    3   15      2.13      0.00
   11    3   15      0.04      0.00
   13    3   15     -2.08      0.00
   15    3   15     -3.41      0.00
   17    3   15     -3.52      0.00
  -32    4   15      1.14      0.00
  -30    4   15      1.11      0.00
  -28    4   15      1.28      0.00
  -26    4   15      1.35      0.00
  -24    4   15      0.91      0.00
  -22    4   15     -0.22      0.00
  -20    4   15     -1.76      0.00
  -18    4   15     -3.18      0.00
  -16    4   15     -3.99      0.00
  -14    4   15     -4.14      0.00
  -12    4   15     -3.97      0.00
  -10    4   15     -3.90      0.00
   -8    4   15     -4.03      0.00
   -6    4   15     -4.13      0.00
   -4    4   15     -3.89      0.00
   -2    4   15     -3.21      0.00
    0    4   15     -2.37      0.00
    2    4   15     -1.80      0.00
    4    4   15     -1.75      0.00
    6    4   15     -2.12      0.00
    8    4   15     -2.54      0.00
   10    4   15     -2.66      0.00
   12    4   15     -2.38      0.00
   14    4   15     -1.80      0.00
   16    4   15     -1.15      0.00
   18    4   15     -0.61      0.00
  -31    5   15     -3.57      0.00
  -29    5   15     -6.09      0.00
  -27    5   15     -8.50      0.00
  -25    5   15    -10.04      0.00
  -23    5   15    -10.17      0.00
  -21    5   15     -8.81      0.00
  -19    5   15     -6.33      0.00
  -17    5   15     -3.31      0.00
  -15    5   15     -0.28      0.00
  -13    5   15      2.41      0.00
  -11    5   15      4.56      0.00
   -9    5   15      6.07      0.00
   -7    5   15      6.82      0.00
   -5    5   15      6.70      0.00
   -3    5   15      5.68      0.00
   -1    5   15      3.92      0.00
    1    5   15      1.76      0.00
    3    5   15     -0.26      0.00
    5    5   15     -1.59      0.00
    7    5   15     -1.86      0.00
    9    5   15     -1.05      0.00
   11    5   15      0.39      0.00
   13    5   15      1.78      0.00
   15    5   15      2.46      0.00
   17    5   15      2.21      0.00
  -30    6   15      0.96      0.00
  -28    6   15      1.76      0.00
  -26    6   15      2.51      0.00
  -24    6   15      3.30      0.00
  -22    6   15      3.90      0.00
  -20    6   15      3.86      0.00
  -18    6   15      2.84      0.00
  -16    6   15      0.94      0.00
  -14    6   15     -1.24      0.00
  -12    6   15     -2.97      0.00
  -10    6   15     -3.85      0.00
   -8    6   15     -4.01      0.00
   -6    6   15     -3.81      0.00
   -4    6   15     -3.49      0.00
   -2    6   15     -2.94      0.00
    0    6   15     -1.92      0.00
    2    6   15     -0.37      0.00
    4    6   15      1.45      0.00
    6    6   15      3.07      0.00
    8    6   15      4.13      0.00
   10    6   15      4.57      0.00
   12    6   15      4.54      0.00
   14    6   15      4.23      0.00
   16    6   15      3.71      0.00
  -29    7   15     -1.27      0.00
  -27    7   15     -0.81      0.00
  -25    7   15     -1.25      0.00
  -23    7   15     -2.52      0.00
  -21    7   15     -3.87      0.00
  -19    7   15     -4.52      0.00
  -17    7   15     -4.30      0.00
  -15    7   15     -3.71      0.00
  -13    7   15     -3.31      0.00
  -11    7   15     -3.11      0.00
   -9    7   15     -2.51      0.00
   -7    7   15     -0.91      0.00
   -5    7   15      1.63      0.00
   -3    7   15      4.22      0.00
   -1    7   15      5.81      0.00
    1    7   15      5.80      0.00
    3    7   15      4.45      0.00
    5    7   15      2.44      0.00
    7    7   15      0.44      0.00
    9    7   15     -1.26      0.00
   11    7   15     -2.54      0.00
   13    7   15     -3.27      0.00
   15    7   15     -3.22      0.00
  -28    8   15     -0.69      0.00
  -26    8   15     -0.70      0.00
  -24    8   15     -0.17      0.00
  -22    8   15      0.44      0.00
  -20    8   15      0.58      0.00
  -18    8   15      0.15      0.00
  -16    8   15     -0.37      0.00
  -14    8   15     -0.31      0.00
  -12    8   15      0.56      0.00
  -10    8   15      1.84      0.00
   -8    8   15      2.73      0.00
   -6    8   15      2.66      0.00
   -4    8   15      1.71      0.00
   -2    8   15      0.49      0.00
    0    8   15     -0.32      0.00
    2    8   15     -0.41      0.00
    4    8   15      0.03      0.00
    6    8   15      0.62      0.00
    8    8   15      0.98      0.00
   10    8   15      0.95      0.00
   12    8   15      0.55      0.00
  -25    9   15      3.59      0.00
  -23    9   15      4.47      0.00
  -21    9   15      4.79      0.00
  -19    9   15      4.59      0.00
  -17    9   15      4.11      0.00
  -15    9   15      3.51      0.00
  -13    9   15      2.67      0.00
  -11    9   15      1.27      0.00
   -9    9   15     -0.91      0.00
   -7    9   15     -3.61      0.00
   -5    9   15     -6.11      0.00
   -3    9   15     -7.56      0.00
   -1    9   15     -7.48      0.00
    1    9   15     -6.03      0.00
    3    9   15     -3.87      0.00
    5    9   15     -1.71      0.00
    7    9   15      0.01      0.00
    9    9   15      1.20      0.00
   11    9   15      1.96      0.00
  -24   10   15     -6.51      0.00
  -22   10   15     -6.64      0.00
  -20   10   15     -4.94      0.00
  -18   10   15     -1.82      0.00
  -16   10   15      1.67      0.00
  -14   10   15      4.40      0.00
  -12   10   15      5.76      0.00
  -10   10   15      5.86      0.00
   -8   10   15      5.23      0.00
   -6   10   15      4.33      0.00
   -4   10   15      3.29      0.00
   -2   10   15      2.00      0.00
    0   10   15      0.46      0.00
    2   10   15     -1.09      0.00
    4   10   15     -2.25      0.00
    6   10   15     -2.72      0.00
    8   10   15     -2.52      0.00
  -21   11   15     -0.75      0.00
  -19   11   15     -1.15      0.00
  -17   11   15     -1.70      0.00
  -15   11   15     -2.04      0.00
  -13   11   15     -1.87      0.00
  -11   11   15     -1.18      0.00
   -9   11   15     -0.23      0.00
   -7   11   15      0.63      0.00
   -5   11   15      1.15      0.00
   -3   11   15      1.28      0.00
   -1   11   15      1.13      0.00
    1   11   15      0.83      0.00
    3   11   15      0.49      0.00
    5   11   15      0.16      0.00
  -16   12   15     -2.86      0.00
  -14   12   15     -4.01      0.00
  -12   12   15     -5.02      0.00
  -10   12   15     -5.51      0.00
   -8   12   15     -5.21      0.00
   -6   12   15     -4.12      0.00
   -4   12   15     -2.62      0.00
   -2   12   15     -1.16      0.00
    0   12   15     -0.08      0.00
    2   12   15      0.59      0.00
  -30    0   16     -2.79      0.00
  -28    0   16     -2.73      0.00
  -26    0   16     -2.84      0.00
  -24    0   16     -3.38      0.00
  -22    0   16     -4.04      0.00
  -20    0   16     -4.14      0.00
  -18    0   16     -3.19      0.00
  -16    0   16     -1.26      0.00
  -14    0   16      1.19      0.00
  -12    0   16      3.67      0.00
  -10    0   16      6.07      0.00
   -8    0   16      8.55      0.00
   -6    0   16     11.10      0.00
   -4    0   16     13.29      0.00
   -2    0   16     14.38      0.00
    0    0   16     13.74      0.00
    2    0   16     11.30      0.00
    4    0   16      7.66      0.00
    6    0   16      3.77      0.00
    8    0   16      0.51      0.00
   10    0   16     -1.56      0.00
   12    0   16     -2.32      0.00
   14    0   16     -1.98      0.00
  -31    1   16      0.24      0.00
  -29    1   16      0.43      0.00
  -27    1   16      1.25      0.00
  -25    1   16      2.63      0.00
  -23    1   16      4.17      0.00
  -21    1   16      5.26      0.00
  -19    1   16      5.44      0.00
  -17    1   16      4.63      0.00
  -15    1   16      3.11      0.00
  -13    1   16      1.26      0.00
  -11    1   16     -0.64      0.00
   -9    1   16     -2.48      0.00
   -7    1   16     -4.14      0.00
   -5    1   16     -5.37      0.00
   -3    1   16     -5.81      0.00
   -1    1   16     -5.14      0.00
    1    1   16     -3.36      0.00
    3    1   16     -0.89      0.00
    5    1   16      1.61      0.00
    7    1   16      3.47      0.00
    9    1   16      4.31      0.00
   11    1   16      4.14      0.00
   13    1   16      3.26      0.00
   15    1   16      2.08      0.00
  -30    2   16      0.21      0.00
  -28    2   16     -0.38      0.00
  -26    2   16     -0.89      0.00
  -24    2   16     -1.08      0.00
  -22    2   16     -0.95      0.00
  -20    2   16     -0.68      0.00
  -18    2   16     -0.44      0.00
  -16    2   16     -0.32      0.00
  -14    2   16     -0.37      0.00
  -12    2   16     -0.62      0.00
  -10    2   16     -1.16      0.00
   -8    2   16     -1.99      0.00
   -6    2   16     -2.93      0.00
   -4    2   16     -3.71      0.00
   -2    2   16     -4.05      0.00
    0    2   16     -3.85      0.00
    2    2   16     -3.16      0.00
    4    2   16     -2.06      0.00
    6    2   16     -0.65      0.00
    8    2   16      0.95      0.00
   10    2   16      2.47      0.00
   12    2   16      3.50      0.00
   14    2   16      3.67      0.00
  -29    3   16     -1.89      0.00
  -27    3   16     -3.45      0.00
  -25    3   16     -5.01      0.00
  -23    3   16     -5.92      0.00
  -21    3   16     -5.73      0.00
  -19    3   16     -4.48      0.00
  -17    3   16     -2.68      0.00
  -15    3   16     -0.95      0.00
  -13    3   16      0.39      0.00
  -11    3   16      1.44      0.00
   -9    3   16      2.49      0.00
   -7    3   16      3.70      0.00
   -5    3   16      4.89      0.00
   -3    3   16      5.69      0.00
   -1    3   16      5.83      0.00
    1    3   16      5.33      0.00
    3    3   16      4.45      0.00
    5    3   16      3.50      0.00
    7    3   16      2.62      0.00
    9    3   16      1.84      0.00
   11    3   16      1.13      0.00
   13    3   16      0.52      0.00
  -28    4   16      4.84      0.00
  -26    4   16      5.73      0.00
  -24    4   16      6.22      0.00
  -22    4   16      5.97      0.00
  -20    4   16      4.69      0.00
  -18    4   16      2.42      0.00
  -16    4   16     -0.41      0.00
  -14    4   16     -3.10      0.00
  -12    4   16     -5.01      0.00
  -10    4   16     -5.93      0.00
   -8    4   16     -6.09      0.00
   -6    4   16     -5.94      0.00
   -4    4   16     -5.71      0.00
   -2    4   16     -5.27      0.00
    0    4   16     -4.32      0.00
    2    4   16     -2.82      0.00
    4    4   16     -1.15      0.00
    6    4   16      0.01      0.00
    8    4   16      0.16      0.00
   10    4   16     -0.66      0.00
   12    4   16     -1.88      0.00
  -27    5   16      0.61      0.00
  -25    5   16     -0.16      0.00
  -23    5   16     -1.96      0.00
  -21    5   16     -4.16      0.00
  -19    5   16     -5.69      0.00
  -17    5   16     -5.76      0.00
  -15    5   16     -4.47      0.00
  -13    5   16     -2.67      0.00
  -11    5   16     -1.33      0.00
   -9    5   16     -0.78      0.00
   -7    5   16     -0.70      0.00
   -5    5   16     -0.50      0.00
   -3    5   16      0.00      0.00
   -1    5   16      0.46      0.00
    1    5   16      0.31      0.00
    3    5   16     -0.69      0.00
    5    5   16     -2.26      0.00
    7    5   16     -3.75      0.00
    9    5   16     -4.59      0.00
   11    5   16     -4.59      0.00
  -26    6   16     -3.24      0.00
  -24    6   16     -3.16      0.00
  -22    6   16     -1.98      0.00
  -20    6   16     -0.36      0.00
  -18    6   16      0.98      0.00
  -16    6   16      1.78      0.00
  -14    6   16      2.19      0.00
  -12    6   16      2.52      0.00
  -10    6   16      2.89      0.00
   -8    6   16      3.15      0.00
   -6    6   16      3.10      0.00
   -4    6   16      2.69      0.00
   -2    6   16      2.05      0.00
    0    6   16      1.37      0.00
    2    6   16      0.78      0.00
    4    6   16      0.44      0.00
    6    6   16      0.48      0.00
    8    6   16      0.99      0.00
   10    6   16      1.79      0.00
  -25    7   16      2.41      0.00
  -23    7   16      2.90      0.00
  -21    7   16      3.11      0.00
  -19    7   16      2.89      0.00
  -17    7   16      2.19      0.00
  -15    7   16      1.16      0.00
  -13    7   16      0.12      0.00
  -11    7   16     -0.64      0.00
   -9    7   16     -1.02      0.00
   -7    7   16     -1.09      0.00
   -5    7   16     -1.01      0.00
   -3    7   16     -0.87      0.00
   -1    7   16     -0.62      0.00
    1    7   16     -0.20      0.00
    3    7   16      0.37      0.00
    5    7   16      0.96      0.00
    7    7   16      1.37      0.00
    9    7   16      1.48      0.00
  -24    8   16     -3.32      0.00
  -22    8   16     -5.40      0.00
  -20    8   16     -6.55      0.00
  -18    8   16     -6.39      0.00
  -16    8   16     -5.23      0.00
  -14    8   16     -3.71      0.00
  -12    8   16     -2.21      0.00
  -10    8   16     -0.64      0.00
   -8    8   16      1.23      0.00
   -6    8   16      3.36      0.00
   -4    8   16      5.21      0.00
   -2    8   16      6.10      0.00
    0    8   16      5.70      0.00
    2    8   16      4.26      0.00
    4    8   16      2.39      0.00
    6    8   16      0.60      0.00
    8    8   16     -0.85      0.00
  -21    9   16      2.68      0.00
  -19    9   16      1.80      0.00
  -17    9   16     -0.15      0.00
  -15    9   16     -2.21      0.00
  -13    9   16     -3.38      0.00
  -11    9   16     -3.32      0.00
   -9    9   16     -2.50      0.00
   -7    9   16     -1.74      0.00
   -5    9   16     -1.57      0.00
   -3    9   16     -1.86      0.00
   -1    9   16     -2.08      0.00
    1    9   16     -1.81      0.00
    3    9   16     -1.09      0.00
    5    9   16     -0.28      0.00
  -18   10   16      0.41      0.00
  -16   10   16      0.87      0.00
  -14   10   16      1.18      0.00
  -12   10   16      0.81      0.00
  -10   10   16     -0.48      0.00
   -8   10   16     -2.33      0.00
   -6   10   16     -4.00      0.00
   -4   10   16     -4.81      0.00
   -2   10   16     -4.60      0.00
    0   10   16     -3.68      0.00
    2   10   16     -2.54      0.00
  -11   11   16      5.10      0.00
   -9   11   16      4.24      0.00
   -7   11   16      2.97      0.00
   -5   11   16      1.75      0.00
  -25    1   17     -0.89      0.00
  -23    1   17     -1.85      0.00
  -21    1   17     -2.77      0.00
  -19    1   17     -3.18      0.00
  -17    1   17     -2.87      0.00
  -15    1   17     -1.97      0.00
  -13    1   17     -0.72      0.00
  -11    1   17      0.71      0.00
   -9    1   17      2.33      0.00
   -7    1   17      4.13      0.00
   -5    1   17      5.94      0.00
   -3    1   17      7.42      0.00
   -1    1   17      8.15      0.00
    1    1   17      7.88      0.00
    3    1   17      6.61      0.00
    5    1   17      4.63      0.00
    7    1   17      2.42      0.00
    9    1   17      0.52      0.00
  -26    2   17      2.23      0.00
  -24    2   17      3.74      0.00
  -22    2   17      4.99      0.00
  -20    2   17      5.42      0.00
  -18    2   17      4.82      0.00
  -16    2   17      3.33      0.00
  -14    2   17      1.37      0.00
  -12    2   17     -0.67      0.00
  -10    2   17     -2.59      0.00
   -8    2   17     -4.34      0.00
   -6    2   17     -5.85      0.00
   -4    2   17     -6.90      0.00
   -2    2   17     -7.21      0.00
    0    2   17     -6.58      0.00
    2    2   17     -5.07      0.00
    4    2   17     -2.98      0.00
    6    2   17     -0.78      0.00
    8    2   17      1.05      0.00
  -25    3   17     -2.15      0.00
  -23    3   17     -2.65      0.00
  -21    3   17     -2.95      0.00
  -19    3   17     -2.73      0.00
  -17    3   17     -1.89      0.00
  -15    3   17     -0.69      0.00
  -13    3   17      0.34      0.00
  -11    3   17      0.74      0.00
   -9    3   17      0.46      0.00
   -7    3   17     -0.09      0.00
   -5    3   17     -0.40      0.00
   -3    3   17     -0.27      0.00
   -1    3   17      0.12      0.00
    1    3   17      0.41      0.00
    3    3   17      0.44      0.00
    5    3   17      0.36      0.00
    7    3   17      0.44      0.00
  -24    4   17     -3.74      0.00
  -22    4   17     -2.57      0.00
  -20    4   17     -0.76      0.00
  -18    4   17      0.84      0.00
  -16    4   17      1.59      0.00
  -14    4   17      1.45      0.00
  -12    4   17      0.94      0.00
  -10    4   17      0.64      0.00
   -8    4   17      0.79      0.00
   -6    4   17      1.19      0.00
   -4    4   17      1.54      0.00
   -2    4   17      1.76      0.00
    0    4   17      2.05      0.00
    2    4   17      2.62      0.00
    4    4   17      3.43      0.00
    6    4   17      4.13      0.00
    8    4   17      4.31      0.00
  -23    5   17      1.62      0.00
  -21    5   17      1.08      0.00
  -19    5   17     -0.10      0.00
  -17    5   17     -1.62      0.00
  -15    5   17     -2.99      0.00
  -13    5   17     -3.77      0.00
  -11    5   17     -3.80      0.00
   -9    5   17     -3.32      0.00
   -7    5   17     -2.81      0.00
   -5    5   17     -2.59      0.00
   -3    5   17     -2.64      0.00
   -1    5   17     -2.63      0.00
    1    5   17     -2.26      0.00
    3    5   17     -1.53      0.00
    5    5   17     -0.76      0.00
  -22    6   17     -4.80      0.00
  -20    6   17     -6.31      0.00
  -18    6   17     -6.57      0.00
  -16    6   17     -5.42      0.00
  -14    6   17     -3.53      0.00
  -12    6   17     -1.87      0.00
  -10    6   17     -1.02      0.00
   -8    6   17     -0.83      0.00
   -6    6   17     -0.69      0.00
   -4    6   17     -0.15      0.00
   -2    6   17      0.70      0.00
    0    6   17      1.35      0.00
    2    6   17      1.35      0.00
    4    6   17      0.68      0.00
  -19    7   17      2.76      0.00
  -17    7   17      2.96      0.00
  -15    7   17      2.22      0.00
  -13    7   17      1.12      0.00
  -11    7   17      0.20      0.00
   -9    7   17     -0.33      0.00
   -7    7   17     -0.57      0.00
   -5    7   17     -0.68      0.00
   -3    7   17     -0.72      0.00
   -1    7   17     -0.66      0.00
    1    7   17     -0.45      0.00
  -16    8   17      0.16      0.00
  -14    8   17      0.30      0.00
  -12    8   17      0.31      0.00
  -10    8   17      0.18      0.00
   -8    8   17      0.06      0.00
   -6    8   17      0.11      0.00
   -4    8   17      0.31      0.00
   -2    8   17      0.48      0.00
  -20    0   18      3.97      0.00
  -18    0   18      4.90      0.00
  -16    0   18      4.93      0.00
  -14    0   18      4.15      0.00
  -12    0   18      2.80      0.00
  -10    0   18      1.14      0.00
   -8    0   18     -0.68      0.00
   -6    0   18     -2.53      0.00
   -4    0   18     -4.22      0.00
   -2    0   18     -5.46      0.00
    0    0   18     -5.95      0.00
    2    0   18     -5.50      0.00
  -19    1   18     -1.31      0.00
  -17    1   18     -1.14      0.00
  -15    1   18     -0.58      0.00
  -13    1   18      0.22      0.00
  -11    1   18      1.07      0.00
   -9    1   18      1.87      0.00
   -7    1   18      2.56      0.00
   -5    1   18      3.13      0.00
   -3    1   18      3.52      0.00
   -1    1   18      3.61      0.00
    1    1   18      3.30      0.00
  -18    2   18      0.02      0.00
  -16    2   18     -0.01      0.00
  -14    2   18      0.03      0.00
  -12    2   18      0.25      0.00
  -10    2   18      0.69      0.00
   -8    2   18      1.25      0.00
   -6    2   18      1.75      0.00
   -4    2   18      2.06      0.00
   -2    2   18      2.16      0.00
    0    2   18      2.16      0.00
  -17    3   18      0.26      0.00
  -15    3   18     -1.05      0.00
  -13    3   18     -2.24      0.00
  -11    3   18     -3.18      0.00
   -9    3   18     -3.79      0.00
   -7    3   18     -4.01      0.00
   -5    3   18     -3.82      0.00
   -3    3   18     -3.33      0.00
   -1    3   18     -2.76      0.00
  -16    4   18     -1.26      0.00
  -14    4   18     -0.33      0.00
  -12    4   18      0.16      0.00
  -10    4   18      0.00      0.00
   -8    4   18     -0.50      0.00
   -6    4   18     -0.85      0.00
   -4    4   18     -0.74      0.00
   -2    4   18     -0.25      0.00
  -13    5   18      1.72      0.00
  -11    5   18      0.89      0.00
   -9    5   18      0.67      0.00
   -7    5   18      0.81      0.00
   -5    5   18      0.84      0.00
    2    0    0    288.74      0.00
   14    0    0    -28.77      0.00
   46    0    0     -1.12      0.00
    1    1    0    -23.58      0.00
   44    6    0      2.93      0.00
   37   13    0     -0.34      0.00
   29   17    0     -0.24      0.00
   26   18    0      2.02      0.00
   23   19    0      1.18      0.00
   13   21    0     -3.01      0.00
  -46    2    1     -0.49      0.00
   45    3    1     -0.50      0.00
  -45    5    1     -0.50      0.00
   43    7    1      2.16      0.00
   42    8    1      4.13      0.00
   39   11    1      1.46      0.00
   33   15    1     -0.73      0.00
  -23   19    1      1.11      0.00
   18   20    1     -0.02      0.00
  -13   21    1      0.69      0.00
   11   21    1      1.60      0.00
   42    0    2      2.90      0.00
   44    0    2      3.39      0.00
   43    1    2      1.57      0.00
   44    2    2     -2.71      0.00
  -36   14    2      0.25      0.00
   34   14    2      0.82      0.00
  -32   16    2      0.77      0.00
   30   16    2      0.17      0.00
  -23   19    2     -3.13      0.00
   21   19    2      2.90      0.00
  -13   21    2      0.83      0.00
   11   21    2      3.45      0.00
   43    1    3      3.68      0.00
   43    3    3     -4.73      0.00
  -46    4    3     -2.56      0.00
    2    6    3    -16.02      0.00
   42    6    3     -2.67      0.00
   36   12    3     -1.39      0.00
  -37   13    3     -1.57      0.00
  -36   14    3     -4.73      0.00
   31   15    3      0.94      0.00
  -32   16    3      0.09      0.00
  -23   19    3     -1.82      0.00
   16   20    3      0.67      0.00
  -13   21    3     -1.12      0.00
    9   21    3     -2.77      0.00
  -28    0    4     11.48      0.00
  -26    0    4      9.51      0.00
   42    0    4     -0.35      0.00
  -46    4    4      0.05      0.00
   42    4    4     -5.27      0.00
  -37   13    4      5.48      0.00
  -36   14    4     -1.41      0.00
   32   14    4      0.38      0.00
   28   16    4     -1.22      0.00
  -29   17    4     -1.03      0.00
   25   17    4      1.00      0.00
  -26   18    4     -1.11      0.00
   22   18    4     -0.50      0.00
   19   19    4     -3.62      0.00
  -18   20    4     -1.66      0.00
   14   20    4      0.33      0.00
  -11   21    4      2.66      0.00
    7   21    4     -3.83      0.00
  -46    4    5      1.02      0.00
   40    6    5      1.27      0.00
   39    7    5     -0.71      0.00
   35   11    5      0.79      0.00
   34   12    5      0.19      0.00
  -37   13    5      2.69      0.00
   17   19    5     -1.10      0.00
   12   20    5     -0.72      0.00
   -7   21    5      1.98      0.00
   -5   21    5      2.89      0.00
    1   21    5      3.45      0.00
    3   21    5      2.36      0.00
  -46    2    6     -0.10      0.00
  -45    5    6     -1.09      0.00
   39    5    6     -0.35      0.00
   32   12    6      0.59      0.00
  -37   13    6     -1.17      0.00
   31   13    6      1.20      0.00
  -33   15    6     -4.15      0.00
   27   15    6     -2.68      0.00
  -14   20    6     -2.02      0.00
    8   20    6      0.43      0.00
   17    1    7    -31.09      0.00
   39    1    7      1.01      0.00
   38    4    7      0.42      0.00
  -44    6    7      0.30      0.00
  -39   11    7     -2.39      0.00
   29   13    7     -2.99      0.00
  -34   14    7      2.56      0.00
   25   15    7     -0.18      0.00
  -27   17    7      1.26      0.00
   16   18    7     -2.73      0.00
  -19   19    7      1.32      0.00
   11   19    7      1.49      0.00
  -10   20    7     -0.84      0.00
    4   20    7      0.63      0.00
  -45    1    8     -1.17      0.00
  -45    3    8      3.15      0.00
   37    3    8     -0.38      0.00
  -42    8    8      0.48      0.00
   34    8    8      0.31      0.00
  -41    9    8      0.66      0.00
   33    9    8     -4.48      0.00
  -35   13    8      0.18      0.00
   27   13    8     -0.78      0.00
  -31   15    8      0.80      0.00
   23   15    8      0.92      0.00
  -28   16    8     -1.78      0.00
  -25   17    8     -0.21      0.00
   17   17    8      1.17      0.00
  -15   19    8      1.40      0.00
    7   19    8      1.23      0.00
  -44    2    9     -2.19      0.00
   35    3    9      2.34      0.00
  -43    5    9      0.79      0.00
   33    7    9     -1.01      0.00
   32    8    9      3.53      0.00
   31    9    9     -1.09      0.00
   30   10    9     -1.77      0.00
  -36   12    9      0.06      0.00
   25   13    9     -0.69      0.00
  -32   14    9      2.03      0.00
   18   16    9     -2.40      0.00
  -23   17    9     -0.15      0.00
  -18   18    9      1.49      0.00
   10   18    9     -2.21      0.00
  -11   19    9      2.37      0.00
   -9   19    9      2.86      0.00
    1   19    9      2.97      0.00
  -43    3   10     -2.85      0.00
  -41    7   10      2.59      0.00
   31    7   10     -2.27      0.00
  -40    8   10      0.17      0.00
   30    8   10      1.24      0.00
  -39    9   10     -0.99      0.00
   29    9   10      0.40      0.00
  -30   14   10      0.82      0.00
   20   14   10     -4.65      0.00
  -24   16   10     -0.35      0.00
  -14   18   10      0.37      0.00
    4   18   10     -2.86      0.00
  -42    2   11      1.24      0.00
   31    3   11     -0.10      0.00
  -41    5   11      1.94      0.00
  -36   10   11     -2.50      0.00
   22   12   11     -1.50      0.00
  -28   14   11     -1.46      0.00
  -25   15   11     -0.68      0.00
   10   16   11     -0.04      0.00
  -15   17   11     -0.30      0.00
    5   17   11      2.82      0.00
  -41    1   12     -1.64      0.00
   29    1   12     -1.30      0.00
  -40    4   12      0.53      0.00
   28    4   12     -4.42      0.00
  -34   10   12     -1.39      0.00
   22   10   12      4.21      0.00
  -16   16   12     -3.50      0.00
    4   16   12     -2.11      0.00
  -39    1   13     -0.27      0.00
   26    2   13     -1.82      0.00
  -39    3   13     -0.72      0.00
  -38    4   13      0.56      0.00
   25    5   13     -3.58      0.00
   24    6   13      1.84      0.00
   23    7   13      3.41      0.00
  -34    8   13     -3.62      0.00
   22    8   13      0.70      0.00
  -33    9   13      0.01      0.00
  -32   10   13      5.21      0.00
   17   11   13      4.89      0.00
  -28   12   13     -2.01      0.00
  -25   13   13     -1.46      0.00
    8   14   13      2.58      0.00
  -17   15   13      2.83      0.00
    3   15   13      2.01      0.00
  -37    1   14     -0.88      0.00
   23    1   14      0.79      0.00
   23    3   14     -1.22      0.00
  -36    4   14     -0.76      0.00
   22    4   14      0.61      0.00
  -34    6   14      0.14      0.00
  -33    7   14      1.76      0.00
  -32    8   14      2.08      0.00
   18    8   14      4.44      0.00
  -31    9   14     -3.49      0.00
   17    9   14     -0.14      0.00
  -27   11   14      3.95      0.00
   13   11   14      2.10      0.00
  -24   12   14      0.95      0.00
   10   12   14      1.57      0.00
    7   13   14     -3.16      0.00
  -14   14   14     -0.16      0.00
    0   14   14     -2.45      0.00
   19    3   15     -2.60      0.00
  -32    6   15      0.06      0.00
   14    8   15     -0.06      0.00
  -27    9   15      2.35      0.00
   10   10   15     -1.93      0.00
    7   11   15     -0.12      0.00
  -18   12   15     -1.81      0.00
    4   12   15      0.99      0.00
  -11   13   15     -0.35      0.00
   -9   13   15      0.52      0.00
   -7   13   15      1.46      0.00
   -5   13   15      2.07      0.00
   -3   13   15      2.21      0.00
   16    0   16     -0.99      0.00
  -31    3   16     -0.76      0.00
   15    3   16      0.08      0.00
  -30    4   16      3.80      0.00
   14    4   16     -2.74      0.00
  -29    5   16      0.56      0.00
   13    5   16     -3.90      0.00
  -28    6   16     -2.08      0.00
   12    6   16      2.44      0.00
   11    7   16      1.33      0.00
  -13   11   16      5.12      0.00
   -3   11   16      0.85      0.00
  -27    1   17     -0.34      0.00
   10    2   17      2.19      0.00
    9    3   17      0.76      0.00
    7    5   17     -0.31      0.00
    6    6   17     -0.25      0.00
  -21    7   17      1.49      0.00
    3    7   17     -0.12      0.00
  -18    8   17      0.12      0.00
    0    8   17      0.45      0.00
  -13    9   17      0.04      0.00
  -11    9   17      0.97      0.00
   -9    9   17      1.91      0.00
   -7    9   17      2.64      0.00
   -5    9   17      2.90      0.00
  -21    1   18     -1.07      0.00
    3    1   18      2.59      0.00
  -20    2   18      0.06      0.00
    2    2   18      2.10      0.00
  -19    3   18      1.44      0.00
    1    3   18     -2.34      0.00
  -18    4   18     -2.08      0.00
    0    4   18      0.26      0.00
  -15    5   18      2.79      0.00
   -3    5   18      0.54      0.00
  -10    6   18     -0.22      0.00
   -8    6   18      0.30      0.00
    0    0    0      0.00      0.00
# SQUEEZE RESULTS (Version =  30118)
# Note: Data are Listed for all Voids in the P1 Unit Cell
# i.e. Centre of Gravity, Solvent Accessible Volume,
# Recovered number of Electrons in the Void and
# Details about the Squeezed Material
loop_
  _platon_squeeze_void_nr
  _platon_squeeze_void_average_x
  _platon_squeeze_void_average_y
  _platon_squeeze_void_average_z
  _platon_squeeze_void_volume
  _platon_squeeze_void_count_electrons
  _platon_squeeze_void_content
   1  0.000  0.000 -0.004       492       139 ' '
   2  0.500  0.500  0.013       492       139 ' '
# Missing Reflections Below sin(th)/lambda = 0.25
loop_
  _platon_missing_refln_index_h
  _platon_missing_refln_index_k
  _platon_missing_refln_index_l
  _platon_missing_refln_theta
    2    0    0     1.130
   14    0    0     7.935
    1    1    0     1.310
    2    6    3     8.485
_platon_squeeze_void_probe_radius                  1.20
_platon_squeeze_details
)
TITL shelx     C 2/c        R = 0.14
CELL   36.7663   17.2278   14.6878     90.00    101.43     90.00
SPGR C2/c
# Solvent Accessible Volume =       975
# Electrons Found in S.A.V. =       276
# Note: Atoms in Void are Labelled as Cxxx and Qxxx for all Others
C101 0.474 0.138 0.313 !      13.09 eA-3
C102 0.467 0.262 0.187 !       7.72 eA-3
C103 0.500 0.203 0.246 !       3.71 eA-3
Q104 1.002 0.188 0.577 !       3.31 eA-3
C105 0.500 0.125 0.249 !       1.57 eA-3
C106 0.003 0.111 0.898 !       1.50 eA-3
C107 0.499 0.283 0.323 !       1.42 eA-3
C108 0.497 0.255 0.296 !       1.33 eA-3
C109 0.007 0.083 0.565 !       0.96 eA-3
C110 0.027 0.299 0.795 !       0.84 eA-3
Q111 0.586 0.155 0.846 !       0.78 eA-3
Q112 0.006 0.158 0.498 !       0.75 eA-3
Q113 0.641 0.150 0.855 !       0.75 eA-3
Q114 0.079 0.030 0.444 !       0.73 eA-3
Q115 0.116 0.201 0.143 !       0.72 eA-3
C116 0.462 0.165 0.221 !       0.71 eA-3
Q117 0.601 0.173 0.825 !       0.71 eA-3
Q118 0.832 0.358 0.354 !       0.70 eA-3
Q119 0.273 0.220 0.706 !       0.68 eA-3
Q120 0.204 0.175 0.477 !       0.67 eA-3
Q121 0.435 0.469 0.182 !       0.67 eA-3
Q122 0.483 0.201 0.567 !       0.66 eA-3
Q123 0.594 0.097 0.440 !       0.66 eA-3
C124 0.544 0.168 0.144 !       0.66 eA-3
Q125 0.028 0.221 0.675 !       0.66 eA-3
Q126 0.790 0.347 0.060 !       0.65 eA-3
Q127 0.416 0.502 0.623 !       0.64 eA-3
Q128 0.155 0.216 0.644 !       0.64 eA-3
Q129 0.956 0.390 0.401 !       0.64 eA-3
Q130 0.899 0.129 0.525 !       0.62 eA-3
Q131 0.563 0.407 0.313 !       0.62 eA-3
C132 0.949 0.282 0.738 !       0.62 eA-3
Q133 0.126 0.185 0.642 !       0.59 eA-3
Q134 0.266 0.225 0.267 !       0.59 eA-3
Q135 0.877 0.499 0.894 !       0.59 eA-3
Q136 0.881 0.234 0.277 !       0.58 eA-3
Q137 0.208 0.188 0.581 !       0.58 eA-3
Q138 0.086 0.126 0.892 !       0.58 eA-3
Q139 0.874 0.455 0.295 !       0.58 eA-3
Q140 0.314 0.439-0.003 !       0.57 eA-3
Q141 0.178 0.365 0.455 !       0.57 eA-3
C142 0.444 0.171 0.295 !       0.56 eA-3
Q143 0.084 0.448 0.283 !       0.56 eA-3
Q144 0.258 0.442 0.173 !       0.56 eA-3
Q145 0.820 0.158 0.406 !       0.56 eA-3
Q146 0.078 0.266 0.191 !       0.56 eA-3
Q147 0.920 0.265 0.890 !       0.56 eA-3
Q148 0.408 0.347 0.099 !       0.55 eA-3
Q149 0.852 0.501 0.904 !       0.55 eA-3
Q150 0.868 0.078 0.874 !       0.55 eA-3
Q151 0.909 0.284 0.126 !       0.55 eA-3
Q152 1.000 0.313 0.253 !       0.55 eA-3
Q153 0.295 0.294 0.362 !       0.54 eA-3
Q154 0.163 0.281 0.895 !       0.54 eA-3
Q155 0.940 0.012 0.536 !       0.54 eA-3
Q156 0.499 0.110 0.610 !       0.53 eA-3
Q157 0.992 0.269 0.470 !       0.53 eA-3
Q158 0.870 0.049 0.583 !       0.53 eA-3
Q159 0.796 0.220 0.410 !       0.53 eA-3
Q160 0.100 0.021 0.011 !       0.53 eA-3
Q161 0.774 0.374 0.333 !       0.53 eA-3
Q162 0.143 0.079 0.530 !       0.52 eA-3
Q163 0.097 0.501 0.096 !       0.52 eA-3
Q164 0.468 0.485 0.759 !       0.52 eA-3
Q165 0.546 0.078 0.329 !       0.52 eA-3
Q166 0.970 0.422 0.484 !       0.52 eA-3
Q167 0.843 0.354 0.436 !       0.52 eA-3
Q168 0.016 0.418 0.085 !       0.52 eA-3
Q169 0.945 0.058 0.254 !       0.51 eA-3
Q170 0.121 0.337 0.229 !       0.51 eA-3
Q171 0.311 0.262 0.328 !       0.51 eA-3
Q172 0.170 0.220 0.252 !       0.51 eA-3
Q173 0.587 0.267 0.473 !       0.51 eA-3
Q174 0.672 0.188 0.406 !       0.51 eA-3
Q175 0.572 0.116 0.795 !       0.51 eA-3
Q176 0.950 0.346 0.015 !       0.51 eA-3
Q177 0.338 0.380 0.899 !       0.51 eA-3
Q178 0.186 0.422 0.858 !       0.51 eA-3
Q179 0.337 0.079 0.153 !       0.51 eA-3
Q180 0.264 0.285 0.378 !       0.51 eA-3
Q181 0.939 0.170 0.391 !       0.50 eA-3
Q182 0.117 0.407 0.500 !       0.50 eA-3
Q183 0.439 0.501 0.104 !       0.50 eA-3
Q184 0.111 0.173 0.515 !       0.50 eA-3
Q185 0.164 0.374 0.410 !       0.50 eA-3
)
;
_shelx_fab_checksum              60449
loop_
_space_group_symop_operation_xyz
'x, y, z'
'-x, y, -z+1/2'
'x+1/2, y+1/2, z'
'-x+1/2, y+1/2, -z+1/2'
'-x, -y, -z'
'x, -y, z-1/2'
'-x+1/2, -y+1/2, -z'
'x+1/2, -y+1/2, z-1/2'
loop_
_atom_site_label
_atom_site_type_symbol
_atom_site_fract_x
_atom_site_fract_y
_atom_site_fract_z
_atom_site_U_iso_or_equiv
_atom_site_adp_type
_atom_site_occupancy
_atom_site_site_symmetry_order
_atom_site_calc_flag
_atom_site_refinement_flags_posn
_atom_site_refinement_flags_adp
_atom_site_refinement_flags_occupancy
_atom_site_disorder_assembly
_atom_site_disorder_group
Ga1 Ga 0.68121(2) 0.74394(2) 0.22366(2) 0.02323(10) Uani 1 1 d . . . . .
O1B O 0.81397(15) 0.8756(3) 0.6756(4) 0.0208(11) Uani 0.7 1 d D . P A 1
O2B O 0.7927(3) 1.0036(4) 0.6663(5) 0.0259(16) Uani 0.7 1 d D . P A 1
O3 O 0.62799(6) 1.04831(10) 0.67269(13) 0.0306(5) Uani 1 1 d . . . . .
O4 O 0.92606(7) 0.82580(16) 0.40861(18) 0.0628(8) Uani 1 1 d . . . . .
O5 O 0.67833(6) 0.84380(11) 0.14407(13) 0.0263(5) Uani 1 1 d D . . . .
H5O H 0.6653(8) 0.8796(14) 0.157(2) 0.039 Uiso 1 1 d D U . . .
N1 N 0.67506(7) 0.80026(12) 0.33341(15) 0.0219(5) Uani 1 1 d . . . . .
N2 N 0.62932(7) 0.72482(12) 0.19139(15) 0.0226(6) Uani 1 1 d . . . . .
N3 N 0.69469(7) 0.67559(12) 0.13377(15) 0.0216(5) Uani 1 1 d . . . . .
N4 N 0.73287(7) 0.75772(12) 0.28071(15) 0.0235(5) Uani 1 1 d . . . . .
C1 C 0.70684(9) 0.82370(15) 0.39182(18) 0.0241(7) Uani 1 1 d . . . . .
C2 C 0.69696(9) 0.86260(15) 0.46797(19) 0.0259(7) Uani 1 1 d . . . . .
H2 H 0.713401 0.884776 0.519469 0.031 Uiso 0.3 1 calc R U P B 2
C3 C 0.65768(9) 0.86204(15) 0.45244(18) 0.0259(7) Uani 1 1 d . . . . .
C4 C 0.64456(9) 0.82163(15) 0.36601(19) 0.0234(7) Uani 1 1 d . . . . .
C5 C 0.60872(8) 0.80386(15) 0.31422(18) 0.0217(7) Uani 1 1 d . . . . .
C6 C 0.60214(8) 0.75921(15) 0.23213(19) 0.0226(6) Uani 1 1 d . . . . .
C7 C 0.56707(9) 0.73911(15) 0.17674(19) 0.0266(7) Uani 1 1 d . . . . .
H7 H 0.543572 0.754989 0.187721 0.032 Uiso 1 1 calc R U . . .
C8 C 0.57283(9) 0.69355(16) 0.1058(2) 0.0287(7) Uani 1 1 d . . . . .
H8 H 0.554171 0.672262 0.058282 0.034 Uiso 1 1 calc R U . . .
C9 C 0.61199(9) 0.68318(15) 0.11510(19) 0.0235(7) Uani 1 1 d . . . . .
C10 C 0.63097(9) 0.63869(15) 0.05798(18) 0.0231(7) Uani 1 1 d . . . . .
C11 C 0.66972(9) 0.63504(14) 0.06874(19) 0.0219(7) Uani 1 1 d . . . . .
C12 C 0.69076(9) 0.59020(15) 0.01417(19) 0.0255(7) Uani 1 1 d . . . . .
H12 H 0.680763 0.556736 -0.035979 0.031 Uiso 1 1 calc R U . . .
C13 C 0.72712(9) 0.60416(15) 0.04690(19) 0.0254(7) Uani 1 1 d . . . . .
H13 H 0.747131 0.582197 0.023515 0.030 Uiso 1 1 calc R U . . .
C14 C 0.73048(9) 0.65762(15) 0.12278(19) 0.0241(7) Uani 1 1 d . . . . .
C15 C 0.76357(9) 0.68603(15) 0.17706(19) 0.0247(7) Uani 1 1 d . . . . .
C16 C 0.76505(8) 0.73419(15) 0.25629(19) 0.0234(7) Uani 1 1 d . . . . .
C17 C 0.79511(9) 0.76522(15) 0.3249(2) 0.0276(7) Uani 1 1 d . . . . .
C18 C 0.77880(9) 0.80537(15) 0.3901(2) 0.0278(7) Uani 1 1 d . . . . .
H18 H 0.791653 0.831608 0.443809 0.033 Uiso 0.7 1 calc R U P C 1
C19 C 0.74034(9) 0.79967(15) 0.36152(19) 0.0240(7) Uani 1 1 d . . . . .
C20 C 0.72450(12) 0.8858(2) 0.5539(3) 0.0202(9) Uani 0.7 1 d . . P A 1
H20 H 0.716077 0.878974 0.610449 0.024 Uiso 0.7 1 calc R U P A 1
C21 C 0.75844(12) 0.9139(2) 0.5633(3) 0.0196(9) Uani 0.7 1 d . . P A 1
H21 H 0.768075 0.926634 0.509779 0.024 Uiso 0.7 1 calc R U P A 1
C22B C 0.78177(14) 0.9260(3) 0.6577(4) 0.0217(12) Uani 0.7 1 d D . P A 1
H22B H 0.766277 0.914780 0.704970 0.026 Uiso 0.7 1 calc R U P A 1
C20A C 0.7918(3) 0.8376(5) 0.4921(6) 0.022(2) Uiso 0.3 1 d . . P D 2
H20A H 0.811553 0.809069 0.528720 0.026 Uiso 0.3 1 calc R U P D 2
C21A C 0.7803(3) 0.8964(5) 0.5353(6) 0.022(2) Uiso 0.3 1 d . . P D 2
H21A H 0.763691 0.932183 0.499389 0.027 Uiso 0.3 1 calc R U P D 2
C23B C 0.84157(14) 0.8907(3) 0.6231(3) 0.0296(11) Uani 0.7 1 d . . P A 1
H23A H 0.861992 0.853688 0.640435 0.044 Uiso 0.7 1 calc R U P A 1
H23B H 0.830838 0.885332 0.556779 0.044 Uiso 0.7 1 calc R U P A 1
H23C H 0.850991 0.943684 0.635641 0.044 Uiso 0.7 1 calc R U P A 1
C24B C 0.7975(5) 1.0131(10) 0.7507(12) 0.036(5) Uiso 0.3 1 d D . P D 2
H24A H 0.799162 1.069632 0.757643 0.054 Uiso 0.3 1 calc R U P D 2
H24B H 0.775561 0.994280 0.772524 0.054 Uiso 0.3 1 calc R U P D 2
H24C H 0.819810 0.989112 0.787519 0.054 Uiso 0.3 1 calc R U P D 2
C25 C 0.63541(9) 0.89679(15) 0.51216(19) 0.0284(7) Uani 1 1 d . . . . .
H25 H 0.611040 0.876967 0.508314 0.034 Uiso 1 1 calc R U . . .
C26 C 0.64619(9) 0.95494(16) 0.57293(19) 0.0281(7) Uani 1 1 d . . . . .
H26 H 0.670918 0.973700 0.580897 0.034 Uiso 1 1 calc R U . . .
C27 C 0.62175(9) 0.98925(16) 0.62567(19) 0.0289(7) Uani 1 1 d . . . . .
H27 H 0.598626 0.964178 0.624228 0.035 Uiso 1 1 calc R U . . .
C28 C 0.57520(8) 0.83261(16) 0.34656(19) 0.0247(7) Uani 1 1 d . . . . .
C29 C 0.56241(8) 0.90805(16) 0.3260(2) 0.0280(7) Uani 1 1 d . . . . .
H29 H 0.575220 0.941190 0.291279 0.034 Uiso 1 1 calc R U . . .
C30 C 0.53127(9) 0.93511(17) 0.3555(2) 0.0330(8) Uani 1 1 d . . . . .
H30 H 0.523152 0.986798 0.340995 0.040 Uiso 1 1 calc R U . . .
C31 C 0.51166(9) 0.88867(19) 0.4059(2) 0.0368(8) Uani 1 1 d . . . . .
C32 C 0.52485(10) 0.81364(19) 0.4273(2) 0.0396(9) Uani 1 1 d . . . . .
H32 H 0.512227 0.780862 0.462842 0.047 Uiso 1 1 calc R U . . .
C33 C 0.55585(9) 0.78597(17) 0.3980(2) 0.0331(8) Uani 1 1 d . . . . .
H33 H 0.564071 0.734435 0.413145 0.040 Uiso 1 1 calc R U . . .
C34 C 0.47674(9) 0.9167(2) 0.4346(3) 0.0496(10) Uani 1 1 d . . . . .
H34A H 0.455074 0.894159 0.393378 0.074 Uiso 1 1 calc R U . . .
H34B H 0.475483 0.973437 0.430285 0.074 Uiso 1 1 calc R U . . .
H34C H 0.476969 0.900718 0.498720 0.074 Uiso 1 1 calc R U . . .
C35 C 0.60863(9) 0.59084(17) -0.0179(2) 0.0287(7) Uani 1 1 d . . . . .
C36 C 0.60758(11) 0.6085(2) -0.1106(2) 0.0489(10) Uani 1 1 d . . . . .
H36 H 0.620651 0.652509 -0.126257 0.059 Uiso 1 1 calc R U . . .
C37 C 0.58775(12) 0.5627(2) -0.1804(2) 0.0588(11) Uani 1 1 d . . . . .
H37 H 0.586733 0.576889 -0.243379 0.071 Uiso 1 1 calc R U . . .
C38 C 0.56950(11) 0.4973(2) -0.1608(3) 0.0524(10) Uani 1 1 d . . . . .
C39 C 0.57136(12) 0.4789(2) -0.0685(3) 0.0607(12) Uani 1 1 d . . . . .
H39 H 0.559157 0.433562 -0.053063 0.073 Uiso 1 1 calc R U . . .
C40 C 0.59049(10) 0.52469(19) 0.0012(2) 0.0456(9) Uani 1 1 d . . . . .
H40 H 0.591250 0.510470 0.064077 0.055 Uiso 1 1 calc R U . . .
C41 C 0.54943(13) 0.4464(3) -0.2392(3) 0.0902(17) Uani 1 1 d . . . . .
H41A H 0.532242 0.478261 -0.283546 0.135 Uiso 1 1 calc R U . . .
H41B H 0.535526 0.406038 -0.213871 0.135 Uiso 1 1 calc R U . . .
H41C H 0.567576 0.422153 -0.270981 0.135 Uiso 1 1 calc R U . . .
C42 C 0.79904(8) 0.66302(16) 0.14913(19) 0.0252(7) Uani 1 1 d . . . . .
C43 C 0.81675(9) 0.71507(17) 0.1005(2) 0.0306(7) Uani 1 1 d . . . . .
H43 H 0.806013 0.764578 0.084266 0.037 Uiso 1 1 calc R U . . .
C44 C 0.84995(9) 0.69553(17) 0.0753(2) 0.0306(7) Uani 1 1 d . . . . .
H44 H 0.861769 0.732167 0.042453 0.037 Uiso 1 1 calc R U . . .
C45 C 0.86626(9) 0.62370(16) 0.0969(2) 0.0287(7) Uani 1 1 d . . . . .
C46 C 0.84791(9) 0.57053(17) 0.1430(2) 0.0322(8) Uani 1 1 d . . . . .
H46 H 0.858246 0.520436 0.157504 0.039 Uiso 1 1 calc R U . . .
C47 C 0.81460(9) 0.59006(16) 0.1681(2) 0.0300(7) Uani 1 1 d . . . . .
H47 H 0.802257 0.552792 0.198815 0.036 Uiso 1 1 calc R U . . .
C48 C 0.90291(9) 0.60560(18) 0.0704(2) 0.0394(8) Uani 1 1 d . . . . .
H48A H 0.902692 0.624739 0.007494 0.059 Uiso 1 1 calc R U . . .
H48B H 0.906903 0.549335 0.072372 0.059 Uiso 1 1 calc R U . . .
H48C H 0.922972 0.630978 0.114210 0.059 Uiso 1 1 calc R U . . .
C49 C 0.83441(9) 0.75760(17) 0.3276(2) 0.0346(8) Uani 1 1 d . . . . .
H49 H 0.841608 0.718238 0.289462 0.042 Uiso 1 1 calc R U . . .
C50 C 0.86199(10) 0.79987(19) 0.3780(2) 0.0382(8) Uani 1 1 d . . . . .
H50 H 0.856456 0.838494 0.419327 0.046 Uiso 1 1 calc R U . . .
C51 C 0.89959(11) 0.7870(2) 0.3696(3) 0.0476(10) Uani 1 1 d . . . . .
H51 H 0.904388 0.745465 0.331066 0.057 Uiso 1 1 calc R U . . .
C52 C 0.71018(9) 0.87781(18) 0.1182(2) 0.0382(8) Uani 1 1 d . . . . .
H52A H 0.722842 0.911305 0.168595 0.057 Uiso 1 1 calc R U . . .
H52B H 0.702450 0.908776 0.061734 0.057 Uiso 1 1 calc R U . . .
H52C H 0.727123 0.836727 0.106614 0.057 Uiso 1 1 calc R U . . .
C22A C 0.7920(4) 0.9117(8) 0.6417(9) 0.024(4) Uiso 0.3 1 d D . P D 2
H22A H 0.771413 0.892924 0.671449 0.029 Uiso 0.3 1 calc R U P D 2
C23A C 0.8576(3) 0.9012(7) 0.6558(8) 0.029(3) Uiso 0.3 1 d . . P D 2
H23D H 0.879290 0.871385 0.686295 0.044 Uiso 0.3 1 calc R U P D 2
H23E H 0.854813 0.896715 0.588232 0.044 Uiso 0.3 1 calc R U P D 2
H23F H 0.860864 0.955858 0.673931 0.044 Uiso 0.3 1 calc R U P D 2
O1A O 0.8247(3) 0.8710(9) 0.6836(12) 0.026(4) Uiso 0.3 1 d D . P D 2
O2A O 0.7945(7) 0.9928(9) 0.6541(13) 0.030(5) Uiso 0.3 1 d D . P D 2
C24A C 0.8104(2) 1.0246(3) 0.7594(4) 0.0291(14) Uani 0.7 1 d D . P A 1
H24D H 0.817426 1.079574 0.760949 0.044 Uiso 0.7 1 calc R U P A 1
H24E H 0.793150 1.015947 0.801386 0.044 Uiso 0.7 1 calc R U P A 1
H24F H 0.832633 0.992772 0.779162 0.044 Uiso 0.7 1 calc R U P A 1
loop_
_atom_site_aniso_label
_atom_site_aniso_U_11
_atom_site_aniso_U_22
_atom_site_aniso_U_33
_atom_site_aniso_U_23
_atom_site_aniso_U_13
_atom_site_aniso_U_12
Ga1 0.0312(2) 0.02006(17) 0.02036(16) -0.00515(14) 0.00972(14) -0.00304(15)
O1B 0.020(3) 0.017(2) 0.026(2) 0.0050(14) 0.006(2) 0.005(2)
O2B 0.042(3) 0.015(2) 0.023(3) 0.0006(18) 0.010(2) -0.001(2)
O3 0.0459(14) 0.0195(11) 0.0305(12) -0.0075(9) 0.0177(11) 0.0009(10)
O4 0.0428(17) 0.085(2) 0.0561(18) 0.0055(15) -0.0009(14) -0.0090(15)
O5 0.0337(14) 0.0201(11) 0.0281(11) 0.0017(9) 0.0136(10) 0.0010(9)
N1 0.0286(15) 0.0177(12) 0.0208(13) -0.0021(10) 0.0082(12) -0.0031(11)
N2 0.0305(16) 0.0187(12) 0.0201(12) -0.0036(10) 0.0091(11) -0.0008(11)
N3 0.0282(15) 0.0178(12) 0.0210(13) -0.0021(10) 0.0097(11) -0.0020(11)
N4 0.0311(15) 0.0196(12) 0.0206(12) -0.0014(10) 0.0070(11) -0.0034(11)
C1 0.036(2) 0.0168(14) 0.0182(15) 0.0001(12) 0.0032(14) -0.0029(13)
C2 0.046(2) 0.0127(14) 0.0204(16) -0.0008(11) 0.0086(15) -0.0024(14)
C3 0.046(2) 0.0166(14) 0.0181(15) 0.0005(12) 0.0144(15) -0.0026(14)
C4 0.037(2) 0.0146(14) 0.0211(15) 0.0003(12) 0.0123(15) -0.0010(13)
C5 0.0350(19) 0.0134(14) 0.0205(15) 0.0023(11) 0.0145(14) 0.0007(13)
C6 0.0296(18) 0.0182(14) 0.0224(15) 0.0039(12) 0.0107(13) 0.0008(13)
C7 0.0285(18) 0.0254(16) 0.0281(16) 0.0039(13) 0.0112(14) 0.0047(14)
C8 0.034(2) 0.0262(16) 0.0241(16) -0.0030(13) 0.0023(15) -0.0015(14)
C9 0.0323(19) 0.0191(15) 0.0198(15) 0.0007(12) 0.0067(14) -0.0006(13)
C10 0.038(2) 0.0127(14) 0.0212(15) -0.0024(11) 0.0116(14) -0.0055(13)
C11 0.034(2) 0.0139(13) 0.0198(15) 0.0009(11) 0.0111(14) -0.0036(13)
C12 0.042(2) 0.0154(14) 0.0205(15) -0.0041(12) 0.0109(15) -0.0014(14)
C13 0.034(2) 0.0187(15) 0.0265(16) 0.0019(12) 0.0146(15) 0.0039(14)
C14 0.033(2) 0.0169(14) 0.0238(16) 0.0033(12) 0.0087(14) 0.0025(13)
C15 0.035(2) 0.0153(14) 0.0262(16) 0.0050(12) 0.0108(15) 0.0012(13)
C16 0.0280(18) 0.0194(15) 0.0230(15) 0.0055(12) 0.0055(14) -0.0003(13)
C17 0.032(2) 0.0162(15) 0.0321(17) 0.0043(12) 0.0014(15) 0.0018(13)
C18 0.038(2) 0.0147(15) 0.0273(16) 0.0026(12) -0.0029(15) -0.0027(13)
C19 0.037(2) 0.0150(14) 0.0206(15) 0.0008(12) 0.0063(14) -0.0032(13)
C20 0.032(3) 0.0121(19) 0.019(2) -0.0020(16) 0.0117(19) 0.0018(18)
C21 0.028(3) 0.017(2) 0.017(2) 0.0018(16) 0.0097(19) -0.0011(18)
C22B 0.023(3) 0.014(3) 0.030(3) 0.001(2) 0.011(2) 0.001(2)
C23B 0.027(3) 0.040(3) 0.023(3) -0.001(2) 0.006(2) -0.002(2)
C25 0.048(2) 0.0174(15) 0.0232(16) 0.0009(12) 0.0150(15) -0.0042(14)
C26 0.036(2) 0.0214(15) 0.0287(17) -0.0028(13) 0.0111(15) 0.0013(14)
C27 0.037(2) 0.0242(16) 0.0275(17) -0.0003(13) 0.0106(15) -0.0019(14)
C28 0.0296(19) 0.0219(15) 0.0252(16) -0.0047(12) 0.0120(14) -0.0047(13)
C29 0.032(2) 0.0251(16) 0.0295(17) -0.0009(13) 0.0128(15) -0.0020(14)
C30 0.037(2) 0.0229(16) 0.0410(19) -0.0079(14) 0.0118(16) 0.0020(14)
C31 0.026(2) 0.043(2) 0.044(2) -0.0222(16) 0.0144(17) -0.0071(16)
C32 0.048(2) 0.0359(19) 0.043(2) -0.0106(16) 0.0276(18) -0.0174(17)
C33 0.047(2) 0.0201(15) 0.0373(19) -0.0039(14) 0.0198(17) -0.0074(15)
C34 0.033(2) 0.050(2) 0.071(3) -0.026(2) 0.024(2) -0.0095(17)
C35 0.034(2) 0.0265(16) 0.0257(17) -0.0063(13) 0.0063(15) 0.0000(14)
C36 0.074(3) 0.036(2) 0.032(2) -0.0050(16) 0.001(2) -0.0158(19)
C37 0.089(3) 0.053(2) 0.029(2) -0.0083(18) -0.002(2) -0.005(2)
C38 0.056(3) 0.048(2) 0.052(2) -0.0255(19) 0.009(2) -0.014(2)
C39 0.079(3) 0.049(2) 0.057(3) -0.022(2) 0.019(2) -0.031(2)
C40 0.061(3) 0.039(2) 0.038(2) -0.0126(16) 0.0142(19) -0.0206(19)
C41 0.095(4) 0.097(4) 0.075(3) -0.050(3) 0.009(3) -0.041(3)
C42 0.0273(18) 0.0214(15) 0.0271(16) 0.0022(13) 0.0058(14) 0.0042(13)
C43 0.035(2) 0.0201(15) 0.0367(18) 0.0068(14) 0.0070(16) 0.0051(14)
C44 0.031(2) 0.0276(17) 0.0334(18) 0.0042(14) 0.0069(15) -0.0011(14)
C45 0.032(2) 0.0265(16) 0.0278(17) -0.0041(13) 0.0057(15) 0.0046(14)
C46 0.042(2) 0.0240(16) 0.0310(17) 0.0030(13) 0.0090(16) 0.0121(15)
C47 0.041(2) 0.0228(16) 0.0281(17) 0.0049(13) 0.0107(15) 0.0020(14)
C48 0.035(2) 0.0365(19) 0.047(2) -0.0056(16) 0.0102(18) 0.0027(16)
C49 0.038(2) 0.0235(16) 0.0379(18) 0.0052(14) -0.0023(16) 0.0085(16)
C50 0.039(2) 0.038(2) 0.036(2) 0.0022(16) 0.0030(17) 0.0019(17)
C51 0.038(2) 0.052(2) 0.048(2) 0.0097(19) -0.004(2) 0.0066(19)
C52 0.037(2) 0.0363(19) 0.046(2) 0.0107(16) 0.0208(18) 0.0015(16)
C24A 0.041(5) 0.024(3) 0.023(3) -0.007(2) 0.008(3) -0.005(3)
loop_
_atom_type_symbol
_atom_type_description
_atom_type_scat_dispersion_real
_atom_type_scat_dispersion_imag
_atom_type_scat_source
C C 0.0033 0.0016 'International Tables Vol C Tables 4.2.6.8 and 6.1.1.4'
H H 0.0000 0.0000 'International Tables Vol C Tables 4.2.6.8 and 6.1.1.4'
Cl Cl 0.1484 0.1585 'International Tables Vol C Tables 4.2.6.8 and 6.1.1.4'
Ga Ga 0.2307 1.6083 'International Tables Vol C Tables 4.2.6.8 and 6.1.1.4'
N N 0.0061 0.0033 'International Tables Vol C Tables 4.2.6.8 and 6.1.1.4'
O O 0.0106 0.0060 'International Tables Vol C Tables 4.2.6.8 and 6.1.1.4'
loop_
_geom_angle_atom_site_label_1
_geom_angle_atom_site_label_2
_geom_angle_atom_site_label_3
_geom_angle
N2 Ga1 N3 96.09(10)
N2 Ga1 N1 91.00(10)
N3 Ga1 N1 167.71(10)
N2 Ga1 N4 168.75(9)
N3 Ga1 N4 90.47(10)
N1 Ga1 N4 81.03(10)
N2 Ga1 O5 93.82(9)
N3 Ga1 O5 96.51(8)
N1 Ga1 O5 93.01(8)
N4 Ga1 O5 94.50(9)
C23B O1B C22B 116.1(5)
C22B O2B C24A 113.3(5)
C52 O5 Ga1 122.59(18)
C52 O5 H5O 107(2)
Ga1 O5 H5O 117(2)
C4 N1 C1 111.3(2)
C4 N1 Ga1 132.3(2)
C1 N1 Ga1 116.43(19)
C9 N2 C6 108.4(2)
C9 N2 Ga1 124.97(19)
C6 N2 Ga1 126.04(19)
C11 N3 C14 108.8(2)
C11 N3 Ga1 124.39(19)
C14 N3 Ga1 126.80(19)
C16 N4 C19 110.4(2)
C16 N4 Ga1 132.73(19)
C19 N4 Ga1 116.8(2)
N1 C1 C2 108.4(3)
N1 C1 C19 113.3(2)
C2 C1 C19 138.3(3)
C1 C2 C3 106.5(3)
C1 C2 C20 123.6(3)
C3 C2 C20 129.1(3)
C1 C2 H2 126.8
C3 C2 H2 126.8
C2 C3 C25 125.6(3)
C2 C3 C4 107.3(2)
C25 C3 C4 127.1(3)
N1 C4 C5 119.9(2)
N1 C4 C3 106.6(3)
C5 C4 C3 133.5(3)
C6 C5 C4 124.1(3)
C6 C5 C28 116.2(3)
C4 C5 C28 119.8(2)
N2 C6 C5 125.6(3)
N2 C6 C7 107.2(2)
C5 C6 C7 127.1(3)
C8 C7 C6 108.6(3)
C8 C7 H7 125.7
C6 C7 H7 125.7
C7 C8 C9 107.9(3)
C7 C8 H8 126.1
C9 C8 H8 126.1
N2 C9 C10 124.1(3)
N2 C9 C8 107.9(2)
C10 C9 C8 128.0(3)
C11 C10 C9 124.4(3)
C11 C10 C35 117.1(2)
C9 C10 C35 118.5(3)
N3 C11 C10 125.3(2)
N3 C11 C12 107.5(3)
C10 C11 C12 127.2(3)
C13 C12 C11 108.0(3)
C13 C12 H12 126.0
C11 C12 H12 126.0
C12 C13 C14 108.6(3)
C12 C13 H13 125.7
C14 C13 H13 125.7
N3 C14 C15 126.1(3)
N3 C14 C13 107.2(3)
C15 C14 C13 126.7(3)
C14 C15 C16 123.8(3)
C14 C15 C42 117.1(3)
C16 C15 C42 119.0(3)
N4 C16 C15 119.6(3)
N4 C16 C17 106.9(2)
C15 C16 C17 133.5(3)
C18 C17 C16 106.7(3)
C18 C17 C49 125.8(3)
C16 C17 C49 127.6(3)
C19 C18 C17 107.7(3)
C19 C18 C20A 114.1(4)
C17 C18 C20A 136.7(4)
C19 C18 H18 126.2
C17 C18 H18 126.2
N4 C19 C18 108.3(3)
N4 C19 C1 112.3(3)
C18 C19 C1 139.3(3)
C21 C20 C2 130.5(3)
C21 C20 H20 114.7
C2 C20 H20 114.7
C20 C21 C22B 120.4(4)
C20 C21 H21 119.8
C22B C21 H21 119.8
O2B C22B O1B 110.3(6)
O2B C22B C21 108.6(4)
O1B C22B C21 112.6(5)
O2B C22B H22B 108.4
O1B C22B H22B 108.4
C21 C22B H22B 108.4
C21A C20A C18 131.7(8)
C21A C20A H20A 114.2
C18 C20A H20A 114.2
C20A C21A C22A 124.4(10)
C20A C21A H21A 117.8
C22A C21A H21A 117.8
O1B C23B H23A 109.5
O1B C23B H23B 109.5
H23A C23B H23B 109.5
O1B C23B H23C 109.5
H23A C23B H23C 109.5
H23B C23B H23C 109.5
O2A C24B H24A 109.5
O2A C24B H24B 109.5
H24A C24B H24B 109.5
O2A C24B H24C 109.5
H24A C24B H24C 109.5
H24B C24B H24C 109.5
C26 C25 C3 125.7(3)
C26 C25 H25 117.2
C3 C25 H25 117.2
C25 C26 C27 122.2(3)
C25 C26 H26 118.9
C27 C26 H26 118.9
O3 C27 C26 125.6(3)
O3 C27 H27 117.2
C26 C27 H27 117.2
C33 C28 C29 118.0(3)
C33 C28 C5 121.7(3)
C29 C28 C5 120.3(2)
C30 C29 C28 120.7(3)
C30 C29 H29 119.7
C28 C29 H29 119.7
C29 C30 C31 121.6(3)
C29 C30 H30 119.2
C31 C30 H30 119.2
C30 C31 C32 117.5(3)
C30 C31 C34 121.8(3)
C32 C31 C34 120.7(3)
C33 C32 C31 121.4(3)
C33 C32 H32 119.3
C31 C32 H32 119.3
C32 C33 C28 120.8(3)
C32 C33 H33 119.6
C28 C33 H33 119.6
C31 C34 H34A 109.5
C31 C34 H34B 109.5
H34A C34 H34B 109.5
C31 C34 H34C 109.5
H34A C34 H34C 109.5
H34B C34 H34C 109.5
C40 C35 C36 117.4(3)
C40 C35 C10 121.4(3)
C36 C35 C10 121.0(3)
C37 C36 C35 120.7(3)
C37 C36 H36 119.6
C35 C36 H36 119.6
C38 C37 C36 121.4(3)
C38 C37 H37 119.3
C36 C37 H37 119.3
C37 C38 C39 117.7(3)
C37 C38 C41 120.0(4)
C39 C38 C41 122.3(4)
C40 C39 C38 121.3(3)
C40 C39 H39 119.4
C38 C39 H39 119.4
C39 C40 C35 121.4(3)
C39 C40 H40 119.3
C35 C40 H40 119.3
C38 C41 H41A 109.5
C38 C41 H41B 109.5
H41A C41 H41B 109.5
C38 C41 H41C 109.5
H41A C41 H41C 109.5
H41B C41 H41C 109.5
C47 C42 C43 118.2(3)
C47 C42 C15 122.2(3)
C43 C42 C15 119.6(3)
C44 C43 C42 120.6(3)
C44 C43 H43 119.7
C42 C43 H43 119.7
C45 C44 C43 121.3(3)
C45 C44 H44 119.3
C43 C44 H44 119.3
C44 C45 C46 118.1(3)
C44 C45 C48 119.6(3)
C46 C45 C48 122.3(3)
C47 C46 C45 120.5(3)
C47 C46 H46 119.7
C45 C46 H46 119.7
C42 C47 C46 121.1(3)
C42 C47 H47 119.4
C46 C47 H47 119.4
C45 C48 H48A 109.5
C45 C48 H48B 109.5
H48A C48 H48B 109.5
C45 C48 H48C 109.5
H48A C48 H48C 109.5
H48B C48 H48C 109.5
C50 C49 C17 127.4(3)
C50 C49 H49 116.3
C17 C49 H49 116.3
C49 C50 C51 120.4(3)
C49 C50 H50 119.8
C51 C50 H50 119.8
O4 C51 C50 124.5(4)
O4 C51 H51 117.7
C50 C51 H51 117.7
O5 C52 H52A 109.5
O5 C52 H52B 109.5
H52A C52 H52B 109.5
O5 C52 H52C 109.5
H52A C52 H52C 109.5
H52B C52 H52C 109.5
O2A C22A O1A 114.0(16)
O2A C22A C21A 107.1(12)
O1A C22A C21A 113.1(12)
O2A C22A H22A 107.5
O1A C22A H22A 107.5
C21A C22A H22A 107.5
O1A C23A H23D 109.5
O1A C23A H23E 109.5
H23D C23A H23E 109.5
O1A C23A H23F 109.5
H23D C23A H23F 109.5
H23E C23A H23F 109.5
C22A O1A C23A 112.5(13)
C22A O2A C24B 110.9(15)
O2B C24A H24D 109.5
O2B C24A H24E 109.5
H24D C24A H24E 109.5
O2B C24A H24F 109.5
H24D C24A H24F 109.5
H24E C24A H24F 109.5
loop_
_geom_bond_atom_site_label_1
_geom_bond_atom_site_label_2
_geom_bond_distance
Ga1 N2 1.901(2)
Ga1 N3 1.906(2)
Ga1 N1 1.933(2)
Ga1 N4 1.933(2)
Ga1 O5 2.0709(19)
O1B C23B 1.415(7)
O1B C22B 1.449(6)
O2B C22B 1.395(7)
O2B C24A 1.440(7)
O3 C27 1.226(3)
O4 C51 1.225(4)
O5 C52 1.427(3)
O5 H5O 0.826(17)
N1 C4 1.354(3)
N1 C1 1.367(3)
N2 C9 1.376(3)
N2 C6 1.394(3)
N3 C11 1.377(3)
N3 C14 1.392(4)
N4 C16 1.364(4)
N4 C19 1.370(3)
C1 C2 1.412(4)
C1 C19 1.450(4)
C2 C3 1.416(4)
C2 C20 1.507(5)
C2 H2 0.9500
C3 C25 1.443(4)
C3 C4 1.444(4)
C4 C5 1.418(4)
C5 C6 1.410(4)
C5 C28 1.491(4)
C6 C7 1.424(4)
C7 C8 1.354(4)
C7 H7 0.9500
C8 C9 1.430(4)
C8 H8 0.9500
C9 C10 1.418(4)
C10 C11 1.404(4)
C10 C35 1.494(4)
C11 C12 1.443(4)
C12 C13 1.350(4)
C12 H12 0.9500
C13 C14 1.432(4)
C13 H13 0.9500
C14 C15 1.404(4)
C15 C16 1.421(4)
C15 C42 1.496(4)
C16 C17 1.442(4)
C17 C18 1.408(4)
C17 C49 1.443(4)
C18 C19 1.396(4)
C18 C20A 1.580(9)
C18 H18 0.9500
C20 C21 1.320(5)
C20 H20 0.9500
C21 C22B 1.493(6)
C21 H21 0.9500
C22B H22B 1.0000
C20A C21A 1.311(12)
C20A H20A 0.9500
C21A C22A 1.560(16)
C21A H21A 0.9500
C23B H23A 0.9800
C23B H23B 0.9800
C23B H23C 0.9800
C24B O2A 1.445(14)
C24B H24A 0.9800
C24B H24B 0.9800
C24B H24C 0.9800
C25 C26 1.348(4)
C25 H25 0.9500
C26 C27 1.426(4)
C26 H26 0.9500
C27 H27 0.9500
C28 C33 1.391(4)
C28 C29 1.395(4)
C29 C30 1.383(4)
C29 H29 0.9500
C30 C31 1.385(4)
C30 H30 0.9500
C31 C32 1.394(4)
C31 C34 1.508(4)
C32 C33 1.381(4)
C32 H32 0.9500
C33 H33 0.9500
C34 H34A 0.9800
C34 H34B 0.9800
C34 H34C 0.9800
C35 C40 1.377(4)
C35 C36 1.389(4)
C36 C37 1.381(4)
C36 H36 0.9500
C37 C38 1.371(5)
C37 H37 0.9500
C38 C39 1.380(5)
C38 C41 1.518(5)
C39 C40 1.372(4)
C39 H39 0.9500
C40 H40 0.9500
C41 H41A 0.9800
C41 H41B 0.9800
C41 H41C 0.9800
C42 C47 1.386(4)
C42 C43 1.387(4)
C43 C44 1.386(4)
C43 H43 0.9500
C44 C45 1.384(4)
C44 H44 0.9500
C45 C46 1.391(4)
C45 C48 1.508(4)
C46 C47 1.388(4)
C46 H46 0.9500
C47 H47 0.9500
C48 H48A 0.9800
C48 H48B 0.9800
C48 H48C 0.9800
C49 C50 1.345(4)
C49 H49 0.9500
C50 C51 1.429(5)
C50 H50 0.9500
C51 H51 0.9500
C52 H52A 0.9800
C52 H52B 0.9800
C52 H52C 0.9800
C22A O2A 1.410(14)
C22A O1A 1.422(13)
C22A H22A 1.0000
C23A O1A 1.447(19)
C23A H23D 0.9800
C23A H23E 0.9800
C23A H23F 0.9800
C24A H24D 0.9800
C24A H24E 0.9800
C24A H24F 0.9800
loop_
_geom_hbond_atom_site_label_D
_geom_hbond_atom_site_label_H
_geom_hbond_atom_site_label_A
_geom_hbond_distance_DH
_geom_hbond_distance_HA
_geom_hbond_distance_DA
_geom_hbond_angle_DHA
_geom_hbond_site_symmetry_A
_geom_hbond_publ_flag
O5 H5O O3 0.826(17) 1.898(18) 2.714(3) 170(3) 6_575 yes
