#------------------------------------------------------------------------------
#$Date: 2016-05-31 15:26:35 +0300 (Tue, 31 May 2016) $
#$Revision: 183182 $
#$URL: svn://www.crystallography.net/cod/cif/7/11/90/7119000.cif $
#------------------------------------------------------------------------------
#
# This file is available in the Crystallography Open Database (COD),
# http://www.crystallography.net/
#
# All data on this site have been placed in the public domain by the
# contributors.
#
data_7119000
loop_
_publ_author_name
'Ryo Nozawa'
'Keitaro Yamamoto'
'Ichiro Hisaki'
'Ji-Young Shin'
'Hiroshi Shinokubo'
_publ_section_title
;
 Ni^II^ tetrahydronorcorroles: antiaromatic porphyrinoids with saturated
 pyrrole units
;
_journal_name_full               Chem.Commun.
_journal_page_first              7106
_journal_volume                  52
_journal_year                    2016
_chemical_formula_moiety         'C37 H33 N5 Ni'
_chemical_formula_sum            'C37 H33 N5 Ni'
_chemical_formula_weight         606.40
_space_group_crystal_system      monoclinic
_space_group_IT_number           14
_space_group_name_Hall           '-P 2yab'
_space_group_name_H-M_alt        'P 1 21/a 1'
_symmetry_space_group_name_Hall  '-P 2yab'
_symmetry_space_group_name_H-M   'P 1 21/a 1'
_atom_sites_solution_hydrogens   geom
_atom_sites_solution_primary     direct
_atom_sites_solution_secondary   difmap
_audit_update_record
;
2016-01-08 deposited with the CCDC.
2016-05-03 downloaded from the CCDC.
;
_cell_angle_alpha                90.0000
_cell_angle_beta                 103.8436(4)
_cell_angle_gamma                90.0000
_cell_formula_units_Z            2
_cell_length_a                   7.08430(10)
_cell_length_b                   25.1223(2)
_cell_length_c                   8.23270(10)
_cell_measurement_reflns_used    18840
_cell_measurement_temperature    100
_cell_measurement_theta_max      28.739
_cell_measurement_theta_min      3.802
_cell_volume                     1422.65(3)
_computing_cell_refinement       HKL2000
_computing_data_collection       DENZO
_computing_data_reduction        HKL2000
_computing_molecular_graphics    'CrystalStructure 4.1.1'
_computing_publication_material  'CrystalStructure 4.1.1 (Rigaku, 2015)'
_computing_structure_refinement  'SHELXL Version 2014/7 (Sheldrick, 2008)'
_computing_structure_solution    'Superflip (Palatinus, et al., 2007)'
_diffrn_ambient_temperature      100
_diffrn_measured_fraction_theta_full 0.975
_diffrn_measured_fraction_theta_max 0.975
_diffrn_measurement_details
'1.00 degrees, -1.0 sec, detector distance 74.98 mm'
_diffrn_measurement_device_type  'CCD (MX225HE Rayonix)'
_diffrn_measurement_method       '\w scans'
_diffrn_radiation_type           synchrotron
_diffrn_radiation_wavelength     0.80000
_diffrn_reflns_av_R_equivalents  0.073
_diffrn_reflns_Laue_measured_fraction_full 0.975
_diffrn_reflns_Laue_measured_fraction_max 0.975
_diffrn_reflns_limit_h_max       8
_diffrn_reflns_limit_h_min       0
_diffrn_reflns_limit_k_max       30
_diffrn_reflns_limit_k_min       0
_diffrn_reflns_limit_l_max       9
_diffrn_reflns_limit_l_min       -9
_diffrn_reflns_number            18840
_diffrn_reflns_point_group_measured_fraction_full 0.975
_diffrn_reflns_point_group_measured_fraction_max 0.975
_diffrn_reflns_theta_full        28.685
_diffrn_reflns_theta_max         28.739
_diffrn_reflns_theta_min         3.802
_diffrn_standards_interval_count .
_diffrn_standards_number         0
_exptl_absorpt_coefficient_mu    0.000
_exptl_absorpt_correction_type   none
_exptl_crystal_colour            black
_exptl_crystal_density_diffrn    1.415
_exptl_crystal_density_method    'not measured'
_exptl_crystal_description       block
_exptl_crystal_F_000             636.00
_exptl_crystal_size_max          0.12
_exptl_crystal_size_mid          0.05
_exptl_crystal_size_min          0.03
_refine_diff_density_max         0.55
_refine_diff_density_min         -0.56
_refine_ls_extinction_method     none
_refine_ls_goodness_of_fit_ref   1.146
_refine_ls_hydrogen_treatment    constr
_refine_ls_number_parameters     208
_refine_ls_number_reflns         2532
_refine_ls_number_restraints     0
_refine_ls_R_factor_all          0.0590
_refine_ls_R_factor_gt           0.0589
_refine_ls_shift/su_max          0.000
_refine_ls_structure_factor_coef Fsqd
_refine_ls_weighting_details
'w = 1/[\s^2^(Fo^2^)+(0.0253P)^2^+6.4079P] where P=(Fo^2^+2Fc^2^)/3'
_refine_ls_weighting_scheme      calc
_refine_ls_wR_factor_gt          0.1381
_refine_ls_wR_factor_ref         0.1381
_reflns_Friedel_coverage         0.000
_reflns_Friedel_fraction_full    .
_reflns_Friedel_fraction_max     .
_reflns_number_gt                2522
_reflns_number_total             2532
_reflns_threshold_expression     F^2^>2.0\s(F^2^)
_cod_data_source_file            c6cc02918c2.cif
_cod_data_source_block           NorCor_CN
_cod_database_code               7119000
_shelx_res_file
;

    shelxl.res created by SHELXL-2014/7


TITL Template texray.inf
CELL  0.80000 7.08430 25.12230 8.23270 90.000 103.844 90.000
ZERR  2 0.00010 0.00020 0.00010 0.000 0.000 0.000
LATT 1
SYMM 1/2-X, 1/2+Y,    -Z
SFAC C H N NI
DISP C  0.004  0.002  9.49
DISP H 0.000  0.000  0.64
DISP N  0.008  0.004  19.35
DISP Ni 0.306  1.376  6204.76
UNIT 74 66 10 2
SHEL 99999.000000 0.831620
OMIT     -1   3   1
OMIT     -5  10   5
L.S. 30
FMAP 2
PLAN -25
WPDB -2
HTAB
BOND $H
CONF
LIST 4
TEMP 23.0
ACTA
WGHT    0.025300    6.407900
FVAR       3.02226
NI1   4    0.500000    0.500000    0.500000    10.50000    0.01473    0.00694 =
         0.01910    0.00380    0.00574   -0.00136
N1    3    0.700532    0.478254    0.659216    11.00000    0.02001    0.01044 =
         0.01865   -0.00108    0.01055   -0.00264
N2    3    0.342980    0.446330    0.527916    11.00000    0.01912    0.00618 =
         0.01710    0.00254    0.00729    0.00210
PART 1
N3    3    1.088668    0.372468    1.080116    10.50000    0.02672    0.01624 =
         0.02204    0.00613    0.00584   -0.00111
PART 0
C1    1    0.868844    0.507680    0.680040    11.00000    0.01986    0.00964 =
         0.01447    0.00072    0.00870   -0.00138
C2    1    1.008925    0.482148    0.805970    11.00000    0.01445    0.01488 =
         0.01578   -0.00091    0.00372   -0.00132
AFIX  43
H2    2    1.137087    0.492820    0.847658    11.00000   -1.20000
AFIX   0
C3    1    0.918363    0.437397    0.856908    11.00000    0.01936    0.01220 =
         0.01426    0.00150    0.00402   -0.00010
PART 2
AFIX  43
H3    2    0.976201    0.412911    0.938406    10.50000   -1.20000
AFIX   0
PART 0
C4    1    0.722500    0.436345    0.761364    11.00000    0.02032    0.00633 =
         0.01779   -0.00198    0.00972   -0.00065
C5    1    0.557001    0.399654    0.757571    11.00000    0.01822    0.00669 =
         0.01456   -0.00023    0.00868   -0.00157
C6    1    0.381672    0.404754    0.644035    11.00000    0.01978    0.00667 =
         0.01406   -0.00001    0.00781   -0.00034
C7    1    0.198558    0.371016    0.613678    11.00000    0.02106    0.00899 =
         0.01770   -0.00047    0.00570   -0.00294
AFIX  23
H7A   2    0.151110    0.368269    0.714544    11.00000   -1.20000
H7B   2    0.222882    0.335507    0.577114    11.00000   -1.20000
AFIX   0
C8    1    0.049199    0.401271    0.473119    11.00000    0.02010    0.00789 =
         0.01753   -0.00078    0.00837   -0.00565
AFIX  23
H8A   2    0.003638    0.378768    0.375888    11.00000   -1.20000
H8B   2   -0.061609    0.413358    0.513157    11.00000   -1.20000
AFIX   0
C9    1    0.164066    0.447386    0.432927    11.00000    0.01726    0.00818 =
         0.01659   -0.00149    0.00920   -0.00386
PART 1
C10   1    1.008299    0.401351    0.978563    10.50000    0.02215    0.01199 =
         0.01449   -0.00130    0.00543   -0.00331
PART 0
C11   1    0.588067    0.356429    0.886187    11.00000    0.01541    0.01154 =
         0.01354    0.00376    0.00470   -0.00283
C12   1    0.570755    0.368669    1.048975    11.00000    0.01823    0.01951 =
         0.01863    0.00018    0.00665   -0.00505
C13   1    0.603433    0.328094    1.168366    11.00000    0.01681    0.03721 =
         0.01369    0.00907    0.00531   -0.00094
AFIX  43
H13   2    0.592774    0.335825    1.276284    11.00000   -1.20000
AFIX   0
C14   1    0.650923    0.276996    1.131929    11.00000    0.01325    0.03274 =
         0.03086    0.02195    0.00613    0.00234
C15   1    0.669689    0.265765    0.970976    11.00000    0.01668    0.01606 =
         0.03872    0.01221    0.00722    0.00046
AFIX  43
H15   2    0.701306    0.231390    0.944922    11.00000   -1.20000
AFIX   0
C16   1    0.641971    0.305076    0.848219    11.00000    0.01681    0.01204 =
         0.02086    0.00302    0.00410   -0.00179
C17   1    0.516819    0.423471    1.095296    11.00000    0.04087    0.02675 =
         0.02328   -0.00797    0.01753   -0.00888
AFIX 137
H17A  2    0.379120    0.428481    1.055650    11.00000   -1.20000
H17B  2    0.584150    0.449545    1.045111    11.00000   -1.20000
H17C  2    0.552719    0.427410    1.214730    11.00000   -1.20000
AFIX   0
C18   1    0.679055    0.234283    1.263527    11.00000    0.02821    0.05581 =
         0.05781    0.04919    0.02272    0.01867
AFIX 137
H18A  2    0.554553    0.221982    1.274877    11.00000   -1.20000
H18B  2    0.750845    0.248482    1.368432    11.00000   -1.20000
H18C  2    0.749725    0.205117    1.231277    11.00000   -1.20000
AFIX   0
C19   1    0.673353    0.292296    0.678839    11.00000    0.03184    0.01443 =
         0.02598   -0.00213    0.00891    0.00300
AFIX 137
H19A  2    0.723114    0.256744    0.679111    11.00000   -1.20000
H19B  2    0.764947    0.316969    0.652177    11.00000   -1.20000
H19C  2    0.552103    0.294986    0.596713    11.00000   -1.20000
AFIX   0
HKLF 4

REM  Template texray.inf
REM R1 =  0.0589 for    2522 Fo > 4sig(Fo)  and  0.0590 for all    2532 data
REM    208 parameters refined using      0 restraints

END

WGHT      0.0268      6.3221

REM Instructions for potential hydrogen bonds
EQIV $1 x-1, y, z-1
HTAB C8 N3_$1

REM Highest difference peak  0.551,  deepest hole -0.561,  1-sigma level  0.093
Q1    1   0.3852  0.4977  0.3448  11.00000  0.05    0.55
Q2    1   0.3452  0.4989  0.4864  11.00000  0.05    0.53
Q3    1   0.8037  0.4986  0.5072  11.00000  0.05    0.49
Q4    1   0.4974  0.4503  0.4366  11.00000  0.05    0.36
Q5    1   0.6336  0.2489  1.3878  11.00000  0.05    0.35
Q6    1   0.2154  0.4985  0.3028  11.00000  0.05    0.35
Q7    1   0.9034  0.5004  0.5030  11.00000  0.05    0.34
Q8    1   0.5636  0.3756  0.8120  11.00000  0.05    0.31
Q9    1   0.0945  0.4262  0.4412  11.00000  0.05    0.31
Q10   1   0.3583  0.4391  0.9689  11.00000  0.05    0.31
Q11   1   0.3644  0.4394  0.7938  11.00000  0.05    0.31
Q12   1   0.6809  0.3313  0.8772  11.00000  0.05    0.30
Q13   1   0.6331  0.5729  0.4157  11.00000  0.05    0.30
Q14   1   1.1688  0.3410  1.1700  11.00000  0.05    0.29
Q15   1   0.6438  0.4367  1.1516  11.00000  0.05    0.29
Q16   1  -0.2597  0.4085  0.4679  11.00000  0.05    0.29
Q17   1   0.8784  0.5282  0.6263  11.00000  0.05    0.29
Q18   1  -0.0623  0.3998  0.3342  11.00000  0.05    0.29
Q19   1   0.8215  0.4550  0.8320  11.00000  0.05    0.29
Q20   1   0.4840  0.4599  0.9747  11.00000  0.05    0.29
Q21   1   0.3704  0.3510  0.5933  11.00000  0.05    0.28
Q22   1   0.6508  0.2213  0.6514  11.00000  0.05    0.28
Q23   1   0.3041  0.5353  0.2771  11.00000  0.05    0.28
Q24   1   0.4232  0.5328  0.4553  11.00000  0.05    0.27
Q25   1   0.7169  0.4724  0.8900  11.00000  0.05    0.27
;
_shelx_res_checksum              41963
_shelx_hkl_file
;
   0   0   2 7317.80  174.40
   0   0   4 1914.70   37.40
   0   0   523008.30  361.00
   0   0   622124.00  352.70
   0   0   7 6741.50  115.90
   0   0   8 6237.90  107.60
   0   0   9  363.50   15.10
   0   1   3  381.40    7.30
   0   1   4  839.90   13.50
   0   1   5 2730.20   39.70
   0   1   6 1098.80   17.90
   0   1   7  283.30    7.00
   0   1   8   22.20    2.70
   0   1   9 1109.90   22.20
   0   2   420091.80  264.00
   0   2   5 9260.40  110.80
   0   2   6 9070.10  110.10
   0   2   717386.70  202.40
   0   2   8 1333.90   19.70
   0   2   9   26.60    4.30
   0   3   0   80.20    3.20
   0   3   2 1537.40   20.70
   0   3   4 5712.00   68.70
   0   3   5 3067.40   41.80
   0   3   6  543.40   10.60
   0   3   7 5186.40   69.30
   0   3   8   61.60    4.10
   0   3   9 4288.70   69.70
   0   4   2  959.10   13.80
   0   4   3 5893.70   73.70
   0   4   417685.10  205.90
   0   4   511951.20  147.90
   0   4   628622.30  326.60
   0   4   7 1101.70   18.70
   0   4   8   77.20    5.60
   0   4   9  269.60   10.00
   0   5   0   27.90    1.80
   0   5   1 3019.80   38.90
   0   5   2 4693.90   63.00
   0   5   3 2950.50   40.40
   0   5   4  662.00   11.50
   0   5   5  255.70    7.20
   0   5   6 4416.60   62.10
   0   5   710417.10  133.30
   0   5   8  345.80    7.50
   0   5   9 1273.30   24.60
   0   6   0 6066.80  119.00
   0   6   2  407.10    8.70
   0   6   314924.80  187.00
   0   6   4  364.30    7.50
   0   6   5 5133.10   71.00
   0   6   622781.90  259.20
   0   6   7 3865.90   53.00
   0   6   8  414.90    9.70
   0   6   9 3263.80   55.90
   0   7   0   75.40    3.40
   0   7   1 3549.20   45.60
   0   7   2 4185.80   56.60
   0   7   3  804.40   13.00
   0   7   4   81.30    2.70
   0   7   5  214.60    5.00
   0   7   6 5136.80   67.20
   0   7   7  530.90   10.40
   0   7   8 1647.20   30.80
   0   7   9    5.20    4.80
   0   8   1 9509.60  110.80
   0   8   218609.50  299.40
   0   8   312051.90  141.00
   0   8   4 9953.50  119.60
   0   8   5 8496.00  103.60
   0   8   6 4215.50   53.90
   0   8   714178.10  158.60
   0   8   8 1822.20   28.10
   0   8   9 2442.50   40.10
   0   9   0    5.10    1.30
   0   9   1 1235.10   18.80
   0   9   2  581.30   11.90
   0   9   3 4137.70   57.50
   0   9   4 2279.60   33.00
   0   9   5  867.30   15.40
   0   9   6   82.70    3.20
   0   9   7  252.60    6.40
   0   9   8 1155.70   20.50
   0   9   9  668.80   12.50
   0  10   127605.70  635.70
   0  10   2  226.70    5.70
   0  10   3 2039.70   32.30
   0  10   4 7627.20   95.30
   0  10   5 8396.50  117.50
   0  10   625221.30  301.40
   0  10   7 9990.50  123.60
   0  10   8 2823.00   38.10
   0  10   9  789.50   16.10
   0  11   0    3.10    1.40
   0  11   114176.30  165.10
   0  11   2 5291.40   68.30
   0  11   3  540.70   11.40
   0  11   4  420.00    8.70
   0  11   5 4728.70   66.90
   0  11   6 1492.10   21.80
   0  11   7  298.70    8.30
   0  11   8   38.10    3.40
   0  11   9 1774.50   37.70
   0  12   011019.40  185.20
   0  12   1 8099.60   99.60
   0  12   2 2359.20   34.60
   0  12   311219.40  143.80
   0  12   412971.70  167.10
   0  12   5 9435.70  124.60
   0  12   6 9253.00  109.90
   0  12   7 5081.50   64.00
   0  12   8 3202.60   42.90
   0  12   9  744.50   19.50
   0  13   0   64.90    3.40
   0  13   1  198.30    4.70
   0  13   2   98.40    3.00
   0  13   3  146.30    4.30
   0  13   4 2552.00   41.60
   0  13   5  983.20   16.30
   0  13   612204.60  147.40
   0  13   7    7.80    2.10
   0  13   8    9.40    3.10
   0  13   9  189.80   17.60
   0  14   1  885.00   15.40
   0  14   2 6792.40   86.80
   0  14   310890.10  134.20
   0  14   4 1094.00   19.40
   0  14   517334.10  200.20
   0  14   6 2133.50   31.50
   0  14   7 2453.40   35.00
   0  14   8 2425.20   36.10
   0  14   9  177.30   14.00
   0  15   0   82.80    4.10
   0  15   1 1066.00   17.90
   0  15   2 1599.00   25.90
   0  15   3    9.70    1.40
   0  15   4  562.00   11.20
   0  15   5  552.00   11.80
   0  15   6 1620.50   26.80
   0  15   7  204.80    6.00
   0  15   8   38.20    5.30
   0  15   9 1292.30   38.70
   0  16   026102.60  485.50
   0  16   1 6783.50   86.00
   0  16   214698.30  173.70
   0  16   315026.90  177.70
   0  16   4 4358.10   62.70
   0  16   5 5744.60   75.70
   0  16   6 1128.40   18.40
   0  16   7 1005.40   23.00
   0  16   8  423.20   11.20
   0  17   0   30.40    2.60
   0  17   1 2801.50   42.00
   0  17   2  379.10    7.50
   0  17   3   61.10    2.80
   0  17   411722.20  139.50
   0  17   5 5427.50   75.30
   0  17   6  242.30    7.10
   0  17   7   65.10    4.10
   0  17   8  421.10   11.50
   0  18   017765.20  302.30
   0  18   124331.00  282.00
   0  18   210891.60  133.70
   0  18   321050.30  244.60
   0  18   421770.70  250.90
   0  18   5 2789.10   40.80
   0  18   6 4603.80   56.30
   0  18   7  366.30    9.30
   0  18   8 2234.80   51.00
   0  19   0    7.40    2.20
   0  19   1 3357.70   50.10
   0  19   2 1280.30   19.30
   0  19   3 1283.20   22.30
   0  19   4 1707.90   27.30
   0  19   5 1489.50   26.00
   0  19   6  760.40   15.40
   0  19   7   23.10    3.50
   0  19   8   18.60    7.10
   0  20   016308.80  274.00
   0  20   134455.70  395.30
   0  20   212499.10  137.60
   0  20   311372.20  136.00
   0  20   417464.70  205.40
   0  20   510532.20  130.20
   0  20   6 6412.50   77.20
   0  20   7  594.10   14.70
   0  20   8 2073.80   40.80
   0  21   0   29.80    3.00
   0  21   1 8559.60  109.70
   0  21   212413.30  152.40
   0  21   3  296.90    6.80
   0  21   4   20.40    2.20
   0  21   5   96.50    4.10
   0  21   6   16.80    2.70
   0  21   7   38.80    4.80
   0  21   8   46.60   14.40
   0  22   014452.60  252.20
   0  22   1 7765.20   98.60
   0  22   226124.30  304.70
   0  22   3 4100.10   58.00
   0  22   4 6342.00   81.10
   0  22   5 4377.70   58.50
   0  22   6  922.80   15.60
   0  22   7 1183.70   25.50
   0  23   0   27.00    3.30
   0  23   1  954.30   18.20
   0  23   2 5188.60   73.70
   0  23   3  123.30    4.30
   0  23   4  114.60    4.00
   0  23   5   58.40    3.70
   0  23   6 1236.30   22.40
   0  23   7  974.80   18.40
   0  24   0  270.20   10.80
   0  24   110842.20  143.60
   0  24   2 8657.40  104.90
   0  24   3  333.50    8.60
   0  24   4 1018.30   19.50
   0  24   5 3917.30   52.70
   0  24   6 1769.10   31.70
   0  25   0    9.40    2.80
   0  25   1  409.50    9.60
   0  25   2 2431.30   37.00
   0  25   3  215.00    6.60
   0  25   4   69.70    3.50
   0  25   5  303.00    7.20
   0  25   6  293.20   10.10
   0  26   0 3934.60   81.80
   0  26   1   64.80    3.70
   0  26   2 5479.50   68.90
   0  26   3 3983.20   53.60
   0  26   4 2050.40   34.20
   0  26   5 5004.60   79.60
   0  26   6  504.10   14.90
   0  27   0    4.90    3.80
   0  27   1 4409.40   51.00
   0  27   2  550.90   10.40
   0  27   3  422.50    9.60
   0  27   4 1304.80   26.60
   0  27   5   82.30    7.50
   0  27   6  356.60   23.70
   0  28   0  600.10   23.60
   0  28   1  917.60   17.40
   0  28   2  834.00   14.90
   0  28   3 3248.50   42.00
   0  28   4 2800.00   51.30
   0  28   5 6679.50  160.90
   0  29   0   46.40    5.90
   0  29   1 5235.80   67.10
   0  29   2  723.50   14.90
   0  29   3  161.40    8.20
   0  29   4   27.50    8.20
   0  30   018024.50  389.50
   0  30   1  497.50   15.60
   0  30   2 2145.00   55.40
   0  30   3  503.20   30.30
   1   0  -9    2.20    4.20
   1   0  -8    9.80    3.90
   1   0  -7   74.10    4.90
   1   0  -6   11.00    3.30
   1   0  -5   42.30    3.10
   1   0  -4  147.70    5.70
   1   0  -3    9.70    1.60
   1   0  -2    7.50    1.90
   1   0  -1   53.60    2.70
   1   0   0   21.50    1.30
   1   0   1   89.10    2.70
   1   0   2   11.20    1.70
   1   0   3  844.70   23.30
   1   0   4   43.30    1.70
   1   0   5   10.80    3.80
   1   0   6   10.70    4.70
   1   0   7  922.20   33.90
   1   0   8   89.30   11.00
   1   0   9   16.80   13.90
   1   1  -9 1232.50   20.90
   1   1  -812547.50  149.80
   1   1  -711437.80  134.90
   1   1  -6 5114.60   65.20
   1   1  -517183.50  198.30
   1   1  -4 3108.80   41.80
   1   1  -3 1649.00   29.60
   1   1   1 7024.30  129.20
   1   1   211978.50  193.50
   1   1   317720.00  334.60
   1   1   416652.00  241.60
   1   1   515491.70  210.10
   1   1   6  278.20   10.20
   1   1   7 8135.70  149.20
   1   1   8 4359.10   86.20
   1   1   9 1356.90   33.80
   1   2  -9 1147.00   21.50
   1   2  -8 3366.30   45.10
   1   2  -7  273.30    7.10
   1   2  -6  388.10    8.60
   1   2  -5    5.80    1.30
   1   2  -4 1177.00   17.70
   1   2  -3 5427.00   75.10
   1   2   0 3063.60   48.30
   1   2   2  191.30    3.20
   1   2   3  389.40    8.10
   1   2   4  574.60   11.40
   1   2   5 1701.20   29.20
   1   2   6 3496.30   54.40
   1   2   7 2132.40   48.10
   1   2   8 4179.40   74.70
   1   2   9  201.00    8.20
   1   3  -9 1602.80   23.70
   1   3  -8 5534.40   71.40
   1   3  -712406.00  150.40
   1   3  -6  212.20    5.90
   1   3  -5 5383.80   69.50
   1   3  -426310.60  378.60
   1   3  -3 6263.30   77.00
   1   3  -1  -11.20    2.90
   1   3   010039.40  232.40
   1   3   217141.80  387.60
   1   3   3 1264.20   17.40
   1   3   431111.50  487.80
   1   3   517860.80  235.90
   1   3   6 4324.40   65.00
   1   3   7 7142.40  111.30
   1   3   8 6531.40  118.90
   1   3   9 1709.30   38.70
   1   4  -9  646.10   18.30
   1   4  -8  164.30    5.50
   1   4  -7  323.20    7.20
   1   4  -6 3765.90   54.10
   1   4  -5 4622.90   63.30
   1   4  -4  266.50    6.50
   1   4  -3  457.30    9.20
   1   4  -1 1111.80   21.80
   1   4   1 7560.70  123.50
   1   4   2 1963.50   25.70
   1   4   3 6535.10   78.50
   1   4   4 8088.10   94.70
   1   4   5  423.60    9.50
   1   4   6 3541.90   55.40
   1   4   7 3627.40   55.00
   1   4   8 2462.30   55.10
   1   4   9  187.70   10.80
   1   5  -9 4471.50   57.80
   1   5  -8 6020.70   85.00
   1   5  -7 3708.70   51.20
   1   5  -613029.10  158.00
   1   5  -5 1307.20   21.30
   1   5  -4  828.00   15.20
   1   5   1 1338.80   17.80
   1   5   2 7717.70   90.40
   1   5   324389.50  571.60
   1   5   427937.20  438.70
   1   5   523483.40  311.10
   1   5   622016.10  355.40
   1   5   7  696.80   15.00
   1   5   8 2336.90   50.10
   1   5   9 3085.40   56.90
   1   6  -9   87.10    5.20
   1   6  -8 3462.60   49.70
   1   6  -7 1674.30   26.50
   1   6  -6 6002.30   77.30
   1   6  -5 3187.10   46.20
   1   6  -4 5990.20   80.90
   1   6  -3 6270.90   80.90
   1   6  -1  225.70    5.30
   1   6   1 6268.40   73.20
   1   6   2 1714.90   23.30
   1   6   3 4564.90   57.90
   1   6   416760.30  191.40
   1   6   5  848.00   13.80
   1   6   6  914.60   19.20
   1   6   7 2248.10   42.20
   1   6   8   57.60    4.60
   1   6   9   65.30    6.60
   1   7  -9 2190.00   31.80
   1   7  -813885.00  163.60
   1   7  -7 2599.70   36.30
   1   7  -611941.10  167.90
   1   7  -5  878.70   17.50
   1   7  -4 6458.20   82.60
   1   7  -337760.40 1161.00
   1   7  -1 1265.40   22.50
   1   7   0 1181.60   16.60
   1   7   3 7919.80   94.50
   1   7   423185.10  264.40
   1   7   517043.70  228.90
   1   7   6 1017.20   16.10
   1   7   7  472.40   12.00
   1   7   8  378.90   12.10
   1   7   9 2373.70   43.90
   1   8  -9  569.20   12.20
   1   8  -8  302.10    7.80
   1   8  -7 5523.30   70.80
   1   8  -6 1287.10   21.80
   1   8  -5  240.80    7.20
   1   8  -4  917.10   15.50
   1   8  -317837.10  207.30
   1   8  -2  173.20    4.40
   1   8  -112641.20  169.40
   1   8   0 1107.60   17.60
   1   8   1 6869.70   82.90
   1   8   2 9490.80  109.90
   1   8   3 2822.70   36.70
   1   8   4 4065.30   51.80
   1   8   5  390.70    8.30
   1   8   6 2355.60   33.10
   1   8   7   24.50    3.10
   1   8   8    8.30    4.80
   1   8   9  152.50   10.70
   1   9  -9  703.90   14.20
   1   9  -8 9844.90  117.70
   1   9  -711703.50  142.70
   1   9  -6 4915.20   62.80
   1   9  -5 6992.00  115.70
   1   9  -4  178.40    4.60
   1   9  -3  251.10    6.10
   1   9  -220895.50  261.30
   1   9  -115883.70  229.80
   1   9   0 4116.40   56.50
   1   9   1 7342.80   86.40
   1   9   2 2449.70   34.20
   1   9   313268.90  154.30
   1   9   410016.50  126.00
   1   9   5 2169.90   32.10
   1   9   6 1580.70   24.50
   1   9   7  775.10   16.80
   1   9   8 2237.70   39.80
   1   9   9 1088.80   22.90
   1  10  -9  357.90    9.50
   1  10  -8  639.40   13.10
   1  10  -7  520.00   10.80
   1  10  -6  161.00    4.90
   1  10  -5 2923.80   47.70
   1  10  -4 1481.60   25.30
   1  10  -3 7578.50   96.80
   1  10  -217196.30  195.40
   1  10  -1 5173.10   70.60
   1  10   0  313.30    6.70
   1  10   1 2605.50   36.00
   1  10   2 2938.80   40.10
   1  10   3 1230.80   18.40
   1  10   4 3621.70   49.60
   1  10   5   38.60    2.30
   1  10   6 5136.80   65.10
   1  10   7  127.20    4.80
   1  10   8   97.80    5.70
   1  10   9  722.10   24.30
   1  11  -9 3731.50   53.90
   1  11  -8 5496.30   69.60
   1  11  -7 5517.30   72.80
   1  11  -6 2254.50   37.00
   1  11  -5 1413.10   23.70
   1  11  -4 2050.50   31.90
   1  11  -317536.70  202.10
   1  11  -2  923.10   15.40
   1  11  -117757.00  218.30
   1  11   0 9005.80  114.30
   1  11   123428.40  347.30
   1  11   2  650.10   12.00
   1  11   3 7224.00   92.10
   1  11   4  742.60   13.40
   1  11   5 3385.60   49.60
   1  11   6  416.80    9.00
   1  11   7 1805.20   27.20
   1  11   8 2709.60   43.80
   1  11   9 1070.60   30.60
   1  12  -9  343.50   11.70
   1  12  -8 1060.70   17.50
   1  12  -7  163.70    5.10
   1  12  -6  107.40    4.30
   1  12  -5 1484.90   25.80
   1  12  -4 1547.80   24.80
   1  12  -3  351.20    7.50
   1  12  -2  370.20    7.60
   1  12  -1 3793.60   50.80
   1  12   0  202.60    4.70
   1  12   124004.40  455.60
   1  12   2  885.10   16.00
   1  12   3  148.00    3.70
   1  12   4  635.90   11.60
   1  12   5 1884.90   27.50
   1  12   6  333.50    7.60
   1  12   7  203.10    7.20
   1  12   8  252.70    8.20
   1  12   9 1131.50   40.00
   1  13  -9 1083.00   20.80
   1  13  -8 4027.90   57.90
   1  13  -7 4852.20   61.30
   1  13  -6  500.50   11.30
   1  13  -517448.00  209.40
   1  13  -4 1380.60   24.10
   1  13  -3 5594.00   73.70
   1  13  -239381.20  894.80
   1  13  -1 6293.60   82.20
   1  13   018382.10  209.20
   1  13   1 2189.70   31.60
   1  13   217728.70  205.90
   1  13   314666.90  188.50
   1  13   4 6064.40   84.30
   1  13   5 2170.10   32.00
   1  13   6 2366.40   34.00
   1  13   7 4258.10   59.90
   1  13   8 2835.00   50.80
   1  13   9  171.50   15.30
   1  14  -9 2204.70   40.40
   1  14  -8   53.70    4.30
   1  14  -7  267.30    7.30
   1  14  -6  198.90    5.70
   1  14  -5  299.00    7.50
   1  14  -4 3149.80   44.80
   1  14  -3  666.70   12.50
   1  14  -2  897.40   16.20
   1  14  -1 3256.10   45.80
   1  14   0 2487.20   37.20
   1  14   1 1823.90   27.70
   1  14   221820.00  251.40
   1  14   3  395.80    8.30
   1  14   4 4263.10   58.70
   1  14   5  298.70    7.50
   1  14   6  877.40   15.20
   1  14   7   99.30    5.50
   1  14   8   80.30    7.80
   1  14   9  352.50   21.60
   1  15  -9 1167.40   37.90
   1  15  -8 2772.30   38.30
   1  15  -7 4517.70   61.50
   1  15  -6 9128.70  115.40
   1  15  -5 2595.20   40.50
   1  15  -418645.90  220.30
   1  15  -311619.50  145.10
   1  15  -216920.00  201.20
   1  15  -123856.60  277.90
   1  15   0 8681.70  105.90
   1  15   1 1380.10   21.40
   1  15   241721.40 1377.30
   1  15   314055.40  207.50
   1  15   410278.70  122.50
   1  15   521686.80  243.90
   1  15   6  936.50   16.20
   1  15   7 2840.00   39.20
   1  15   8  388.50   18.20
   1  15   9 1429.90   44.90
   1  16  -9  198.40   19.50
   1  16  -8  389.90    8.90
   1  16  -7   31.70    3.20
   1  16  -6  556.10   12.70
   1  16  -515275.30  178.80
   1  16  -4 1069.70   19.50
   1  16  -3  347.20    7.60
   1  16  -2  138.30    4.00
   1  16  -1 6028.50   74.60
   1  16   0 5383.20   71.90
   1  16   1 2721.40   39.40
   1  16   2   52.70    2.80
   1  16   3  229.90    5.90
   1  16   4 1131.30   21.10
   1  16   5 1516.80   26.40
   1  16   6  620.60   13.90
   1  16   7   45.30    4.10
   1  16   8  497.90   16.80
   1  16   9  231.30   27.40
   1  17  -9 3608.70   98.00
   1  17  -8  132.80    5.70
   1  17  -7 2857.50   40.20
   1  17  -6 3716.90   52.30
   1  17  -5 6433.30   81.00
   1  17  -422487.80  261.80
   1  17  -3 8090.20  100.00
   1  17  -220174.10  238.00
   1  17  -110056.60  125.40
   1  17   0 1848.40   28.80
   1  17   1 7510.20   96.90
   1  17   214561.60  171.20
   1  17   317531.20  232.80
   1  17   420783.80  236.90
   1  17   5 1074.70   20.00
   1  17   6 7869.70   97.20
   1  17   7 6325.70   75.30
   1  17   8 2105.50   41.10
   1  18  -9  114.30   21.40
   1  18  -8 1815.30   29.40
   1  18  -7  298.20    8.80
   1  18  -6  993.10   19.20
   1  18  -5  779.80   15.10
   1  18  -4 3868.80   55.40
   1  18  -3 1883.10   30.00
   1  18  -2  211.10    4.80
   1  18  -1 4350.10   60.60
   1  18   0  553.70   11.70
   1  18   1 7693.00  101.40
   1  18   2 2925.20   46.70
   1  18   3  147.40    4.70
   1  18   4  731.30   15.20
   1  18   5  495.00   11.80
   1  18   6   67.30    4.20
   1  18   7  177.80    7.10
   1  18   8  369.80   22.20
   1  19  -8 2177.30   34.10
   1  19  -7 2499.90   29.90
   1  19  -6 2494.40   33.90
   1  19  -5 3430.80   53.50
   1  19  -411934.60  142.40
   1  19  -3 8940.80  112.20
   1  19  -2 2212.80   35.20
   1  19  -119858.50  232.00
   1  19   0 4865.50   71.70
   1  19   112520.00  152.00
   1  19   2  125.90    3.70
   1  19   3 6750.00   90.50
   1  19   4 5177.70   67.70
   1  19   5 1975.90   31.30
   1  19   6 2568.30   34.00
   1  19   7 6637.10   97.10
   1  19   8 2210.40   54.20
   1  20  -8   84.60    7.60
   1  20  -7  128.20    5.10
   1  20  -6   57.60    3.20
   1  20  -5 1054.80   18.20
   1  20  -4 1202.90   20.60
   1  20  -3   89.20    3.30
   1  20  -216099.60  196.90
   1  20  -1 3060.30   45.50
   1  20   0  365.80    9.00
   1  20   1   51.40    2.60
   1  20   2  463.30    9.90
   1  20   3  546.80   11.50
   1  20   4 2203.10   31.30
   1  20   5  561.50   14.10
   1  20   6  378.00   10.10
   1  20   7   91.00    8.00
   1  20   8  364.60   22.00
   1  21  -8  471.70   21.80
   1  21  -7 3212.40   50.20
   1  21  -6 4460.30   55.80
   1  21  -5 4087.60   56.00
   1  21  -4 6269.10   82.00
   1  21  -311021.00  134.90
   1  21  -2  308.80    7.40
   1  21  -1 3586.40   52.30
   1  21   010137.70  137.30
   1  21   1 2654.00   39.30
   1  21   2 9626.90  117.50
   1  21   3 5082.40   72.30
   1  21   4  563.40   12.50
   1  21   5  828.40   15.40
   1  21   6  455.40   11.60
   1  21   7 3309.80   62.70
   1  22  -7  167.00    8.80
   1  22  -6 2827.50   40.10
   1  22  -5 1869.40   30.60
   1  22  -4  273.30    6.80
   1  22  -3  874.80   14.50
   1  22  -2  985.80   17.80
   1  22  -114057.30  167.00
   1  22   0  113.20    4.10
   1  22   1  188.20    5.10
   1  22   2  200.70    5.30
   1  22   3  597.80   12.20
   1  22   4  521.00   10.90
   1  22   5  339.60    8.50
   1  22   6   34.50    4.90
   1  22   7   36.10    6.40
   1  23  -7 1733.00   37.30
   1  23  -6 7221.90   89.90
   1  23  -5 4751.60   69.60
   1  23  -4 3560.20   50.70
   1  23  -3 7240.00   89.70
   1  23  -2 6002.80   77.50
   1  23  -1  878.50   16.80
   1  23   0 6480.10   79.40
   1  23   119154.40  222.80
   1  23   2 4326.50   59.50
   1  23   310873.60  135.30
   1  23   4 3683.50   47.10
   1  23   5  514.70   11.20
   1  23   6 3763.80   62.90
   1  23   7  956.20   35.10
   1  24  -7   80.70    9.80
   1  24  -6 1727.10   32.10
   1  24  -5  171.90    6.00
   1  24  -4  285.20    7.10
   1  24  -3  169.50    5.10
   1  24  -2 4030.40   56.00
   1  24  -1 3639.70   48.10
   1  24   0 4093.30   57.80
   1  24   1 1560.00   24.80
   1  24   2  280.40    7.40
   1  24   3  340.00    7.60
   1  24   4   15.30    2.80
   1  24   5  475.80   11.40
   1  24   6  117.70    7.20
   1  24   7  545.80   26.00
   1  25  -7 3150.10   84.10
   1  25  -6 5418.90   97.50
   1  25  -5  484.70   11.00
   1  25  -4 2866.20   38.30
   1  25  -312580.90  149.00
   1  25  -2 6980.60   86.30
   1  25  -1 1697.00   27.30
   1  25   0 5643.30   77.20
   1  25   1 3735.00   48.00
   1  25   2 9831.50  119.60
   1  25   3 7325.10   88.10
   1  25   4 5871.30   72.00
   1  25   5 2242.70   34.90
   1  25   6 2987.70   45.80
   1  26  -6   48.00    8.70
   1  26  -5  144.50    6.50
   1  26  -4  936.60   16.70
   1  26  -3  347.90    8.90
   1  26  -2  126.90    5.00
   1  26  -1  869.70   15.80
   1  26   0 5739.00   75.60
   1  26   1  609.80   12.60
   1  26   2  443.10   10.20
   1  26   3  107.40    4.80
   1  26   4    7.60    3.30
   1  26   5 1151.60   24.20
   1  26   6  785.00   38.60
   1  27  -5 2751.70  105.40
   1  27  -4 2662.30   37.10
   1  27  -311115.60  138.20
   1  27  -2 5472.90   68.10
   1  27  -1  795.50   14.40
   1  27   0 5650.60   68.50
   1  27   1 2764.00   41.30
   1  27   2 4169.30   49.20
   1  27   3 7365.80   84.60
   1  27   4  332.70   10.30
   1  27   5 2441.60   56.30
   1  28  -4  360.10   12.30
   1  28  -3   93.10    4.60
   1  28  -2 2855.90   43.80
   1  28  -1  590.80   11.90
   1  28   0 1251.60   22.30
   1  28   1   49.50    3.70
   1  28   2  193.70    6.00
   1  28   3  401.10   12.60
   1  28   4  516.60   17.00
   1  28   5  480.90   18.90
   1  29  -3 1152.50   21.90
   1  29  -2  379.30   10.30
   1  29  -1 3279.60   49.00
   1  29   0 5938.60   73.70
   1  29   1  487.50   11.70
   1  29   2  906.70   21.50
   1  29   3 3282.60   94.20
   1  29   4 3995.40   80.60
   1  30  -2 1255.60   43.10
   1  30  -1  291.50   23.00
   1  30   0   85.40   10.20
   1  30   1  727.90   43.90
   1  30   2  338.40   32.30
   1  30   3   70.00   15.20
   1  31   0 1321.00   44.60
   1  31   1 3255.10  113.00
   1  31   2 2888.50  104.90
   2   0  -9 2547.30   56.60
   2   0  -8 1800.20   42.80
   2   0  -7  691.30   21.40
   2   0  -6  189.30    7.90
   2   0  -5 6931.30  150.20
   2   0  -4 6611.10  137.20
   2   0  -326736.60  844.90
   2   0  -120759.50  659.40
   2   0   1  510.30   10.60
   2   0   420463.90  484.60
   2   0   5 8002.90  281.40
   2   0   612643.50  326.20
   2   0   713835.60  322.00
   2   0   8 1935.90   61.70
   2   1 -10   99.80   16.10
   2   1  -9   69.40    4.50
   2   1  -8  208.60    6.20
   2   1  -7   75.50    3.90
   2   1  -6  706.50   15.10
   2   1  -5  597.30   12.20
   2   1  -4 4614.00   62.00
   2   1  -310966.50  133.20
   2   1  -2  194.70    5.00
   2   1  -113943.40  224.90
   2   1   2 4943.00   57.80
   2   1   3 1306.60   29.70
   2   1   4   25.20    2.50
   2   1   5  208.90    7.60
   2   1   6  375.50   12.80
   2   1   7 3187.30   70.00
   2   1   8   54.90    6.30
   2   1   9   82.70   12.80
   2   2 -10 6307.60  144.70
   2   2  -9 3992.00   54.20
   2   2  -8 2650.90   37.90
   2   2  -7   62.20    3.10
   2   2  -6 1779.00   27.90
   2   2  -5 6838.00   96.70
   2   2  -416825.50  197.50
   2   2  -3 2711.70   38.10
   2   2  -2 2396.40   37.20
   2   2  -1  683.80   11.10
   2   2   1 2946.60   38.90
   2   2   4 8595.70  149.40
   2   2   5 4256.70   79.50
   2   2   611245.00  185.40
   2   2   7 8979.70  162.50
   2   2   8 2065.80   45.40
   2   2   9 1692.60   41.60
   2   3 -10 2740.30   72.60
   2   3  -9  120.90    5.40
   2   3  -8  472.70    9.90
   2   3  -7   24.40    2.50
   2   3  -6 5346.90   80.80
   2   3  -5  106.20    3.60
   2   3  -4 1383.30   21.90
   2   3  -3  691.30   12.90
   2   3  -2 2090.90   31.20
   2   3  -1 7564.40   93.90
   2   3   0 9707.30  133.00
   2   3   1  547.80    7.80
   2   3   2  274.00    5.10
   2   3   3 2337.20   37.90
   2   3   4 1523.00   23.70
   2   3   5 1282.00   34.20
   2   3   6 6785.80  117.80
   2   3   7 2041.30   47.90
   2   3   8 2502.80   49.30
   2   3   9  168.10   12.10
   2   4 -10 8453.80  197.10
   2   4  -9 6680.00   81.00
   2   4  -8 3054.60   43.10
   2   4  -717812.40  205.30
   2   4  -6  343.30    8.40
   2   4  -5  266.00    6.40
   2   4  -4 1260.10   23.20
   2   4  -2 4384.40   59.10
   2   4  -127618.10  909.80
   2   4   010666.20  156.70
   2   4   2 7944.70   95.30
   2   4   312384.30  165.20
   2   4   4 9392.50  126.80
   2   4   5  286.90    7.40
   2   4   613873.50  293.20
   2   4   7   96.40    7.50
   2   4   8 1043.90   30.60
   2   4   9 1841.00   56.40
   2   5 -10  224.70   21.50
   2   5  -9  454.50   10.60
   2   5  -8 1594.80   26.40
   2   5  -7  432.90   10.60
   2   5  -6  197.50    5.70
   2   5  -5  188.30    5.40
   2   5  -4   34.50    2.10
   2   5  -318141.50  213.10
   2   5  -2 5770.90   79.00
   2   5  -1 1034.90   17.00
   2   5   0 3793.40   47.80
   2   5   1 3160.60   39.30
   2   5   2 2282.00   30.90
   2   5   3 4633.50   57.80
   2   5   4 6129.50   86.90
   2   5   5 1190.30   22.30
   2   5   6 1453.50   40.90
   2   5   7   54.50    5.40
   2   5   8 2827.80   56.40
   2   5   9 1256.50   29.50
   2   6  -9 9287.10  111.10
   2   6  -8 4876.80   67.50
   2   6  -7   85.00    4.60
   2   6  -614501.90  203.20
   2   6  -5   50.90    2.60
   2   6  -432418.60  422.90
   2   6  -2 6710.60   94.20
   2   6  -126424.50  891.50
   2   6   010464.90  129.70
   2   6   1 1832.10   24.70
   2   6   2 3403.80   41.80
   2   6   3 2273.10   31.10
   2   6   4 7658.30  107.70
   2   6   5 6353.30   89.50
   2   6   6  218.20    6.80
   2   6   7 5250.20   96.40
   2   6   8   52.40    7.30
   2   6   9  259.20   15.00
   2   7 -10  754.10   44.60
   2   7  -9  328.80    8.70
   2   7  -8  784.60   15.20
   2   7  -7  675.20   13.90
   2   7  -6 4068.80   60.10
   2   7  -5 1876.20   30.10
   2   7  -420392.10  245.90
   2   7  -3 8951.20  116.40
   2   7  -2 3285.60   51.00
   2   7  -1 8997.80  108.80
   2   7   0  376.90    7.90
   2   7   1   60.70    2.00
   2   7   213837.90  165.40
   2   7   3 2056.40   29.00
   2   7   4 3814.50   46.10
   2   7   5  443.50   11.20
   2   7   6 1649.20   26.80
   2   7   7    7.10    3.90
   2   7   8  995.60   26.80
   2   7   9  524.50   17.80
   2   8  -9 2672.70   36.20
   2   8  -8 1272.10   20.60
   2   8  -7 6803.90   85.60
   2   8  -6 5292.30   70.50
   2   8  -5 5189.60   72.50
   2   8  -211286.80  137.80
   2   8  -121333.90  281.00
   2   8   025927.40  875.00
   2   8   115426.00  202.50
   2   8   210576.60  133.20
   2   8   3 7214.90   93.90
   2   8   4 4370.80   56.90
   2   8   5 3974.20   62.50
   2   8   6 1899.00   39.00
   2   8   7 5755.70   88.30
   2   8   8  948.60   24.10
   2   8   9  110.70   16.30
   2   9  -9  670.70   13.10
   2   9  -8  656.20   13.10
   2   9  -7 1873.90   31.50
   2   9  -6 3597.50   49.20
   2   9  -5  395.90    8.60
   2   9  -4 8472.80  109.90
   2   9  -3 5917.70   86.50
   2   9  -211775.10  140.40
   2   9  -1 2834.40   38.90
   2   9   016928.80  206.40
   2   9   1   21.20    1.30
   2   9   2 1113.60   18.10
   2   9   315225.60  175.10
   2   9   4   75.40    3.50
   2   9   5  286.50    6.20
   2   9   6  809.30   18.30
   2   9   7  510.80   11.40
   2   9   8  354.80    9.80
   2   9   9  556.80   25.30
   2  10 -10 1257.40   40.50
   2  10  -9 1815.70   25.00
   2  10  -8 1956.80   32.10
   2  10  -7 9854.00  125.20
   2  10  -6 5740.00   79.50
   2  10  -5 9372.80  124.00
   2  10  -316738.50  216.20
   2  10  -212150.70  156.30
   2  10   117103.40  192.40
   2  10   224211.70  311.90
   2  10   312900.30  163.70
   2  10   410979.00  131.20
   2  10   5  362.60    8.60
   2  10   6  138.80    6.30
   2  10   7 2151.00   44.30
   2  10   8 5391.30   90.10
   2  10   9  563.80   27.10
   2  11  -9  197.10    8.00
   2  11  -8   62.70    4.00
   2  11  -7  996.70   21.40
   2  11  -6 9104.70  117.30
   2  11  -5 1081.90   18.20
   2  11  -4 4988.50   64.40
   2  11  -3 4482.40   62.60
   2  11  -2 5397.30   80.10
   2  11  -1  354.70    7.20
   2  11   013793.40  159.20
   2  11   1 1602.20   24.10
   2  11   2 7208.80   93.60
   2  11   3 2120.40   30.30
   2  11   4  296.20    7.10
   2  11   5 5721.80   84.50
   2  11   6  216.40    7.10
   2  11   7  276.70    9.30
   2  11   8   75.00    7.80
   2  12  -9 1883.40   28.60
   2  12  -8 4186.90   54.00
   2  12  -7 2805.80   40.10
   2  12  -6 5310.00   71.40
   2  12  -533074.90  377.00
   2  12  -4 9607.90  123.30
   2  12  -329618.60  361.00
   2  12  -2   32.20    4.50
   2  12  -1 5636.90   71.60
   2  12   033823.30  625.60
   2  12   140789.50  741.30
   2  12   221538.00  264.00
   2  12   3 6178.20   78.60
   2  12   4 2094.50   38.20
   2  12   5  179.20    5.50
   2  12   6 5803.20   67.00
   2  12   7 3705.90   70.00
   2  12   8 1855.40   37.20
   2  13  -9  652.60   16.70
   2  13  -8  172.60    5.90
   2  13  -7   91.00    3.80
   2  13  -614425.10  172.10
   2  13  -5 1802.70   30.40
   2  13  -4 6281.90   84.70
   2  13  -314092.10  176.30
   2  13  -2  175.30    5.30
   2  13  -1  507.20   11.30
   2  13   0   72.00    2.70
   2  13   1 5665.60   74.10
   2  13   2  712.50   13.20
   2  13   3  105.40    3.50
   2  13   4 1544.80   23.40
   2  13   5 3945.30   55.80
   2  13   6  133.00    6.20
   2  13   7  524.10   14.00
   2  13   8   78.80    9.10
   2  14  -9 1387.50   28.80
   2  14  -8 2480.40   31.90
   2  14  -7 2608.80   41.50
   2  14  -6 4831.40   64.80
   2  14  -5 9451.00  119.60
   2  14  -4 1308.80   22.60
   2  14  -310395.70  130.60
   2  14  -224842.80  291.50
   2  14  -1 4161.40   61.10
   2  14   0 6508.50   85.50
   2  14   1 3734.80   50.70
   2  14   210058.50  130.70
   2  14   3 4271.10   55.90
   2  14   4  232.50    5.70
   2  14   511752.60  134.60
   2  14   6 2033.10   31.00
   2  14   7 2167.80   34.20
   2  14   8  128.10   12.70
   2  15  -9 1198.50   26.50
   2  15  -8  752.40   13.90
   2  15  -7  238.80    6.80
   2  15  -6 5131.90   70.40
   2  15  -5 3007.10   44.90
   2  15  -4 1453.00   23.70
   2  15  -3  578.70   11.80
   2  15  -2  800.20   14.50
   2  15  -1   14.60    1.70
   2  15   0 2674.10   38.60
   2  15   1  133.10    3.80
   2  15   2 2340.20   32.30
   2  15   3   47.80    2.20
   2  15   4  856.70   14.60
   2  15   5 3759.90   50.40
   2  15   6  290.00    9.90
   2  15   7   80.20    5.40
   2  16  -9 4160.00   85.90
   2  16  -8  384.90    8.90
   2  16  -7  595.80   12.60
   2  16  -6 3335.40   50.30
   2  16  -5 4342.90   60.40
   2  16  -4 3602.40   54.80
   2  16  -3 3561.30   50.10
   2  16  -210707.00  127.60
   2  16  -1 1244.40   23.20
   2  16   0 1536.50   23.50
   2  16   1 2961.60   40.80
   2  16   2 7203.00   88.50
   2  16   3 3855.10   53.10
   2  16   4  204.10    6.10
   2  16   514000.80  168.50
   2  16   6 9733.20  115.00
   2  16   7 3478.60   47.60
   2  16   8  228.80   17.80
   2  17  -9 1342.80   36.60
   2  17  -8  185.30    8.10
   2  17  -7   49.80    3.60
   2  17  -6  106.10    4.30
   2  17  -5 2011.30   34.10
   2  17  -4 7348.40   98.60
   2  17  -3  676.20   13.00
   2  17  -2  275.00    6.60
   2  17  -1 2956.70   49.20
   2  17   0 2664.90   40.10
   2  17   1 1773.30   27.30
   2  17   2   31.60    2.30
   2  17   3 5535.70   68.30
   2  17   4   76.90    3.40
   2  17   5  321.90    8.10
   2  17   6 1762.70   28.80
   2  17   7 2869.30   49.10
   2  18  -9 1485.00   48.40
   2  18  -8 2186.70   36.30
   2  18  -7  748.30   12.80
   2  18  -6 1075.40   20.00
   2  18  -511257.70  135.40
   2  18  -4  129.10    4.50
   2  18  -3   77.20    3.00
   2  18  -2 5496.20   72.60
   2  18  -1  805.40   15.60
   2  18   0 3649.50   54.40
   2  18   137201.00  482.70
   2  18   2 1712.00   28.40
   2  18   3 7012.60   86.50
   2  18   4 9277.80  121.70
   2  18   5  691.20   14.60
   2  18   615658.00  174.10
   2  18   7 2863.00   55.90
   2  19  -8  251.00   11.70
   2  19  -7   14.50    2.40
   2  19  -6   50.30    3.40
   2  19  -5  234.50    6.40
   2  19  -4 1064.10   19.20
   2  19  -3 2986.30   43.10
   2  19  -2  117.50    4.00
   2  19  -1 1353.30   25.80
   2  19   0  875.70   16.20
   2  19   1  386.90    8.10
   2  19   2 1512.60   23.10
   2  19   3 2205.30   29.60
   2  19   4  827.80   14.80
   2  19   5 1869.60   31.20
   2  19   6  602.30   12.90
   2  19   7 2335.70   46.50
   2  20  -8 4028.60   65.60
   2  20  -7  382.80    8.80
   2  20  -6 5184.30   69.20
   2  20  -5 1355.10   23.80
   2  20  -4 6025.00   80.40
   2  20  -3  559.40   10.50
   2  20  -2 2986.50   46.10
   2  20  -116055.00  205.10
   2  20   010866.10  140.00
   2  20   1 7644.40   92.60
   2  20   234050.10  387.60
   2  20   3 4001.50   53.30
   2  20   4 7336.00   88.10
   2  20   5 3163.90   49.80
   2  20   6 2456.90   34.50
   2  20   7 4360.80   78.20
   2  21  -7  117.90    6.10
   2  21  -6 1460.40   21.40
   2  21  -5  262.70    6.70
   2  21  -4  414.70    9.30
   2  21  -3 3108.60   43.30
   2  21  -2  760.10   15.70
   2  21  -1 1065.10   20.50
   2  21   0  887.20   17.90
   2  21   1 4300.20   61.40
   2  21   2 4376.00   64.30
   2  21   3   30.20    2.50
   2  21   4  235.90    7.30
   2  21   5   48.00    4.00
   2  21   6  487.40   13.00
   2  22  -8  270.40   16.30
   2  22  -7  844.40   16.90
   2  22  -6 3532.00   48.10
   2  22  -5 7435.90   93.80
   2  22  -410264.50  126.90
   2  22  -3  691.70   13.60
   2  22  -2  379.10    9.10
   2  22  -1 1126.60   20.60
   2  22   0 9024.10  110.40
   2  22   117960.20  225.00
   2  22   2 9910.30  127.60
   2  22   3 1906.60   29.50
   2  22   4 3380.60   46.80
   2  22   5 5052.90   68.30
   2  22   6 2319.80   37.80
   2  23  -7   74.60    9.40
   2  23  -6  356.40    7.60
   2  23  -5  306.10    7.50
   2  23  -4 1337.80   22.30
   2  23  -3   67.30    3.60
   2  23  -2  816.10   15.50
   2  23  -1 6896.00   98.20
   2  23   0  968.10   17.90
   2  23   1  135.20    5.50
   2  23   2  631.80   11.90
   2  23   3  140.50    4.50
   2  23   4   18.70    3.10
   2  23   5  114.60    5.70
   2  23   6 1379.90   28.80
   2  24  -7 3024.40   77.50
   2  24  -6 2558.70   40.60
   2  24  -5 2374.20   38.90
   2  24  -4 7884.60   94.80
   2  24  -3 2791.40   40.00
   2  24  -210496.70  127.40
   2  24  -1 1584.30   27.40
   2  24   0 3745.90   52.60
   2  24   1 5265.70   76.60
   2  24   2 1534.40   25.20
   2  24   3 1118.90   18.50
   2  24   4 1983.00   28.70
   2  24   5 4210.40   65.60
   2  24   6  326.40   21.80
   2  25  -6  200.80   16.80
   2  25  -5  103.00    4.70
   2  25  -4  227.60    6.60
   2  25  -3   89.20    4.60
   2  25  -2   19.30    2.30
   2  25  -1  347.50    8.60
   2  25   0  235.60    6.40
   2  25   1  134.30    4.40
   2  25   2  394.10    9.50
   2  25   3 1897.00   28.10
   2  25   4   69.30    4.80
   2  25   5  103.50    7.70
   2  26  -5 4637.00   95.80
   2  26  -4 2927.00   39.50
   2  26  -3 6499.40   79.10
   2  26  -2  937.60   16.90
   2  26  -111147.10  133.80
   2  26   0 2598.50   37.90
   2  26   1 9017.00  110.60
   2  26   2 5134.30   64.20
   2  26   3  296.00    8.20
   2  26   4  411.80   12.60
   2  26   5 4125.40   84.90
   2  27  -4  782.50   17.60
   2  27  -3   54.80    3.30
   2  27  -2  619.20   13.30
   2  27  -1  436.40    9.60
   2  27   0  291.80    8.10
   2  27   1  172.40    5.90
   2  27   2  206.00    7.10
   2  27   3  927.50   22.30
   2  27   4  764.00   22.50
   2  28  -4  824.90   74.90
   2  28  -3 3253.70   64.80
   2  28  -2 7427.40   91.10
   2  28  -1 6121.20   81.60
   2  28   0 8644.50  102.10
   2  28   1 4093.60   52.00
   2  28   2 4359.90   62.50
   2  28   3  607.30   19.50
   2  28   4 1141.30   29.90
   2  29  -3   60.20    9.00
   2  29  -2 1221.80   35.50
   2  29  -1   37.00    6.70
   2  29   0  271.60   12.10
   2  29   1 1069.30   29.70
   2  29   2   28.00    7.90
   2  29   3  177.00   10.60
   2  30  -1 5293.20  121.30
   2  30   0 5158.60  139.50
   2  30   1 3247.60   85.60
   2  30   2 4811.60  162.60
   2  31   0 3043.90   88.60
   2  31   1  143.70   18.50
   2  31   2  242.10   23.40
   3   0 -10   50.40   13.20
   3   0  -9   14.90    3.70
   3   0  -8    5.60    3.50
   3   0  -7    7.20    2.80
   3   0  -6   55.60    4.10
   3   0  -5   11.00    2.20
   3   0  -4    4.20    1.80
   3   0  -3   74.60    4.40
   3   0  -2   10.70    1.70
   3   0  -1  447.30   11.70
   3   0   0   33.50    1.80
   3   0   1   66.30    3.30
   3   0   2    4.90    1.50
   3   0   3    9.60    1.10
   3   0   4   34.10    3.90
   3   0   5  121.10    9.00
   3   0   6   65.10    8.30
   3   0   7  236.30   14.20
   3   0   8  146.20   14.20
   3   1 -10 2687.30   75.90
   3   1  -9 2675.00   37.60
   3   1  -8  944.50   17.60
   3   1  -7  330.30    9.00
   3   1  -6 2461.60   39.50
   3   1  -5 9328.70  116.20
   3   1  -4 8087.10   98.40
   3   1  -310152.30  125.10
   3   1  -2 7031.10   84.50
   3   1  -110676.20  127.80
   3   1   0 1353.10   18.90
   3   1   1 8875.00  111.00
   3   1   219463.50  273.40
   3   1   3 1092.40   17.30
   3   1   4 1201.40   30.80
   3   1   5 6225.70  112.30
   3   1   6 2884.20   56.20
   3   1   7 2137.90   43.90
   3   1   8  942.30   29.30
   3   1   9  362.30   21.80
   3   2 -10 1334.70   32.70
   3   2  -9  795.60   14.10
   3   2  -8 1621.60   25.50
   3   2  -7  224.20    6.70
   3   2  -6   79.70    3.20
   3   2  -5   60.00    2.60
   3   2  -4 7596.30   99.70
   3   2  -311813.00  141.10
   3   2  -2 1858.40   28.80
   3   2  -1 4017.30   53.40
   3   2   0 9442.60  129.20
   3   2   127843.50  921.70
   3   2   2  136.80    3.30
   3   2   3  446.30    9.70
   3   2   4  314.10    9.80
   3   2   5  368.90   12.30
   3   2   6  173.30    9.20
   3   2   7 3120.60   62.60
   3   2   8    8.60    6.30
   3   3 -10 1203.00   29.40
   3   3  -9  769.80   15.90
   3   3  -8   67.90    3.60
   3   3  -7 3933.90   53.70
   3   3  -610543.10  125.20
   3   3  -513230.60  160.60
   3   3  -4 2003.30   31.40
   3   3  -3 6802.50   84.20
   3   3  -215127.60  173.90
   3   3  -1 3241.30   41.90
   3   3   018622.30  281.10
   3   3   1 7784.80  106.50
   3   3   214476.90  162.80
   3   3   313186.40  150.60
   3   3   4 3249.80   51.90
   3   3   510951.10  181.60
   3   3   6 8542.10  145.70
   3   3   7 1446.00   41.10
   3   3   8 2697.00   54.40
   3   3   9  501.80   35.40
   3   4 -10  428.20   16.40
   3   4  -9   18.30    3.30
   3   4  -8 1618.60   24.80
   3   4  -7   83.20    4.20
   3   4  -6  200.40    6.80
   3   4  -5 1485.50   24.50
   3   4  -4 2216.90   31.40
   3   4  -3 4952.00   67.60
   3   4  -2 1727.20   24.40
   3   4  -1 1105.60   18.40
   3   4   014267.20  210.40
   3   4   1 7068.40  101.60
   3   4   2  153.60    3.40
   3   4   3 5023.50   61.30
   3   4   4  959.40   16.10
   3   4   5  289.40   11.00
   3   4   6  533.00   16.40
   3   4   7  236.60   11.50
   3   4   8  339.10   14.30
   3   5 -10  622.50   21.70
   3   5  -9 1378.50   23.60
   3   5  -8 4036.90   54.20
   3   5  -7 7248.30  102.10
   3   5  -6 2112.00   33.60
   3   5  -5 8184.50  102.60
   3   5  -415263.30  178.60
   3   5  -3 6451.20   83.90
   3   5  -125385.20  417.20
   3   5   0  137.80    4.50
   3   5   150562.20 1583.80
   3   5   216153.80  195.10
   3   5   3 3561.70   45.00
   3   5   430005.00  473.80
   3   5   5 6893.60  118.80
   3   5   6 4692.00  103.50
   3   5   7 2582.30   66.80
   3   5   8 2114.70   49.80
   3   5   9  561.40   28.30
   3   6 -10  186.70   12.50
   3   6  -9  431.90   10.60
   3   6  -8 1023.00   16.90
   3   6  -7  192.70    5.80
   3   6  -6 2361.50   35.80
   3   6  -5 2450.30   38.10
   3   6  -4  201.20    5.20
   3   6  -3 6637.70   83.70
   3   6  -217490.60  200.70
   3   6  -120421.20  271.90
   3   6   0 2749.20   35.50
   3   6   123603.10  334.70
   3   6   2 4264.80   55.70
   3   6   3 2000.10   30.40
   3   6   4 2983.60   48.00
   3   6   5  139.40    4.80
   3   6   6  562.50   16.00
   3   6   7 2363.20   48.70
   3   6   8  286.50   12.60
   3   7 -10  118.60   13.30
   3   7  -9 2242.90   30.70
   3   7  -815825.50  185.90
   3   7  -7  124.30    4.40
   3   7  -623696.90  295.00
   3   7  -513500.20  171.90
   3   7  -4 4155.80   59.90
   3   7  -3 6491.90   88.60
   3   7  -229519.50  553.80
   3   7  -127633.10  444.80
   3   7   1 8262.10  118.60
   3   7   210124.80  116.00
   3   7   3 3631.00   47.00
   3   7   410501.00  152.10
   3   7   5 7431.20  108.00
   3   7   6 9499.30  153.30
   3   7   7 5197.80   90.50
   3   7   8  573.70   25.00
   3   8 -10  107.60   21.70
   3   8  -9  252.90    7.40
   3   8  -8 1160.60   20.30
   3   8  -7  420.00    9.80
   3   8  -6 2583.30   41.80
   3   8  -5   91.30    3.50
   3   8  -4 1933.60   29.00
   3   8  -3  796.60   14.20
   3   8  -2 4383.70   60.10
   3   8  -1 1224.90   20.10
   3   8   0  813.00   13.90
   3   8   1  284.80    6.20
   3   8   2 1234.70   18.50
   3   8   3   79.00    2.80
   3   8   4 5042.80   65.20
   3   8   5   34.60    3.50
   3   8   6  147.90    5.80
   3   8   7   62.50    6.20
   3   8   8  541.00   27.40
   3   9 -10 2487.80   48.20
   3   9  -9 4369.30   57.80
   3   9  -811308.90  135.00
   3   9  -7 7416.40  104.80
   3   9  -6 1727.50   30.60
   3   9  -527078.00  310.80
   3   9  -430009.50  346.90
   3   9  -3 5915.30   79.60
   3   9  -2 5360.10   75.60
   3   9  -138295.40  610.20
   3   9   0 5393.10   67.50
   3   9   110767.20  134.90
   3   9   2 1128.60   17.00
   3   9   322702.30  255.90
   3   9   4 9252.70  107.30
   3   9   5 1678.90   30.40
   3   9   6 1960.60   30.90
   3   9   7 3768.00   64.80
   3   9   8  840.60   25.20
   3  10 -10   95.90   12.30
   3  10  -9   89.40    4.90
   3  10  -8  851.60   18.60
   3  10  -7 8539.90  113.60
   3  10  -6 6536.10   84.10
   3  10  -5  261.70    7.00
   3  10  -4  223.50    5.60
   3  10  -3 9386.20  122.50
   3  10  -2 4104.20   58.70
   3  10  -1 1041.50   17.80
   3  10   0  486.30    9.50
   3  10   1  239.30    6.70
   3  10   2    9.00    1.10
   3  10   3  897.90   16.10
   3  10   4 3058.40   40.40
   3  10   5  436.30   11.60
   3  10   6  403.10   10.50
   3  10   7 1510.70   29.20
   3  10   8  137.10   14.90
   3  11 -10 1537.70   73.10
   3  11  -9 1176.70   24.20
   3  11  -8 3871.70   52.70
   3  11  -7 9866.40  121.40
   3  11  -6 8295.90  107.30
   3  11  -551275.00  720.30
   3  11  -410851.20  133.90
   3  11  -3 2609.20   39.60
   3  11  -216904.60  215.40
   3  11  -1 2605.40   37.80
   3  11   0 7014.40   90.60
   3  11   1 5142.30   66.30
   3  11   2 6145.30   77.50
   3  11   315363.20  177.60
   3  11   4 9184.80  108.80
   3  11   5 2632.30   44.30
   3  11   6 3568.50   52.70
   3  11   7  391.60   13.40
   3  12  -9  128.70    8.20
   3  12  -8   50.70    3.70
   3  12  -7  568.90   13.00
   3  12  -6 5628.50   76.80
   3  12  -532746.50  414.70
   3  12  -4 3916.60   58.30
   3  12  -3   64.10    3.90
   3  12  -2 3041.70   45.40
   3  12  -1 1187.10   19.30
   3  12   0 5748.80   77.10
   3  12   1  878.70   15.00
   3  12   2 1093.00   19.30
   3  12   3  345.30    6.80
   3  12   4 7471.90   92.80
   3  12   5 4175.00   57.40
   3  12   6  247.10    9.40
   3  12   7  218.20    9.90
   3  13 -10  208.60   16.00
   3  13  -9 1494.00   34.90
   3  13  -8 1505.60   22.80
   3  13  -7 6963.90   90.80
   3  13  -610072.80  131.00
   3  13  -512259.00  150.90
   3  13  -4 2467.40   37.20
   3  13  -311345.90  143.30
   3  13  -2 4399.50   62.00
   3  13  -110414.70  126.20
   3  13   014209.40  171.60
   3  13   114882.10  174.30
   3  13   2 2059.80   30.30
   3  13   3 5292.30   66.30
   3  13   4 6696.80   91.70
   3  13   513975.80  158.00
   3  13   6 3082.40   55.50
   3  13   7  789.30   23.40
   3  14  -9  623.60   17.30
   3  14  -8   22.20    2.90
   3  14  -7  114.80    4.70
   3  14  -617278.70  207.70
   3  14  -5 1476.90   25.10
   3  14  -4  525.90   12.00
   3  14  -3   81.60    3.30
   3  14  -2   88.30    4.50
   3  14  -1   89.10    3.00
   3  14   0 1781.00   24.90
   3  14   1 2034.60   30.70
   3  14   2 2151.10   33.20
   3  14   3 2897.60   39.20
   3  14   4 9682.40  116.40
   3  14   5 1648.40   28.80
   3  14   6  348.50   10.20
   3  14   7   23.70   13.00
   3  15  -9  831.30   28.90
   3  15  -8  760.30   15.70
   3  15  -7 5881.70   77.80
   3  15  -611574.80  140.20
   3  15  -5 3284.80   48.40
   3  15  -4  144.10    6.40
   3  15  -3 7791.40  109.60
   3  15  -218517.60  255.40
   3  15  -114066.70  171.00
   3  15   020799.60  243.40
   3  15   1 1210.90   22.60
   3  15   223976.00  271.00
   3  15   3  164.60    4.90
   3  15   4 2164.40   33.60
   3  15   519632.00  231.30
   3  15   6 2647.20   41.90
   3  15   7 1700.50   35.80
   3  16  -9  619.80   20.50
   3  16  -8 3746.60   50.60
   3  16  -7  245.20    7.90
   3  16  -6  160.50    5.40
   3  16  -5 2911.20   43.40
   3  16  -4 1377.60   23.50
   3  16  -3   54.50    3.00
   3  16  -2  816.20   18.10
   3  16  -1 2870.50   41.70
   3  16   0   56.10    2.50
   3  16   1 5687.50   73.50
   3  16   2 8429.50  106.20
   3  16   3 1232.70   19.20
   3  16   4  189.00    5.40
   3  16   5 5571.90   75.40
   3  16   6  501.30   10.80
   3  16   7  120.20   16.90
   3  17  -8  389.40   12.80
   3  17  -7 4339.20   52.30
   3  17  -6 5520.70   70.70
   3  17  -5 1001.50   16.90
   3  17  -4   61.80    3.10
   3  17  -3 2714.10   43.60
   3  17  -2 6137.00   87.40
   3  17  -115641.80  193.50
   3  17   017462.00  202.10
   3  17   115394.30  183.10
   3  17   2  227.40    6.30
   3  17   3  387.30    9.30
   3  17   4 3247.50   47.20
   3  17   5 9425.60  115.40
   3  17   6 4860.50   72.30
   3  18  -9 1409.80   44.10
   3  18  -8  198.50   10.50
   3  18  -7  102.60    5.10
   3  18  -6 1896.80   28.80
   3  18  -5 1574.40   26.20
   3  18  -4 1079.60   20.00
   3  18  -3  665.90   14.00
   3  18  -2  191.50    5.60
   3  18  -1 2067.80   32.60
   3  18   0  120.10    3.70
   3  18   1  384.40    8.20
   3  18   2 6390.80   81.20
   3  18   3 1553.40   26.10
   3  18   4  444.20    9.80
   3  18   5 2020.90   31.10
   3  18   6  690.90   15.60
   3  19  -8  639.80   24.40
   3  19  -7 2930.60   37.40
   3  19  -6 4353.20   57.00
   3  19  -5 1797.80   28.80
   3  19  -4 2414.20   34.80
   3  19  -3 3042.70   45.90
   3  19  -2 3283.40   47.50
   3  19  -1 6641.80   86.90
   3  19   0 3491.00   47.40
   3  19   1  890.80   15.20
   3  19   2 3998.90   54.30
   3  19   3 5015.60   71.90
   3  19   4 4832.20   62.00
   3  19   5  355.10   10.80
   3  19   6 1163.90   22.10
   3  20  -8 2005.00   54.60
   3  20  -7   85.30    4.70
   3  20  -6 1227.40   20.20
   3  20  -5  187.50    6.00
   3  20  -4   24.30    2.60
   3  20  -3   79.80    3.30
   3  20  -2 2658.90   41.10
   3  20  -1 1633.20   25.80
   3  20   0 1296.80   20.70
   3  20   1  413.60    9.00
   3  20   2 1230.80   21.10
   3  20   3  818.00   16.20
   3  20   4  728.40   14.20
   3  20   5  191.20    6.90
   3  20   6  223.30   21.40
   3  21  -7  896.90   21.10
   3  21  -6 4282.70   54.00
   3  21  -5 3926.30   57.60
   3  21  -4 6210.90   81.20
   3  21  -3 1385.50   22.80
   3  21  -2 1577.00   26.20
   3  21  -120541.00  239.10
   3  21   0 5712.20   70.00
   3  21   1 3056.60   43.70
   3  21   2  222.10    6.50
   3  21   3 3389.80   48.10
   3  21   4 1440.20   21.20
   3  21   5 1434.30   24.60
   3  21   6  575.00   37.80
   3  22  -7  290.00   15.90
   3  22  -6  698.00   12.50
   3  22  -5  117.40    4.50
   3  22  -4  458.60    9.80
   3  22  -3 2295.80   33.90
   3  22  -2   43.20    2.80
   3  22  -1  395.80    9.20
   3  22   0  413.90    8.90
   3  22   1 8858.80  108.90
   3  22   2 1100.70   17.80
   3  22   3   26.40    2.80
   3  22   4 1504.10   25.10
   3  22   5  463.00   17.90
   3  22   6  731.60   37.70
   3  23  -6 1631.10   31.90
   3  23  -5 2075.40   31.80
   3  23  -4 1053.20   17.60
   3  23  -3 1189.20   19.20
   3  23  -214599.30  184.80
   3  23  -1 4066.40   55.20
   3  23   017350.40  201.40
   3  23   1 3591.50   49.30
   3  23   2  165.10    5.60
   3  23   3 4875.80   61.50
   3  23   4 2968.50   40.40
   3  23   5   73.80    8.70
   3  24  -6  428.40   13.90
   3  24  -5   61.60    3.80
   3  24  -4  581.10   11.60
   3  24  -3  175.20    5.30
   3  24  -2 2872.60   39.10
   3  24  -1 1807.50   26.60
   3  24   0  185.70    6.00
   3  24   1  310.00    7.20
   3  24   2 2391.80   32.40
   3  24   3   25.60    4.70
   3  24   4   95.70    7.10
   3  24   5 1153.10   43.10
   3  25  -5 2421.20   46.60
   3  25  -4 1484.20   20.40
   3  25  -3 3332.80   48.80
   3  25  -2 8223.90   99.70
   3  25  -1 6438.60   94.80
   3  25   014021.50  164.40
   3  25   1 5244.50   62.70
   3  25   2  723.50   15.30
   3  25   3 3485.00   49.00
   3  25   4 2824.70   49.60
   3  25   5 3574.40   89.60
   3  26  -5  380.90   23.00
   3  26  -4  873.90   25.80
   3  26  -3   47.00    3.10
   3  26  -2  224.00    6.50
   3  26  -1 2169.00   31.30
   3  26   0  192.30    6.00
   3  26   1   93.40    4.20
   3  26   2   23.70    5.00
   3  26   3  497.50   13.10
   3  26   4  585.50   32.40
   3  27  -4 2460.50   95.00
   3  27  -3 2661.50   81.00
   3  27  -2 3133.40   44.20
   3  27  -1 6646.80   82.50
   3  27   010639.90  117.70
   3  27   1 1241.10   19.00
   3  27   2 1818.90   33.50
   3  27   3 2376.00   92.60
   3  27   4 5247.20  138.90
   3  28  -4 1221.40   54.30
   3  28  -3   71.10    9.00
   3  28  -2  113.80   10.80
   3  28  -1  348.20   11.20
   3  28   0  304.40   12.70
   3  28   1  774.20   26.60
   3  28   2  221.60   10.90
   3  29  -3 5590.00  156.60
   3  29  -2 1600.80   64.70
   3  29  -1 3289.00   82.40
   3  29   0 4987.70  118.60
   3  29   1  972.60   44.70
   3  30  -2   37.30   11.10
   3  30  -1  110.10   16.70
   3  30   0  356.40   22.90
   3  31  -1 4275.40  104.50
   3  31   0 1652.20   80.70
   4   0 -10 4936.40  123.30
   4   0  -9  616.90   17.30
   4   0  -8 5563.20  100.50
   4   0  -7 3918.60   73.40
   4   0  -6 5081.10   92.00
   4   0  -5 6870.60  130.00
   4   0  -3  103.60    5.10
   4   0  -2 7719.70  137.40
   4   0  -1 1542.90   34.00
   4   0   0  449.60   12.40
   4   0   124890.20  559.90
   4   0   2 7083.90  118.40
   4   0   311751.20  223.30
   4   0   4 7335.50  159.70
   4   0   5  197.20   11.30
   4   0   6  823.70   32.20
   4   0   710937.20  246.80
   4   1 -10   20.10    7.00
   4   1  -9  243.30    7.10
   4   1  -8  134.00    5.60
   4   1  -7 1735.70   27.40
   4   1  -6   29.10    2.60
   4   1  -5   23.80    2.10
   4   1  -4  356.00    8.10
   4   1  -3 6171.50   79.60
   4   1  -2 3712.30   47.50
   4   1  -1  633.10   12.60
   4   1   0 2049.30   27.00
   4   1   1   83.30    2.40
   4   1   2  502.60    9.70
   4   1   3 1071.30   15.40
   4   1   4  930.40   22.30
   4   1   5  931.00   22.00
   4   1   6  827.60   22.30
   4   1   7  319.30   13.30
   4   2  -9 1013.70   18.90
   4   2  -8 3388.20   47.30
   4   2  -713674.70  166.50
   4   2  -6 3934.50   59.20
   4   2  -5 9351.90  115.80
   4   2  -410651.30  133.40
   4   2  -332635.50  369.30
   4   2  -2 5645.30   75.20
   4   2  -1 1303.70   19.90
   4   2   027813.50  457.10
   4   2   1  972.90   19.30
   4   2   2 1530.20   24.70
   4   2   312069.30  137.00
   4   2   4 2750.10   53.80
   4   2   5  298.40   10.40
   4   2   6 5172.60   92.20
   4   2   7  267.60   12.00
   4   2   8 1854.40   76.40
   4   3 -10  928.40   24.30
   4   3  -9  512.00   11.80
   4   3  -8 2196.80   33.20
   4   3  -7   90.40    4.00
   4   3  -6 2389.30   37.80
   4   3  -5  269.40    6.20
   4   3  -4 6729.60   90.20
   4   3  -3 4196.70   56.30
   4   3  -2  983.10   17.00
   4   3  -1 3447.70   45.30
   4   3   011231.10  152.20
   4   3   1 3188.30   49.80
   4   3   2 1891.00   28.70
   4   3   3  767.60   12.60
   4   3   4 3240.00   47.30
   4   3   5 4969.70  103.00
   4   3   6 1017.50   25.40
   4   3   7  519.60   16.80
   4   3   8  224.60   24.70
   4   4 -10 7331.30  139.20
   4   4  -9 2216.50   32.00
   4   4  -8  893.40   17.50
   4   4  -710456.20  131.90
   4   4  -6 5794.40   79.00
   4   4  -5 9732.40  125.60
   4   4  -410330.90  129.40
   4   4  -328291.10  318.50
   4   4  -2 5154.40   69.50
   4   4  -110153.20  124.10
   4   4   0 6197.20   93.80
   4   4   1 5713.70   83.60
   4   4   2 4315.00   65.10
   4   4   3 3521.40   43.50
   4   4   4  995.50   16.90
   4   4   5  436.00   14.50
   4   4   6 2418.50   46.40
   4   4   7 2888.90   55.10
   4   4   8 1084.90   54.30
   4   5 -10 7391.90  140.10
   4   5  -9  722.50   14.60
   4   5  -8   14.50    2.70
   4   5  -7 3645.00   51.80
   4   5  -6  123.10    4.40
   4   5  -5  220.30    6.30
   4   5  -4  156.70    4.60
   4   5  -3 3847.20   56.00
   4   5  -2  431.80    8.60
   4   5  -1 4837.90   62.20
   4   5   021132.90  283.70
   4   5   110946.70  158.50
   4   5   2  454.20   11.20
   4   5   3  307.50    7.60
   4   5   4  384.70    8.10
   4   5   5  294.40   11.00
   4   5   6  349.90   13.00
   4   5   7   16.00    6.30
   4   5   8   92.50   19.10
   4   6 -10  441.60   25.10
   4   6  -9 2996.70   56.30
   4   6  -8 5573.70   66.20
   4   6  -7 7936.10  107.20
   4   6  -6 8169.00  102.10
   4   6  -5 2146.30   31.40
   4   6  -4 5677.60   73.00
   4   6  -315582.10  199.30
   4   6  -2 5100.20   67.30
   4   6  -112898.70  151.30
   4   6   0 4286.20   67.50
   4   6   123968.10  323.00
   4   6   217318.40  235.70
   4   6   3 1894.80   31.60
   4   6   4 4657.90   65.30
   4   6   5 1317.80   31.00
   4   6   6 2035.40   42.50
   4   6   7 2202.70   46.90
   4   6   8  521.60   26.50
   4   7 -10 1008.50   37.10
   4   7  -9 2800.70   37.80
   4   7  -8  184.00    6.00
   4   7  -7 1015.00   19.60
   4   7  -6 2408.70   35.60
   4   7  -5   71.40    3.10
   4   7  -4   83.70    3.30
   4   7  -3  158.70    4.70
   4   7  -2 1117.20   18.40
   4   7  -1 4386.80   59.50
   4   7   0 1826.50   33.00
   4   7   1  813.10   17.30
   4   7   2 2111.20   36.50
   4   7   3  194.80    5.70
   4   7   4   75.60    3.10
   4   7   5 1081.60   20.90
   4   7   6  240.50   10.50
   4   7   7  164.60    9.90
   4   8 -10   34.40   14.00
   4   8  -9 7057.20   98.80
   4   8  -8 1751.70   29.30
   4   8  -7  257.40    7.80
   4   8  -629945.70  340.30
   4   8  -5  786.20   14.50
   4   8  -4 6809.30   90.00
   4   8  -3 5273.10   73.40
   4   8  -2 1148.70   19.00
   4   8  -130591.40  402.10
   4   8   012970.90  187.20
   4   8   1 6116.80  101.00
   4   8   221391.90  341.00
   4   8   345456.20  811.70
   4   8   4 2305.50   37.40
   4   8   5 4479.50   64.60
   4   8   6 2140.50   41.30
   4   8   7 1025.70   22.80
   4   8   8  478.20   34.50
   4   9 -10  342.10   13.80
   4   9  -9  283.00   17.00
   4   9  -8 1648.60   28.60
   4   9  -7  583.60   12.70
   4   9  -6  293.30    7.30
   4   9  -5 4903.40   65.90
   4   9  -4  423.90    9.30
   4   9  -3  124.10    4.00
   4   9  -2   33.10    1.90
   4   9  -118251.60  227.20
   4   9   0  576.30   13.70
   4   9   1    1.30    1.70
   4   9   2  350.20    8.80
   4   9   3 2970.50   49.50
   4   9   4  501.70    8.80
   4   9   5  437.80   14.30
   4   9   6  126.50    7.30
   4   9   7  124.90   20.60
   4  10 -10 1846.40   81.40
   4  10  -9 2798.30   62.30
   4  10  -8  167.80    6.70
   4  10  -7  246.00    6.80
   4  10  -6 1593.20   26.40
   4  10  -5 7315.80   94.70
   4  10  -412012.50  144.30
   4  10  -3 5971.70   81.40
   4  10  -215349.20  183.90
   4  10  -1 5123.30   65.10
   4  10   011708.80  139.00
   4  10   1 5104.70   80.30
   4  10   231417.10  716.00
   4  10   322467.70  296.60
   4  10   412554.70  146.00
   4  10   5 2218.20   37.80
   4  10   6 6276.70   97.40
   4  10   7 2087.70   55.70
   4  11 -10   98.40   19.20
   4  11  -9 1259.60   25.50
   4  11  -8   10.60    2.80
   4  11  -7  514.90   11.90
   4  11  -6 2943.40   43.00
   4  11  -5  651.20   13.90
   4  11  -410498.00  139.60
   4  11  -3  212.80    6.50
   4  11  -2 1493.20   25.00
   4  11  -1 1988.00   29.10
   4  11   0   79.20    2.30
   4  11   1  325.30    8.50
   4  11   2  180.90    6.10
   4  11   3 2618.50   44.10
   4  11   4 1286.10   21.60
   4  11   5  562.00   12.80
   4  11   6 1264.30   20.80
   4  11   7   76.50    9.30
   4  12  -9  510.20   15.20
   4  12  -8 1268.40   22.30
   4  12  -7 1551.90   26.60
   4  12  -6  420.00   10.30
   4  12  -5 7319.80  100.30
   4  12  -4 1224.10   22.90
   4  12  -312587.50  169.90
   4  12  -222945.80  262.00
   4  12  -1 9229.70  115.80
   4  12   012404.00  149.20
   4  12   1 1773.30   31.70
   4  12   2 8000.60  110.80
   4  12   314141.90  189.00
   4  12   415438.90  174.40
   4  12   5 5147.30   76.80
   4  12   6 1890.80   31.20
   4  12   7  838.40   42.90
   4  13  -9  415.00   13.90
   4  13  -8 1281.40   24.70
   4  13  -7 6020.20   77.40
   4  13  -6  803.80   15.00
   4  13  -5  310.70    7.60
   4  13  -4  127.30    4.20
   4  13  -3 6347.80   85.70
   4  13  -2  185.60    4.80
   4  13  -1   31.90    2.00
   4  13   0 1847.00   28.00
   4  13   1 3186.40   43.00
   4  13   2 5104.90   75.50
   4  13   3 1415.60   26.90
   4  13   4  230.90    5.50
   4  13   5 3486.00   58.00
   4  13   6   39.30    6.10
   4  14  -9 3269.50   77.00
   4  14  -8 4389.80   53.60
   4  14  -7 8587.70  115.90
   4  14  -6 3221.00   49.30
   4  14  -5  699.40   13.40
   4  14  -4 9283.00  128.90
   4  14  -316970.50  216.80
   4  14  -2 4296.20   56.30
   4  14  -1 3435.30   48.70
   4  14   0 3481.70   47.00
   4  14   112013.10  141.20
   4  14   2 5799.30   87.30
   4  14   3 2721.30   45.80
   4  14   4 2325.80   32.60
   4  14   5 2538.30   33.80
   4  14   6   93.90   10.20
   4  14   7 1061.90   49.80
   4  15  -9  141.30   15.90
   4  15  -8  433.90   14.80
   4  15  -7 4441.60   65.90
   4  15  -6 1706.10   27.60
   4  15  -5   72.10    3.30
   4  15  -4  824.70   17.40
   4  15  -3 2954.90   46.90
   4  15  -2  267.90    6.50
   4  15  -1 1058.40   19.70
   4  15   0  100.20    3.90
   4  15   1  161.80    4.60
   4  15   2   22.70    2.10
   4  15   3   94.20    3.60
   4  15   4   10.70    2.40
   4  15   5  842.80   14.90
   4  15   6  972.70   24.60
   4  16  -811545.50  206.80
   4  16  -718022.10  201.60
   4  16  -6 4932.30   66.20
   4  16  -5 2199.00   32.90
   4  16  -4 2105.20   34.60
   4  16  -3 3037.90   41.50
   4  16  -213508.50  163.40
   4  16  -1 2010.20   32.20
   4  16   0 3366.20   46.10
   4  16   115347.00  179.80
   4  16   2  939.50   14.90
   4  16   3 2277.20   31.80
   4  16   4 2424.80   39.20
   4  16   5 1349.30   28.30
   4  17  -8 4058.50  113.10
   4  17  -7  954.10   16.50
   4  17  -6  203.80    6.00
   4  17  -5    3.30    2.00
   4  17  -4   17.90    2.40
   4  17  -3  473.10    9.80
   4  17  -2  908.80   16.40
   4  17  -1 4431.20   56.30
   4  17   0 1245.90   20.40
   4  17   1 2733.90   38.30
   4  17   2 7657.80   93.80
   4  17   3  813.20   14.90
   4  17   4  918.30   20.30
   4  17   5  190.80   10.70
   4  17   6 1167.70   36.70
   4  18  -8 6052.10  141.40
   4  18  -7 4430.10   54.80
   4  18  -6   55.80    4.20
   4  18  -5 5465.80   72.20
   4  18  -4 3875.80   52.20
   4  18  -3 8121.10  101.50
   4  18  -210790.00  129.60
   4  18  -1 5912.60   72.00
   4  18   0 1187.20   19.80
   4  18   1  752.20   13.50
   4  18   2  885.30   16.10
   4  18   3  451.20   10.20
   4  18   4 3159.90   41.90
   4  18   5  655.50   15.00
   4  19  -7   87.00    5.80
   4  19  -6  310.30    8.10
   4  19  -5 1479.70   24.30
   4  19  -4   82.40    3.80
   4  19  -3  106.00    3.70
   4  19  -2  409.20    9.90
   4  19  -1 5658.90   76.70
   4  19   0 3075.20   48.30
   4  19   1 8543.90  105.00
   4  19   2  225.70    6.40
   4  19   3  328.80    9.10
   4  19   4  149.10    6.50
   4  19   5 1753.60   35.40
   4  20  -7  146.40    9.60
   4  20  -6  767.30   15.50
   4  20  -5 5087.30   65.60
   4  20  -4 8014.50  106.70
   4  20  -311361.90  141.60
   4  20  -2 9563.00  117.70
   4  20  -1 6037.40   77.70
   4  20   0  503.30   11.20
   4  20   1  300.60    8.10
   4  20   2 3320.90   48.20
   4  20   3 1026.40   17.50
   4  20   4 7573.70   91.30
   4  20   5  233.90   16.60
   4  21  -6  367.40   12.50
   4  21  -5   70.80    4.90
   4  21  -4 2324.00   35.20
   4  21  -3 2660.20   37.50
   4  21  -2  311.90    7.10
   4  21  -1  882.40   16.20
   4  21   0  117.70    4.20
   4  21   1 1065.90   17.80
   4  21   2 1365.90   23.00
   4  21   3  371.40   10.40
   4  21   4  250.30    9.70
   4  21   5   81.70   12.80
   4  22  -6 6392.60  103.80
   4  22  -5  770.10   15.00
   4  22  -4 5096.50   66.00
   4  22  -3 3292.10   48.60
   4  22  -2 7378.30   91.00
   4  22  -112541.10  150.00
   4  22   0  109.60    4.20
   4  22   1  513.60   10.10
   4  22   2 4725.40   60.30
   4  22   3 4430.80   53.10
   4  22   4 3052.30  157.50
   4  22   5 2574.80   67.10
   4  23  -5  455.90   16.50
   4  23  -4 1890.60   32.00
   4  23  -3 1010.40   16.80
   4  23  -2  160.90    5.80
   4  23  -1  155.00    5.70
   4  23   0  784.60   13.70
   4  23   1 2013.50   33.20
   4  23   2   54.20    4.30
   4  23   3   71.40    5.20
   4  23   4   20.10   19.30
   4  24  -5 2946.30   80.00
   4  24  -4  892.50   16.00
   4  24  -3 4102.40   57.10
   4  24  -210753.20  130.80
   4  24  -1 1017.40   21.50
   4  24   0 2189.70   34.20
   4  24   1 4077.10   58.60
   4  24   2 4702.10   59.60
   4  24   3 4335.10   78.40
   4  24   4  109.60   12.80
   4  25  -5  397.80   18.80
   4  25  -4 1261.10   44.30
   4  25  -3  143.10    7.30
   4  25  -2 2219.40   36.50
   4  25  -1 3562.40   49.70
   4  25   0  478.60   12.00
   4  25   1  465.80   12.40
   4  25   2  210.70   12.40
   4  25   3  875.00   28.00
   4  26  -5 1374.50   65.50
   4  26  -4   53.60   10.00
   4  26  -2 7898.50  166.60
   4  26  -1 8419.10  114.10
   4  26   0 1995.00   37.40
   4  26   1 1948.60   35.30
   4  26   2 2174.00   63.00
   4  26   3 1057.50   52.90
   4  27  -4    1.40    9.80
   4  27  -2 1757.70   51.20
   4  27  -1  115.40   17.50
   4  27   0  912.90   23.20
   4  27   1   86.90   15.20
   4  27   2   67.70   13.60
   4  28  -4  389.80   29.30
   4  28  -3 5273.90  216.00
   4  28  -2 3539.70  113.10
   4  28  -1 6791.00  252.70
   4  28   0 4218.70  194.60
   4  29  -2  766.10   59.70
   5   0  -9    5.50    4.60
   5   0  -8  108.00    7.60
   5   0  -7  473.20   15.10
   5   0  -6   31.70    3.90
   5   0  -5  489.60   14.20
   5   0  -4  194.80    8.50
   5   0  -3    1.70    2.60
   5   0  -2    8.70    2.00
   5   0  -1  199.30    7.80
   5   0   0   11.90    2.00
   5   0   1   72.90    4.50
   5   0   2   48.90    2.60
   5   0   3  130.30    5.40
   5   0   4    5.60    4.60
   5   0   5   82.40    8.30
   5   0   6  215.40   13.40
   5   1  -9 6339.20   86.30
   5   1  -8 8024.50  104.40
   5   1  -7 1981.00   30.90
   5   1  -6 9102.80  111.00
   5   1  -527694.60  314.30
   5   1  -413144.10  175.20
   5   1  -3 1864.20   28.70
   5   1  -2 3787.90   53.30
   5   1  -112694.40  150.60
   5   1   0 6165.90   79.90
   5   1   1 5547.70   93.40
   5   1   2 4580.20   64.10
   5   1   3 4319.40   54.40
   5   1   4 1267.90   25.90
   5   1   5 6950.50  113.60
   5   1   6  722.90   17.10
   5   2  -9  521.00   12.50
   5   2  -8 1707.90   28.20
   5   2  -7 1424.70   26.40
   5   2  -6 4342.60   59.00
   5   2  -5  400.80    9.50
   5   2  -4  151.10    5.00
   5   2  -3 1601.10   25.20
   5   2  -2   23.40    1.90
   5   2  -1  148.10    4.60
   5   2   0 3637.00   48.20
   5   2   1   27.20    2.50
   5   2   2  232.40    6.70
   5   2   3 2763.70   41.60
   5   2   4  857.90   19.40
   5   2   5  120.80    7.80
   5   2   6  368.20   11.80
   5   3  -9 4956.70   84.90
   5   3  -8 4506.60   62.10
   5   3  -7 4848.60   67.80
   5   3  -6 6157.20   81.80
   5   3  -5 9718.20  122.80
   5   3  -4  632.50   13.10
   5   3  -3 4422.70   60.60
   5   3  -2 2257.10   33.20
   5   3  -1 6239.80   78.00
   5   3   029134.60  456.60
   5   3   1 7493.90  105.60
   5   3   2 6974.50   99.60
   5   3   3 3252.20   52.80
   5   3   4  548.50   13.20
   5   3   5 2749.40   49.40
   5   3   6 3497.10   60.80
   5   4  -9 1704.20   37.80
   5   4  -8  140.80    5.50
   5   4  -7  169.90    6.20
   5   4  -6  506.10   11.20
   5   4  -5   30.70    2.70
   5   4  -4   34.50    3.90
   5   4  -3  901.40   16.50
   5   4  -2  351.40    7.80
   5   4  -1  120.60    4.00
   5   4   015174.80  256.40
   5   4   1  430.80   10.30
   5   4   2   82.40    3.80
   5   4   3 1342.10   21.60
   5   4   4   12.70    2.80
   5   4   5  110.80   11.50
   5   4   6  805.90   19.20
   5   5  -9  101.40    9.40
   5   5  -8 1130.80   20.10
   5   5  -7 2783.00   42.80
   5   5  -6 8621.90  109.60
   5   5  -5 5610.60   76.00
   5   5  -4 2158.20   33.10
   5   5  -3   57.50    3.00
   5   5  -2 4219.80   56.50
   5   5  -1 3614.40   47.30
   5   5   011650.70  169.30
   5   5   133277.80  520.70
   5   5   214125.40  191.10
   5   5   3 2295.50   39.30
   5   5   4 2946.40   53.70
   5   5   5 3681.40  104.10
   5   5   6 3082.40  105.90
   5   6  -9 2282.50   42.70
   5   6  -8  327.20    9.60
   5   6  -7 1177.30   23.80
   5   6  -6  858.40   16.60
   5   6  -5  780.40   15.00
   5   6  -4 2609.00   37.90
   5   6  -3   19.70    2.10
   5   6  -2   82.20    2.90
   5   6  -1  266.30    6.20
   5   6   0  205.30    7.10
   5   6   118087.90  241.10
   5   6   2 3785.80   61.00
   5   6   3 2348.20   38.60
   5   6   4  360.40   12.40
   5   6   5  147.30   11.60
   5   6   6   36.00   10.00
   5   7  -9   41.20    8.00
   5   7  -8  227.00    7.30
   5   7  -7 1855.40   29.40
   5   7  -6 6549.80   86.30
   5   7  -5 5865.60   77.60
   5   7  -4 7415.70   98.00
   5   7  -3 1679.10   26.70
   5   7  -2 6167.70   83.30
   5   7  -113117.50  178.20
   5   7   0  248.00    7.40
   5   7   117970.30  241.00
   5   7   2 5438.90   81.30
   5   7   3  916.60   18.90
   5   7   4 6363.00  111.50
   5   7   5 3400.40   87.10
   5   7   6 2550.50   85.80
   5   8  -9  524.00   18.60
   5   8  -8  574.40   13.00
   5   8  -7 2520.40   38.70
   5   8  -6 5261.60   72.30
   5   8  -5 3372.40   47.70
   5   8  -4  251.40    6.40
   5   8  -3  116.10    4.00
   5   8  -2 1454.10   25.30
   5   8  -1  406.20    8.00
   5   8   0 2917.10   49.20
   5   8   1  418.80   10.40
   5   8   2 5204.50   80.40
   5   8   3  906.00   20.10
   5   8   4  411.10   12.50
   5   8   5  114.00    7.00
   5   8   6  439.80   20.80
   5   9  -9 1065.40   36.70
   5   9  -8   59.60    3.70
   5   9  -7  126.00    5.10
   5   9  -611725.30  138.20
   5   9  -5 8114.10  100.80
   5   9  -4 9013.00  115.30
   5   9  -3 8717.70  107.70
   5   9  -2 8771.30  110.90
   5   9  -1 5388.50   68.10
   5   9   0 3560.90   59.30
   5   9   1 7783.50  116.40
   5   9   2 6687.10   92.70
   5   9   3 1377.90   24.10
   5   9   4  337.00   12.20
   5   9   5 3442.80   67.40
   5   9   6 1772.30   50.30
   5  10  -9  142.90   13.30
   5  10  -8 1186.80   21.50
   5  10  -7   52.10    3.60
   5  10  -6  141.60    4.80
   5  10  -5 1544.10   26.50
   5  10  -4 8133.80  105.60
   5  10  -3  677.90   13.30
   5  10  -2 2442.50   38.10
   5  10  -1 1933.30   26.50
   5  10   0  932.60   24.30
   5  10   1  152.90    5.50
   5  10   2  802.50   17.70
   5  10   3  265.00    8.10
   5  10   4 2088.30   35.80
   5  10   5   97.50    7.60
   5  10   6   18.80   15.40
   5  11  -8 1610.50   24.30
   5  11  -7 2932.10   40.90
   5  11  -6 1495.10   26.50
   5  11  -526619.40  302.40
   5  11  -4 3156.10   47.30
   5  11  -3 3015.10   42.40
   5  11  -215906.20  183.30
   5  11  -1 8584.80  104.40
   5  11   0 4695.30   73.10
   5  11   1 9063.20  126.50
   5  11   2 1581.60   30.80
   5  11   3 3353.80   55.40
   5  11   4 1608.40   33.00
   5  11   5  308.30   13.70
   5  11   6 1725.50   48.70
   5  12  -8  147.60    8.40
   5  12  -7 1310.20   20.90
   5  12  -6  711.40   14.50
   5  12  -5 1317.90   22.80
   5  12  -4  336.50    7.90
   5  12  -311111.80  135.90
   5  12  -2 1756.80   29.50
   5  12  -1   67.10    2.70
   5  12   0 1995.40   32.60
   5  12   1 3285.80   51.90
   5  12   2  148.80    6.00
   5  12   3 1038.10   21.40
   5  12   4 1078.40   20.00
   5  12   5 1105.70   26.80
   5  12   6  165.10   14.10
   5  13  -8  803.80   19.90
   5  13  -7 1302.50   22.90
   5  13  -6 5394.60   66.90
   5  13  -5  570.90   11.70
   5  13  -4 9075.60  113.30
   5  13  -3 7540.90   96.30
   5  13  -2 3352.70   45.60
   5  13  -1 5618.00   71.30
   5  13   0 7942.40  115.60
   5  13   1 3063.80   50.90
   5  13   211070.20  149.80
   5  13   3 1427.10   26.00
   5  13   4  971.40   21.10
   5  13   5 2665.00   52.70
   5  14  -8 1023.80   33.60
   5  14  -7  668.30   13.50
   5  14  -6  547.70   12.20
   5  14  -5  840.50   16.20
   5  14  -4  322.10    8.10
   5  14  -3 1312.40   22.50
   5  14  -2 9397.20  115.50
   5  14  -1   29.70    2.20
   5  14   0 1603.40   27.50
   5  14   1  444.20   10.40
   5  14   2 3440.70   59.80
   5  14   3  535.70   13.90
   5  14   4 1782.70   31.30
   5  14   5   91.30    8.00
   5  15  -7  816.90   17.10
   5  15  -6 3042.60   42.20
   5  15  -5 9796.10  124.00
   5  15  -4 8189.90   98.80
   5  15  -3 5825.90   75.20
   5  15  -2  185.80    5.70
   5  15  -1  872.20   14.90
   5  15   012827.40  174.50
   5  15   1 7651.90  112.40
   5  15   2 1446.90   26.60
   5  15   3 6814.90   92.70
   5  15   4 3099.10   46.10
   5  15   5 1773.30   44.20
   5  15   6 1166.40   54.10
   5  16  -7   16.50    4.80
   5  16  -6  720.50   14.50
   5  16  -5  879.50   18.10
   5  16  -4  768.40   15.30
   5  16  -3   37.90    2.50
   5  16  -2  220.40    5.50
   5  16  -1   34.70    2.80
   5  16   0   61.10    3.70
   5  16   1 6463.60   94.80
   5  16   2 4860.80   74.50
   5  16   3 1560.40   31.40
   5  16   4 1393.40   24.00
   5  16   5  110.00   14.30
   5  17  -7 1842.90   60.10
   5  17  -6 4263.40   62.60
   5  17  -5 2036.40   29.70
   5  17  -4 7566.70   92.40
   5  17  -3 6018.60   78.30
   5  17  -2 3493.20   47.90
   5  17  -1 1664.10   26.00
   5  17   0 8123.50  110.30
   5  17   1  559.20   14.10
   5  17   2 9140.00  126.40
   5  17   3 6005.90   84.20
   5  17   4 1076.00   22.40
   5  17   5 2553.20   66.50
   5  18  -7    9.00    6.10
   5  18  -6  944.60   15.40
   5  18  -5 1532.00   23.10
   5  18  -4  633.90   12.80
   5  18  -3  157.90    5.20
   5  18  -2  158.30    5.00
   5  18  -1  217.70    6.20
   5  18   0  356.10    8.80
   5  18   1 1126.10   22.90
   5  18   2  388.70   12.20
   5  18   3  123.20    6.40
   5  18   4  103.60    7.60
   5  18   5  358.30   26.50
   5  19  -7 1586.30   46.90
   5  19  -6 2254.20   56.70
   5  19  -5 8675.20  105.70
   5  19  -4 5498.00   70.10
   5  19  -3 6151.30   78.50
   5  19  -2  262.80    7.70
   5  19  -1 8170.30   99.40
   5  19   0 5423.90   67.60
   5  19   1 3054.00   48.20
   5  19   2 4067.80   59.20
   5  19   3 3992.30   62.80
   5  19   4 1106.90   24.80
   5  20  -6   19.30    7.30
   5  20  -5 1308.10   22.20
   5  20  -4  219.40    5.80
   5  20  -3   83.00    4.30
   5  20  -2   84.00    4.10
   5  20  -1  697.80   14.30
   5  20   0  761.70   14.90
   5  20   1 1133.00   23.50
   5  20   2  106.00    6.10
   5  20   3  969.10   20.10
   5  20   4  321.00   15.00
   5  21  -6 3563.30   90.30
   5  21  -5 1137.60   33.10
   5  21  -4 6901.50   88.70
   5  21  -3 6149.70   74.50
   5  21  -2 6679.20   87.20
   5  21  -1 3626.10   49.30
   5  21   0  145.50    6.30
   5  21   1 3260.90   53.30
   5  21   2 1658.70   28.80
   5  21   3 5556.40   74.40
   5  21   4 3219.80   83.50
   5  22  -6  300.00   26.00
   5  22  -5   51.70   10.80
   5  22  -4  181.90    6.40
   5  22  -3  252.00    7.00
   5  22  -2 2237.80   31.60
   5  22  -1 1981.30   29.60
   5  22   0  955.60   18.30
   5  22   1  858.30   17.60
   5  22   2  300.50    9.80
   5  22   3  158.20   14.00
   5  22   4  129.60   14.90
   5  23  -6  986.60   47.20
   5  23  -5 1657.60   56.10
   5  23  -4 5351.70  118.70
   5  23  -3 6804.70   83.20
   5  23  -2 1422.40   24.30
   5  23  -1 1658.90   28.00
   5  23   0  394.20   10.40
   5  23   1 1891.30   29.70
   5  23   2 2640.00   60.50
   5  23   3 2307.70   66.90
   5  24  -5  439.90   20.80
   5  24  -4  232.70   15.40
   5  24  -3  438.90   26.70
   5  24  -2 1239.10   25.50
   5  24  -1 1331.40   22.70
   5  24   0 2279.00   40.80
   5  24   1  244.20   11.40
   5  24   2  316.60   16.50
   5  25  -5 1251.40   71.50
   5  25  -4 2091.10   73.20
   5  25  -3 1940.30   83.60
   5  25  -2 6081.30  159.50
   5  25  -1  766.50   22.30
   5  25   0 4494.60  118.80
   5  25   1 5216.10  129.90
   5  25   2 2101.20   63.50
   5  26  -3   36.20   11.20
   5  26   1  367.00   32.80
   5  26   2  187.10   27.30
   6   0  -8 1782.00   39.40
   6   0  -7 1099.80   30.60
   6   0  -6 1918.10   41.10
   6   0  -5   36.90    4.30
   6   0  -4 6329.60  114.70
   6   0  -3 1045.40   27.00
   6   0  -227466.90  434.60
   6   0  -139575.40  631.10
   6   0   017148.50  279.80
   6   0   1  884.80   33.70
   6   0   2  630.50   37.30
   6   0   3 2929.60  108.30
   6   1  -8 1209.30   21.30
   6   1  -7 1442.30   23.60
   6   1  -6  260.80    7.50
   6   1  -5   54.80    3.20
   6   1  -4 3383.20   48.30
   6   1  -3 4765.20   64.30
   6   1  -2  488.80    9.30
   6   1  -1 2357.70   34.70
   6   1   0 1162.40   22.00
   6   1   1 1165.10   21.30
   6   1   2  257.30    9.70
   6   1   3  771.50   31.90
   6   2  -8  665.50   15.20
   6   2  -7 9142.10  112.20
   6   2  -6 2217.80   35.50
   6   2  -5 1813.50   33.20
   6   2  -4 2320.90   35.20
   6   2  -3 4745.20   61.60
   6   2  -222289.20  256.50
   6   2  -130234.10  332.90
   6   2   0 4386.70   61.40
   6   2   1 4040.10   61.50
   6   2   2 2398.90   40.10
   6   2   3 9715.00  140.90
   6   2   4 3432.50  111.90
   6   3  -8 1183.10   20.50
   6   3  -7  524.10   11.90
   6   3  -6   83.50    4.40
   6   3  -5  650.60   14.00
   6   3  -4   49.30    3.00
   6   3  -3  692.30   13.20
   6   3  -2  115.50    4.20
   6   3  -1 1833.40   29.20
   6   3   0 9407.40  149.60
   6   3   1   36.30    3.20
   6   3   2  139.60    6.40
   6   3   4  104.50    8.90
   6   3   5   55.10    9.50
   6   4  -8 3471.20   53.10
   6   4  -712896.90  152.50
   6   4  -6 9441.10  116.10
   6   4  -5 6364.30   80.60
   6   4  -4 2264.40   36.10
   6   4  -311070.80  130.50
   6   4  -2 3844.30   51.50
   6   4  -1 1685.70   23.10
   6   4   036732.60  476.30
   6   4   1  604.50   12.80
   6   4   2 3809.30   58.20
   6   4   3 3138.60   46.90
   6   4   4 4144.00   79.30
   6   4   5 1804.50   49.40
   6   5  -8  631.30   16.80
   6   5  -7  186.50    6.70
   6   5  -6  502.00   12.00
   6   5  -5  517.60   11.50
   6   5  -4 1079.90   17.70
   6   5  -3  787.50   15.00
   6   5  -2 2036.00   28.90
   6   5  -1 1540.30   29.00
   6   5   0 1468.50   24.30
   6   5   1 1286.20   23.50
   6   5   2   68.10    4.10
   6   5   3    9.20    3.90
   6   5   4  300.10   11.70
   6   5   5   28.20   15.80
   6   6  -8 2281.40   31.70
   6   6  -713265.80  160.30
   6   6  -610178.30  128.40
   6   6  -5  912.80   16.60
   6   6  -4 2949.80   40.10
   6   6  -3 8330.10  101.70
   6   6  -2 1566.70   29.20
   6   6  -112383.60  172.40
   6   6   0 1508.10   27.80
   6   6   1 8163.30  125.00
   6   6   2   46.70    3.80
   6   6   3 3388.20   56.70
   6   6   4 2435.40   45.90
   6   6   5 1684.90   55.60
   6   7  -8 1058.30   17.70
   6   7  -7  136.80    5.10
   6   7  -6  398.50   10.00
   6   7  -5 2508.50   37.30
   6   7  -4  876.70   16.40
   6   7  -3 1467.60   23.90
   6   7  -2  213.40    5.60
   6   7  -1 1632.70   31.20
   6   7   0 2794.60   47.60
   6   7   1 1020.70   22.90
   6   7   2   43.40    3.80
   6   7   3 1963.10   31.50
   6   7   4  364.60   11.20
   6   7   5  241.60   15.00
   6   8  -8 3625.90   76.40
   6   8  -7 1160.50   19.10
   6   8  -6 6192.50   86.70
   6   8  -5  882.70   16.20
   6   8  -4 2656.90   35.90
   6   8  -3 7005.80   86.70
   6   8  -2 1048.40   16.60
   6   8  -1 5347.90   83.70
   6   8   0 3452.50   54.90
   6   8   1  872.70   17.50
   6   8   2  101.00    5.70
   6   8   3  979.60   19.00
   6   8   4 3334.90   68.60
   6   8   5 1738.70   53.90
   6   9  -8  318.50   25.20
   6   9  -7  594.10   12.10
   6   9  -6 6610.60   82.60
   6   9  -5 2868.50   42.80
   6   9  -4  390.00    8.80
   6   9  -3  136.10    4.60
   6   9  -2  114.90    4.00
   6   9  -1  232.00    7.10
   6   9   0  143.50    5.60
   6   9   1   45.70    3.40
   6   9   2  175.90    6.80
   6   9   3   55.60    4.40
   6   9   4  631.10   18.70
   6   9   5   47.00   15.30
   6  10  -8 2576.20   66.80
   6  10  -7 1372.80   21.70
   6  10  -6 5271.30   70.10
   6  10  -5 2609.20   40.00
   6  10  -4 1703.70   27.20
   6  10  -3 2087.00   31.60
   6  10  -2 3684.00   52.20
   6  10  -1  663.70   14.70
   6  10   0 7037.10   98.50
   6  10   1  376.50   10.90
   6  10   2   83.60    5.00
   6  10   3 5552.40   96.20
   6  10   4 1986.90   43.00
   6  10   5 2327.70   55.90
   6  11  -8  130.50   11.30
   6  11  -7 1098.60   18.80
   6  11  -6  259.30    8.00
   6  11  -5  227.10    7.10
   6  11  -4   48.40    3.50
   6  11  -3 1109.80   18.40
   6  11  -2  896.30   15.00
   6  11  -1 1029.70   20.70
   6  11   0  489.30   10.00
   6  11   1 4789.20   70.70
   6  11   2  390.30    9.80
   6  11   3   15.50    3.60
   6  11   4  188.70   11.10
   6  11   5  350.10   27.30
   6  12  -8  982.10   41.60
   6  12  -7 8767.60  102.50
   6  12  -6  189.30    6.80
   6  12  -5 3837.50   50.60
   6  12  -4 4546.50   60.60
   6  12  -3  395.00    9.10
   6  12  -2 5780.20   77.20
   6  12  -1  582.30   14.10
   6  12   0 1864.90   36.30
   6  12   1  421.20   12.60
   6  12   2 7071.80  102.10
   6  12   3 1773.20   33.60
   6  12   4 3539.00   71.20
   6  12   5 1943.20   91.00
   6  13  -7  669.70   19.10
   6  13  -6  341.50    8.80
   6  13  -5 2143.80   32.20
   6  13  -4 2957.40   43.30
   6  13  -3   85.30    3.80
   6  13  -2 2474.30   33.40
   6  13  -1  119.60    5.30
   6  13   0  669.40   15.80
   6  13   1 1398.30   27.50
   6  13   2 2391.20   35.50
   6  13   3  144.50    6.90
   6  13   4 1200.50   33.50
   6  14  -7 4031.00   97.90
   6  14  -6 7268.30   91.20
   6  14  -5 4285.50   56.50
   6  14  -4 4151.10   56.30
   6  14  -3 3419.30   46.60
   6  14  -2 3325.50   41.00
   6  14  -1 8630.20  118.40
   6  14   0 3867.40   62.20
   6  14   1 7032.30   96.40
   6  14   2  421.00   12.10
   6  14   3 2786.30   41.90
   6  14   4 1498.10   41.60
   6  15  -7   28.30    9.10
   6  15  -6 1750.70   29.20
   6  15  -5  236.40    7.50
   6  15  -4  803.90   15.20
   6  15  -3 1139.20   19.20
   6  15  -2 1537.70   30.10
   6  15  -1   59.20    4.20
   6  15   0   95.10    5.10
   6  15   1  430.90   11.80
   6  15   2  752.70   17.40
   6  15   3  666.00   19.70
   6  15   4   49.90   16.60
   6  16  -7 1774.80   78.90
   6  16  -6 2528.80   49.70
   6  16  -5 7067.50   85.20
   6  16  -4 6195.00   79.40
   6  16  -3 4651.90   59.30
   6  16  -2 7815.70  101.50
   6  16  -1 9172.50  121.80
   6  16   0 2450.60   40.80
   6  16   114995.40  205.00
   6  16   2 2413.80   39.50
   6  16   3 2427.90   41.20
   6  16   4  866.50   25.70
   6  17  -7  144.70   13.10
   6  17  -6  306.00   18.30
   6  17  -5  285.90    8.20
   6  17  -4 1258.00   19.70
   6  17  -3  125.90    4.80
   6  17  -2   58.20    4.40
   6  17  -1 1672.00   32.30
   6  17   0   24.30    3.80
   6  17   1  424.20   11.80
   6  17   2  178.70    7.70
   6  17   3   44.60    9.10
   6  17   4   78.40   15.70
   6  18  -7 1168.00   38.40
   6  18  -6 2895.10   69.20
   6  18  -5 4787.10   88.80
   6  18  -4 5477.50   63.90
   6  18  -3 2192.90   29.70
   6  18  -2 4758.80   58.30
   6  18  -1 9327.50  132.20
   6  18   0 5815.50   84.60
   6  18   1 1708.10   32.90
   6  18   215723.40  206.80
   6  18   3 1938.50   50.70
   6  18   4 1000.00   43.00
   6  19  -6    8.50   12.10
   6  19  -5  229.40   14.50
   6  19  -4   34.30    3.30
   6  19  -3  239.20    7.50
   6  19  -2   65.20    4.50
   6  19  -1  170.70    6.70
   6  19   0  253.90    7.40
   6  19   1  322.00   11.60
   6  19   2  396.80   13.10
   6  19   3  149.30    9.40
   6  20  -6 2157.10   94.90
   6  20  -5 5481.30  131.30
   6  20  -4 1184.60   25.60
   6  20  -3 1214.90   19.40
   6  20  -2 7951.00   99.00
   6  20  -1 3464.40   57.60
   6  20   0 2946.30   47.30
   6  20   1 5808.80   84.40
   6  20   2 3922.30   66.70
   6  20   3 2676.50  110.80
   6  21  -6  256.90   32.20
   6  21  -5  535.10   25.00
   6  21  -4  902.00   30.10
   6  21  -3 1741.60   36.30
   6  21  -2  316.10    8.50
   6  21  -1  149.90    7.70
   6  21   0   71.30    5.10
   6  21   1   36.00    5.00
   6  21   2  121.10   14.60
   6  22  -5  147.80   15.50
   6  22  -4 3467.20   84.20
   6  22  -2 3604.60  124.00
   6  22  -1 3217.30   67.70
   6  22   0 2449.80   46.10
   6  22   1 2391.80   63.90
   6  23   0  434.20   23.20
   6  23   1  298.80   18.30
   6  24   1 4296.10  153.30
   7   0  -8   37.30    9.90
   7   0  -7  420.10   15.90
   7   0  -6    2.30    7.00
   7   0  -5  243.90   11.60
   7   0  -4  202.00   11.60
   7   0  -3  182.70    8.80
   7   0  -2  356.20   11.90
   7   0  -1  139.00    6.60
   7   0   0   12.10    5.30
   7   0   1   57.50   14.70
   7   0   3  224.80   18.70
   7   1  -8 4359.40   82.10
   7   1  -7 2910.40   38.90
   7   1  -6 3087.50   43.30
   7   1  -5 7045.20   85.00
   7   1  -4 1550.80   24.70
   7   1  -3 9640.70  120.30
   7   1  -222874.20  263.50
   7   1  -1 6926.30   94.50
   7   1   0  913.90   16.70
   7   1   1 4574.10   85.30
   7   1   2 3722.90   70.50
   7   1   3 4892.90  114.40
   7   2  -8 1115.20   30.20
   7   2  -7   88.70    4.90
   7   2  -6   49.10    4.10
   7   2  -5 1487.90   25.30
   7   2  -4  304.40    8.50
   7   2  -3 7576.20   95.50
   7   2  -2 2019.90   33.20
   7   2  -1   75.90    4.50
   7   2   0  612.00   16.10
   7   2   1  322.60   12.20
   7   2   2   69.90    6.20
   7   2   3  154.00   15.60
   7   3  -7  113.00    7.20
   7   3  -6  333.90    8.30
   7   3  -5 5211.60   72.30
   7   3  -4 6946.00   86.00
   7   3  -311582.80  140.10
   7   3  -210922.70  130.80
   7   3  -1  367.80   10.50
   7   3   0  410.90   11.80
   7   3   1 3196.10   51.30
   7   3   2 5887.80  107.70
   7   3   3  820.30   22.70
   7   4  -8  340.10   18.10
   7   4  -7  154.90    9.70
   7   4  -6 1529.90   20.00
   7   4  -5  205.30    8.90
   7   4  -4 1713.10   27.90
   7   4  -3 2273.50   31.60
   7   4  -2 2116.40   35.40
   7   4  -1    0.70    2.90
   7   4   0   80.80    4.90
   7   4   1 1884.90   35.80
   7   4   2  415.30   24.50
   7   4   3  375.00   23.40
   7   5  -8 1862.00   47.50
   7   5  -7  119.20    8.40
   7   5  -6  288.40    9.00
   7   5  -5 1464.40   24.70
   7   5  -4 4447.70   58.10
   7   5  -3 7844.00   94.80
   7   5  -2 2588.80   37.20
   7   5  -1  582.40   15.90
   7   5   0 2858.10   46.10
   7   5   1   74.40    5.80
   7   5   2 4238.80   65.40
   7   5   3 2088.60   37.60
   7   6  -8   23.90   11.70
   7   6  -7  118.00   10.30
   7   6  -6  425.50    9.80
   7   6  -5  158.50    6.10
   7   6  -4 2642.40   42.70
   7   6  -3 1968.00   30.10
   7   6  -2  504.80   12.20
   7   6  -1   64.00    4.40
   7   6   0   15.50    3.80
   7   6   1  112.80    6.60
   7   6   2  105.30    7.80
   7   6   3  183.30   13.00
   7   7  -8 2584.40   96.10
   7   7  -7 2644.50   49.80
   7   7  -6  223.90    7.40
   7   7  -5  188.30    7.60
   7   7  -414990.30  168.40
   7   7  -3  894.00   17.10
   7   7  -2  616.20   13.30
   7   7  -1 4665.90   70.40
   7   7   0  325.60   10.80
   7   7   112747.40  184.50
   7   7   2 4472.10   64.10
   7   7   3  847.00   26.70
   7   8  -7  172.20    9.70
   7   8  -6  633.30   11.60
   7   8  -5  828.60   17.30
   7   8  -4  401.60   10.40
   7   8  -3  163.00    5.10
   7   8  -2  199.60    7.00
   7   8  -1  815.50   17.20
   7   8   0 2080.70   36.80
   7   8   1  387.40   11.70
   7   8   2  153.90   11.30
   7   8   3   34.60   10.30
   7   9  -7  801.70   25.00
   7   9  -6 1116.60   18.50
   7   9  -5 5070.10   62.20
   7   9  -4  845.00   18.60
   7   9  -3 2381.60   31.80
   7   9  -2 5988.20   86.30
   7   9  -1 5640.80   85.70
   7   9   0 2538.00   47.40
   7   9   1 2308.30   36.20
   7   9   2 2035.00   40.30
   7   9   3 2736.90   72.60
   7  10  -7    3.20   10.70
   7  10  -6 5011.60   82.80
   7  10  -5 2205.40   30.40
   7  10  -4 1120.40   19.20
   7  10  -3  116.10    4.80
   7  10  -2  346.60    9.20
   7  10  -1  202.60    8.30
   7  10   0  774.80   18.70
   7  10   1  956.30   25.10
   7  10   2  870.80   18.20
   7  10   3   62.20   11.50
   7  11  -7 1555.60   47.30
   7  11  -6 1191.30   27.40
   7  11  -5  813.20   15.40
   7  11  -4 4568.90   58.40
   7  11  -3 6813.20   84.80
   7  11  -2 3856.60   57.40
   7  11  -1 5354.30   81.80
   7  11   0 1621.90   25.20
   7  11   1  991.10   19.70
   7  11   2 3756.70   59.30
   7  11   3  946.90   48.10
   7  12  -7 1799.10   64.40
   7  12  -6 1517.30   33.60
   7  12  -5 2375.90   34.90
   7  12  -4  231.60    8.80
   7  12  -3   67.50    4.00
   7  12  -2  162.00    6.40
   7  12  -1 1431.70   26.20
   7  12   0 1326.50   24.90
   7  12   1  572.80   16.30
   7  12   2 2105.40   35.30
   7  13  -7 2233.20   56.40
   7  13  -6  162.40    9.70
   7  13  -5 4320.70   61.40
   7  13  -4 2504.30   33.20
   7  13  -3 1340.10   23.10
   7  13  -2 6145.90   95.00
   7  13  -1 1129.40   18.30
   7  13   0 2322.30   37.30
   7  13   1 2149.90   35.50
   7  13   2 2922.20   56.10
   7  14  -7  460.70   32.80
   7  14  -6  145.40   14.60
   7  14  -5  210.40   15.00
   7  14  -4  244.80    7.60
   7  14  -3  310.40    9.20
   7  14  -2  127.70    5.70
   7  14  -1 3696.80   56.90
   7  14   0 1573.00   32.00
   7  14   1  518.10   15.20
   7  14   2  853.10   19.00
   7  15  -7  582.10   36.40
   7  15  -6 3010.80   78.40
   7  15  -5  511.10   14.50
   7  15  -4  746.40   17.90
   7  15  -3 3376.80   44.60
   7  15  -2 1907.00   29.90
   7  15  -1  245.90    9.30
   7  15   0 3439.20   56.90
   7  15   1 9132.60  125.80
   7  15   2 1041.70   25.10
   7  16  -6  496.10   23.30
   7  16  -5  743.50   28.80
   7  16  -4  267.60   10.90
   7  16  -3  385.60   10.30
   7  16  -2  117.80    6.10
   7  16  -1 1713.50   31.00
   7  16   0  969.30   19.10
   7  16   1 1126.30   27.30
   7  16   2  251.30   15.50
   7  17  -4 2760.00   70.30
   7  17  -3 3870.10   66.30
   7  17  -2 1138.10   20.20
   7  17  -1  608.40   15.80
   7  17   0 4298.20   66.00
   7  17   1 1680.00   33.00
   7  17   2 6853.80  114.80
   7  18  -3  161.70   23.60
   7  18  -2 3569.50   65.10
   7  18  -1  172.10    8.60
   7  18   0   78.50    5.90
   7  18   1  146.40   11.60
   7  18   2 1274.80   33.20
   7  19  -2 5262.90  123.90
   7  19  -1 4636.30   83.40
   7  19   0 1677.40   38.80
   7  19   1 1324.40   34.40
   7  20   0    7.50    6.90
   8   0  -7 5384.50  129.30
   8   0  -6 1094.90   40.60
   8   0  -5   87.80   13.70
   8   0  -4   61.40    6.90
   8   0  -3 2405.20   44.70
   8   0  -2   25.90    7.80
   8   0  -1  687.40   27.40
   8   0   1 2136.10   83.30
   8   1  -7  834.40   21.60
   8   1  -6  243.70   11.20
   8   1  -5  133.00    7.30
   8   1  -4   21.80    6.60
   8   1  -3    2.10    4.60
   8   1  -2    2.60    3.10
   8   1  -1    6.30    4.90
   8   1   0  358.30   15.50
   8   1   1  199.30   13.50
   8   2  -7  342.50   18.30
   8   2  -6 1871.90   36.70
   8   2  -5  612.30   12.70
   8   2  -4 5120.60   64.60
   8   2  -3   78.10    7.10
   8   2  -2  139.60    6.50
   8   2  -1  959.20   21.60
   8   2   0 4411.50   75.90
   8   2   1 3166.80   59.30
   8   3  -7 2124.70   41.00
   8   3  -6  315.00   11.00
   8   3  -5  287.80   12.80
   8   3  -4   39.40    5.40
   8   3  -3  415.30    9.20
   8   3  -2   25.20    6.00
   8   3  -1  883.00   21.80
   8   3   0 1223.70   35.60
   8   3   1   36.10   11.90
   8   4  -7 1366.60   34.80
   8   4  -6  764.10   26.60
   8   4  -5 2413.30   52.50
   8   4  -4 3075.10   50.60
   8   4  -3 7244.40   86.00
   8   4  -2 2103.30   37.80
   8   4  -1 1429.70   26.70
   8   4   0 5243.70   81.40
   8   4   1 2874.10   61.90
   8   5  -7   35.40   15.80
   8   5  -6   29.80   14.10
   8   5  -5   44.50    9.50
   8   5  -4 5894.10   77.00
   8   5  -3 1101.40   19.90
   8   5  -2   14.80    4.40
   8   5  -1 2033.90   37.90
   8   5   0 2169.50   38.60
   8   5   1 1015.90   28.30
   8   6  -7  246.00   27.60
   8   6  -6 2923.20   71.60
   8   6  -5 4498.00   79.50
   8   6  -412479.40  141.10
   8   6  -3 5450.60   69.70
   8   6  -2  178.20    8.60
   8   6  -1 4160.40   65.60
   8   6   0 5405.20   84.10
   8   6   1  937.40   36.20
   8   7  -6  229.70   27.00
   8   7  -5  668.10   21.40
   8   7  -4 2163.00   29.90
   8   7  -3  219.60    7.90
   8   7  -2  468.70   13.60
   8   7  -1  107.40    9.00
   8   7   0  672.70   16.60
   8   7   1  143.10   10.40
   8   8  -6 1912.30   38.00
   8   8  -514722.00  230.60
   8   8  -4 1948.50   33.90
   8   8  -3 2754.50   41.30
   8   8  -2 2522.70   49.50
   8   8  -1 3123.80   53.30
   8   8   0  474.90   12.50
   8   8   1 3783.40   67.60
   8   9  -5 3317.90   83.40
   8   9  -4 1242.90   38.00
   8   9  -3  654.30   18.20
   8   9  -2  689.20   13.10
   8   9  -1  144.20   10.00
   8   9   0 1388.10   26.30
   8   9   1    2.00    8.40
   8  10  -5 2067.90   80.20
   8  10  -4 1481.90   46.80
   8  10  -3 1450.60   26.30
   8  10  -2 3967.30   59.00
   8  10  -1 3461.00   60.20
   8  10   0 6198.30   82.40
   8  10   1  159.30   14.80
   8  11  -5   94.00   11.10
   8  11  -4   84.60   11.20
   8  11  -3   77.80    8.50
   8  11  -2 1097.10   19.20
   8  11  -1  178.00    8.90
   8  11   0 1014.10   24.40
   8  12  -5 1755.60   50.30
   8  12  -4 2784.90  101.00
   8  12  -3  633.40   25.30
   8  12  -2 2888.40   52.10
   8  12  -1 3608.40   56.80
   8  12   0 6216.80   90.90
   8  13  -4  564.60   33.90
   8  13  -3  115.20   13.00
   8  13  -2  402.20   16.00
   8  13  -1   28.20    9.90
   8  13   0  541.90   16.20
   8  13   1  166.90   29.50
   8  14  -4 3395.00   85.00
   8  14  -3 2521.70   66.90
   8  14  -2 3637.40   84.50
   8  14  -1 1114.50   28.50
   8  14   0 1948.00   39.40
   8  14   1 3793.40  135.80
   8  15  -3  590.60   43.50
   8  15  -2   27.10    9.30
   8  15  -1  235.00   11.40
   8  15   0  221.40   20.10
   8  16  -2  389.90   29.60
   8  16  -1 2532.10   69.60
   8  16   0  786.60   30.60
   8  17  -1   64.70   10.50
   9   1  -1 1705.30   51.80
   9   1   0 1409.20   67.70
   9   2  -1  171.30   16.10
   9   2   0  403.40   33.90
   9   3  -1  641.50   39.90
   9   3   0 1026.40   38.40
   9   4  -1  495.30   37.90
   9   4   0  876.80   52.00
   9   5  -1  794.80   26.60
   9   5   0  233.20   27.10
   9   6  -1  470.50   24.70
   9   7  -1 1412.10   62.10
;
_shelx_hkl_checksum              52276
loop_
_space_group_symop_id
_space_group_symop_operation_xyz
1 +X,+Y,+Z
2 1/2-X,1/2+Y,-Z
3 -X,-Y,-Z
4 -1/2+X,-1/2-Y,+Z
loop_
_atom_site_label
_atom_site_type_symbol
_atom_site_fract_x
_atom_site_fract_y
_atom_site_fract_z
_atom_site_U_iso_or_equiv
_atom_site_adp_type
_atom_site_occupancy
_atom_site_site_symmetry_order
_atom_site_calc_flag
_atom_site_refinement_flags_posn
_atom_site_refinement_flags_adp
_atom_site_refinement_flags_occupancy
_atom_site_disorder_assembly
_atom_site_disorder_group
Ni1 Ni 0.5000 0.5000 0.5000 0.0133(2) Uani 1 2 d S . P . .
N1 N 0.7005(4) 0.47825(11) 0.6592(4) 0.0154(6) Uani 1 1 d . . . . .
N2 N 0.3430(4) 0.44633(11) 0.5279(4) 0.0136(6) Uani 1 1 d . . . . .
N3 N 1.0887(9) 0.3725(2) 1.0801(8) 0.0217(13) Uani 0.5 1 d . . P A 1
C1 C 0.8688(5) 0.50768(13) 0.6800(4) 0.0139(7) Uani 1 1 d . . . . .
C2 C 1.0089(5) 0.48215(13) 0.8060(4) 0.0150(7) Uani 1 1 d . . . . .
H2 H 1.1371 0.4928 0.8477 0.018 Uiso 1 1 calc R U . . .
C3 C 0.9184(5) 0.43740(13) 0.8569(4) 0.0153(7) Uani 1 1 d . . . . .
H3 H 0.9762 0.4129 0.9384 0.018 Uiso 0.5 1 calc R U P B 2
C4 C 0.7225(5) 0.43634(12) 0.7614(4) 0.0139(7) Uani 1 1 d . . . . .
C5 C 0.5570(5) 0.39965(12) 0.7576(4) 0.0124(7) Uani 1 1 d . . . . .
C6 C 0.3817(5) 0.40475(12) 0.6440(4) 0.0129(7) Uani 1 1 d . . . . .
C7 C 0.1986(5) 0.37102(13) 0.6137(4) 0.0157(7) Uani 1 1 d . . . . .
H7A H 0.1511 0.3683 0.7145 0.019 Uiso 1 1 calc R U . . .
H7B H 0.2229 0.3355 0.5771 0.019 Uiso 1 1 calc R U . . .
C8 C 0.0492(5) 0.40127(13) 0.4731(4) 0.0145(7) Uani 1 1 d . . . . .
H8A H 0.0036 0.3788 0.3759 0.017 Uiso 1 1 calc R U . . .
H8B H -0.0616 0.4134 0.5132 0.017 Uiso 1 1 calc R U . . .
C9 C 0.1641(5) 0.44739(13) 0.4329(4) 0.0131(7) Uani 1 1 d . . . . .
C10 C 1.0083(10) 0.4014(3) 0.9786(8) 0.0160(14) Uani 0.5 1 d . . P A 1
C11 C 0.5881(5) 0.35643(13) 0.8862(4) 0.0133(7) Uani 1 1 d . . . . .
C12 C 0.5708(5) 0.36867(14) 1.0490(4) 0.0184(7) Uani 1 1 d . . . . .
C13 C 0.6034(5) 0.32809(16) 1.1684(4) 0.0223(8) Uani 1 1 d . . . . .
H13 H 0.5928 0.3358 1.2763 0.027 Uiso 1 1 calc R U . . .
C14 C 0.6509(5) 0.27700(16) 1.1319(5) 0.0255(9) Uani 1 1 d . . . . .
C15 C 0.6697(5) 0.26576(15) 0.9710(5) 0.0237(8) Uani 1 1 d . . . . .
H15 H 0.7013 0.2314 0.9449 0.028 Uiso 1 1 calc R U . . .
C16 C 0.6420(5) 0.30508(14) 0.8482(4) 0.0166(7) Uani 1 1 d . . . . .
C17 C 0.5168(7) 0.42347(16) 1.0953(5) 0.0286(9) Uani 1 1 d . . . . .
H17A H 0.3791 0.4285 1.0556 0.034 Uiso 1 1 calc R U . . .
H17B H 0.5841 0.4495 1.0451 0.034 Uiso 1 1 calc R U . . .
H17C H 0.5527 0.4274 1.2147 0.034 Uiso 1 1 calc R U . . .
C18 C 0.6791(7) 0.2343(2) 1.2635(7) 0.0452(14) Uani 1 1 d . . . . .
H18A H 0.5546 0.2220 1.2749 0.054 Uiso 1 1 calc R U . . .
H18B H 0.7508 0.2485 1.3684 0.054 Uiso 1 1 calc R U . . .
H18C H 0.7497 0.2051 1.2313 0.054 Uiso 1 1 calc R U . . .
C19 C 0.6734(6) 0.29230(14) 0.6788(5) 0.0237(8) Uani 1 1 d . . . . .
H19A H 0.7231 0.2567 0.6791 0.028 Uiso 1 1 calc R U . . .
H19B H 0.7649 0.3170 0.6522 0.028 Uiso 1 1 calc R U . . .
H19C H 0.5521 0.2950 0.5967 0.028 Uiso 1 1 calc R U . . .
loop_
_atom_site_aniso_label
_atom_site_aniso_U_11
_atom_site_aniso_U_22
_atom_site_aniso_U_33
_atom_site_aniso_U_23
_atom_site_aniso_U_13
_atom_site_aniso_U_12
Ni1 0.0147(3) 0.0069(3) 0.0191(4) 0.0038(2) 0.0057(2) -0.0014(2)
N1 0.0200(15) 0.0104(13) 0.0186(15) -0.0011(11) 0.0106(12) -0.0026(11)
N2 0.0191(15) 0.0062(13) 0.0171(14) 0.0025(11) 0.0073(12) 0.0021(11)
N3 0.027(3) 0.016(3) 0.022(3) 0.006(3) 0.006(3) -0.001(3)
C1 0.0199(17) 0.0096(15) 0.0145(16) 0.0007(13) 0.0087(13) -0.0014(13)
C2 0.0144(16) 0.0149(16) 0.0158(17) -0.0009(13) 0.0037(13) -0.0013(13)
C3 0.0194(17) 0.0122(16) 0.0143(16) 0.0015(13) 0.0040(13) -0.0001(13)
C4 0.0203(17) 0.0063(15) 0.0178(17) -0.0020(13) 0.0097(14) -0.0007(13)
C5 0.0182(17) 0.0067(15) 0.0146(16) -0.0002(13) 0.0087(13) -0.0016(13)
C6 0.0198(17) 0.0067(15) 0.0141(16) 0.0000(12) 0.0078(13) -0.0003(13)
C7 0.0211(18) 0.0090(15) 0.0177(17) -0.0005(13) 0.0057(14) -0.0029(13)
C8 0.0201(17) 0.0079(15) 0.0175(17) -0.0008(13) 0.0084(14) -0.0056(13)
C9 0.0173(17) 0.0082(15) 0.0166(16) -0.0015(13) 0.0092(13) -0.0039(13)
C10 0.022(4) 0.012(3) 0.014(3) -0.001(3) 0.005(3) -0.003(3)
C11 0.0154(16) 0.0115(16) 0.0135(16) 0.0038(13) 0.0047(13) -0.0028(13)
C12 0.0182(17) 0.0195(18) 0.0186(18) 0.0002(14) 0.0066(14) -0.0050(14)
C13 0.0168(18) 0.037(2) 0.0137(17) 0.0091(16) 0.0053(14) -0.0009(16)
C14 0.0133(17) 0.033(2) 0.031(2) 0.0220(18) 0.0061(15) 0.0023(16)
C15 0.0167(17) 0.0161(18) 0.039(2) 0.0122(16) 0.0072(16) 0.0005(14)
C16 0.0168(17) 0.0120(16) 0.0209(18) 0.0030(13) 0.0041(14) -0.0018(13)
C17 0.041(2) 0.027(2) 0.023(2) -0.0080(16) 0.0175(18) -0.0089(18)
C18 0.028(2) 0.056(3) 0.058(3) 0.049(3) 0.023(2) 0.019(2)
C19 0.032(2) 0.0144(17) 0.026(2) -0.0021(15) 0.0089(16) 0.0030(15)
loop_
_atom_type_symbol
_atom_type_description
_atom_type_scat_dispersion_real
_atom_type_scat_dispersion_imag
_atom_type_scat_source
C C 0.0000 0.0000
;
International Tables for Crystallography
(Vol. C, Tables 4.2.6.8 and 6.1.1.4)
;
H H 0.0000 0.0000
;
International Tables for Crystallography
(Vol. C, Table 6.1.1.4)
;
N N 0.0000 0.0000
;
International Tables for Crystallography
(Vol. C, Tables 4.2.6.8 and 6.1.1.4)
;
Ni Ni 0.0000 0.0000
;
International Tables for Crystallography
(Vol. C, Tables 4.2.6.8 and 6.1.1.4)
;
loop_
_geom_angle_atom_site_label_1
_geom_angle_atom_site_label_2
_geom_angle_atom_site_label_3
_geom_angle
_geom_angle_site_symmetry_1
_geom_angle_site_symmetry_3
N1 Ni1 N1 180.00(16) 3_666 .
N1 Ni1 N2 85.11(13) 3_666 .
N1 Ni1 N2 94.89(13) . .
N1 Ni1 N2 94.89(13) 3_666 3_666
N1 Ni1 N2 85.11(13) . 3_666
N2 Ni1 N2 180.00(11) . 3_666
C4 N1 C1 112.2(3) . .
C4 N1 Ni1 131.4(2) . .
C1 N1 Ni1 116.3(2) . .
C9 N2 C6 115.0(3) . .
C9 N2 Ni1 116.4(2) . .
C6 N2 Ni1 128.4(2) . .
N1 C1 C2 106.5(3) . .
N1 C1 C9 109.7(3) . 3_666
C2 C1 C9 143.8(3) . 3_666
C1 C2 C3 107.0(3) . .
C1 C2 H2 126.5 . .
C3 C2 H2 126.5 . .
C10 C3 C2 125.0(4) . .
C10 C3 C4 127.3(4) . .
C2 C3 C4 107.7(3) . .
C2 C3 H3 126.1 . .
C4 C3 H3 126.1 . .
N1 C4 C3 106.6(3) . .
N1 C4 C5 120.3(3) . .
C3 C4 C5 133.1(3) . .
C6 C5 C4 122.6(3) . .
C6 C5 C11 120.4(3) . .
C4 C5 C11 117.0(3) . .
C5 C6 N2 122.3(3) . .
C5 C6 C7 131.2(3) . .
N2 C6 C7 106.5(3) . .
C6 C7 C8 104.5(3) . .
C6 C7 H7A 110.9 . .
C8 C7 H7A 110.9 . .
C6 C7 H7B 110.9 . .
C8 C7 H7B 110.9 . .
H7A C7 H7B 108.9 . .
C9 C8 C7 103.4(3) . .
C9 C8 H8A 111.1 . .
C7 C8 H8A 111.1 . .
C9 C8 H8B 111.1 . .
C7 C8 H8B 111.1 . .
H8A C8 H8B 109.0 . .
N2 C9 C1 112.4(3) . 3_666
N2 C9 C8 110.4(3) . .
C1 C9 C8 137.2(3) 3_666 .
N3 C10 C3 177.6(7) . .
C16 C11 C12 120.2(3) . .
C16 C11 C5 120.8(3) . .
C12 C11 C5 118.9(3) . .
C13 C12 C11 118.2(3) . .
C13 C12 C17 120.0(3) . .
C11 C12 C17 121.8(3) . .
C14 C13 C12 122.3(3) . .
C14 C13 H13 118.8 . .
C12 C13 H13 118.8 . .
C13 C14 C15 118.7(3) . .
C13 C14 C18 120.3(4) . .
C15 C14 C18 121.0(4) . .
C14 C15 C16 121.2(4) . .
C14 C15 H15 119.4 . .
C16 C15 H15 119.4 . .
C15 C16 C11 119.3(3) . .
C15 C16 C19 119.8(3) . .
C11 C16 C19 120.9(3) . .
C12 C17 H17A 109.5 . .
C12 C17 H17B 109.5 . .
H17A C17 H17B 109.5 . .
C12 C17 H17C 109.5 . .
H17A C17 H17C 109.5 . .
H17B C17 H17C 109.5 . .
C14 C18 H18A 109.5 . .
C14 C18 H18B 109.5 . .
H18A C18 H18B 109.5 . .
C14 C18 H18C 109.5 . .
H18A C18 H18C 109.5 . .
H18B C18 H18C 109.5 . .
C16 C19 H19A 109.5 . .
C16 C19 H19B 109.5 . .
H19A C19 H19B 109.5 . .
C16 C19 H19C 109.5 . .
H19A C19 H19C 109.5 . .
H19B C19 H19C 109.5 . .
loop_
_geom_bond_atom_site_label_1
_geom_bond_atom_site_label_2
_geom_bond_distance
_geom_bond_site_symmetry_2
Ni1 N1 1.773(3) 3_666
Ni1 N1 1.773(3) .
Ni1 N2 1.797(3) .
Ni1 N2 1.797(3) 3_666
N1 C4 1.333(4) .
N1 C1 1.378(4) .
N2 C9 1.321(5) .
N2 C6 1.398(4) .
N3 C10 1.150(9) .
C1 C2 1.407(5) .
C1 C9 1.446(5) 3_666
C2 C3 1.407(5) .
C2 H2 0.9300 .
C3 C10 1.387(8) .
C3 C4 1.422(5) .
C3 H3 0.9300 .
C4 C5 1.486(5) .
C5 C6 1.370(5) .
C5 C11 1.496(4) .
C6 C7 1.519(5) .
C7 C8 1.565(5) .
C7 H7A 0.9700 .
C7 H7B 0.9700 .
C8 C9 1.498(4) .
C8 H8A 0.9700 .
C8 H8B 0.9700 .
C9 C1 1.446(5) 3_666
C11 C16 1.402(5) .
C11 C12 1.409(5) .
C12 C13 1.396(5) .
C12 C17 1.502(5) .
C13 C14 1.378(6) .
C13 H13 0.9300 .
C14 C15 1.392(6) .
C14 C18 1.504(5) .
C15 C16 1.393(5) .
C15 H15 0.9300 .
C16 C19 1.498(5) .
C17 H17A 0.9600 .
C17 H17B 0.9600 .
C17 H17C 0.9600 .
C18 H18A 0.9600 .
C18 H18B 0.9600 .
C18 H18C 0.9600 .
C19 H19A 0.9600 .
C19 H19B 0.9600 .
C19 H19C 0.9600 .
loop_
_geom_torsion_atom_site_label_1
_geom_torsion_atom_site_label_2
_geom_torsion_atom_site_label_3
_geom_torsion_atom_site_label_4
_geom_torsion
_geom_torsion_site_symmetry_1
_geom_torsion_site_symmetry_2
_geom_torsion_site_symmetry_3
_geom_torsion_site_symmetry_4
N2 Ni1 N1 C4 0.2(3) . . . .
N2 Ni1 N1 C4 -179.8(3) 3_666 . . .
N2 Ni1 N1 C1 177.1(2) . . . .
N2 Ni1 N1 C1 -2.9(2) 3_666 . . .
N1 Ni1 N2 C9 -2.3(2) 3_666 . . .
N1 Ni1 N2 C9 177.7(2) . . . .
N1 Ni1 N2 C6 -178.4(3) 3_666 . . .
N1 Ni1 N2 C6 1.6(3) . . . .
C4 N1 C1 C2 0.0(4) . . . .
Ni1 N1 C1 C2 -177.4(2) . . . .
C4 N1 C1 C9 -179.7(3) . . . 3_666
Ni1 N1 C1 C9 2.9(4) . . . 3_666
N1 C1 C2 C3 0.2(4) . . . .
C9 C1 C2 C3 179.7(4) 3_666 . . .
C1 C2 C3 C10 179.5(4) . . . .
C1 C2 C3 C4 -0.3(4) . . . .
C1 N1 C4 C3 -0.2(4) . . . .
Ni1 N1 C4 C3 176.7(2) . . . .
C1 N1 C4 C5 -179.9(3) . . . .
Ni1 N1 C4 C5 -3.0(5) . . . .
C10 C3 C4 N1 -179.4(5) . . . .
C2 C3 C4 N1 0.3(4) . . . .
C10 C3 C4 C5 0.2(7) . . . .
C2 C3 C4 C5 180.0(3) . . . .
N1 C4 C5 C6 4.5(5) . . . .
C3 C4 C5 C6 -175.2(3) . . . .
N1 C4 C5 C11 -174.7(3) . . . .
C3 C4 C5 C11 5.6(5) . . . .
C4 C5 C6 N2 -2.8(5) . . . .
C11 C5 C6 N2 176.3(3) . . . .
C4 C5 C6 C7 177.3(3) . . . .
C11 C5 C6 C7 -3.6(5) . . . .
C9 N2 C6 C5 -176.6(3) . . . .
Ni1 N2 C6 C5 -0.4(5) . . . .
C9 N2 C6 C7 3.4(4) . . . .
Ni1 N2 C6 C7 179.5(2) . . . .
C5 C6 C7 C8 176.5(3) . . . .
N2 C6 C7 C8 -3.4(3) . . . .
C6 C7 C8 C9 2.4(3) . . . .
C6 N2 C9 C1 177.9(3) . . . 3_666
Ni1 N2 C9 C1 1.2(4) . . . 3_666
C6 N2 C9 C8 -1.8(4) . . . .
Ni1 N2 C9 C8 -178.5(2) . . . .
C7 C8 C9 N2 -0.5(4) . . . .
C7 C8 C9 C1 179.9(4) . . . 3_666
C6 C5 C11 C16 84.2(4) . . . .
C4 C5 C11 C16 -96.6(4) . . . .
C6 C5 C11 C12 -98.6(4) . . . .
C4 C5 C11 C12 80.6(4) . . . .
C16 C11 C12 C13 -1.7(5) . . . .
C5 C11 C12 C13 -178.9(3) . . . .
C16 C11 C12 C17 178.9(3) . . . .
C5 C11 C12 C17 1.7(5) . . . .
C11 C12 C13 C14 -0.2(5) . . . .
C17 C12 C13 C14 179.2(4) . . . .
C12 C13 C14 C15 1.0(6) . . . .
C12 C13 C14 C18 -178.2(4) . . . .
C13 C14 C15 C16 0.2(6) . . . .
C18 C14 C15 C16 179.4(4) . . . .
C14 C15 C16 C11 -2.1(5) . . . .
C14 C15 C16 C19 176.9(3) . . . .
C12 C11 C16 C15 2.8(5) . . . .
C5 C11 C16 C15 -180.0(3) . . . .
C12 C11 C16 C19 -176.1(3) . . . .
C5 C11 C16 C19 1.1(5) . . . .
