#------------------------------------------------------------------------------
#$Date: 2017-02-04 15:23:52 +0200 (Sat, 04 Feb 2017) $
#$Revision: 191478 $
#$URL: file:///home/coder/svn-repositories/cod/cif/7/11/93/7119340.cif $
#------------------------------------------------------------------------------
#
# This file is available in the Crystallography Open Database (COD),
# http://www.crystallography.net/
#
# All data on this site have been placed in the public domain by the
# contributors.
#
data_7119340
loop_
_publ_author_name
'Yoshida, Takuya'
'Sakamaki, Daisuke'
'Seki, Shu'
'Shinokubo, Hiroshi'
_publ_section_title
;
 Enhancing the low-energy absorption band and charge mobility of
 antiaromatic Ni(II) norcorroles by their substituent effects.
;
_journal_issue                   6
_journal_name_full
'Chemical communications (Cambridge, England)'
_journal_page_first              1112
_journal_page_last               1115
_journal_paper_doi               10.1039/c6cc09444a
_journal_volume                  53
_journal_year                    2017
_chemical_formula_sum            'C51 H31.5 F9 N7.5 Ni1.5'
_chemical_formula_weight         1008.40
_chemical_name_systematic
;
 ?
;
_space_group_crystal_system      monoclinic
_space_group_IT_number           14
_space_group_name_Hall           '-P 2ybc'
_space_group_name_H-M_alt        'P 1 21/c 1'
_symmetry_space_group_name_Hall  '-P 2ybc'
_symmetry_space_group_name_H-M   'P 1 21/c 1'
_atom_sites_solution_hydrogens   geom
_audit_creation_method           SHELXL-2014
_audit_update_record
;
2016-10-27 deposited with the CCDC.
2016-12-20 downloaded from the CCDC.
;
_cell_angle_alpha                90
_cell_angle_beta                 94.759(3)
_cell_angle_gamma                90
_cell_formula_units_Z            4
_cell_length_a                   17.128(4)
_cell_length_b                   11.539(2)
_cell_length_c                   21.492(4)
_cell_measurement_reflns_used    13481
_cell_measurement_temperature    113(2)
_cell_measurement_theta_max      31.56
_cell_measurement_theta_min      1.90
_cell_volume                     4233.0(15)
_computing_cell_refinement       'CrystalClear (Rigaku Inc., 2008)'
_computing_data_collection       'CrystalClear (Rigaku Inc., 2008)'
_computing_data_reduction        'CrystalClear (Rigaku Inc., 2008)'
_computing_structure_refinement  'SHELXL-2014 (Sheldrick, 2014)'
_computing_structure_solution    'SIR97 (Altomare, et al., 1999)'
_diffrn_ambient_temperature      113(2)
_diffrn_detector_area_resol_mean 14.222
_diffrn_measured_fraction_theta_full 0.968
_diffrn_measured_fraction_theta_max 0.995
_diffrn_measurement_device_type  'Rigaku Saturn724'
_diffrn_measurement_method       \w
_diffrn_radiation_type           MoK\a
_diffrn_radiation_wavelength     0.71075
_diffrn_reflns_av_unetI/netI     0.0457
_diffrn_reflns_Laue_measured_fraction_full 0.968
_diffrn_reflns_Laue_measured_fraction_max 0.995
_diffrn_reflns_limit_h_max       24
_diffrn_reflns_limit_h_min       0
_diffrn_reflns_limit_k_max       16
_diffrn_reflns_limit_k_min       0
_diffrn_reflns_limit_l_max       29
_diffrn_reflns_limit_l_min       -27
_diffrn_reflns_number            12520
_diffrn_reflns_point_group_measured_fraction_full 0.968
_diffrn_reflns_point_group_measured_fraction_max 0.995
_diffrn_reflns_theta_full        25.242
_diffrn_reflns_theta_max         24.999
_diffrn_reflns_theta_min         1.902
_exptl_absorpt_coefficient_mu    0.763
_exptl_absorpt_correction_T_max  0.859
_exptl_absorpt_correction_T_min  0.692
_exptl_absorpt_correction_type   multi-scan
_exptl_absorpt_process_details   'REQAB (Rigaku, 1998)'
_exptl_crystal_colour            black
_exptl_crystal_density_diffrn    1.582
_exptl_crystal_density_method    'not measured'
_exptl_crystal_description       prism
_exptl_crystal_F_000             2052
_exptl_crystal_size_max          0.200
_exptl_crystal_size_mid          0.200
_exptl_crystal_size_min          0.200
_refine_diff_density_max         1.166
_refine_diff_density_min         -0.470
_refine_diff_density_rms         0.076
_refine_ls_extinction_method     none
_refine_ls_goodness_of_fit_ref   1.083
_refine_ls_hydrogen_treatment    constr
_refine_ls_matrix_type           full
_refine_ls_number_parameters     677
_refine_ls_number_reflns         7421
_refine_ls_number_restraints     60
_refine_ls_restrained_S_all      1.082
_refine_ls_R_factor_all          0.0784
_refine_ls_R_factor_gt           0.0695
_refine_ls_shift/su_max          0.000
_refine_ls_shift/su_mean         0.000
_refine_ls_structure_factor_coef Fsqd
_refine_ls_weighting_details
'w=1/[\s^2^(Fo^2^)+(0.0916P)^2^+6.1889P] where P=(Fo^2^+2Fc^2^)/3'
_refine_ls_weighting_scheme      calc
_refine_ls_wR_factor_gt          0.1807
_refine_ls_wR_factor_ref         0.1885
_reflns_Friedel_coverage         0.000
_reflns_number_gt                6445
_reflns_number_total             7421
_reflns_threshold_expression     'I > 2\s(I)'
_cod_data_source_file            c6cc09444a2.cif
_cod_data_source_block           shelxl
_cod_depositor_comments
'Adding full bibliography for 7119336--7119340.cif.'
_cod_original_cell_volume        4233.1(14)
_cod_original_formula_sum        'C51 H31.50 F9 N7.50 Ni1.50'
_cod_database_code               7119340
_shelx_space_group_comment
;
The symmetry employed for this shelxl refinement is uniquely defined
by the following loop, which should always be used as a source of
symmetry information in preference to the above space-group names.
They are only intended as comments.
;
_shelx_estimated_absorpt_t_min   0.862
_shelx_estimated_absorpt_t_max   0.862
_shelxl_version_number           2014-3
_shelx_res_file
;
TITL 160423test
REM  Yadorkari-X generated
CELL 0.71075 17.1283 11.5390 21.4919 90.0000 94.7592 90.0000
ZERR 4.0 0.0035 0.0022 0.0042 0.0000 0.0032 0.0000
LATT 1
SYMM    -X, .50+Y, .50-Z
REM  SPGR P21/c monoclinic
SFAC Ni N C H F
UNIT 6 30 204 126 36
SIZE 0.20 0.20 0.20
TEMP -159.8
L.S. 10
FMAP 2
PLAN -25
ACTA
CONF
BOND$H
OMIT -10.000000 50.000000

SIMU 0.02 C16 C17 C18 C19 N3 F1 F2 F3 F4 F5 F6
WGHT    0.091600    6.188900
FVAR       0.29264
C1    3    0.935510    0.203587    1.026161    11.00000    0.05554    0.04360 =
         0.03542   -0.00240   -0.00019    0.00151
C2    3    0.862587    0.260443    1.035467    11.00000    0.05664    0.04504 =
         0.05220   -0.00027    0.00461    0.00826
AFIX  43
H1    4    0.855034    0.340944    1.042029    11.00000   -1.20000
AFIX   0
C3    3    0.806019    0.175771    1.033025    11.00000    0.05031    0.05563 =
         0.04766    0.00131    0.00407    0.00544
AFIX  43
H2    4    0.751848    0.187994    1.037174    11.00000   -1.20000
AFIX   0
C4    3    0.842823    0.063902    1.023003    11.00000    0.04650    0.04594 =
         0.04463    0.00002   -0.00048    0.00757
C5    3    0.814540   -0.052363    1.016005    11.00000    0.05063    0.04598 =
         0.03774    0.00078   -0.00266    0.00450
C6    3    0.865695   -0.148623    1.001525    11.00000    0.05128    0.04875 =
         0.04154   -0.00017    0.00041   -0.00003
C7    3    0.855591   -0.271500    0.996288    11.00000    0.05862    0.05108 =
         0.04264    0.00138   -0.00386   -0.00480
AFIX  43
H3    4    0.808351   -0.312593    1.000878    11.00000   -1.20000
AFIX   0
C8    3    0.926616   -0.320515    0.983349    11.00000    0.05992    0.03799 =
         0.04630    0.00076    0.00007   -0.00091
AFIX  43
H4    4    0.936643   -0.400504    0.977222    11.00000   -1.20000
AFIX   0
C9    3    0.981386   -0.228426    0.981016    11.00000    0.05536    0.04509 =
         0.03959   -0.00268    0.00139    0.00182
C10   3    0.731878   -0.075656    1.024265    11.00000    0.05108    0.04532 =
         0.04385    0.00250   -0.00708    0.00136
C11   3    0.692266   -0.020235    1.071205    11.00000    0.04799    0.04673 =
         0.05858    0.00495    0.00065    0.00407
AFIX  43
H5    4    0.719410    0.035872    1.097118    11.00000   -1.20000
AFIX   0
C12   3    0.616109   -0.045095    1.080328    11.00000    0.05239    0.05763 =
         0.07222    0.00286    0.00840    0.00426
PART 1
AFIX  43
H6    4    0.591186   -0.005025    1.111835    10.50000   -1.20000
PART 0
AFIX   0
C13   3    0.574065   -0.128692    1.044025    11.00000    0.04726    0.06596 =
         0.10088    0.00750   -0.00525   -0.00448
PART 2
AFIX  43
H7    4    0.520996   -0.145738    1.050195    10.50000   -1.20000
PART 0
AFIX   0
C14   3    0.612660   -0.185493    0.998873    11.00000    0.05697    0.06490 =
         0.08186   -0.00352   -0.01325   -0.00600
PART 1
AFIX  43
H8    4    0.586147   -0.244774    0.974816    10.50000   -1.20000
PART 0
AFIX   0
C15   3    0.689000   -0.157984    0.987922    11.00000    0.05899    0.06001 =
         0.04885    0.00243   -0.00665   -0.00161
AFIX  43
H9    4    0.712747   -0.195794    0.955052    11.00000   -1.20000
PART 2
AFIX   0
C16   3    0.575927    0.016018    1.134586    10.50000    0.06212    0.05861 =
         0.08585   -0.00470    0.01622   -0.00799
PART 1
C17   3    0.457132   -0.088547    1.085497    10.50000    0.06691    0.10122 =
         0.17392    0.01452    0.04975    0.00570
AFIX 137
H10   4    0.471738   -0.113222    1.128524    10.50000   -1.50000
H11   4    0.401055   -0.102162    1.075292    10.50000   -1.50000
H12   4    0.468457   -0.005802    1.081280    10.50000   -1.50000
AFIX   0
C18   3    0.464693   -0.254379    1.016536    10.50000    0.04250    0.15123 =
         0.11160    0.00172    0.01087   -0.03633
AFIX 137
H13   4    0.469361   -0.252548    0.971408    10.50000   -1.50000
H14   4    0.409209   -0.257158    1.024493    10.50000   -1.50000
H15   4    0.491448   -0.323207    1.034493    10.50000   -1.50000
PART 2
AFIX   0
C19   3    0.563146   -0.284738    0.967441    10.50000    0.06852    0.13101 =
         0.07920   -0.03420    0.01513   -0.03887
PART 0
C20   3    0.827782    0.166980    0.875759    11.00000    0.05272    0.03803 =
         0.04999   -0.00177   -0.00280    0.00301
C21   3    0.746511    0.154825    0.878779    11.00000    0.05168    0.04120 =
         0.05781    0.00214    0.00019    0.00164
AFIX  43
H16   4    0.710719    0.215111    0.886318    11.00000   -1.20000
AFIX   0
C22   3    0.727935    0.038380    0.868718    11.00000    0.05178    0.04237 =
         0.05573    0.00141   -0.00382   -0.00098
AFIX  43
H17   4    0.677190    0.004996    0.868244    11.00000   -1.20000
AFIX   0
C23   3    0.798659   -0.021622    0.859273    11.00000    0.04932    0.03744 =
         0.05027    0.00176   -0.00481   -0.00372
C24   3    0.816701   -0.140284    0.843064    11.00000    0.05355    0.03896 =
         0.04318   -0.00017   -0.00107   -0.00363
C25   3    0.893397   -0.180609    0.836061    11.00000    0.05486    0.03986 =
         0.03954   -0.00095   -0.00499   -0.00133
C26   3    0.924612   -0.286875    0.812709    11.00000    0.06138    0.04067 =
         0.04239   -0.00103   -0.00837    0.00300
AFIX  43
H18   4    0.896344   -0.356796    0.804472    11.00000   -1.20000
AFIX   0
C27   3    1.002688   -0.268945    0.804477    11.00000    0.05992    0.04207 =
         0.04616   -0.00571   -0.00020    0.00820
AFIX  43
H19   4    1.037739   -0.323558    0.788928    11.00000   -1.20000
AFIX   0
C28   3    1.021155   -0.151970    0.823854    11.00000    0.05911    0.04511 =
         0.03853   -0.00278   -0.00671    0.00583
C29   3    1.084605   -0.064135    0.822178    11.00000    0.05525    0.04061 =
         0.04387   -0.00111   -0.00348    0.00506
C30   3    1.157419   -0.046159    0.798992    11.00000    0.06532    0.04814 =
         0.04592   -0.00086    0.00211    0.01301
AFIX  43
H20   4    1.188241   -0.103043    0.780491    11.00000   -1.20000
AFIX   0
C31   3    1.176880    0.071516    0.807997    11.00000    0.05486    0.05221 =
         0.04808    0.00435    0.00029    0.00851
AFIX  43
H21   4    1.223405    0.108494    0.797134    11.00000   -1.20000
AFIX   0
C32   3    1.113937    0.124669    0.836370    11.00000    0.04672    0.04676 =
         0.04070   -0.00003   -0.00291    0.00389
C33   3    1.094498    0.245692    0.847430    11.00000    0.04963    0.03887 =
         0.04177   -0.00301   -0.00144    0.00015
C34   3    1.019561    0.280508    0.861551    11.00000    0.04847    0.04048 =
         0.04304    0.00053   -0.00091   -0.00155
C35   3    0.984842    0.392877    0.874501    11.00000    0.05248    0.03848 =
         0.05289   -0.00540   -0.00020    0.00043
AFIX  43
H22   4    1.011279    0.465320    0.876725    11.00000   -1.20000
AFIX   0
C36   3    0.906596    0.374682    0.882924    11.00000    0.04788    0.04113 =
         0.06069   -0.00248    0.00437    0.00340
AFIX  43
H23   4    0.869488    0.432554    0.891419    11.00000   -1.20000
AFIX   0
C37   3    0.891626    0.253793    0.876591    11.00000    0.04264    0.04536 =
         0.04968    0.00052   -0.00152    0.00113
C38   3    0.748555   -0.218682    0.827252    11.00000    0.05245    0.04254 =
         0.04239   -0.00411    0.00502   -0.00559
C39   3    0.684176   -0.178439    0.789117    11.00000    0.04957    0.04959 =
         0.05255   -0.00190   -0.00017   -0.00016
AFIX  43
H24   4    0.685171   -0.102811    0.771733    11.00000   -1.20000
AFIX   0
C40   3    0.618444   -0.248641    0.776413    11.00000    0.04678    0.05723 =
         0.06965   -0.00005    0.00467   -0.00004
C41   3    0.616885   -0.359616    0.799362    11.00000    0.04514    0.05448 =
         0.09807   -0.00256    0.00320   -0.00506
AFIX  43
H25   4    0.572434   -0.407706    0.790030    11.00000   -1.20000
AFIX   0
C42   3    0.681557   -0.400565    0.836562    11.00000    0.05401    0.04476 =
         0.08683    0.00749    0.00814   -0.00272
C43   3    0.746917   -0.331416    0.850533    11.00000    0.05532    0.04120 =
         0.05666   -0.00103    0.00406    0.00121
AFIX  43
H26   4    0.790504   -0.360801    0.875923    11.00000   -1.20000
AFIX   0
C44   3    0.549713   -0.202173    0.735896    11.00000    0.04464    0.06623 =
         0.10134   -0.00251   -0.00773    0.00030
C45   3    0.680269   -0.522690    0.858390    11.00000    0.05838    0.07071 =
         0.11684    0.01817   -0.00635   -0.00550
C46   3    1.154538    0.334060    0.840156    11.00000    0.04947    0.04520 =
         0.04121   -0.00051    0.00244    0.00259
C47   3    1.231137    0.320215    0.867362    11.00000    0.05237    0.04640 =
         0.04896    0.00456    0.00167    0.00319
AFIX  43
H27   4    1.245287    0.249418    0.887863    11.00000   -1.20000
AFIX   0
C48   3    1.286793    0.406734    0.865229    11.00000    0.04537    0.05701 =
         0.05899    0.00282    0.00479    0.00170
AFIX  43
H28   4    1.337380    0.396322    0.886135    11.00000   -1.20000
AFIX   0
C49   3    1.268946    0.509919    0.832325    11.00000    0.04732    0.04824 =
         0.06135    0.00383    0.00983   -0.00202
C50   3    1.193044    0.522414    0.802720    11.00000    0.05141    0.04944 =
         0.05523    0.00958    0.01140    0.00614
AFIX  43
H29   4    1.179981    0.590678    0.779429    11.00000   -1.20000
AFIX   0
C51   3    1.137157    0.437012    0.806958    11.00000    0.04824    0.04552 =
         0.04679    0.00173   -0.00050    0.00542
AFIX  43
H30   4    1.086080    0.448126    0.787068    11.00000   -1.20000
AFIX   0
C52   3    1.395713    0.591249    0.869898    11.00000    0.06291    0.07215 =
         0.12417    0.02058   -0.00875   -0.02534
AFIX 137
H31   4    1.380874    0.594891    0.912923    11.00000   -1.50000
H32   4    1.429100    0.657661    0.861873    11.00000   -1.50000
H33   4    1.424440    0.519210    0.863877    11.00000   -1.50000
AFIX   0
C53   3    1.301304    0.706573    0.801794    11.00000    0.06773    0.05549 =
         0.11277    0.01952    0.00823   -0.00743
AFIX 137
H34   4    1.274636    0.696608    0.760006    11.00000   -1.50000
H35   4    1.347445    0.756015    0.799221    11.00000   -1.50000
H36   4    1.265441    0.742933    0.829202    11.00000   -1.50000
AFIX   0
N1    2    0.920685    0.089347    1.019275    11.00000    0.05012    0.04397 =
         0.04487   -0.00511   -0.00145    0.00024
N2    2    0.942080   -0.127989    0.991440    11.00000    0.04750    0.04556 =
         0.04248   -0.00258    0.00138    0.00399
PART 1
N3    2    0.500050   -0.151838    1.044772    10.50000    0.04053    0.10071 =
         0.13022    0.01561    0.03186    0.00350
PART 0
N4    2    0.856915    0.059239    0.865185    11.00000    0.04875    0.03946 =
         0.05197   -0.00196   -0.00254   -0.00040
N5    2    0.956627   -0.104548    0.844225    11.00000    0.04903    0.04085 =
         0.04964   -0.00218   -0.00397    0.00316
N6    2    1.060497    0.039406    0.844254    11.00000    0.05125    0.03811 =
         0.04363   -0.00152   -0.00221    0.00417
N7    2    0.959820    0.201646    0.865101    11.00000    0.04621    0.04152 =
         0.04974   -0.00094    0.00114   -0.00155
N8    2    1.325594    0.594191    0.826918    11.00000    0.05084    0.05640 =
         0.10108    0.01913    0.00619   -0.00424
NI1   1    1.000000    0.000000    1.000000    10.50000    0.04580    0.04141 =
         0.04775   -0.00393    0.00119    0.00288
NI2   1    0.959678    0.047555    0.859285    11.00000    0.04735    0.03625 =
         0.05224   -0.00329   -0.00332    0.00055
PART 2
F1    5    0.621067    0.022982    1.189236    10.50000    0.09632    0.09225 =
         0.06815   -0.00508    0.02542    0.01650
F2    5    0.559686    0.127228    1.119834    10.50000    0.11235    0.06995 =
         0.10109   -0.00923    0.00375    0.02566
F3    5    0.508258   -0.030895    1.149294    10.50000    0.08832    0.12413 =
         0.16808   -0.06634    0.07826   -0.04134
F4    5    0.496041   -0.311527    0.988864    10.50000    0.08019    0.17466 =
         0.10055   -0.05582    0.04492   -0.07433
F5    5    0.550608   -0.256996    0.908561    10.50000    0.08918    0.23065 =
         0.08146   -0.05557    0.00962   -0.08476
F6    5    0.606395   -0.385073    0.967951    10.50000    0.12204    0.12488 =
         0.17188   -0.06617    0.00923   -0.05306
PART 0
F7    5    0.555655   -0.218780    0.674945    11.00000    0.06816    0.11312 =
         0.08853    0.01821   -0.01673   -0.01136
F8    5    0.539642   -0.089423    0.743098    11.00000    0.09220    0.08033 =
         0.17967   -0.01262   -0.05280    0.02893
F9    5    0.482576   -0.254738    0.747769    11.00000    0.04632    0.13061 =
         0.12213    0.02714    0.00031   -0.00293
F10   5    0.722640   -0.538509    0.913419    11.00000    0.08574    0.06570 =
         0.10463    0.02666    0.01068   -0.00857
F11   5    0.611039   -0.566071    0.863248    11.00000    0.08301    0.09718 =
         0.20226    0.06168   -0.00909   -0.03799
F12   5    0.713808   -0.596482    0.818509    11.00000    0.18203    0.05248 =
         0.15026    0.00033    0.02349    0.00813

HKLF 4

REM  160423test
REM R1 =  0.0695 for    6445 Fo > 4sig(Fo)  and  0.0784 for all    7421 data
REM    677 parameters refined using     60 restraints

END

WGHT      0.0916      6.1891

REM Highest difference peak  1.166,  deepest hole -0.470,  1-sigma level  0.076
Q1    1   0.3700  0.0011  1.1213  11.00000  0.05    1.17
Q2    1   0.7057  0.2225  1.0289  11.00000  0.05    1.14
Q3    1   0.6196 -0.4931  0.9254  11.00000  0.05    0.82
Q4    1   0.8498  0.4019  1.0427  11.00000  0.05    0.55
Q5    1   0.7867 -0.3834  1.0000  11.00000  0.05    0.49
Q6    1   0.9820  0.0191  0.8265  11.00000  0.05    0.42
Q7    1   1.0020  0.0951  1.0010  11.00000  0.05    0.39
Q8    1   0.9394 -0.4380  0.9782  11.00000  0.05    0.35
Q9    1   0.9134 -0.4210  0.7996  11.00000  0.05    0.32
Q10   1   0.9344  0.0635  0.9711  11.00000  0.05    0.30
Q11   1   1.0784  0.4990  0.7816  11.00000  0.05    0.29
Q12   1   0.4949  0.1254  1.2012  11.00000  0.05    0.27
Q13   1   1.2518  0.0847  0.7836  11.00000  0.05    0.27
Q14   1   0.5716 -0.3873  1.0112  11.00000  0.05    0.26
Q15   1   1.0910 -0.1573  0.8056  11.00000  0.05    0.25
Q16   1   0.8930 -0.0006  0.8271  11.00000  0.05    0.25
Q17   1   0.5776 -0.1426  0.9966  11.00000  0.05    0.25
Q18   1   0.9402 -0.1274  0.8267  11.00000  0.05    0.24
Q19   1   0.9377 -0.0590  0.9580  11.00000  0.05    0.24
Q20   1   0.9527  0.1062  0.9147  11.00000  0.05    0.24
Q21   1   0.6562 -0.5951  0.8379  11.00000  0.05    0.23
Q22   1   0.5022  0.0354  1.1261  11.00000  0.05    0.22
Q23   1   0.8206 -0.0248  0.9977  11.00000  0.05    0.22
Q24   1   1.1019  0.1949  0.8418  11.00000  0.05    0.22
Q25   1   0.4785 -0.2293  0.9690  11.00000  0.05    0.22
;
_shelx_res_checksum              43756
_shelx_hkl_file
;
   0   0   2    9.80    0.85
   0   0   4 2250.69   36.80
   0   0   8 4229.69   73.77
   0   0  10   64.00    1.14
   0   0  12   47.06    2.54
   0   0  14  543.94   20.94
   0   0  16  146.03    1.58
   0   0  18  228.04    8.06
   0   0  20    1.01    0.51
   0   0  22   18.96    5.37
   0   0  24    0.84    0.70
   0   1   110062.47 2506.20
   0   1   3  506.25    3.87
   0   1   4   40.81    0.98
   0   1   5  739.34   11.18
   0   1   6 7647.90  778.36
   0   1   7 3376.09   63.07
   0   1   8   62.97    1.57
   0   1   9   59.63    1.60
   0   1  10   23.61    1.54
   0   1  11   64.29    2.59
   0   1  12 1010.11   11.50
   0   1  13  451.33    5.48
   0   1  14  327.16   11.51
   0   1  15  267.34    5.50
   0   1  16   -0.12    0.34
   0   1  17   20.31    1.65
   0   1  18    5.77    1.01
   0   1  19    1.05    0.40
   0   1  20   44.09    2.18
   0   1  21   21.83    3.25
   0   1  22    1.65    0.63
   0   1  23    3.54    1.16
   0   1  24    0.51    1.04
   0   1  25    4.46    1.84
   0   2   0  303.27    3.15
   0   2   1  105.78    1.13
   0   2   2   48.49    2.48
   0   2   3  394.94    3.80
   0   2   4 3568.90   18.26
   0   2   5   14.86    1.13
   0   2   6   75.50    1.95
   0   2   7    6.35    0.57
   0   2   8   31.22    1.18
   0   2   9    9.01    1.01
   0   2  10    9.66    0.84
   0   2  11    9.93    0.87
   0   2  12    7.59    0.69
   0   2  13  307.73    5.09
   0   2  14  644.07   18.91
   0   2  15    7.04    0.66
   0   2  16   49.39    1.94
   0   2  17   11.01    1.16
   0   2  18   69.91    4.08
   0   2  19   47.67    2.70
   0   2  20   34.42    1.97
   0   2  21    1.18    0.54
   0   2  22   29.41    2.74
   0   2  23    3.72    2.38
   0   2  24    1.90    0.75
   0   2  25    2.14    1.41
   0   3   1  280.90    4.90
   0   3   2 2061.91   32.71
   0   3   3  797.07    4.64
   0   3   4   62.34    1.34
   0   3   5   20.88    1.19
   0   3   6    3.10    0.52
   0   3   7  531.99   10.97
   0   3   8    4.78    0.78
   0   3   9   29.14    2.15
   0   3  10  152.58    1.97
   0   3  11   51.59    0.90
   0   3  12   12.88    1.03
   0   3  13   94.44    2.42
   0   3  14   15.51    1.29
   0   3  15  398.70   13.29
   0   3  16  144.37    1.38
   0   3  17   12.13    1.03
   0   3  18    1.48    0.45
   0   3  19   17.24    2.34
   0   3  20   73.54    2.57
   0   3  21  101.34    5.91
   0   3  22    2.99    0.81
   0   3  23    2.52    1.64
   0   3  24    1.97    0.95
   0   3  25    3.48    1.54
   0   4   0  644.21   13.40
   0   4   1  189.51    4.45
   0   4   2    3.24    0.55
   0   4   3  196.96    2.64
   0   4   4    8.75    0.60
   0   4   5  504.90    4.12
   0   4   6   29.68    5.94
   0   4   7  207.12    5.27
   0   4   8   25.86    2.12
   0   4   9  485.69    6.37
   0   4  10   16.23    1.50
   0   4  11  222.14    3.36
   0   4  12   14.69    1.23
   0   4  13   18.04    1.33
   0   4  14  141.22    1.49
   0   4  15  133.02    3.17
   0   4  16   16.86    2.25
   0   4  17    1.03    0.38
   0   4  18   71.43    1.73
   0   4  19    0.85    0.50
   0   4  20    8.80    1.83
   0   4  21    3.26    0.86
   0   4  22   40.00    5.05
   0   4  23    1.70    1.14
   0   4  24    3.29    1.54
   0   4  25   -1.48    1.18
   0   4  26    2.36    0.96
   0   5   1  219.73    4.70
   0   5   2 2101.66   19.53
   0   5   3   33.40    2.56
   0   5   4  117.67    1.85
   0   5   5   29.58    2.60
   0   5   6  891.90    7.98
   0   5   7  216.62    3.23
   0   5   8  373.58    7.96
   0   5   9  121.23    9.03
   0   5  10   49.38    2.54
   0   5  11   18.58    1.95
   0   5  12  415.47    7.33
   0   5  13    1.75    0.36
   0   5  14   31.19    3.81
   0   5  15   46.10    0.94
   0   5  16  287.03    2.11
   0   5  17   30.98    1.60
   0   5  18    2.58    0.61
   0   5  19   -0.33    0.65
   0   5  20   12.48    2.05
   0   5  21    0.51    0.45
   0   5  22   18.55    3.87
   0   5  23   22.63    6.66
   0   5  24   12.93    2.06
   0   5  25    1.07    1.04
   0   5  26    1.40    1.21
   0   6   0  159.36    7.17
   0   6   1  288.12   19.99
   0   6   2  500.42   11.21
   0   6   3  133.23    3.96
   0   6   4   19.84    1.66
   0   6   5  548.77   19.24
   0   6   6   20.16    1.65
   0   6   7   50.26    3.11
   0   6   8   26.28    2.26
   0   6   9  348.34    6.66
   0   6  10  103.64    2.14
   0   6  11    4.92    1.47
   0   6  12   30.46    2.93
   0   6  13  143.02    6.90
   0   6  14  106.15    4.92
   0   6  15   53.49    2.03
   0   6  16   20.26    2.14
   0   6  17  107.99    3.23
   0   6  18  105.32    5.03
   0   6  19    8.08    1.49
   0   6  20   12.27    2.15
   0   6  21    3.06    0.95
   0   6  22    0.75    0.92
   0   6  23   16.06    4.97
   0   6  24   20.60    8.62
   0   6  25    0.25    0.62
   0   6  26    2.30    0.98
   0   7   1   78.95    7.79
   0   7   2  501.81   27.31
   0   7   3   19.68    1.64
   0   7   4   15.18    1.68
   0   7   5  119.85    5.03
   0   7   6  312.61    3.39
   0   7   7    7.71    1.03
   0   7   8   64.41    3.21
   0   7   9   69.20    3.48
   0   7  10   49.27    3.35
   0   7  11  162.61    2.14
   0   7  12  160.31    3.96
   0   7  13   18.60    1.61
   0   7  14    6.50    1.10
   0   7  15   30.72    3.06
   0   7  16   71.54    2.96
   0   7  17  132.37    8.55
   0   7  18    1.25    0.73
   0   7  19   27.08    3.51
   0   7  20   13.32    3.46
   0   7  21   20.48    5.18
   0   7  22    2.55    0.64
   0   7  23   12.07    5.55
   0   7  24    2.59    2.21
   0   7  25   16.93    7.51
   0   7  26    1.67    1.10
   0   7  27    4.06    1.71
   0   8   0   52.16   20.12
   0   8   1  139.60    4.05
   0   8   2   65.68    3.91
   0   8   3   63.13    5.35
   0   8   4  127.53    2.34
   0   8   5   81.95    4.52
   0   8   6   15.03    1.50
   0   8   7   16.93    1.72
   0   8   8    2.86    0.90
   0   8   9  306.14    6.96
   0   8  10   63.81    3.45
   0   8  11    2.97    0.83
   0   8  12   81.11    2.94
   0   8  13   32.64    3.30
   0   8  14    3.37    0.78
   0   8  15   14.39    1.70
   0   8  16   14.34    1.84
   0   8  17   17.78    2.78
   0   8  18  178.41    8.46
   0   8  19    1.20    1.31
   0   8  20   10.21    2.20
   0   8  21    1.56    0.89
   0   8  22    2.04    0.89
   0   8  23    1.50    1.27
   0   8  24   16.42    5.83
   0   8  25    1.17    1.26
   0   8  26   13.55    4.20
   0   8  27   -0.90    1.07
   0   9   1  129.76    6.71
   0   9   2   54.51    4.19
   0   9   3  502.13   11.36
   0   9   4   46.93    3.43
   0   9   5    0.88    0.82
   0   9   6   42.65    3.35
   0   9   7   32.38    2.77
   0   9   8   51.21    4.65
   0   9   9   12.85    1.99
   0   9  10   -0.02    1.14
   0   9  11   86.50    6.28
   0   9  12    5.84    1.12
   0   9  13   31.90    7.19
   0   9  14   18.54    2.33
   0   9  15   16.59    2.25
   0   9  16    1.79    0.84
   0   9  17    7.12    1.29
   0   9  18    2.50    0.60
   0   9  19   25.84    6.94
   0   9  20    5.09    1.55
   0   9  21    1.18    0.77
   0   9  22    1.76    0.89
   0   9  23    0.34    0.88
   0   9  24    2.08    1.48
   0   9  25    1.74    1.09
   0   9  26    2.15    1.04
   0  10   0   63.71    5.57
   0  10   1   12.93    2.59
   0  10   2   11.41    1.25
   0  10   3   18.02    2.14
   0  10   4  181.32    3.00
   0  10   5    4.58    1.71
   0  10   6    1.75    1.04
   0  10   7   49.51    4.79
   0  10   8   13.11    1.50
   0  10   9    8.69    2.04
   0  10  10   52.72    4.08
   0  10  11    5.44    1.55
   0  10  12   30.99    2.59
   0  10  13    2.24    0.87
   0  10  14   14.29    1.68
   0  10  15    1.20    0.67
   0  10  16    3.04    0.72
   0  10  17    2.83    0.81
   0  10  18   19.95    5.20
   0  10  19    1.29    1.38
   0  10  20    1.21    1.18
   0  10  21    0.34    0.93
   0  10  22   -0.62    1.39
   0  10  23    1.90    1.39
   0  10  24    2.38    1.30
   0  11   1   34.88    3.04
   0  11   2   12.49    1.45
   0  11   3  297.73   16.99
   0  11   4   23.50    2.22
   0  11   5   14.74    2.27
   0  11   6    4.43    1.16
   0  11   7  112.80    9.72
   0  11   8    3.58    0.97
   0  11   9   43.62    4.57
   0  11  10    1.58    0.96
   0  11  11   80.49    3.96
   0  11  12    1.20    0.95
   0  11  13   10.04    1.47
   0  11  14    3.66    0.87
   0  11  15    1.11    1.14
   0  11  16    3.35    0.90
   0  11  17    5.80    1.81
   0  11  18    2.93    1.31
   0  11  19    5.63    2.25
   0  11  20    0.19    2.82
   0  11  21    0.92    1.92
   0  11  22    1.28    1.37
   0  12   0    2.27    4.44
   0  12   1   16.41    1.73
   0  12   2   16.05    2.20
   0  12   3    5.29    1.04
   0  12   4  107.63    5.49
   0  12   5    7.55    1.24
   0  12   6    2.00    1.20
   0  12   7    4.97    1.12
   0  12   8    1.15    1.16
   0  12   9   21.68    2.26
   0  12  10   13.98    2.28
   0  12  11    2.34    1.69
   0  12  12   10.55    1.48
   0  12  13   17.30    4.02
   0  12  14    3.25    0.82
   0  12  15   -0.15    1.04
   0  12  16    0.50    3.48
   0  12  17    2.74    2.19
   0  12  18   23.65    8.70
   0  12  19    9.92    1.99
   0  12  20    0.30    2.00
   0  12  21    0.71    1.04
   0  13   1    1.66    0.81
   0  13   2   21.95    2.06
   0  13   3   90.15    5.84
   0  13   4    1.81    1.55
   0  13   5    5.35    1.33
   0  13   6    3.76    1.82
   0  13   7    2.95    1.42
   0  13   8   12.26    1.74
   0  13   9   20.09    4.07
   0  13  10    9.36    1.32
   0  13  11   28.28    4.40
   0  13  12   12.86    2.71
   0  13  13    2.89    1.00
   0  13  14    1.19    0.62
   0  13  15    2.59    1.44
   0  13  16    4.48    1.11
   0  13  17    9.09    2.94
   0  13  18    4.65    1.94
   0  14   0    4.77    4.54
   0  14   1    6.59    1.02
   0  14   2    6.84    1.39
   0  14   3    1.89    1.29
   0  14   4   53.11    3.32
   0  14   5   20.19    3.14
   0  14   6    4.16    0.90
   0  14   7    2.50    1.36
   0  14   8    3.32    1.51
   0  14   9   26.87    5.08
   0  14  10   21.60    3.43
   0  14  11    5.12    1.66
   0  14  12    6.12    1.51
   0  14  13    6.51    1.55
   0  14  14    5.13    1.98
   0  15   1    7.83    1.92
   0  15   2   32.33    4.39
   0  15   3    4.56    1.43
   0  15   4    7.05    1.51
   0  15   5    9.60    1.67
   0  15   6   14.03    2.50
   0  15   7    7.76    0.88
   0  15   8    5.56    0.96
   0  15   9    0.39    1.07
   0  15  10    1.21    1.07
   0  15  11    5.93    2.13
   0  15  12    2.30    1.41
   0  16   0   -1.01    2.31
   0  16   1    3.42    0.90
   0  16   2    2.08    1.29
   0  16   3    3.70    2.06
   0  16   4    4.63    1.59
   0  16   5    3.19    1.17
   0  16   6    3.15    1.39
   0  16   7    1.06    1.19
   0  16   8    1.40    1.02
   0  16   9    7.99    3.76
   0  16  10   -3.65    3.23
   1   0 -22    7.82    2.72
   1   0 -20   45.36    1.53
   1   0 -18   29.98    1.21
   1   0 -16   45.67    2.76
   1   0 -14  492.53    9.11
   1   0 -12  448.36    7.96
   1   0 -10  148.87    3.91
   1   0  -8  759.23    5.65
   1   0  -6 1985.85   18.62
   1   0  -4 1268.26   12.92
   1   0   2   69.12    1.11
   1   0   4 1039.78   30.42
   1   0   8 1514.93   60.74
   1   0  10  105.95    1.46
   1   0  12  275.59    6.00
   1   0  14  719.16   36.97
   1   0  16    9.98    1.55
   1   0  18   43.56    1.26
   1   0  20   18.61    4.39
   1   0  22    8.59    3.05
   1   0  24   53.39    9.40
   1   1 -24    2.44    1.08
   1   1 -23   13.12    2.93
   1   1 -22    2.10    1.77
   1   1 -21   30.40    1.54
   1   1 -20    7.69    1.41
   1   1 -19    0.32    0.39
   1   1 -18    5.33    0.69
   1   1 -17   12.46    1.32
   1   1 -16    2.22    0.47
   1   1 -15   27.36    1.49
   1   1 -14    0.83    0.26
   1   1 -13   53.72    0.84
   1   1 -12    3.68    0.43
   1   1 -11  117.14    2.49
   1   1 -10  204.82    3.91
   1   1  -9  305.32    3.86
   1   1  -8  198.10    2.80
   1   1  -7 1769.30   36.55
   1   1  -6  574.06    6.33
   1   1  -5   32.50    3.62
   1   1  -4  140.03    1.85
   1   1  -3 1945.78   18.73
   1   1  -2  230.75    2.89
   1   1  -1 4237.67   44.71
   1   1   0 1262.95    9.34
   1   1   2  669.36    6.70
   1   1   3  212.92    5.25
   1   1   4  777.90    6.08
   1   1   5 5760.19   94.64
   1   1   6 7538.42  767.70
   1   1   7 6380.42   47.22
   1   1   8  104.28    1.82
   1   1   9  384.49    7.34
   1   1  10  169.66    3.74
   1   1  11   14.53    1.28
   1   1  12 1903.27   19.83
   1   1  13 1861.75   45.83
   1   1  14  534.01   12.34
   1   1  15  141.55    2.14
   1   1  16   77.91    2.25
   1   1  17    9.17    1.19
   1   1  18  126.92    2.06
   1   1  19    9.26    2.16
   1   1  20   50.81    3.10
   1   1  21  110.63    7.39
   1   1  22    1.88    0.83
   1   1  23    0.94    0.81
   1   1  24    2.44    0.92
   1   1  25   15.49    6.19
   1   2 -24    0.28    0.88
   1   2 -23   11.83    4.12
   1   2 -22   26.09    3.65
   1   2 -21    1.96    0.60
   1   2 -20    0.86    0.42
   1   2 -19    0.57    0.36
   1   2 -18   16.08    1.85
   1   2 -17   56.13    1.78
   1   2 -16   11.84    1.54
   1   2 -15    5.96    0.58
   1   2 -14  103.05    1.00
   1   2 -13   19.84    1.05
   1   2 -12   36.30    1.23
   1   2 -11  171.35    2.98
   1   2 -10   61.55    1.40
   1   2  -9    4.75    1.05
   1   2  -8  672.14    9.72
   1   2  -7 1250.34   16.12
   1   2  -6  420.80    9.69
   1   2  -5   56.56    0.94
   1   2  -4 2158.15   32.04
   1   2  -3  138.35    2.02
   1   2  -2  208.35    3.53
   1   2  -1   47.45    0.76
   1   2   0  380.40    2.86
   1   2   1   25.72    1.36
   1   2   2   31.80    1.17
   1   2   3  804.14    6.74
   1   2   4  144.87    2.35
   1   2   5  976.72    8.65
   1   2   6 1800.97   40.59
   1   2   7  207.68    3.51
   1   2   8   74.69    1.69
   1   2   9  200.30    4.39
   1   2  10   31.29    2.08
   1   2  11  550.52    9.19
   1   2  12  651.98   17.28
   1   2  13  467.18    5.90
   1   2  14  197.68    1.41
   1   2  15   41.04    1.90
   1   2  16    7.02    0.97
   1   2  17    2.95    0.71
   1   2  18   57.63    1.23
   1   2  19  172.64    2.98
   1   2  20  200.49    5.60
   1   2  21    1.16    1.09
   1   2  22   36.05    3.80
   1   2  23   16.57    3.87
   1   2  24    1.42    1.43
   1   2  25   -0.22    1.18
   1   2  26    0.81    1.08
   1   3 -25    3.65    1.69
   1   3 -24    0.89    0.94
   1   3 -23   11.48    3.66
   1   3 -22    1.18    0.66
   1   3 -21   38.23    1.62
   1   3 -20    7.31    1.12
   1   3 -19    3.25    0.78
   1   3 -18    0.59    0.44
   1   3 -17    1.11    0.22
   1   3 -16    4.74    0.93
   1   3 -15  123.00    3.87
   1   3 -14   87.70    2.50
   1   3 -13   18.49    1.22
   1   3 -12    2.62    0.40
   1   3 -11   35.71    1.52
   1   3 -10   13.28    1.11
   1   3  -9  480.03    5.83
   1   3  -8   64.39    4.47
   1   3  -7  782.77    5.80
   1   3  -6  170.97    5.07
   1   3  -5   52.17    0.85
   1   3  -4   25.97    1.15
   1   3  -3    5.73    0.70
   1   3  -2  918.57    8.01
   1   3  -1    6.27    0.78
   1   3   0  453.56    6.62
   1   3   1 1220.38   14.83
   1   3   2    0.92    0.48
   1   3   3  289.78    3.76
   1   3   4 1984.51   20.84
   1   3   5    4.46    0.57
   1   3   6    5.91    0.75
   1   3   7  190.65    3.96
   1   3   8  205.99    4.28
   1   3   9   42.51    1.95
   1   3  10   50.44    2.26
   1   3  11  101.50    2.70
   1   3  12    7.74    0.77
   1   3  13   93.86    2.25
   1   3  14   26.75    2.44
   1   3  15  277.38    6.98
   1   3  16   47.87    2.31
   1   3  17    0.18    0.12
   1   3  18    4.71    0.85
   1   3  19   66.50    2.66
   1   3  20   21.06    3.50
   1   3  21   85.76    5.22
   1   3  22   35.79    3.40
   1   3  23    0.36    1.70
   1   3  24    2.20    0.92
   1   3  25    3.83    1.06
   1   3  26    2.31    2.19
   1   4 -25   -0.00    0.94
   1   4 -24    7.74    2.96
   1   4 -23    3.20    1.38
   1   4 -22    7.91    1.89
   1   4 -21    1.54    0.73
   1   4 -20    6.60    1.29
   1   4 -19  102.21    3.06
   1   4 -18    2.80    0.61
   1   4 -17    0.45    0.38
   1   4 -16   29.71    1.54
   1   4 -15   17.07    2.86
   1   4 -14  122.24    2.68
   1   4 -13  125.97    2.66
   1   4 -12  199.70    1.60
   1   4 -11   70.13    1.39
   1   4 -10   97.83    2.60
   1   4  -9  476.27   11.56
   1   4  -8   54.72    2.64
   1   4  -7    4.49    0.72
   1   4  -6   20.67    2.50
   1   4  -5 1055.09    6.14
   1   4  -4  236.30    3.03
   1   4  -3   47.50    1.30
   1   4  -2   93.78    1.25
   1   4  -1  839.02    4.19
   1   4   0  179.37    2.39
   1   4   1   37.66    1.79
   1   4   2  326.11    2.88
   1   4   3  180.21    2.61
   1   4   4   44.44    0.78
   1   4   5   53.07    2.69
   1   4   6  765.78    5.75
   1   4   7   37.55    1.96
   1   4   8  142.69    2.34
   1   4   9  900.02   16.31
   1   4  10   22.95    1.63
   1   4  11  150.00    1.94
   1   4  12    7.25    0.89
   1   4  13   85.09    3.27
   1   4  14  147.20    5.32
   1   4  15  159.08    2.21
   1   4  16   25.57    1.36
   1   4  17    2.76    0.57
   1   4  18   32.21    1.32
   1   4  19   20.19    2.67
   1   4  20  105.13    6.07
   1   4  21   -0.18    1.39
   1   4  22   25.93    4.72
   1   4  23   12.19    5.22
   1   4  24    9.71    3.69
   1   4  25    3.33    1.51
   1   4  26    3.48    1.19
   1   5 -25    8.44    4.30
   1   5 -24    5.90    1.44
   1   5 -23    2.27    1.10
   1   5 -22    4.55    1.49
   1   5 -21    1.25    0.74
   1   5 -20   78.71    4.45
   1   5 -19   11.15    1.54
   1   5 -18    0.48    0.48
   1   5 -17   10.88    2.53
   1   5 -16   88.99    4.13
   1   5 -15    0.74    0.29
   1   5 -14   51.35    2.04
   1   5 -13    9.01    1.33
   1   5 -12  313.79    6.25
   1   5 -11   21.88    2.77
   1   5 -10  103.41    1.38
   1   5  -9   99.73    2.59
   1   5  -8  152.06   10.06
   1   5  -7  249.45    7.71
   1   5  -6 1300.85   14.03
   1   5  -5  439.90   10.78
   1   5  -4    0.46    0.36
   1   5  -3   57.07    3.17
   1   5  -2  480.99    5.71
   1   5  -1  619.98    6.91
   1   5   0  960.57   14.19
   1   5   1  326.69    7.16
   1   5   2  274.91    8.40
   1   5   3  512.60    6.66
   1   5   4  388.16    7.21
   1   5   5   29.11    2.65
   1   5   6   15.59    1.50
   1   5   7   28.79    1.27
   1   5   8  498.74   19.90
   1   5   9   62.20    1.97
   1   5  10   13.17    1.43
   1   5  11   24.62    1.93
   1   5  12  299.70    7.42
   1   5  13    0.49    0.23
   1   5  14   35.65    2.00
   1   5  15   24.85    2.05
   1   5  16   32.64    1.93
   1   5  17   21.31    2.03
   1   5  18   26.80    3.22
   1   5  19    1.62    1.05
   1   5  20    5.00    1.37
   1   5  21    1.18    0.64
   1   5  22   15.76    3.72
   1   5  23   12.51    5.97
   1   5  24   26.98    4.96
   1   5  25    1.26    0.99
   1   5  26    8.92    3.81
   1   5  27    2.57    1.32
   1   6 -26   -0.05    0.91
   1   6 -25    0.84    0.84
   1   6 -24   10.18    2.83
   1   6 -23   19.51    2.78
   1   6 -22   14.63    2.69
   1   6 -21    4.94    1.15
   1   6 -20    1.27    1.08
   1   6 -19    7.00    1.23
   1   6 -18   81.29    2.52
   1   6 -17   16.42    2.04
   1   6 -16   43.40    2.74
   1   6 -15    0.94    0.78
   1   6 -14    0.28    0.71
   1   6 -13   75.69    3.05
   1   6 -12  306.08   10.74
   1   6 -11    5.90    0.99
   1   6 -10  118.31    4.32
   1   6  -9  237.27    2.47
   1   6  -8  119.51    8.82
   1   6  -7   93.71    3.23
   1   6  -6    0.84    0.42
   1   6  -5  956.70   13.59
   1   6  -4  239.07    8.44
   1   6  -3  154.28   12.78
   1   6  -2   28.94    2.87
   1   6  -1  734.68   22.81
   1   6   0   10.45    3.32
   1   6   1 1018.71   11.25
   1   6   2   79.35    3.06
   1   6   3   51.84    1.60
   1   6   4  121.75    4.24
   1   6   5  400.73    8.45
   1   6   6    9.06    1.21
   1   6   7  228.29   11.37
   1   6   8    8.22    0.96
   1   6   9  299.61    3.59
   1   6  10   24.26    4.90
   1   6  11   59.96    4.16
   1   6  12   88.37    2.14
   1   6  13  136.22    4.84
   1   6  14    1.70    0.43
   1   6  15   34.47    3.12
   1   6  16    3.50    0.87
   1   6  17   33.75    3.15
   1   6  18   63.97    9.40
   1   6  19   27.94    3.16
   1   6  20    0.48    0.82
   1   6  21    2.98    0.80
   1   6  22    1.64    1.18
   1   6  23   31.83    6.01
   1   6  24   11.21    4.13
   1   6  25    0.18    0.72
   1   6  26    2.81    0.92
   1   6  27    1.20    0.93
   1   7 -26    1.47    1.06
   1   7 -25   11.89    3.08
   1   7 -24    3.43    1.39
   1   7 -23    4.40    1.18
   1   7 -22    3.70    1.21
   1   7 -21   32.07    7.15
   1   7 -20   10.03    2.12
   1   7 -19   80.11    5.93
   1   7 -18    1.03    0.65
   1   7 -17   79.32    2.83
   1   7 -16   87.06    3.14
   1   7 -15   58.13    2.55
   1   7 -14    1.99    0.61
   1   7 -13  142.75    3.30
   1   7 -12    8.77    1.05
   1   7 -11  513.97   10.57
   1   7 -10   43.89    3.90
   1   7  -9   91.41    3.80
   1   7  -8   84.32    3.30
   1   7  -7    1.43    0.95
   1   7  -6    7.69    1.06
   1   7  -5  176.75    3.81
   1   7  -4    0.92    0.88
   1   7  -3  328.89   28.52
   1   7  -2  124.45    6.58
   1   7  -1   58.64    2.26
   1   7   0   36.58    3.04
   1   7   1   12.99    1.53
   1   7   2   19.06    1.35
   1   7   3  214.68    5.39
   1   7   4  168.61   11.74
   1   7   5   98.97    1.88
   1   7   6   59.36    4.54
   1   7   7  104.17    2.08
   1   7   8  214.58    7.50
   1   7   9   19.38    2.21
   1   7  10   27.34    2.40
   1   7  11  126.06    9.91
   1   7  12  133.04   12.72
   1   7  13    9.76    1.39
   1   7  14    1.88    0.68
   1   7  15    3.00    0.93
   1   7  16   77.32    2.99
   1   7  17   44.57    2.58
   1   7  18   12.92    2.22
   1   7  19   17.56    3.35
   1   7  20    4.49    1.28
   1   7  21    0.31    1.22
   1   7  23   10.53    4.39
   1   7  24    7.45    2.29
   1   7  25   13.42    6.55
   1   7  26    1.04    0.99
   1   7  27   -0.77    1.20
   1   8 -26    3.51    3.22
   1   8 -25   -0.96    1.20
   1   8 -24    6.74    2.70
   1   8 -23    1.12    1.08
   1   8 -22    1.43    2.05
   1   8 -21    1.58    0.78
   1   8 -20    6.02    1.94
   1   8 -19    1.72    0.91
   1   8 -18  154.41    4.08
   1   8 -17    8.03    1.86
   1   8 -16   21.64    1.97
   1   8 -15   66.14    3.95
   1   8 -14    2.79    0.84
   1   8 -13   18.25    2.02
   1   8 -12  263.22    4.85
   1   8 -11   73.47    5.37
   1   8 -10  266.70    3.95
   1   8  -9  361.07   40.65
   1   8  -8    9.90    1.61
   1   8  -7   12.75    1.64
   1   8  -6  101.31    3.41
   1   8  -5   97.83    3.36
   1   8  -4  228.88    6.27
   1   8  -3  694.93   15.01
   1   8  -2   81.62   12.76
   1   8  -1   23.55    1.93
   1   8   0   51.12    3.89
   1   8   1    1.68    0.78
   1   8   2  161.64    4.97
   1   8   3    2.09    0.67
   1   8   4  164.41    7.28
   1   8   5   91.86    4.12
   1   8   6   51.14    4.69
   1   8   7    2.43    0.84
   1   8   8   27.38    2.41
   1   8   9  166.39    2.58
   1   8  10   97.44    4.53
   1   8  11    2.39    0.67
   1   8  12    6.77    1.52
   1   8  13  140.28    4.00
   1   8  14    2.71    0.73
   1   8  15   46.22    3.24
   1   8  16    7.33    1.24
   1   8  17   24.19    2.91
   1   8  18   40.59    5.75
   1   8  19    4.12    0.84
   1   8  20    5.70    1.86
   1   8  21    1.78    0.77
   1   8  22    3.05    1.49
   1   8  23    4.69    1.97
   1   8  24   18.58    6.97
   1   8  25    0.81    1.23
   1   8  26    5.72    3.81
   1   8  27    1.61    0.91
   1   9 -26   -1.58    1.05
   1   9 -25    1.03    0.88
   1   9 -24    1.10    1.06
   1   9 -23    2.49    1.17
   1   9 -22    1.22    0.83
   1   9 -21    2.50    2.01
   1   9 -20    0.10    1.86
   1   9 -19   17.82    5.03
   1   9 -18    7.00    2.57
   1   9 -17    4.98    1.08
   1   9 -16    4.25    0.74
   1   9 -15    5.74    0.93
   1   9 -14   21.95    3.34
   1   9 -13  120.78    5.88
   1   9 -12    9.65    1.53
   1   9 -11  173.86    4.52
   1   9 -10    5.43    2.58
   1   9  -9    1.80    0.70
   1   9  -8    8.39    1.08
   1   9  -7    2.40    1.81
   1   9  -6    1.46    0.91
   1   9  -5  294.88   11.97
   1   9  -4    2.24    1.11
   1   9  -2  100.10    2.78
   1   9  -1   19.86    2.22
   1   9   0    5.64    1.23
   1   9   1    4.27    1.72
   1   9   2   18.37    3.02
   1   9   3  566.64   14.46
   1   9   4   62.46    3.04
   1   9   5   35.32    3.67
   1   9   6   38.21    3.06
   1   9   7   80.24    4.39
   1   9   8   40.13    2.86
   1   9   9   37.48    3.40
   1   9  10   41.32    4.10
   1   9  11  179.68    9.44
   1   9  12   47.97    4.41
   1   9  13    2.28    0.61
   1   9  14    2.62    0.88
   1   9  15   31.56    3.77
   1   9  16    5.30    0.96
   1   9  17   20.99    3.43
   1   9  18    2.52    0.96
   1   9  19   22.50    9.18
   1   9  20    2.03    1.08
   1   9  21    4.77    1.59
   1   9  22   -0.68    1.02
   1   9  23    1.49    1.33
   1   9  24    1.45    1.14
   1   9  25    5.04    3.29
   1   9  26   -0.19    1.28
   1  10 -25    0.73    0.65
   1  10 -24    0.34    1.37
   1  10 -23    1.84    0.88
   1  10 -22   -1.46    1.06
   1  10 -21   -0.46    1.30
   1  10 -20    2.05    1.68
   1  10 -19    4.08    1.64
   1  10 -18    9.57    3.56
   1  10 -17    3.30    1.59
   1  10 -16    1.00    0.98
   1  10 -15    3.87    0.87
   1  10 -14    1.72    1.52
   1  10 -13   10.45    1.67
   1  10 -12   46.92    4.71
   1  10 -11   19.33    2.74
   1  10 -10    6.55    1.18
   1  10  -9   55.08   15.69
   1  10  -8    0.48    0.81
   1  10  -7   60.40    4.25
   1  10  -6    8.53    1.72
   1  10  -5   66.40    5.42
   1  10  -4  157.42    4.23
   1  10  -3   46.64    3.51
   1  10  -2   19.90    2.06
   1  10  -1   78.25    4.52
   1  10   0   94.54    5.81
   1  10   1   16.62    1.85
   1  10   2  225.14    5.33
   1  10   3    6.83    2.08
   1  10   4  214.81    7.77
   1  10   5    3.26    0.82
   1  10   6  160.33   18.23
   1  10   7    3.79    1.24
   1  10   8    2.00    1.06
   1  10   9    1.25    0.68
   1  10  10  233.80   10.90
   1  10  11    2.40    1.65
   1  10  12    1.39    0.88
   1  10  13    0.69    1.09
   1  10  14   11.03    1.62
   1  10  15    1.63    0.90
   1  10  16    7.15    1.33
   1  10  17    0.54    0.62
   1  10  18   20.35    4.28
   1  10  19    1.54    1.03
   1  10  20    2.29    0.94
   1  10  21    1.20    1.14
   1  10  22    0.18    2.06
   1  10  23    2.17    0.83
   1  10  24    3.08    1.55
   1  11 -23   -2.11    1.22
   1  11 -22    1.70    1.33
   1  11 -21   -1.10    1.64
   1  11 -20    0.06    0.88
   1  11 -19    3.03    2.90
   1  11 -18    6.86    2.89
   1  11 -17   12.51    3.04
   1  11 -16    0.75    1.19
   1  11 -15    2.56    0.87
   1  11 -14    2.42    0.78
   1  11 -13    2.62    0.86
   1  11 -12   -0.20    1.97
   1  11 -11   65.02    9.82
   1  11 -10    8.29    1.32
   1  11  -9    1.63    0.75
   1  11  -8    5.23    1.42
   1  11  -7   63.41    4.95
   1  11  -6    4.58    2.01
   1  11  -5   23.87    2.50
   1  11  -4    0.82    0.96
   1  11  -3   62.63    4.80
   1  11  -2    2.73    1.01
   1  11  -1    1.88    1.30
   1  11   0    3.85    0.82
   1  11   1    6.17    0.97
   1  11   2    6.63    1.63
   1  11   3   79.09    5.13
   1  11   4   20.73    2.03
   1  11   5    6.63    1.30
   1  11   6    4.14    1.98
   1  11   7    5.02    1.33
   1  11   8    1.80    1.19
   1  11   9   38.05    3.74
   1  11  10   10.69    1.64
   1  11  11   30.59    2.75
   1  11  12    6.38    1.16
   1  11  13    4.67    0.95
   1  11  14    0.07    1.05
   1  11  15    2.49    0.86
   1  11  16    3.61    0.88
   1  11  17   27.18    7.78
   1  11  18    2.82    1.41
   1  11  19    1.04    3.30
   1  11  20    1.64    2.17
   1  11  21    1.55    1.08
   1  11  22    8.10    1.88
   1  12 -22    1.82    1.05
   1  12 -21    1.27    1.00
   1  12 -20    6.78    1.76
   1  12 -19    2.24    1.16
   1  12 -18    8.26    2.48
   1  12 -17    3.26    1.11
   1  12 -16    1.46    1.03
   1  12 -15    0.59    0.86
   1  12 -14    5.22    1.12
   1  12 -13    2.99    0.79
   1  12 -12   16.04    2.43
   1  12 -11    3.02    0.98
   1  12 -10   31.26    4.13
   1  12  -9   11.38    1.99
   1  12  -8   35.98    6.40
   1  12  -7    0.59    0.77
   1  12  -6    1.20    1.09
   1  12  -5   24.70    2.79
   1  12  -4   74.55    4.61
   1  12  -3   66.41    4.45
   1  12  -2   11.64    1.32
   1  12  -1    2.63    1.49
   1  12   0   27.04    2.12
   1  12   1    7.17    1.13
   1  12   2   68.94    5.02
   1  12   3    4.97    0.96
   1  12   4   95.86    6.47
   1  12   5   19.40    3.82
   1  12   6    5.97    0.95
   1  12   7    4.93    0.96
   1  12   8    2.76    1.18
   1  12   9    4.63    1.05
   1  12  10   32.10    5.38
   1  12  11    3.89    0.92
   1  12  12    8.51    1.05
   1  12  13    5.54    1.01
   1  12  14    4.63    0.99
   1  12  15    7.07    1.58
   1  12  16    1.32    1.02
   1  12  17   -3.92    2.52
   1  12  18   13.48    3.43
   1  12  19    1.98    1.33
   1  12  20    0.35    0.84
   1  12  21    1.73    1.38
   1  13 -18    4.19    1.09
   1  13 -17    3.06    1.87
   1  13 -16   11.19    4.62
   1  13 -15   -0.15    1.67
   1  13 -14   13.96    2.42
   1  13 -13    5.63    1.38
   1  13 -12    3.72    0.81
   1  13 -11   25.43    4.68
   1  13 -10   17.14    2.32
   1  13  -9    3.62    0.91
   1  13  -8    3.61    0.72
   1  13  -7    2.07    0.82
   1  13  -6    6.13    2.66
   1  13  -5    9.74    2.04
   1  13  -4    2.65    1.21
   1  13  -3   69.60    6.33
   1  13  -2   14.91    1.92
   1  13  -1    2.68    0.95
   1  13   0    3.38    1.00
   1  13   1   -0.06    1.52
   1  13   2    8.73    1.19
   1  13   3   33.65    3.76
   1  13   4   12.28    1.82
   1  13   5    5.92    1.17
   1  13   6   18.71    2.48
   1  13   7    2.56    1.18
   1  13   8   25.47    3.91
   1  13   9   16.76    2.52
   1  13  10    2.26    0.98
   1  13  11   28.22    7.00
   1  13  12   13.11    2.39
   1  13  13    3.77    0.83
   1  13  14    5.20    1.51
   1  13  15    3.30    1.65
   1  13  16    3.83    1.11
   1  13  18    2.17    1.43
   1  13  19    1.53    1.04
   1  14 -14    1.89    1.49
   1  14 -13    3.58    1.51
   1  14 -12    5.08    1.11
   1  14 -11    3.85    1.05
   1  14 -10    5.73    2.38
   1  14  -9   31.67    6.04
   1  14  -8    2.74    1.20
   1  14  -7    1.45    1.14
   1  14  -6    3.55    1.04
   1  14  -5   42.91    6.39
   1  14  -4   39.50    4.94
   1  14  -3   22.43    3.85
   1  14  -2    3.19    0.91
   1  14  -1    2.56    0.87
   1  14   0    1.14    2.10
   1  14   1   13.64    1.48
   1  14   2   13.53    1.51
   1  14   3    2.43    2.10
   1  14   4   27.95    3.62
   1  14   5   13.91    3.27
   1  14   6    4.64    1.01
   1  14   7    2.75    0.81
   1  14   8   -0.48    1.03
   1  14   9   11.30    1.94
   1  14  10   22.77    3.99
   1  14  11    6.86    1.98
   1  14  12    6.82    2.56
   1  14  13    3.97    0.88
   1  14  14   -0.09    1.86
   1  15 -12   -0.30    1.82
   1  15 -11    4.01    2.10
   1  15 -10    3.44    2.10
   1  15  -9    0.70    1.81
   1  15  -8    2.63    1.04
   1  15  -7    2.13    0.86
   1  15  -6    4.44    1.34
   1  15  -5    5.52    1.27
   1  15  -4    2.65    1.98
   1  15  -3    3.29    0.86
   1  15  -2   11.15    1.68
   1  15  -1    3.98    1.76
   1  15   0    4.71    0.69
   1  15   1    8.93    2.39
   1  15   2   30.61    5.12
   1  15   3    5.60    2.17
   1  15   4    7.13    1.24
   1  15   5    5.63    1.58
   1  15   6    9.92    1.50
   1  15   7    1.74    1.59
   1  15   8    4.63    0.91
   1  15   9    7.40    2.09
   1  15  10    1.58    1.09
   1  15  11    4.55    1.59
   1  15  12    2.66    1.60
   1  16 -10    0.91    1.44
   1  16  -9    3.01    1.28
   1  16  -8    2.96    1.08
   1  16  -7    1.30    2.35
   1  16  -6    3.79    1.13
   1  16  -5    2.70    1.58
   1  16  -4    4.11    1.75
   1  16  -3    5.99    2.08
   1  16  -1    2.08    2.06
   1  16   0    3.74    0.97
   1  16   1    7.12    1.71
   1  16   2    4.98    2.04
   1  16   3   -0.55    1.35
   1  16   4    2.25    1.39
   1  16   5    1.79    3.19
   1  16   6    3.61    0.96
   1  16   7    3.61    2.63
   1  16   8    5.06    1.32
   1  16   9    1.21    1.31
   1  16  10    2.54    1.26
   2   0 -22   49.02    1.86
   2   0 -20    5.63    0.91
   2   0 -18   46.94    2.27
   2   0 -16   65.71    2.71
   2   0 -14    4.89    1.34
   2   0 -12   21.19    0.90
   2   0 -10  124.09    1.96
   2   0  -8 1949.60   58.99
   2   0  -6 2020.47   26.71
   2   0  -4  988.24   25.23
   2   0  -2  830.00   22.25
   2   0   0 2579.95   48.47
   2   0   2   18.42    1.26
   2   0   4  374.42    3.95
   2   0   6 5959.50  167.93
   2   0   8 1924.38   48.25
   2   0  10  189.37    5.87
   2   0  12  838.63   37.33
   2   0  14  581.39   14.19
   2   0  16   43.70    3.21
   2   0  18  114.45    3.11
   2   0  20  129.60    6.95
   2   0  22   55.21    5.25
   2   0  24   44.45    5.20
   2   1 -23   38.27    4.17
   2   1 -22    5.14    1.43
   2   1 -21   57.67    1.37
   2   1 -20   15.42    1.46
   2   1 -19   12.09    2.14
   2   1 -18    0.67    0.33
   2   1 -17    2.89    0.51
   2   1 -16    2.56    0.40
   2   1 -15  128.50    1.30
   2   1 -14   24.70    1.14
   2   1 -13   11.33    0.94
   2   1 -12    0.53    0.23
   2   1 -11   51.61    2.14
   2   1 -10    1.80    0.68
   2   1  -9  130.74    1.66
   2   1  -8   21.80    0.85
   2   1  -7  939.55    8.57
   2   1  -6  512.17    4.76
   2   1  -5  218.74    3.24
   2   1  -4  979.69   10.42
   2   1  -3  181.71    2.70
   2   1  -2    2.42    0.40
   2   1  -1 3819.76   39.82
   2   1   0  244.44    3.31
   2   1   1  320.71    2.65
   2   1   2  544.38    9.94
   2   1   3 4101.38   59.99
   2   1   4    7.95    1.26
   2   1   5 1146.43   28.07
   2   1   6 1166.28   30.74
   2   1   7 1745.53   29.59
   2   1   8  197.13    3.59
   2   1   9  331.43    6.63
   2   1  10    7.77    0.77
   2   1  11  376.16    6.73
   2   1  12 1859.91   66.33
   2   1  13 1460.73  254.07
   2   1  14   26.35    2.17
   2   1  15   12.19    1.44
   2   1  16   15.92    2.14
   2   1  17   12.47    1.32
   2   1  18  117.42    5.51
   2   1  19  191.93   12.46
   2   1  20   98.21    6.49
   2   1  21  152.54    9.98
   2   1  22    2.03    1.18
   2   1  23    4.22    1.51
   2   1  24    1.30    0.75
   2   1  25    0.41    0.57
   2   1  26    6.12    2.73
   2   2 -24    6.88    2.22
   2   2 -23    4.09    1.76
   2   2 -22   17.10    2.47
   2   2 -21    3.78    0.63
   2   2 -20    1.91    0.55
   2   2 -19    0.27    0.35
   2   2 -18    4.55    0.49
   2   2 -17   34.10    4.24
   2   2 -16   23.57    1.62
   2   2 -15    1.91    0.42
   2   2 -14  402.22    9.27
   2   2 -13   40.71    1.52
   2   2 -12  315.23    5.09
   2   2 -11    0.60    0.24
   2   2 -10    3.58    0.47
   2   2  -9    3.35    0.51
   2   2  -8  702.89   14.26
   2   2  -7    6.29    0.50
   2   2  -6   47.62    0.54
   2   2  -5   44.35    1.47
   2   2  -4   42.92    1.88
   2   2  -3  172.82    6.64
   2   2  -2  132.38    3.53
   2   2  -1  836.25    4.86
   2   2   0  816.92    4.28
   2   2   1  278.16    2.99
   2   2   2   59.73    1.54
   2   2   3  212.33    4.82
   2   2   4 1224.48   22.43
   2   2   5   22.86    1.15
   2   2   6  702.07    7.61
   2   2   7  160.10    3.02
   2   2   8  308.26    4.29
   2   2   9   15.30    1.60
   2   2  10  191.05    4.88
   2   2  11  109.67    3.14
   2   2  12  380.78    6.84
   2   2  13  228.56    6.60
   2   2  14  190.27    3.09
   2   2  15  218.21    4.86
   2   2  16    2.07    0.55
   2   2  17   25.83    2.00
   2   2  18  198.96    2.51
   2   2  19  304.18    4.88
   2   2  20  154.34    5.96
   2   2  21    0.24    1.11
   2   2  22   48.66    2.10
   2   2  23    7.97    1.64
   2   2  24    2.02    1.12
   2   2  25   17.03    5.47
   2   2  26   14.69    7.20
   2   3 -24    3.51    1.03
   2   3 -23   35.91    3.80
   2   3 -22    4.22    1.55
   2   3 -21    6.11    2.26
   2   3 -20    6.60    1.10
   2   3 -19    1.02    0.55
   2   3 -18   -0.01    0.53
   2   3 -17  104.04    2.51
   2   3 -16   16.29    1.41
   2   3 -15   80.64    2.26
   2   3 -14   51.65    2.19
   2   3 -13   26.21    1.33
   2   3 -12   61.24    1.13
   2   3 -11  149.82    5.24
   2   3 -10   83.74    2.21
   2   3  -9   70.31    1.50
   2   3  -8   33.47    1.82
   2   3  -7   79.87    2.34
   2   3  -6   39.30    1.93
   2   3  -5  328.37    2.56
   2   3  -4   54.31    0.69
   2   3  -3   -0.12    0.48
   2   3  -2   86.25    1.10
   2   3  -1 1562.26   21.85
   2   3   0    3.17    1.05
   2   3   1   75.49    2.27
   2   3   2   64.92    0.77
   2   3   3   91.70    1.28
   2   3   4  158.70    2.32
   2   3   5   94.38    0.94
   2   3   6  133.03    2.02
   2   3   7  372.62   15.45
   2   3   8   78.27    2.55
   2   3   9  184.83    9.32
   2   3  10    6.54    0.64
   2   3  11    1.14    0.40
   2   3  12  144.17    4.59
   2   3  13  105.80    0.73
   2   3  14   12.22    1.97
   2   3  15   27.64    2.73
   2   3  16   41.44    4.44
   2   3  17   36.37    2.86
   2   3  18   99.15    3.69
   2   3  19   25.08    3.18
   2   3  20    1.39    0.54
   2   3  21   49.93    4.60
   2   3  22    8.45    1.70
   2   3  23    2.71    0.92
   2   3  24    3.95    0.97
   2   3  25    4.51    1.98
   2   3  26    8.40    3.60
   2   3  27    6.56    4.07
   2   4 -24    1.76    0.94
   2   4 -23    8.03    2.35
   2   4 -22    7.39    2.56
   2   4 -21    5.19    1.09
   2   4 -20    9.56    1.38
   2   4 -19    7.82    1.35
   2   4 -18    3.50    1.02
   2   4 -17   11.17    1.61
   2   4 -16   33.82    2.15
   2   4 -15   17.19    1.89
   2   4 -14   51.40    2.42
   2   4 -13  140.02    3.00
   2   4 -12   46.73    2.23
   2   4 -11   30.19    1.11
   2   4 -10   79.65    2.19
   2   4  -9  210.70    3.44
   2   4  -8  523.20   15.69
   2   4  -7  226.64    4.63
   2   4  -6  795.79    9.16
   2   4  -5  259.42    5.11
   2   4  -4   43.98    0.93
   2   4  -3 1219.86   25.52
   2   4  -2   12.41    0.72
   2   4  -1   10.37    0.87
   2   4   0  539.93    5.83
   2   4   1  418.96    4.26
   2   4   2    7.51    0.60
   2   4   3   60.03    1.58
   2   4   4  275.19    3.64
   2   4   5 1316.64   15.83
   2   4   6  175.93   11.05
   2   4   7   91.75    4.10
   2   4   8  268.05   10.79
   2   4   9    4.55    0.54
   2   4  10   86.28    2.54
   2   4  11  228.53    6.59
   2   4  12    1.88    1.58
   2   4  13   50.03    7.22
   2   4  14   95.96   10.90
   2   4  15   47.54    3.51
   2   4  16    1.80    0.55
   2   4  17    9.23    1.30
   2   4  18   34.79    3.91
   2   4  19  113.82    4.16
   2   4  20   27.73    2.89
   2   4  21   -0.48    1.50
   2   4  22    8.26    2.26
   2   4  23   11.35    2.61
   2   4  24    8.95    1.87
   2   4  25    5.65    1.87
   2   4  26    3.21    1.01
   2   4  27    1.03    0.96
   2   5 -24    3.08    0.85
   2   5 -23    0.01    0.56
   2   5 -22   -0.39    0.74
   2   5 -21   -0.16    0.82
   2   5 -20    0.91    1.62
   2   5 -19   11.80    1.47
   2   5 -18    0.37    0.61
   2   5 -17    9.60    1.57
   2   5 -16   44.26    1.73
   2   5 -15   31.52    3.92
   2   5 -14   41.36    2.25
   2   5 -13   12.49    1.31
   2   5 -12  284.53    5.65
   2   5 -11   11.32    1.09
   2   5 -10  176.43    3.60
   2   5  -9  255.40    5.72
   2   5  -8   71.90    2.08
   2   5  -7    1.87    0.45
   2   5  -6  719.16    7.97
   2   5  -5   29.03    2.23
   2   5  -4  313.86    7.25
   2   5  -3  641.16   10.21
   2   5  -2  371.44    8.70
   2   5  -1   74.06    3.58
   2   5   0  136.51    3.96
   2   5   1    8.78    2.22
   2   5   2  469.74    6.33
   2   5   3   16.40    1.69
   2   5   4 1013.03   25.42
   2   5   5   56.13    3.72
   2   5   6  416.59   27.77
   2   5   7  353.93    6.38
   2   5   8  405.29   22.49
   2   5   9  166.05    4.69
   2   5  10   20.99    1.84
   2   5  11    4.65    1.02
   2   5  12  129.32    5.70
   2   5  13   61.54    3.00
   2   5  14    2.00    0.49
   2   5  15   45.96    1.99
   2   5  16    0.68    0.75
   2   5  17    0.61    0.38
   2   5  18    1.03    0.78
   2   5  19    3.56    0.91
   2   5  20   28.76    2.56
   2   5  21   11.52    1.87
   2   5  22    1.53    1.08
   2   5  23    5.01    3.40
   2   5  24   12.31    3.94
   2   5  25    3.67    1.78
   2   5  26    4.23    1.76
   2   5  27    1.23    0.94
   2   6 -25    0.67    1.24
   2   6 -24    1.55    1.22
   2   6 -23    2.46    1.56
   2   6 -22   10.92    2.64
   2   6 -21    4.53    1.33
   2   6 -20    1.13    0.82
   2   6 -19    6.52    1.46
   2   6 -18   43.89    2.61
   2   6 -17   47.14    1.83
   2   6 -16   15.20    1.84
   2   6 -15    9.26    1.10
   2   6 -14    5.11    0.65
   2   6 -13  102.49    4.85
   2   6 -12  129.00    6.80
   2   6 -11    1.88    0.45
   2   6 -10  180.20    4.75
   2   6  -9   24.77    2.27
   2   6  -8    1.15    0.59
   2   6  -7  340.60    5.52
   2   6  -6  359.72    7.09
   2   6  -5  599.14    6.96
   2   6  -4  223.85    3.71
   2   6  -3  675.49    9.61
   2   6  -2  301.30    6.00
   2   6  -1   36.67    2.90
   2   6   0  224.69    7.33
   2   6   1 2150.29   35.67
   2   6   2  164.29    3.71
   2   6   3   -0.93    1.02
   2   6   4  354.46    7.42
   2   6   5  465.64    6.03
   2   6   6    2.38    0.60
   2   6   7   58.90    4.61
   2   6   8   76.19    8.76
   2   6   9  324.36    7.50
   2   6  10  296.25    5.95
   2   6  11   42.84    2.79
   2   6  12   13.91    2.14
   2   6  13   13.59    2.10
   2   6  14   28.67    2.29
   2   6  15  208.84    9.73
   2   6  16   23.44    2.10
   2   6  17    1.56    0.62
   2   6  18   25.66    3.04
   2   6  19   24.23    3.84
   2   6  20    1.09    0.91
   2   6  21    0.55    0.66
   2   6  22    4.26    1.21
   2   6  23   10.05    3.40
   2   6  24    5.15    1.67
   2   6  25    1.32    0.82
   2   6  26    0.78    1.16
   2   6  27    3.41    1.70
   2   7 -25    1.10    1.25
   2   7 -24   -0.58    1.05
   2   7 -23    1.89    1.36
   2   7 -22    4.65    1.36
   2   7 -21    6.86    1.60
   2   7 -20   17.46    5.25
   2   7 -19   11.76    2.51
   2   7 -18    1.38    0.58
   2   7 -17   61.76    1.83
   2   7 -16   38.39    2.44
   2   7 -15    1.76    0.86
   2   7 -14   39.01    3.07
   2   7 -13   43.86    2.83
   2   7 -12   34.82    3.01
   2   7 -11  262.85   11.66
   2   7 -10   34.45    2.81
   2   7  -9    7.36    1.48
   2   7  -8  110.13    4.69
   2   7  -7   64.03    4.34
   2   7  -6   22.71    1.75
   2   7  -5  671.31   34.06
   2   7  -4   90.22    5.39
   2   7  -3   31.39    2.83
   2   7  -2  145.07    3.28
   2   7  -1  153.69    4.47
   2   7   0   29.36    2.14
   2   7   1    4.69    0.87
   2   7   2   93.89    4.35
   2   7   3  226.28    5.88
   2   7   4  273.31    8.37
   2   7   5   77.25    3.06
   2   7   6   11.84    1.27
   2   7   7   84.74    5.10
   2   7   8  106.62    2.44
   2   7   9   59.01    3.71
   2   7  10   21.55    2.32
   2   7  11   69.73    3.16
   2   7  12   29.89    3.08
   2   7  13   20.90    2.01
   2   7  14   32.95    2.94
   2   7  15    1.59    0.55
   2   7  16  114.68    7.46
   2   7  17   24.17    3.21
   2   7  18   78.45    5.48
   2   7  19    0.00    0.80
   2   7  20    2.49    0.87
   2   7  21    2.13    0.59
   2   7  22   36.81    6.45
   2   7  23    4.18    1.75
   2   7  24   -0.50    1.51
   2   7  25    4.01    1.43
   2   7  26    4.53    1.82
   2   7  27   -0.83    1.19
   2   7  28    1.84    1.14
   2   8 -25    1.49    0.81
   2   8 -24    2.58    1.61
   2   8 -23    0.21    0.65
   2   8 -22    2.49    0.86
   2   8 -21    6.55    1.80
   2   8 -20    8.19    1.91
   2   8 -19    0.98    1.29
   2   8 -18   26.65   10.18
   2   8 -17    5.91    1.25
   2   8 -16    8.38    1.32
   2   8 -15  110.68    5.55
   2   8 -14    5.00    0.97
   2   8 -13    4.02    0.76
   2   8 -12  103.87    3.84
   2   8 -11   13.20    1.40
   2   8 -10  178.85    5.23
   2   8  -9  223.67    8.53
   2   8  -8   11.33    1.45
   2   8  -7    4.76    0.67
   2   8  -6   32.03    2.65
   2   8  -5   58.56    3.34
   2   8  -4  256.74   21.47
   2   8  -3   66.17    3.50
   2   8  -2   90.45    4.54
   2   8  -1   48.41    3.94
   2   8   0   57.19    3.32
   2   8   1  108.21    4.53
   2   8   2  147.47    4.82
   2   8   3    1.78    0.76
   2   8   4  178.39    5.20
   2   8   5  134.07    5.23
   2   8   6    8.25    1.17
   2   8   7    1.32    0.87
   2   8   8   37.57    3.14
   2   8   9  159.31    3.25
   2   8  10  156.98    6.78
   2   8  11   65.67    2.61
   2   8  12   45.98    2.96
   2   8  13    2.39    0.57
   2   8  14    1.73    0.66
   2   8  15   73.13    2.53
   2   8  16   15.39    2.43
   2   8  17    1.67    2.49
   2   8  18    2.27    0.99
   2   8  19   16.02    2.90
   2   8  20    1.72    0.74
   2   8  21   -1.35    0.98
   2   8  22    1.69    1.08
   2   8  23    6.94    2.05
   2   8  24   10.57    4.40
   2   8  25    1.78    1.22
   2   8  26    1.76    1.38
   2   8  27    1.07    0.92
   2   9 -25    3.22    1.40
   2   9 -24   -0.07    0.72
   2   9 -23   -1.41    1.39
   2   9 -22    1.73    1.08
   2   9 -21    0.63    1.30
   2   9 -20    0.31    2.09
   2   9 -19   17.14    3.72
   2   9 -18    2.38    0.81
   2   9 -17   14.42    2.12
   2   9 -16    1.80    0.72
   2   9 -15    2.88    0.75
   2   9 -14    8.34    1.17
   2   9 -13   21.39    2.12
   2   9 -12   22.94    2.16
   2   9 -11  205.18    5.87
   2   9 -10    2.24    1.08
   2   9  -9   44.65    4.53
   2   9  -8  292.63    5.73
   2   9  -7   42.93    2.59
   2   9  -6    4.84    0.87
   2   9  -5  704.50   14.46
   2   9  -4    1.77    0.68
   2   9  -3  305.53    7.30
   2   9  -2  130.07    6.77
   2   9  -1   10.79    1.55
   2   9   0    0.77    1.33
   2   9   1  184.25    5.87
   2   9   2    3.49    0.73
   2   9   3  625.07   20.73
   2   9   4   71.44    3.73
   2   9   5    2.19    0.87
   2   9   6   44.76    3.13
   2   9   7   33.98    2.92
   2   9   8    6.47    1.04
   2   9   9  177.25    4.31
   2   9  10   17.50    1.82
   2   9  11   16.69    1.81
   2   9  12   46.62    4.87
   2   9  13   18.83    2.28
   2   9  14    2.78    0.76
   2   9  15    2.57    0.77
   2   9  16   25.93    4.41
   2   9  17   25.75    4.44
   2   9  18    5.57    1.81
   2   9  19    7.87    1.87
   2   9  20    1.84    0.88
   2   9  21   10.62    2.42
   2   9  22    4.65    1.88
   2   9  24    1.33    1.49
   2   9  25    4.44    2.73
   2  10 -25    0.55    0.82
   2  10 -24   -2.60    1.29
   2  10 -23    2.40    0.77
   2  10 -22    0.28    0.87
   2  10 -21    6.62    1.87
   2  10 -20    2.50    1.75
   2  10 -19    5.63    1.47
   2  10 -18    4.05    2.64
   2  10 -17    6.10    1.38
   2  10 -16    0.46    1.11
   2  10 -15    2.74    0.92
   2  10 -14    1.96    0.85
   2  10 -13    1.69    0.65
   2  10 -12   31.11    2.95
   2  10 -11   19.04    2.34
   2  10 -10   35.54    4.56
   2  10  -9    0.00    1.37
   2  10  -8   30.27    3.05
   2  10  -7   57.88    3.53
   2  10  -6   23.52    2.25
   2  10  -5    3.87    1.05
   2  10  -4   49.57    5.13
   2  10  -3   24.64    2.21
   2  10  -2  118.47    4.30
   2  10  -1  131.49    4.59
   2  10   0    1.54    1.38
   2  10   1   40.59    3.04
   2  10   2  138.28    4.51
   2  10   3    5.38    1.06
   2  10   4  263.66    7.09
   2  10   5   47.43    3.61
   2  10   6   85.54    3.78
   2  10   7   30.39    2.26
   2  10   8   66.92    3.13
   2  10   9    4.46    1.05
   2  10  10  149.26    8.19
   2  10  11    3.25    0.80
   2  10  12    0.06    0.82
   2  10  13    5.33    1.17
   2  10  14    2.61    0.75
   2  10  15    1.16    0.96
   2  10  16   10.37    2.27
   2  10  17    0.95    0.67
   2  10  18   10.46    2.38
   2  10  19    2.85    1.17
   2  10  20    1.08    0.98
   2  10  21    1.82    1.01
   2  10  22    2.43    1.59
   2  11 -23    0.92    0.73
   2  11 -22    2.87    1.08
   2  11 -21    0.66    1.06
   2  11 -20    3.40    1.48
   2  11 -19   16.33    4.17
   2  11 -18    4.38    1.65
   2  11 -17    2.56    1.15
   2  11 -16    0.96    1.11
   2  11 -15    4.40    1.18
   2  11 -14    7.14    1.68
   2  11 -13    4.53    2.10
   2  11 -12    1.78    0.97
   2  11 -11   22.50    3.55
   2  11 -10    1.94    1.39
   2  11  -9   14.19    1.99
   2  11  -8    1.99    1.45
   2  11  -7    4.77    2.02
   2  11  -6    2.06    0.84
   2  11  -5   22.48    1.99
   2  11  -4   34.29    2.40
   2  11  -3    5.56    1.00
   2  11  -2    4.19    1.19
   2  11  -1    4.22    0.90
   2  11   0   11.22    1.80
   2  11   1    6.40    0.92
   2  11   2   13.48    2.01
   2  11   3   24.10    2.45
   2  11   4    4.09    1.08
   2  11   5   56.49    5.17
   2  11   6    3.92    1.15
   2  11   7   -0.20    1.50
   2  11   8    4.17    1.07
   2  11   9   20.73    2.62
   2  11  10    2.22    0.94
   2  11  11   90.25    6.44
   2  11  12   11.09    1.63
   2  11  13    8.79    1.29
   2  11  14    4.37    1.06
   2  11  15    1.97    1.82
   2  11  16    2.81    1.24
   2  11  17   39.30    6.27
   2  11  18    5.85    1.32
   2  11  19    2.22    1.59
   2  11  20    1.15    0.72
   2  11  21    2.97    0.94
   2  12 -21    0.08    1.04
   2  12 -20    3.57    1.28
   2  12 -19    3.23    1.28
   2  12 -18    9.85    3.71
   2  12 -17    2.49    2.89
   2  12 -16    1.26    1.75
   2  12 -15    2.43    1.13
   2  12 -14    3.35    1.28
   2  12 -13    2.45    1.27
   2  12 -12   42.61    5.53
   2  12 -11    2.10    0.76
   2  12 -10   27.82    4.44
   2  12  -9    4.11    1.46
   2  12  -8   16.08    1.57
   2  12  -7    3.96    1.26
   2  12  -6    6.91    1.07
   2  12  -5    2.16    1.04
   2  12  -4  146.28    6.11
   2  12  -3   22.89    2.90
   2  12  -2   -0.10    0.80
   2  12  -1    5.63    1.03
   2  12   0   60.62    4.01
   2  12   1    7.45    1.50
   2  12   2   62.81    4.79
   2  12   3   42.23    5.22
   2  12   4   97.60    4.62
   2  12   5    4.46    1.13
   2  12   6    6.37    2.22
   2  12   7    6.54    1.20
   2  12   8    0.95    1.34
   2  12   9    4.10    1.07
   2  12  10   81.95   13.07
   2  12  11   14.03    1.91
   2  12  12   16.69    2.23
   2  12  13    1.88    0.78
   2  12  14    2.10    0.83
   2  12  15    1.49    1.40
   2  12  16    3.84    1.06
   2  12  17    3.63    2.77
   2  12  18    6.44    2.54
   2  12  19    4.18    1.51
   2  12  20    1.12    1.17
   2  12  21    2.55    1.48
   2  13 -18    3.34    1.53
   2  13 -17    5.62    4.42
   2  13 -16    8.44    3.28
   2  13 -15    1.85    1.70
   2  13 -14    2.58    1.73
   2  13 -13   -0.34    1.11
   2  13 -12   12.77    2.42
   2  13 -11   22.38    4.15
   2  13 -10   24.99    2.87
   2  13  -9    1.42    2.03
   2  13  -8    2.53    0.98
   2  13  -7    2.10    1.03
   2  13  -6   45.50    7.69
   2  13  -5   21.29    4.53
   2  13  -4    9.44    1.71
   2  13  -3   38.90    5.23
   2  13  -2   41.88    4.18
   2  13  -1    5.08    1.23
   2  13   0    2.29    1.20
   2  13   1    1.54    1.17
   2  13   2    6.36    1.31
   2  13   3   64.56   13.54
   2  13   4   40.36    7.35
   2  13   5    3.08    1.02
   2  13   6    4.37    1.26
   2  13   7    4.00    0.96
   2  13   8    7.77    1.42
   2  13   9    8.79    1.24
   2  13  10    7.13    1.28
   2  13  11   10.16    1.43
   2  13  12    9.22    1.62
   2  13  13    2.02    0.96
   2  13  14   -0.55    1.23
   2  13  15    0.15    0.88
   2  13  16   -0.83    1.34
   2  13  17   13.09    6.79
   2  13  18    3.22    1.32
   2  13  19    1.06    1.27
   2  14 -14    1.68    1.43
   2  14 -13    2.10    1.51
   2  14 -12    2.59    0.80
   2  14 -11    1.29    0.84
   2  14 -10    3.64    0.95
   2  14  -9    6.68    2.60
   2  14  -8    2.73    1.44
   2  14  -7    4.57    1.02
   2  14  -6    3.97    0.92
   2  14  -5    6.28    1.20
   2  14  -4    8.41    1.76
   2  14  -3   15.77    2.36
   2  14  -2    2.43    0.81
   2  14  -1    6.94    1.06
   2  14   0    2.89    0.68
   2  14   1   15.80    2.30
   2  14   2    6.57    1.15
   2  14   3    3.28    1.32
   2  14   4    8.86    1.53
   2  14   5   14.11    2.95
   2  14   6    2.01    0.92
   2  14   7    2.68    1.11
   2  14   8    1.92    1.11
   2  14   9    5.00    1.14
   2  14  10    6.53    1.42
   2  14  11   10.26    2.82
   2  14  12    1.33    0.70
   2  14  13    3.16    1.08
   2  14  14    0.95    1.29
   2  15 -13   -3.31    2.05
   2  15 -12   -0.72    1.19
   2  15 -11   -0.91    1.91
   2  15 -10    2.19    2.04
   2  15  -9    6.06    1.05
   2  15  -8    0.70    1.63
   2  15  -7    2.00    0.98
   2  15  -6    3.32    1.15
   2  15  -5    4.46    1.05
   2  15  -4    3.11    0.92
   2  15  -3    5.21    1.02
   2  15  -2    7.78    1.37
   2  15  -1    2.33    1.00
   2  15   0    6.38    0.91
   2  15   1    3.02    0.95
   2  15   2    4.38    1.00
   2  15   3    9.56    1.69
   2  15   4    4.67    0.98
   2  15   5    2.10    0.84
   2  15   6    4.55    1.62
   2  15   7    2.57    0.75
   2  15   8    6.12    1.33
   2  15   9    3.81    1.34
   2  15  10    3.76    2.96
   2  15  11    2.11    1.52
   2  15  12    5.32    3.42
   2  16  -8    2.88    1.94
   2  16  -7    3.71    1.34
   2  16  -6    2.63    1.58
   2  16  -5    1.51    1.03
   2  16  -4    3.10    1.88
   2  16  -3    2.40    1.45
   2  16  -2    2.28    1.38
   2  16   0    2.02    1.33
   2  16   1    4.27    4.45
   2  16   2    2.41    0.77
   2  16   3    0.90    1.53
   2  16   4    0.50    0.72
   2  16   5    0.89    3.11
   2  16   6    4.41    1.40
   2  16   7    2.10    1.02
   2  16   8    1.90    1.20
   2  16   9    1.33    1.10
   3   0 -22  123.64    5.43
   3   0 -20    7.17    1.13
   3   0 -18    0.25    1.07
   3   0 -16  365.41    8.35
   3   0 -14  256.41    3.75
   3   0 -12    3.95    0.52
   3   0 -10 1062.95   15.90
   3   0  -8   40.41    0.76
   3   0  -6  317.54    6.73
   3   0  -4  998.05   13.39
   3   0  -2   38.15    1.54
   3   0   0  931.79   19.88
   3   0   2   36.31    2.44
   3   0   4 2495.38  109.73
   3   0   6 1508.03   39.80
   3   0   8   48.90    2.72
   3   0  10  426.40    9.42
   3   0  12   62.11    2.66
   3   0  14 1036.77  359.50
   3   0  16   76.80    5.48
   3   0  18   13.44    2.51
   3   0  22   21.48    5.69
   3   0  24   22.41    4.26
   3   0  26    3.84    1.24
   3   1 -22    1.15    0.54
   3   1 -21   44.85    1.48
   3   1 -20    0.82    0.35
   3   1 -19    7.71    1.04
   3   1 -18    3.02    0.54
   3   1 -17   22.50    2.54
   3   1 -16    0.51    0.26
   3   1 -15  414.47    8.54
   3   1 -14   24.59    0.98
   3   1 -13   89.81    2.05
   3   1 -12   51.32    0.90
   3   1 -11   19.79    0.83
   3   1 -10  270.48    5.87
   3   1  -9  267.51   24.03
   3   1  -8  194.98    3.97
   3   1  -7   50.40    2.81
   3   1  -6  440.33    5.59
   3   1  -5  353.17    5.50
   3   1  -4 4400.54   96.65
   3   1  -3  541.61    5.78
   3   1  -2  421.06    5.60
   3   1  -1  171.76    3.53
   3   1   0  556.48    4.44
   3   1   1   50.94    1.15
   3   1   2   34.71    1.84
   3   1   3  903.55   12.35
   3   1   4    8.95    1.18
   3   1   5   30.89    1.11
   3   1   6 1379.65   35.49
   3   1   7  369.51    5.13
   3   1   8  579.10   11.32
   3   1   9   31.25    3.43
   3   1  10   21.44    2.26
   3   1  11  216.34    3.10
   3   1  12  735.63   21.31
   3   1  13  432.66   14.67
   3   1  14    0.79    0.35
   3   1  15    6.19    1.20
   3   1  16   33.17    1.86
   3   1  17   -0.16    0.21
   3   1  18  109.81   10.06
   3   1  19  112.16    3.97
   3   1  20  104.71    4.34
   3   1  21   49.89    3.62
   3   1  22    1.81    0.74
   3   1  23    1.69    1.30
   3   1  24    2.00    0.79
   3   1  25    2.15    0.90
   3   1  26   15.01    6.92
   3   2 -23    0.32    0.55
   3   2 -22   36.60    2.70
   3   2 -21    1.17    0.41
   3   2 -20    8.84    1.25
   3   2 -19   10.93    1.75
   3   2 -18    8.88    1.25
   3   2 -17    7.66    1.08
   3   2 -16   16.61    1.48
   3   2 -15   10.47    1.16
   3   2 -14   83.81    1.59
   3   2 -13   18.95    1.16
   3   2 -12  105.99    2.77
   3   2 -11  321.56    4.30
   3   2 -10  211.65    5.19
   3   2  -9   31.98    1.70
   3   2  -8 2017.51   38.58
   3   2  -7  452.16    3.89
   3   2  -6    9.98    0.82
   3   2  -5 1397.74   21.89
   3   2  -4  525.98    5.75
   3   2  -3   75.00    2.21
   3   2  -2  887.74    8.65
   3   2  -1  131.71    4.97
   3   2   0 1772.71   29.95
   3   2   1  226.56    3.73
   3   2   2  962.04    9.40
   3   2   3  145.32   10.76
   3   2   4   43.69    0.72
   3   2   5  641.64    5.61
   3   2   6  271.30    4.86
   3   2   7  272.30    8.72
   3   2   8   43.22    2.04
   3   2   9    6.61    0.90
   3   2  10  239.63    7.07
   3   2  11   13.36    1.45
   3   2  12 1027.94   14.46
   3   2  13   51.24    2.71
   3   2  14   45.41    2.86
   3   2  15    8.78    0.96
   3   2  16    6.56    0.94
   3   2  17   65.74    1.52
   3   2  18   96.43    3.51
   3   2  19  204.05    6.65
   3   2  20    8.86    1.69
   3   2  21    4.05    1.83
   3   2  22   20.64    4.25
   3   2  23    6.77    2.05
   3   2  24   14.69    3.68
   3   2  25   74.23    8.80
   3   2  26   13.25    6.26
   3   2  27    4.29    1.25
   3   3 -23    5.69    1.10
   3   3 -22    3.31    0.99
   3   3 -21   12.35    2.01
   3   3 -20    2.13    0.44
   3   3 -19    6.59    0.79
   3   3 -18   32.83    1.93
   3   3 -17   62.55    2.78
   3   3 -16   56.48    2.26
   3   3 -15  102.30    3.80
   3   3 -14  108.60    1.99
   3   3 -13    3.50    0.84
   3   3 -12    1.49    0.36
   3   3 -11  156.19    3.28
   3   3 -10  277.10   13.03
   3   3  -9   20.06    2.08
   3   3  -8  325.71    4.33
   3   3  -7    8.06    1.29
   3   3  -6  585.47    6.07
   3   3  -5   84.27    0.98
   3   3  -4  164.40    2.26
   3   3  -3   72.63    0.94
   3   3  -2  268.32    3.59
   3   3  -1  179.29    2.51
   3   3   0  597.11    5.13
   3   3   1   55.56    1.56
   3   3   2  283.63    3.88
   3   3   3  536.11    5.23
   3   3   4  659.38    5.15
   3   3   5   94.31    1.74
   3   3   6   93.43    2.08
   3   3   7   85.58    1.24
   3   3   8  118.38    1.83
   3   3   9    2.36    0.77
   3   3  10   46.49    1.17
   3   3  11  152.76    3.11
   3   3  12  180.83    2.33
   3   3  13   59.10    3.29
   3   3  14   15.51    2.78
   3   3  15   84.74    4.48
   3   3  16   86.17    4.67
   3   3  17   11.53    1.38
   3   3  18   42.87    2.38
   3   3  19    2.97    0.49
   3   3  20   12.17    1.96
   3   3  21   33.82    5.29
   3   3  22   14.61    1.53
   3   3  23    0.08    0.86
   3   3  24   23.26    4.63
   3   3  25    5.50    1.99
   3   3  26   13.36    2.15
   3   3  27   11.10    2.58
   3   4 -24    1.23    1.02
   3   4 -23    4.60    1.30
   3   4 -22    4.45    0.96
   3   4 -21   10.41    1.90
   3   4 -20    8.09    1.66
   3   4 -19    2.40    0.52
   3   4 -18   18.60    1.45
   3   4 -17   70.32    2.15
   3   4 -16    2.64    0.43
   3   4 -15    2.71    0.45
   3   4 -14   89.72    7.67
   3   4 -13   31.58    1.82
   3   4 -12   16.22    1.49
   3   4 -11   25.84    1.36
   3   4 -10   45.85    1.72
   3   4  -9   96.33    2.54
   3   4  -8   22.65    2.02
   3   4  -7   85.54    1.71
   3   4  -6    8.01    0.82
   3   4  -5   34.45    5.77
   3   4  -4    1.13    0.44
   3   4  -3   34.74    2.70
   3   4  -2  256.71    6.35
   3   4  -1  193.79    2.58
   3   4   0  154.86    2.36
   3   4   1  367.35    4.74
   3   4   2  121.98    2.01
   3   4   3   21.53    1.37
   3   4   4    2.48    1.85
   3   4   5   50.67    2.83
   3   4   6   15.29    2.55
   3   4   7  167.41    4.73
   3   4   8  137.60    2.73
   3   4   9  223.40    4.36
   3   4  10    0.78    0.57
   3   4  11   12.31    1.13
   3   4  12   10.64    1.34
   3   4  13    2.77    0.69
   3   4  14  203.61    8.81
   3   4  15  127.70    7.16
   3   4  16   21.61    2.37
   3   4  17    1.35    0.52
   3   4  18    0.93    0.42
   3   4  19    9.71    1.72
   3   4  20    9.68    1.59
   3   4  21    5.39    1.37
   3   4  22    8.69    2.66
   3   4  23    3.09    1.13
   3   4  24   -1.67    0.97
   3   4  25    3.16    1.95
   3   4  26    3.01    1.05
   3   4  27    6.51    1.52
   3   4  28    1.01    0.97
   3   5 -24    7.82    3.34
   3   5 -23    3.73    1.17
   3   5 -22    3.08    0.95
   3   5 -21    1.13    0.77
   3   5 -20    2.05    0.74
   3   5 -19    4.18    0.89
   3   5 -18    2.99    0.85
   3   5 -17   12.62    1.73
   3   5 -16   18.35    2.69
   3   5 -15   39.30    1.78
   3   5 -14    5.71    1.12
   3   5 -13    2.45    0.48
   3   5 -12    8.94    1.00
   3   5 -11   58.14    3.10
   3   5 -10  190.45    1.66
   3   5  -9  186.32    2.69
   3   5  -8    5.59    0.75
   3   5  -7   94.31    6.02
   3   5  -6  875.99   10.56
   3   5  -5  353.94    7.73
   3   5  -4    0.48    0.60
   3   5  -3   98.46    3.35
   3   5  -2  161.54    6.18
   3   5  -1  501.05    8.25
   3   5   0  326.41    4.52
   3   5   1 1357.58   11.19
   3   5   2 1457.43   19.62
   3   5   3   36.49    3.46
   3   5   4   18.44    3.22
   3   5   5  259.04    8.15
   3   5   6   24.52    1.94
   3   5   7  511.47    6.32
   3   5   8  594.28   13.48
   3   5   9    7.32    1.13
   3   5  10    5.61    0.82
   3   5  11  147.48    2.38
   3   5  12  311.28    5.46
   3   5  13   72.76    2.54
   3   5  14   12.44    1.36
   3   5  15   47.94    1.49
   3   5  16  172.90    3.96
   3   5  17   69.45    3.92
   3   5  18   38.28    2.93
   3   5  19    1.92    0.65
   3   5  20   11.32    1.75
   3   5  21   -0.20    0.53
   3   5  22    2.68    0.82
   3   5  23   11.04    2.93
   3   5  24    6.00    1.95
   3   5  25    1.63    1.48
   3   5  26    7.66    2.95
   3   5  27    0.78    0.84
   3   5  28    1.92    2.04
   3   6 -24    1.21    1.31
   3   6 -23   -0.08    0.76
   3   6 -22    2.43    0.63
   3   6 -21   19.19    4.20
   3   6 -20    9.00    2.43
   3   6 -19    1.46    0.95
   3   6 -18   15.06    1.62
   3   6 -17   24.54    2.31
   3   6 -16    8.70    1.34
   3   6 -15   12.40    1.76
   3   6 -14   19.21    2.64
   3   6 -13   83.25    2.36
   3   6 -12  179.59    3.91
   3   6 -11    0.72    0.50
   3   6 -10   24.94    2.03
   3   6  -9   32.15    2.84
   3   6  -8   52.63    4.77
   3   6  -7   82.18    1.31
   3   6  -6   36.86    3.20
   3   6  -5  352.98    8.14
   3   6  -4  560.89    6.59
   3   6  -3  464.61    6.72
   3   6  -2   23.58    1.69
   3   6  -1   64.33    2.27
   3   6   0   10.72    2.81
   3   6   1 1536.07   26.67
   3   6   2  268.35    5.98
   3   6   3  149.16    2.99
   3   6   4  807.93    9.94
   3   6   5   52.09    3.24
   3   6   6  298.78   13.10
   3   6   7  196.96    4.72
   3   6   8    8.26    1.62
   3   6   9   12.55    2.60
   3   6  10  543.36    9.44
   3   6  11   44.36    2.41
   3   6  12    4.83    1.00
   3   6  13   30.49    2.42
   3   6  14    0.28    0.28
   3   6  15   26.25    1.81
   3   6  16  100.51    4.40
   3   6  17    6.05    1.84
   3   6  18    2.67    1.20
   3   6  19   61.58    4.73
   3   6  20    1.04    0.74
   3   6  21    1.05    0.79
   3   6  22    9.61    2.78
   3   6  24    4.00    1.60
   3   6  25    5.08    2.81
   3   6  26    1.21    1.21
   3   6  27    1.16    0.83
   3   6  28    5.45    2.29
   3   7 -25    0.20    0.64
   3   7 -24    3.42    1.04
   3   7 -23   -0.11    1.77
   3   7 -22    2.39    0.84
   3   7 -21    3.09    1.84
   3   7 -20   24.14    4.39
   3   7 -19    9.40    1.55
   3   7 -18    1.76    0.60
   3   7 -17   17.22    2.54
   3   7 -16   41.18    3.05
   3   7 -15   23.45    2.67
   3   7 -14   18.88    1.75
   3   7 -13   23.48    1.96
   3   7 -12   24.26    1.85
   3   7 -11  152.12    2.96
   3   7 -10   83.36    4.42
   3   7  -9    2.38    1.39
   3   7  -8   29.80    2.68
   3   7  -7   12.12    1.55
   3   7  -6  222.12    5.07
   3   7  -5  347.96    7.98
   3   7  -4    1.91    0.67
   3   7  -3    2.81    1.46
   3   7  -2  612.14   17.53
   3   7  -1   93.50    2.05
   3   7   0   24.17    1.75
   3   7   1  273.26    3.69
   3   7   2   37.88    4.49
   3   7   3   44.96    2.82
   3   7   4   98.02   10.85
   3   7   5   16.89    1.69
   3   7   6   20.03    1.52
   3   7   7   28.67    2.75
   3   7   8   62.16    2.52
   3   7   9  169.60    8.60
   3   7  10  108.24    9.77
   3   7  11  143.06    2.96
   3   7  12   76.74    6.35
   3   7  13   30.65    3.01
   3   7  14   84.99    2.80
   3   7  15   16.24    3.59
   3   7  16   11.06    2.99
   3   7  17   18.88    2.71
   3   7  18   30.15    2.76
   3   7  19    0.40    0.57
   3   7  20    1.12    0.51
   3   7  21    3.02    0.82
   3   7  22   24.57    7.90
   3   7  24    3.88    1.56
   3   7  25    0.70    0.78
   3   7  26    2.89    1.12
   3   7  27    2.57    1.42
   3   7  28    2.79    1.26
   3   8 -25    0.57    0.75
   3   8 -24    1.29    0.84
   3   8 -23    0.59    0.79
   3   8 -22    0.78    0.68
   3   8 -21    4.32    1.24
   3   8 -20    4.67    1.65
   3   8 -19    8.03    2.17
   3   8 -18   21.75    3.58
   3   8 -17   19.98    2.95
   3   8 -16    0.22    0.74
   3   8 -15    3.23    0.88
   3   8 -14    1.26    0.88
   3   8 -13   68.74    2.92
   3   8 -12  162.41   16.87
   3   8 -11    7.72    1.39
   3   8 -10   58.88    2.44
   3   8  -9  124.53    3.89
   3   8  -8  187.12   10.03
   3   8  -7    1.94    0.88
   3   8  -6  241.19    7.30
   3   8  -5    0.15    0.54
   3   8  -4  206.71    5.58
   3   8  -3  166.77    4.94
   3   8  -2    2.52    1.00
   3   8  -1   46.21    3.54
   3   8   0   37.76    3.18
   3   8   1    2.05    0.69
   3   8   2  177.44    6.46
   3   8   3   20.81    1.85
   3   8   4  133.70    3.93
   3   8   5  247.65    6.04
   3   8   6    4.20    0.71
   3   8   7    3.82    0.98
   3   8   8  122.60    2.93
   3   8   9   77.24    4.09
   3   8  10  251.03    7.43
   3   8  11   97.33    3.60
   3   8  12    2.35    0.61
   3   8  13   12.06    1.63
   3   8  14    4.40    0.87
   3   8  15  104.27    5.83
   3   8  16   93.17    3.77
   3   8  17    4.77    1.46
   3   8  18    1.50    0.75
   3   8  19    3.14    0.76
   3   8  20    8.05    1.69
   3   8  21    3.76    0.84
   3   8  22   -0.15    1.44
   3   8  23    0.68    1.14
   3   8  24    3.87    1.20
   3   8  25    3.54    1.59
   3   8  26   -0.76    1.20
   3   9 -25    4.98    3.17
   3   9 -24    0.26    1.20
   3   9 -23    1.06    0.89
   3   9 -22    3.06    1.45
   3   9 -21    2.95    0.98
   3   9 -20    3.54    1.32
   3   9 -19   27.13    9.52
   3   9 -18    1.53    0.93
   3   9 -17   13.00    1.51
   3   9 -16    1.36    1.13
   3   9 -15    4.87    0.97
   3   9 -14    0.66    0.97
   3   9 -13    3.87    1.05
   3   9 -12    2.85    0.87
   3   9 -11   85.48    3.70
   3   9 -10    1.70    0.83
   3   9  -9   17.46    1.86
   3   9  -8    2.73    3.17
   3   9  -7    2.70    1.34
   3   9  -6    2.18    1.00
   3   9  -5  220.32    4.91
   3   9  -4    2.61    1.73
   3   9  -3  350.46    7.72
   3   9  -2  158.69    2.54
   3   9  -1    5.20    1.06
   3   9   0   22.47    2.26
   3   9   1  110.51    3.28
   3   9   2    4.24    0.88
   3   9   3  758.72    6.66
   3   9   4   18.23    1.82
   3   9   5    2.31    0.98
   3   9   6   27.25    2.43
   3   9   7    5.39    0.98
   3   9   8    1.59    0.85
   3   9   9  198.90    4.41
   3   9  10    2.14    0.54
   3   9  11   46.98    3.38
   3   9  12   19.48    2.19
   3   9  13    1.63    0.79
   3   9  14    4.81    0.96
   3   9  15    2.75    0.69
   3   9  16   27.19    4.18
   3   9  17   13.86    2.27
   3   9  18    2.58    1.44
   3   9  19    1.73    0.75
   3   9  20    0.64    0.81
   3   9  21    2.63    0.73
   3   9  22    2.23    1.23
   3   9  23    2.50    1.78
   3   9  24    0.35    0.94
   3   9  25    1.87    1.62
   3  10 -25   -0.39    1.03
   3  10 -24    1.20    1.76
   3  10 -23    0.65    1.76
   3  10 -22    3.11    1.40
   3  10 -21    3.55    1.35
   3  10 -20    5.05    1.50
   3  10 -19    0.71    1.32
   3  10 -18    5.50    1.50
   3  10 -17    0.64    0.87
   3  10 -16    0.75    1.06
   3  10 -15   13.93    2.50
   3  10 -14    0.96    1.69
   3  10 -13   23.71    2.70
   3  10 -12   28.61    3.77
   3  10 -11    5.27    1.33
   3  10 -10    1.91    1.52
   3  10  -9    1.15    0.88
   3  10  -8    1.38    1.76
   3  10  -7   15.15    1.63
   3  10  -6  100.82    4.04
   3  10  -5    0.34    0.69
   3  10  -4   46.96    4.12
   3  10  -3   68.17    4.87
   3  10  -2   49.54    3.24
   3  10  -1    4.28    0.87
   3  10   0  110.67    3.73
   3  10   1    3.60    0.86
   3  10   2   41.18    5.07
   3  10   3   68.89    3.33
   3  10   4   37.08    3.47
   3  10   5   42.32    3.59
   3  10   6   50.07    3.66
   3  10   7    4.76    1.09
   3  10   8   11.33    1.50
   3  10   9   32.87    3.22
   3  10  10  166.98    8.01
   3  10  11    2.61    1.20
   3  10  12    2.37    1.64
   3  10  13   13.11    1.72
   3  10  14    2.43    0.82
   3  10  15    1.10    0.93
   3  10  16   23.81    4.01
   3  10  17    1.97    1.20
   3  10  18   14.40    3.35
   3  10  19    0.21    1.39
   3  10  20    0.78    1.97
   3  10  21    2.63    0.85
   3  10  22    1.91    1.39
   3  10  23    2.96    1.17
   3  11 -23    1.08    1.95
   3  11 -22    0.24    1.83
   3  11 -21    3.33    2.28
   3  11 -20    1.44    1.18
   3  11 -19   24.90    8.34
   3  11 -18    3.30    2.69
   3  11 -17    1.71    0.86
   3  11 -16    2.21    0.81
   3  11 -15    4.56    1.08
   3  11 -14    8.08    2.28
   3  11 -13   20.43    2.85
   3  11 -12    2.05    1.27
   3  11 -11   11.08    2.24
   3  11 -10    3.86    0.90
   3  11  -9    4.16    1.27
   3  11  -8   17.97    1.74
   3  11  -7    2.85    0.94
   3  11  -6    2.22    1.74
   3  11  -5   46.62    4.09
   3  11  -4    2.21    1.24
   3  11  -3   21.13    2.17
   3  11  -2   26.88    3.23
   3  11  -1    2.63    0.97
   3  11   0   22.76    2.18
   3  11   1    6.17    1.29
   3  11   2   40.06    4.44
   3  11   3  110.65    8.24
   3  11   4    7.75    2.17
   3  11   5   25.75    2.23
   3  11   6   51.32    5.26
   3  11   7   35.76    3.49
   3  11   8    1.99    0.83
   3  11   9  118.95    4.97
   3  11  10    4.32    0.93
   3  11  11   59.88    5.56
   3  11  12    4.88    1.17
   3  11  13    1.45    0.71
   3  11  14    6.00    1.77
   3  11  15   19.14    4.08
   3  11  16    7.21    2.16
   3  11  17   19.32    5.26
   3  11  18    8.78    1.43
   3  11  19    2.25    1.20
   3  11  20    2.61    1.42
   3  11  21    4.19    1.11
   3  12 -21    0.63    0.85
   3  12 -20    4.90    3.10
   3  12 -19    4.85    1.49
   3  12 -18   16.90    4.57
   3  12 -17    1.73    1.03
   3  12 -16    2.49    1.49
   3  12 -15    2.77    1.05
   3  12 -14    5.72    1.11
   3  12 -13   12.70    2.28
   3  12 -12   37.67    5.46
   3  12 -11    2.06    0.77
   3  12 -10   17.41    2.47
   3  12  -9    2.14    1.06
   3  12  -8   14.30    2.15
   3  12  -7    8.78    1.53
   3  12  -6   22.73    2.02
   3  12  -5    8.38    1.34
   3  12  -4  131.33    5.92
   3  12  -3   13.82    2.38
   3  12  -2    1.56    0.75
   3  12  -1    3.10    0.95
   3  12   0    6.24    1.60
   3  12   1    9.63    1.84
   3  12   2   24.54    2.72
   3  12   3   48.88    5.09
   3  12   4   39.84    4.12
   3  12   5    4.23    1.68
   3  12   6    1.58    1.73
   3  12   7    6.40    1.96
   3  12   8    2.02    0.74
   3  12   9   16.96    1.89
   3  12  10   96.00   15.12
   3  12  11    2.22    0.84
   3  12  12    2.75    1.46
   3  12  13    2.55    0.88
   3  12  14    6.23    2.83
   3  12  15    1.23    1.70
   3  12  16   15.02    4.11
   3  12  17    1.99    1.05
   3  12  18   14.29    5.08
   3  12  20   -0.33    1.49
   3  13 -18    4.53    1.66
   3  13 -17    0.45    1.34
   3  13 -16    3.11    1.34
   3  13 -15    3.38    1.11
   3  13 -14    2.62    1.04
   3  13 -13    0.93    0.91
   3  13 -12   12.48    2.32
   3  13 -11   28.65    4.06
   3  13 -10   15.19    2.12
   3  13  -9    1.86    1.31
   3  13  -8   -0.25    1.66
   3  13  -7    2.27    1.12
   3  13  -6   48.16    8.68
   3  13  -5   51.07    9.18
   3  13  -4    0.86    0.82
   3  13  -3   36.25    6.97
   3  13  -2   16.34    1.63
   3  13  -1    3.00    1.10
   3  13   0    4.22    1.70
   3  13   1    8.28    1.37
   3  13   2    1.75    1.01
   3  13   3   46.65    9.03
   3  13   4   17.19    2.47
   3  13   5    4.62    1.04
   3  13   6    3.02    0.75
   3  13   7    2.61    1.30
   3  13   8    4.84    1.36
   3  13   9    6.82    1.37
   3  13  10    4.18    0.88
   3  13  11    5.00    1.01
   3  13  12    5.01    0.90
   3  13  13    2.35    1.07
   3  13  14    2.09    0.86
   3  13  15    2.06    1.93
   3  13  16    2.83    0.98
   3  13  17    5.47    1.91
   3  13  18    2.38    1.42
   3  14 -14    0.74    2.15
   3  14 -13    2.99    2.28
   3  14 -12    0.02    2.10
   3  14 -11   11.08    3.19
   3  14 -10    0.52    1.38
   3  14  -9    2.59    0.98
   3  14  -8    0.93    2.24
   3  14  -7    5.07    1.98
   3  14  -6    3.88    1.22
   3  14  -5    0.52    1.44
   3  14  -4   14.17    1.85
   3  14  -3   16.58    2.35
   3  14  -2    2.29    0.98
   3  14  -1    4.90    1.03
   3  14   0    1.41    0.87
   3  14   1   16.99    2.30
   3  14   2   13.57    1.82
   3  14   3    2.95    1.01
   3  14   4    4.88    1.64
   3  14   5   14.51    2.04
   3  14   6    1.31    1.18
   3  14   7    3.03    1.03
   3  14   8    3.19    1.03
   3  14   9    5.00    1.43
   3  14  10   11.35    2.08
   3  14  11    4.20    1.76
   3  14  12    1.48    1.05
   3  14  13    7.57    1.78
   3  14  14    2.24    1.35
   3  15 -13    0.10    1.77
   3  15 -12    7.14    2.48
   3  15 -11    3.54    2.45
   3  15 -10   -0.70    2.36
   3  15  -9    4.03    1.02
   3  15  -8    3.36    0.95
   3  15  -7    1.28    0.91
   3  15  -6    3.30    0.90
   3  15  -5    0.49    1.69
   3  15  -4    4.03    1.56
   3  15  -3    2.19    2.03
   3  15  -2    6.59    1.15
   3  15  -1    2.77    1.36
   3  15   0    2.23    0.85
   3  15   1    3.60    0.99
   3  15   2    1.15    0.96
   3  15   3    2.62    1.79
   3  15   4    9.35    2.65
   3  15   5    2.99    1.44
   3  15   6    1.01    0.88
   3  15   7    5.59    2.04
   3  15   8    6.68    1.73
   3  15   9    1.39    1.16
   3  15  10    1.40    1.29
   3  15  11    2.35    0.91
   3  15  12    3.76    1.87
   3  15  13    0.36    0.93
   3  16  -7   -0.74    2.35
   3  16  -6    8.32    5.08
   3  16  -5    5.60    2.70
   3  16  -4    3.64    1.70
   3  16  -3    2.02    1.47
   3  16  -2    9.93    2.93
   3  16  -1    3.22    1.50
   3  16   0    4.36    2.20
   3  16   1    0.45    0.87
   3  16   2    1.70    1.39
   3  16   3    1.32    1.45
   3  16   4    6.49    2.96
   3  16   5    2.56    1.50
   3  16   6    2.73    1.17
   3  16   7   -1.61    1.67
   3  16   8    1.21    1.27
   3  16   9    3.05    1.58
   4   0 -22  144.92    6.78
   4   0 -20    7.03    1.29
   4   0 -18    5.33    1.12
   4   0 -16  321.72    7.39
   4   0 -14    7.07    1.63
   4   0 -12   58.96    3.52
   4   0 -10   45.01    2.56
   4   0  -8 1742.35   29.31
   4   0  -6   23.07    1.94
   4   0  -4 1230.08   34.27
   4   0  -2 2028.05   26.21
   4   0   0  791.21    7.94
   4   0   2 2408.56   58.46
   4   0   4  142.76    2.88
   4   0   6   16.92    2.91
   4   0   8  288.23   18.17
   4   0  10 1110.33   28.19
   4   0  12   42.11    2.45
   4   0  14  197.20    9.89
   4   0  16   15.20    2.68
   4   0  18   81.94    8.84
   4   0  20   17.91    4.28
   4   0  22    2.77    1.53
   4   0  24   15.12    3.61
   4   0  26   14.03    5.47
   4   1 -22   16.74    3.12
   4   1 -21   22.05    2.19
   4   1 -20   11.45    1.49
   4   1 -19    1.48    0.41
   4   1 -18    8.96    1.02
   4   1 -17   27.72    1.66
   4   1 -16    0.40    0.44
   4   1 -15  203.95    3.68
   4   1 -14    1.83    0.36
   4   1 -13   52.18    2.00
   4   1 -12   42.14    0.98
   4   1 -11    1.13    0.23
   4   1 -10  318.04    6.52
   4   1  -9  648.00    5.09
   4   1  -8   15.31    1.72
   4   1  -7  772.69   11.25
   4   1  -6    9.68    0.75
   4   1  -5   43.15    0.75
   4   1  -4  381.59    3.76
   4   1  -3   35.13    2.45
   4   1  -2  538.94   12.71
   4   1  -1  254.11    3.64
   4   1   0  394.31    3.81
   4   1   1  456.72   12.71
   4   1   2  105.10    1.86
   4   1   3   24.25    1.47
   4   1   4    7.92    0.56
   4   1   5  158.03    5.74
   4   1   6   17.78    0.97
   4   1   7  476.97    8.55
   4   1   8   71.38    3.66
   4   1   9   55.04    3.26
   4   1  10  183.28    6.28
   4   1  11  290.07    8.56
   4   1  12    6.75    0.87
   4   1  13  351.05    9.31
   4   1  14   49.97    4.62
   4   1  15    6.19    0.82
   4   1  16   20.05    3.83
   4   1  17   22.91    3.33
   4   1  18    1.80    1.05
   4   1  19   58.61    5.96
   4   1  20   25.96    5.04
   4   1  21   33.85    3.58
   4   1  22    0.13    3.24
   4   1  23   12.18    2.46
   4   1  24    2.05    1.04
   4   1  25    1.62    0.92
   4   1  26    1.47    1.51
   4   1  27    7.33    4.26
   4   2 -23    0.61    0.76
   4   2 -22   74.21    2.82
   4   2 -21    3.02    0.72
   4   2 -20    0.65    0.42
   4   2 -19    5.10    0.76
   4   2 -18   19.24    1.42
   4   2 -17   27.70    1.44
   4   2 -16  112.06    2.73
   4   2 -15    0.94    0.32
   4   2 -14  132.88    3.55
   4   2 -13   10.16    0.81
   4   2 -12   23.89    1.04
   4   2 -11  125.86    3.02
   4   2 -10   99.91    2.60
   4   2  -9  227.38    5.13
   4   2  -8  320.92    7.43
   4   2  -7  120.63    1.98
   4   2  -6   74.98    1.77
   4   2  -5    0.87    0.29
   4   2  -4   12.79    1.09
   4   2  -3    0.52    0.57
   4   2  -2 1590.43   27.35
   4   2  -1    0.18    0.46
   4   2   0   47.84    3.92
   4   2   1  127.07    1.87
   4   2   2  121.66    2.10
   4   2   3   24.92    1.54
   4   2   4   41.85    1.19
   4   2   5  177.40    2.62
   4   2   6  582.65    6.33
   4   2   7  180.11    4.78
   4   2   8  438.39    7.50
   4   2   9    4.70    1.02
   4   2  10   98.38    4.70
   4   2  11   20.97    1.29
   4   2  12  201.80    4.52
   4   2  13    9.97    1.15
   4   2  14  363.68   16.78
   4   2  15   97.76    1.77
   4   2  16  117.60    2.52
   4   2  17   20.23    2.77
   4   2  18  171.83    3.11
   4   2  19   42.21    3.42
   4   2  20  110.93    7.58
   4   2  21   68.01    3.84
   4   2  22    0.63    0.97
   4   2  23    0.72    0.92
   4   2  24   10.03    1.55
   4   2  25   45.10    5.79
   4   2  26    8.05    2.57
   4   2  27    2.93    1.68
   4   3 -23   10.44    3.63
   4   3 -22    6.77    1.37
   4   3 -21   27.55    2.02
   4   3 -20    3.88    1.03
   4   3 -19   31.59    1.28
   4   3 -18   75.59    1.18
   4   3 -17   24.09    1.49
   4   3 -16   11.98    1.36
   4   3 -15  135.38    2.36
   4   3 -14    2.90    0.50
   4   3 -13  381.53    6.42
   4   3 -12   44.80    2.02
   4   3 -11   20.32    0.85
   4   3 -10  155.42    1.76
   4   3  -9  652.78    8.87
   4   3  -8   87.15    1.34
   4   3  -7 1115.84   13.02
   4   3  -6   38.38    2.59
   4   3  -5  144.03    3.33
   4   3  -4    9.05    0.78
   4   3  -3   30.74    1.39
   4   3  -2  757.60    5.07
   4   3  -1  417.85    3.75
   4   3   0  219.80    3.31
   4   3   1   37.95    1.86
   4   3   2   95.76    1.99
   4   3   3  128.42    3.72
   4   3   4   11.68    0.73
   4   3   5  812.82    6.86
   4   3   6   59.43    1.95
   4   3   7 1172.75   22.36
   4   3   8  124.39    2.59
   4   3   9    1.00    0.32
   4   3  10    4.25    0.89
   4   3  11    0.14    0.55
   4   3  12   21.63    1.59
   4   3  13  222.15    4.96
   4   3  14    0.98    0.52
   4   3  15  209.11   10.05
   4   3  16   76.90    3.34
   4   3  17    2.84    0.73
   4   3  18   18.17    2.66
   4   3  19   18.29    2.82
   4   3  20    2.20    1.14
   4   3  21   83.03    4.97
   4   3  22   11.37    2.22
   4   3  23    1.71    1.09
   4   3  24    8.12    2.17
   4   3  25    1.45    0.84
   4   3  26    8.49    1.66
   4   3  27    3.29    1.68
   4   3  28   -1.91    1.23
   4   4 -23    0.36    0.60
   4   4 -22    1.02    0.63
   4   4 -21   16.15    2.05
   4   4 -20    2.64    0.66
   4   4 -19    0.99    0.46
   4   4 -18   10.84    2.04
   4   4 -17   69.94    1.73
   4   4 -16   35.46    1.10
   4   4 -15   28.80    1.45
   4   4 -14    1.72    0.42
   4   4 -13    6.83    0.76
   4   4 -12  157.10    3.41
   4   4 -11  329.96   16.07
   4   4 -10   19.37    1.47
   4   4  -9   29.40    1.44
   4   4  -8   66.00    1.38
   4   4  -7    4.39    1.17
   4   4  -6  154.06    3.52
   4   4  -5  114.18    1.92
   4   4  -4    4.62    1.37
   4   4  -3  300.13    5.69
   4   4  -2   58.34    2.92
   4   4  -1   45.55    1.32
   4   4   0  658.19    6.36
   4   4   1  487.76    5.60
   4   4   2   59.45    4.35
   4   4   3  333.31    9.58
   4   4   4  244.34    6.74
   4   4   5   11.21    1.70
   4   4   6  563.20    5.69
   4   4   7  733.24   11.40
   4   4   8   66.41    1.41
   4   4   9  142.19    2.80
   4   4  10   26.43    1.57
   4   4  11    9.42    1.67
   4   4  12  140.78    5.71
   4   4  13    1.09    1.05
   4   4  14  144.54    6.67
   4   4  15   89.44    9.14
   4   4  16    2.78    0.72
   4   4  17   13.56    2.49
   4   4  18    1.14    0.60
   4   4  19   10.66    2.01
   4   4  20   80.97    4.31
   4   4  21    0.69    1.62
   4   4  22    4.86    1.58
   4   4  23   26.58    4.99
   4   4  24    2.33    1.14
   4   4  25    2.50    1.39
   4   4  26    5.00    1.76
   4   4  27    5.58    1.79
   4   4  28    2.48    0.97
   4   5 -24    5.45    3.84
   4   5 -23    3.79    1.26
   4   5 -22   25.96    1.57
   4   5 -21    1.24    0.49
   4   5 -20    1.61    0.82
   4   5 -19    3.34    0.87
   4   5 -18   15.91    2.27
   4   5 -17   17.61    1.90
   4   5 -16   -0.28    0.32
   4   5 -15    7.27    1.20
   4   5 -14    0.60    0.28
   4   5 -13    9.47    1.23
   4   5 -12   14.92    1.61
   4   5 -11   54.87    2.76
   4   5 -10   10.33    0.97
   4   5  -9   79.47    2.12
   4   5  -8   11.12    1.23
   4   5  -7   31.06    1.63
   4   5  -6  101.09    3.10
   4   5  -5   42.48    1.81
   4   5  -4   41.14    2.62
   4   5  -3  167.08    4.45
   4   5  -2   25.42    2.84
   4   5  -1   29.13    3.12
   4   5   0  533.07   23.52
   4   5   1   52.86    3.23
   4   5   2  100.00    4.56
   4   5   3  353.52   11.88
   4   5   4  129.22    7.31
   4   5   5   19.60    1.25
   4   5   6   49.49    1.53
   4   5   7  201.56    3.02
   4   5   8  531.82   11.74
   4   5   9   26.70    2.59
   4   5  10   21.21    1.38
   4   5  11    2.91    0.52
   4   5  12   45.49    2.35
   4   5  13   31.29    3.72
   4   5  14  158.16    1.65
   4   5  15   13.09    1.88
   4   5  16   16.07    2.21
   4   5  17   40.23    3.94
   4   5  18   36.57    4.62
   4   5  19   -0.07    0.78
   4   5  20    7.44    2.09
   4   5  21    5.50    1.25
   4   5  22   31.38    7.94
   4   5  23    9.39    4.95
   4   5  24    4.82    1.76
   4   5  25    0.53    1.03
   4   5  26   16.39    6.54
   4   5  27   -0.19    0.80
   4   5  28    1.62    0.97
   4   6 -24    5.66    1.46
   4   6 -23    0.58    0.57
   4   6 -22    7.74    1.81
   4   6 -21    5.17    1.25
   4   6 -20    2.75    0.91
   4   6 -19    3.73    1.23
   4   6 -18   10.07    1.85
   4   6 -17   20.80    2.89
   4   6 -16   33.22    3.14
   4   6 -15   69.64    1.82
   4   6 -14   59.29    2.25
   4   6 -13   10.87    3.92
   4   6 -12   12.42    1.31
   4   6 -11   53.58    2.85
   4   6 -10   65.78    2.95
   4   6  -9    1.22    0.58
   4   6  -8   75.30    1.67
   4   6  -7  158.87    3.76
   4   6  -6  207.16    3.33
   4   6  -5  145.22    6.75
   4   6  -4   20.02    1.89
   4   6  -3   28.34    2.29
   4   6  -2   83.20    4.21
   4   6  -1   34.63    2.98
   4   6   0  211.09    3.87
   4   6   1 1031.91   13.19
   4   6   2  162.83    3.92
   4   6   3  210.99    7.82
   4   6   4   37.01    2.17
   4   6   5  351.56   23.23
   4   6   6   31.72    3.58
   4   6   7  929.36   20.86
   4   6   8   30.64    3.90
   4   6   9  165.82    3.64
   4   6  10    1.24    0.78
   4   6  11   64.88    2.38
   4   6  12   12.49    1.40
   4   6  13   23.53    3.50
   4   6  14    4.08    0.62
   4   6  15   96.33    2.78
   4   6  16    4.10    1.20
   4   6  17    1.72    0.92
   4   6  18    5.09    1.14
   4   6  19   61.90    3.23
   4   6  20    0.33    0.59
   4   6  21   21.05    3.86
   4   6  22    7.24    2.10
   4   6  23    0.42    1.06
   4   6  24    1.54    1.42
   4   6  25    8.00    3.21
   4   6  26   -0.15    1.65
   4   6  27    1.08    1.31
   4   6  28    1.47    1.27
   4   7 -24    3.19    0.71
   4   7 -23    0.02    0.80
   4   7 -22    5.05    0.95
   4   7 -21    0.05    1.01
   4   7 -20    5.41    1.27
   4   7 -19   21.39    6.21
   4   7 -18   16.86    2.87
   4   7 -17    2.61    1.09
   4   7 -16   19.30    2.37
   4   7 -15    0.75    1.14
   4   7 -14  108.05    3.03
   4   7 -13   93.86    4.29
   4   7 -12   15.26    1.78
   4   7 -11   71.82    3.13
   4   7 -10  154.42    7.30
   4   7  -9   16.50    1.82
   4   7  -8   59.26    4.46
   4   7  -7    0.29    1.21
   4   7  -6  236.71   11.56
   4   7  -5  345.33   12.41
   4   7  -4  153.80    5.72
   4   7  -3    1.18    0.63
   4   7  -2  107.62   11.05
   4   7  -1    6.64    1.23
   4   7   0   83.30    8.25
   4   7   1   76.83    2.26
   4   7   2   57.24    3.40
   4   7   3  159.99    6.35
   4   7   4  428.42    7.71
   4   7   5   95.17    2.51
   4   7   6    6.73    1.36
   4   7   7   32.79    5.02
   4   7   8  271.45   12.72
   4   7   9  105.89    3.23
   4   7  10  129.33    6.88
   4   7  11    3.70    1.39
   4   7  12    2.89    0.75
   4   7  13   83.72    2.89
   4   7  14   50.52    1.99
   4   7  15   69.54    2.88
   4   7  16    3.83    1.15
   4   7  17   26.59    4.17
   4   7  18   22.41    3.56
   4   7  19    3.30    0.73
   4   7  20    3.28    0.85
   4   7  21    4.67    1.27
   4   7  22   16.43    4.84
   4   7  23    3.30    1.75
   4   7  24    4.69    2.30
   4   7  25   -0.17    1.40
   4   7  26    2.43    1.65
   4   7  27    1.70    1.35
   4   8 -24    1.27    0.53
   4   8 -23   -0.64    0.77
   4   8 -22    2.48    1.41
   4   8 -21    5.92    1.88
   4   8 -20   11.94    2.56
   4   8 -19    3.58    1.47
   4   8 -18   18.85    3.19
   4   8 -17    2.42    0.95
   4   8 -16    1.31    1.00
   4   8 -15    0.60    0.71
   4   8 -14    2.84    0.97
   4   8 -13   22.22    2.25
   4   8 -12  213.57    4.50
   4   8 -11    0.03    0.93
   4   8 -10   70.43    4.85
   4   8  -9  135.41    4.84
   4   8  -8   38.46    4.25
   4   8  -7    2.35    1.06
   4   8  -6   63.83    7.81
   4   8  -5  237.86   19.53
   4   8  -4  283.85    8.38
   4   8  -3  142.13    4.54
   4   8  -2   23.55    2.41
   4   8  -1  178.06    5.04
   4   8   0   12.65    1.41
   4   8   1  169.58    4.68
   4   8   2  157.80    6.06
   4   8   3   36.81    3.72
   4   8   4   27.45    3.06
   4   8   5  126.64    3.05
   4   8   6   26.14    2.54
   4   8   7   48.80    3.37
   4   8   8   16.74    1.80
   4   8   9   75.90    3.92
   4   8  10  117.86    4.28
   4   8  11   22.25    2.14
   4   8  12    2.91    0.66
   4   8  13    0.59    1.01
   4   8  14    6.10    1.32
   4   8  15    5.02    1.03
   4   8  16  146.56    3.78
   4   8  17   -0.02    0.63
   4   8  18    3.80    0.65
   4   8  19    1.93    0.74
   4   8  20    1.55    0.78
   4   8  21    3.13    1.15
   4   8  22    3.16    1.87
   4   8  23    1.78    1.96
   4   8  25    2.02    1.15
   4   8  26    1.30    0.97
   4   9 -24    0.49    1.77
   4   9 -23   -1.23    1.37
   4   9 -22    2.33    2.10
   4   9 -21    1.38    0.93
   4   9 -20    3.36    1.64
   4   9 -19   31.17    4.36
   4   9 -18    3.06    0.98
   4   9 -17    2.00    0.89
   4   9 -16    7.59    1.42
   4   9 -15    3.52    1.09
   4   9 -14   19.40    2.66
   4   9 -13   67.02    3.17
   4   9 -12    0.30    1.38
   4   9 -11   41.61    3.68
   4   9 -10   37.65    3.11
   4   9  -9    5.25    1.87
   4   9  -8   51.44    2.74
   4   9  -7    1.49    1.21
   4   9  -6    3.01    1.12
   4   9  -5   73.47    4.91
   4   9  -4  124.60    3.61
   4   9  -3  179.09    3.34
   4   9  -2   16.08    2.10
   4   9  -1    1.50    0.75
   4   9   0    2.12    0.84
   4   9   1  191.01    3.52
   4   9   2    3.04    0.87
   4   9   3  240.03    3.99
   4   9   4   85.36    4.46
   4   9   5   24.00    2.29
   4   9   6    3.31    0.77
   4   9   7   17.58    2.94
   4   9   8    1.94    0.70
   4   9   9  135.04    7.80
   4   9  10   17.26    1.60
   4   9  11  110.90    8.00
   4   9  12   20.64    2.56
   4   9  13    1.57    0.75
   4   9  14    0.33    1.12
   4   9  15    8.10    2.24
   4   9  16    0.48    0.98
   4   9  17   47.47    9.06
   4   9  18    4.82    1.15
   4   9  19    2.15    0.79
   4   9  20    2.86    0.60
   4   9  21    3.08    0.81
   4   9  22    5.24    2.36
   4   9  23    9.98    2.70
   4   9  24    1.27    1.37
   4  10 -24    1.19    1.06
   4  10 -23    1.47    0.85
   4  10 -22    0.58    1.28
   4  10 -21    2.37    1.25
   4  10 -20    8.97    1.49
   4  10 -19    0.77    0.81
   4  10 -18    4.61    1.17
   4  10 -17   15.62    2.27
   4  10 -16    8.20    1.80
   4  10 -15    8.53    1.62
   4  10 -14    5.46    1.33
   4  10 -13    1.70    0.76
   4  10 -12    6.43    1.23
   4  10 -11   41.83    3.79
   4  10 -10    2.10    1.40
   4  10  -9    2.93    0.96
   4  10  -8    4.41    1.06
   4  10  -7   25.63    3.20
   4  10  -6   37.26    3.04
   4  10  -5    3.27    1.03
   4  10  -4    7.17    2.13
   4  10  -3    1.48    0.73
   4  10  -2    1.41    0.93
   4  10  -1    1.32    1.00
   4  10   0   62.46    3.13
   4  10   1   14.87    2.10
   4  10   2   30.07    2.58
   4  10   3   24.13    2.68
   4  10   4  161.09    3.16
   4  10   5    0.03    1.22
   4  10   6    4.47    1.69
   4  10   7   48.11    3.75
   4  10   8   18.36    2.08
   4  10   9    4.77    1.10
   4  10  10  156.70    4.57
   4  10  11   10.15    1.59
   4  10  12    4.25    0.87
   4  10  13   44.49    3.59
   4  10  14    4.28    1.07
   4  10  15    6.66    1.76
   4  10  16  114.73   16.47
   4  10  17    1.28    0.84
   4  10  18    6.99    1.26
   4  10  19    3.54    1.01
   4  10  20    1.22    1.03
   4  10  21    1.47    1.26
   4  10  22    5.80    2.13
   4  11 -23    2.74    2.56
   4  11 -22    1.30    1.09
   4  11 -21    2.18    0.84
   4  11 -20    3.03    0.97
   4  11 -19    6.97    1.57
   4  11 -18    4.65    1.26
   4  11 -17   14.15    3.22
   4  11 -16    7.26    1.22
   4  11 -15    4.07    0.97
   4  11 -14    2.21    1.10
   4  11 -13   24.81    4.28
   4  11 -12    3.03    1.24
   4  11 -11    4.48    0.96
   4  11 -10    0.49    0.77
   4  11  -9   28.75    2.65
   4  11  -8   23.68    2.21
   4  11  -7    4.17    1.52
   4  11  -6    5.02    1.10
   4  11  -5   19.73    1.69
   4  11  -4    6.97    1.11
   4  11  -3   10.46    1.98
   4  11  -2   -0.62    0.94
   4  11  -1   19.77    3.19
   4  11   0    2.90    0.75
   4  11   1    7.72    1.50
   4  11   2   44.62    2.53
   4  11   3  157.03    7.86
   4  11   4    1.39    1.01
   4  11   5    3.86    0.82
   4  11   6   26.77    2.31
   4  11   7   25.30    1.99
   4  11   8   27.11    2.74
   4  11   9  119.15    6.68
   4  11  10    3.10    1.00
   4  11  11   83.90    4.35
   4  11  12   17.89    4.17
   4  11  13    0.41    0.78
   4  11  14    4.42    1.23
   4  11  15    7.57    1.75
   4  11  16    1.69    1.14
   4  11  17   29.81    7.83
   4  11  18    2.61    1.09
   4  11  19    3.67    1.26
   4  11  20    4.49    1.11
   4  12 -20    8.15    2.34
   4  12 -19    2.52    1.08
   4  12 -18    0.02    1.78
   4  12 -17    0.91    2.25
   4  12 -16    1.17    1.76
   4  12 -15    3.40    0.79
   4  12 -14    1.99    1.10
   4  12 -13   15.03    3.00
   4  12 -12   19.99    6.23
   4  12 -11    4.83    1.15
   4  12 -10    4.15    0.88
   4  12  -9   19.15    2.40
   4  12  -8    5.50    1.31
   4  12  -7    4.65    1.91
   4  12  -6   36.46    3.36
   4  12  -5    3.01    0.96
   4  12  -4   73.52    4.88
   4  12  -3   46.55    4.75
   4  12  -2    6.77    2.28
   4  12  -1   -2.74    2.21
   4  12   0    3.21    1.24
   4  12   1   14.72    2.14
   4  12   2   86.25    6.44
   4  12   3   32.89    3.21
   4  12   4   35.88    3.75
   4  12   5    2.55    1.15
   4  12   6   23.41    2.54
   4  12   7    1.64    1.03
   4  12   8    2.02    1.11
   4  12   9    6.03    1.32
   4  12  10   67.77   11.34
   4  12  11    1.60    0.76
   4  12  12    1.29    0.80
   4  12  13    2.05    0.83
   4  12  14    6.51    1.94
   4  12  15    0.55    1.60
   4  12  16    9.41    2.94
   4  12  17    1.60    1.74
   4  12  18   11.09    3.17
   4  12  19    1.44    1.62
   4  12  20    2.08    1.70
   4  13 -17    0.62    2.96
   4  13 -16    3.64    1.40
   4  13 -15   -0.26    1.42
   4  13 -14    4.31    1.28
   4  13 -13    9.11    1.63
   4  13 -12    2.24    1.35
   4  13 -11   23.08    6.32
   4  13 -10    5.34    1.52
   4  13  -9    2.52    1.45
   4  13  -8    3.42    1.40
   4  13  -7   -0.31    0.97
   4  13  -6   22.28    2.68
   4  13  -5   53.50    9.41
   4  13  -4    3.01    1.81
   4  13  -3   10.28    2.17
   4  13  -2    0.09    1.28
   4  13  -1    1.88    1.86
   4  13   0   42.61    8.96
   4  13   1   37.43    7.44
   4  13   2    2.55    0.87
   4  13   3   22.90    3.82
   4  13   4    7.20    1.18
   4  13   5    1.86    0.80
   4  13   6    2.08    1.10
   4  13   7    0.63    1.41
   4  13   8    2.33    0.98
   4  13   9   13.97    2.97
   4  13  10    1.45    1.03
   4  13  11   11.23    1.97
   4  13  12    6.19    1.16
   4  13  13    1.18    1.09
   4  13  14    3.21    0.87
   4  13  15    1.32    1.16
   4  13  16   -0.31    1.18
   4  13  17    3.82    1.49
   4  13  18    3.04    1.64
   4  14 -15    0.77    0.82
   4  14 -14    3.11    1.35
   4  14 -13    3.05    1.93
   4  14 -12    8.33    1.34
   4  14 -11    5.17    1.57
   4  14 -10    0.14    1.56
   4  14  -9    8.87    2.46
   4  14  -8    5.44    0.90
   4  14  -7    4.61    1.40
   4  14  -6    5.43    1.00
   4  14  -5    1.10    1.26
   4  14  -4   15.57    2.36
   4  14  -3    9.31    1.41
   4  14  -2    5.21    1.28
   4  14  -1    2.98    1.03
   4  14   0    2.49    0.87
   4  14   1   11.29    2.19
   4  14   2   33.30    5.21
   4  14   3    1.49    1.06
   4  14   4    4.70    0.97
   4  14   5    1.90    0.99
   4  14   6    2.26    1.39
   4  14   7    7.49    1.51
   4  14   8    3.76    1.94
   4  14   9    2.45    1.07
   4  14  10    3.55    1.03
   4  14  11    1.18    1.18
   4  14  12    3.00    1.12
   4  14  13    1.57    1.92
   4  14  14    3.06    1.33
   4  14  15    1.01    0.96
   4  15 -13    0.90    0.84
   4  15 -12    3.31    1.35
   4  15 -11    2.16    1.37
   4  15 -10   -2.34    2.39
   4  15  -9    3.28    2.37
   4  15  -8    0.39    1.60
   4  15  -7    1.37    1.23
   4  15  -6    0.29    2.19
   4  15  -5    2.16    0.95
   4  15  -4    2.45    1.53
   4  15  -3    3.05    1.29
   4  15  -2    3.76    0.82
   4  15  -1    3.00    1.01
   4  15   0    2.77    1.38
   4  15   1    3.52    0.81
   4  15   2    1.29    0.99
   4  15   3   -0.28    0.94
   4  15   4   12.36    2.23
   4  15   5    1.02    1.08
   4  15   6    1.86    1.34
   4  15   7    1.93    1.39
   4  15   8    7.25    1.60
   4  15   9    3.32    1.54
   4  15  10    1.55    1.47
   4  15  11    1.01    1.52
   4  15  12    0.51    0.96
   4  15  13   -0.39    1.86
   4  16  -6   -0.32    1.71
   4  16  -5    0.88    1.14
   4  16  -4    9.93    5.66
   4  16  -3    3.20    1.67
   4  16  -2    7.94    2.69
   4  16  -1    1.88    1.64
   4  16   0    6.11    2.27
   4  16   1   -1.02    2.24
   4  16   2    5.75    2.26
   4  16   3    3.66    2.04
   4  16   4    2.21    0.89
   4  16   5    7.98    1.99
   4  16   6   -0.87    1.62
   4  16   7   -0.92    1.25
   4  16   8    1.60    0.94
   5   0 -24   -0.56    0.90
   5   0 -22  169.35    6.79
   5   0 -20    1.47    0.65
   5   0 -18   35.19    1.48
   5   0 -16  558.58   12.90
   5   0 -14  181.16    4.82
   5   0 -12  153.76    3.54
   5   0 -10   52.09    4.28
   5   0  -8  594.25   18.58
   5   0  -6   12.73    1.20
   5   0  -4    5.70    0.65
   5   0  -2 1838.32   42.93
   5   0   0   72.32    3.25
   5   0   2  209.58    5.43
   5   0   4   14.61    1.16
   5   0   6  276.31   18.96
   5   0   8   20.38    5.00
   5   0  10   87.17    3.88
   5   0  12  128.01    6.27
   5   0  14  296.26   12.93
   5   0  16   63.34    3.89
   5   0  18    1.21    1.32
   5   0  20  152.29   14.95
   5   0  22    3.50    2.34
   5   0  24   -2.02    1.63
   5   0  26    9.73    2.64
   5   1 -24    5.13    1.49
   5   1 -23   37.57    3.39
   5   1 -22    1.57    0.58
   5   1 -21   36.00    3.37
   5   1 -20    2.61    0.90
   5   1 -19   11.27    2.08
   5   1 -18    0.88    0.18
   5   1 -17  110.54    2.38
   5   1 -16    0.91    0.28
   5   1 -15  157.24    5.72
   5   1 -14   47.54    2.06
   5   1 -13   17.58    1.58
   5   1 -12    6.05    0.67
   5   1 -11   51.61    3.77
   5   1 -10   26.60    0.93
   5   1  -9  413.20    7.84
   5   1  -8   27.66    2.93
   5   1  -7   27.50    2.18
   5   1  -6   17.64    0.86
   5   1  -5    9.07    0.62
   5   1  -4    8.90    0.73
   5   1  -3    1.73    0.43
   5   1  -2   45.37    0.92
   5   1  -1 1772.57   29.24
   5   1   0   39.02    1.08
   5   1   1   18.40    1.27
   5   1   2   13.20    0.78
   5   1   3    0.89    0.49
   5   1   4    0.45    0.52
   5   1   5  757.84    8.34
   5   1   6    2.55    0.44
   5   1   7  478.45   12.97
   5   1   8  203.50    9.22
   5   1   9  144.80    3.44
   5   1  10   34.20    1.31
   5   1  11  278.57    5.19
   5   1  12    4.60    0.67
   5   1  13  361.12    7.40
   5   1  14   66.94    2.13
   5   1  15    1.60    0.40
   5   1  16   55.99    4.52
   5   1  17   24.62    3.37
   5   1  18   18.91    2.46
   5   1  19   46.32    2.81
   5   1  20    5.80    2.09
   5   1  21   57.85    4.41
   5   1  22    2.97    1.21
   5   1  23    0.89    0.88
   5   1  24   11.78    3.63
   5   1  25    2.67    0.66
   5   1  26    0.31    0.74
   5   1  27   11.81    5.19
   5   2 -23    1.59    1.37
   5   2 -22   15.43    3.90
   5   2 -21    5.45    1.30
   5   2 -20    3.45    1.22
   5   2 -19   19.35    1.79
   5   2 -18    4.55    0.81
   5   2 -17   28.18    1.68
   5   2 -16  313.64   20.83
   5   2 -15   33.10    2.21
   5   2 -14    2.18    0.67
   5   2 -13   51.39    2.82
   5   2 -12    5.08    0.83
   5   2 -11  476.54    9.29
   5   2 -10  164.84    2.77
   5   2  -9  165.75    4.69
   5   2  -8  107.32    7.94
   5   2  -7  465.39    7.40
   5   2  -6  174.20    3.68
   5   2  -5  332.71    3.21
   5   2  -4   27.71    1.27
   5   2  -3  230.30    5.48
   5   2  -2  387.67    3.42
   5   2  -1  104.86    1.48
   5   2   0  596.72    4.72
   5   2   1  555.04    4.39
   5   2   2   72.36    2.60
   5   2   3  296.52    2.95
   5   2   4  818.44   14.51
   5   2   5   48.94    2.21
   5   2   6  201.56    8.23
   5   2   7   78.22    3.52
   5   2   8  571.26   12.82
   5   2   9    0.48    0.45
   5   2  10   11.99    1.66
   5   2  11    2.74    1.01
   5   2  12   88.65    1.40
   5   2  13    3.73    0.67
   5   2  14  213.92    5.33
   5   2  15   27.89    1.68
   5   2  16   14.55    3.64
   5   2  17   16.58    2.10
   5   2  18    2.63    1.16
   5   2  19   30.97    4.33
   5   2  20  154.55   14.42
   5   2  21   16.32    4.26
   5   2  22    3.24    0.96
   5   2  23   10.79    2.41
   5   2  24    0.13    0.75
   5   2  25    5.57    1.28
   5   2  26    5.56    1.91
   5   2  27    1.09    1.12
   5   2  28    2.03    1.78
   5   3 -24    3.18    1.83
   5   3 -23   13.56    4.48
   5   3 -22    5.64    1.19
   5   3 -21   19.39    2.28
   5   3 -20    7.61    1.09
   5   3 -19    2.69    0.65
   5   3 -18   71.53    4.87
   5   3 -17    2.17    0.60
   5   3 -16    1.80    1.03
   5   3 -15  148.33    2.41
   5   3 -14   17.26    2.35
   5   3 -13   70.75    1.89
   5   3 -12    4.21    0.73
   5   3 -11   35.97    1.64
   5   3 -10   34.76    2.15
   5   3  -9  315.65    5.27
   5   3  -8   93.75    2.29
   5   3  -7  422.94    7.05
   5   3  -6   30.32    2.26
   5   3  -5   25.49    2.80
   5   3  -4 1362.07   23.68
   5   3  -3  241.62    3.11
   5   3  -2   15.55    1.04
   5   3  -1  638.80    5.04
   5   3   0  280.25    6.48
   5   3   1   17.05    1.04
   5   3   2  106.40    2.57
   5   3   3   54.54    3.69
   5   3   4 1011.39   26.61
   5   3   5  304.28    6.39
   5   3   6   64.90    1.23
   5   3   7    5.34    0.87
   5   3   8   33.83    1.08
   5   3   9    0.54    0.35
   5   3  10    8.26    0.91
   5   3  11   13.64    1.51
   5   3  12    6.29    0.90
   5   3  13  237.72    7.30
   5   3  14   10.03    1.42
   5   3  15    3.92    0.89
   5   3  16   10.51    2.34
   5   3  17    2.14    0.58
   5   3  18    4.55    0.93
   5   3  19   55.08    5.99
   5   3  20    0.33    1.32
   5   3  21   13.84    3.71
   5   3  22   31.56    6.00
   5   3  23    6.17    1.98
   5   3  24    0.63    1.23
   5   3  25    3.24    1.35
   5   3  26    1.97    1.13
   5   3  27    3.59    1.76
   5   3  28    3.53    1.61
   5   4 -24    3.36    1.59
   5   4 -23    4.72    1.04
   5   4 -22    6.12    1.04
   5   4 -21   19.11    2.43
   5   4 -20    3.20    0.65
   5   4 -19    4.71    1.35
   5   4 -18   10.21    1.48
   5   4 -17   43.96    5.69
   5   4 -16  106.99    6.80
   5   4 -15    9.48    2.21
   5   4 -14    3.09    0.74
   5   4 -13    1.15    0.38
   5   4 -12   71.14    0.65
   5   4 -11  142.40    3.35
   5   4 -10  443.47   10.01
   5   4  -9    0.31    0.34
   5   4  -8   31.38    1.52
   5   4  -7    0.43    0.39
   5   4  -6  767.18   12.22
   5   4  -5  361.86    4.98
   5   4  -4  723.98    7.54
   5   4  -3   54.10    3.49
   5   4  -2  112.56    2.96
   5   4  -1  342.38    6.85
   5   4   0  132.44    2.03
   5   4   1    0.25    0.63
   5   4   2   51.81    3.19
   5   4   3   10.14    1.27
   5   4   4   71.38    2.04
   5   4   5  103.45    4.93
   5   4   6  161.80    4.64
   5   4   7  139.64    3.45
   5   4   8  128.30    3.67
   5   4   9    0.82    0.32
   5   4  10  110.73    3.12
   5   4  11   20.08    1.94
   5   4  12   54.62   12.26
   5   4  13  112.93   23.65
   5   4  14  172.09   12.21
   5   4  15   46.00    1.65
   5   4  16    1.25    0.51
   5   4  17   22.49    1.87
   5   4  18    5.51    1.68
   5   4  19    7.77    1.48
   5   4  20   80.92    3.99
   5   4  21   10.54    2.21
   5   4  22    6.51    1.95
   5   4  23   27.94    9.27
   5   4  24    3.40    1.52
   5   4  25    4.34    0.98
   5   4  26   -0.21    1.63
   5   4  27    0.27    1.48
   5   4  28    2.13    0.97
   5   4  29    3.51    1.35
   5   5 -24    7.57    5.08
   5   5 -23   11.78    2.95
   5   5 -22   51.02    4.47
   5   5 -21    1.34    0.98
   5   5 -20   10.06    2.72
   5   5 -19    6.64    1.75
   5   5 -18   51.56    2.37
   5   5 -17   49.06    2.67
   5   5 -16   55.97    1.16
   5   5 -15    0.41    0.25
   5   5 -14  138.03    1.11
   5   5 -13    7.63    1.48
   5   5 -12   14.90    1.13
   5   5 -11   66.07    3.58
   5   5 -10    7.43    1.07
   5   5  -9  221.31    4.84
   5   5  -8   17.98    2.18
   5   5  -7  255.20   10.47
   5   5  -6   13.32    2.49
   5   5  -5   12.33    1.56
   5   5  -4   58.80    1.98
   5   5  -3  759.54   25.15
   5   5  -2   35.14    3.06
   5   5  -1  518.09   32.12
   5   5   0   24.39    5.34
   5   5   1   91.31    9.78
   5   5   2    7.65    1.34
   5   5   3  387.54    6.88
   5   5   4   48.33    1.85
   5   5   5  378.04    6.23
   5   5   6    7.06    0.97
   5   5   7  315.48    6.83
   5   5   8  302.69   10.85
   5   5   9  179.55    1.54
   5   5  10  132.43    3.13
   5   5  11   13.01    1.38
   5   5  12    1.13    0.39
   5   5  13   63.94    2.31
   5   5  14  155.59    2.50
   5   5  15  108.75    3.51
   5   5  16    1.67    1.43
   5   5  17    1.25    0.67
   5   5  18   63.05    2.57
   5   5  19    1.81    0.60
   5   5  20    2.09    1.64
   5   5  21   30.23    3.87
   5   5  22   17.95    4.49
   5   5  23    1.89    0.96
   5   5  24    2.90    1.26
   5   5  25    2.78    1.32
   5   5  26    2.84    1.10
   5   5  27    5.40    2.13
   5   5  28    2.42    1.24
   5   6 -24    3.35    1.61
   5   6 -23    1.54    0.93
   5   6 -22    5.25    1.60
   5   6 -21   16.48    2.63
   5   6 -20    7.44    1.94
   5   6 -19   25.48    4.09
   5   6 -18    8.23    1.24
   5   6 -17    7.13    2.08
   5   6 -16   23.10    2.71
   5   6 -15   14.74    1.90
   5   6 -14    0.37    0.26
   5   6 -13    0.45    0.24
   5   6 -12    3.88    0.48
   5   6 -11   90.13    2.34
   5   6 -10   29.25    2.35
   5   6  -9   27.34    1.97
   5   6  -8   31.08    1.86
   5   6  -7  170.11    7.39
   5   6  -6   73.66    1.99
   5   6  -5    1.22    0.55
   5   6  -4   58.56    1.75
   5   6  -3  163.34    2.88
   5   6  -2   18.92    1.54
   5   6  -1  147.45   12.06
   5   6   0  260.43    7.45
   5   6   1  184.44    3.01
   5   6   2   75.45    3.09
   5   6   3  148.43    7.54
   5   6   4    0.18    0.73
   5   6   5   74.66    2.41
   5   6   6  161.83    4.34
   5   6   7  223.87    4.47
   5   6   8   48.14    3.33
   5   6   9   20.62    2.34
   5   6  10    0.96    0.55
   5   6  11  430.28    7.79
   5   6  12   41.49    4.71
   5   6  13   28.83    3.52
   5   6  14   11.99    5.22
   5   6  15   94.50   10.45
   5   6  16   23.98    4.49
   5   6  17   51.74    4.27
   5   6  18    1.40    0.81
   5   6  19   30.55    3.89
   5   6  20    0.19    1.17
   5   6  21   15.71    3.06
   5   6  22    2.99    1.73
   5   6  23    0.52    0.76
   5   6  24    1.35    0.90
   5   6  25    4.33    1.42
   5   6  26    0.29    1.85
   5   6  27    1.86    1.03
   5   7 -24    1.52    1.26
   5   7 -23    1.08    0.69
   5   7 -22    3.98    1.82
   5   7 -21    1.02    0.69
   5   7 -20    2.13    0.91
   5   7 -19   11.44    1.86
   5   7 -18   25.07    3.73
   5   7 -17    5.85    1.29
   5   7 -16   11.84    1.81
   5   7 -15    7.18    1.26
   5   7 -14   15.50    3.67
   5   7 -13   66.28    2.73
   5   7 -12   -0.48    0.42
   5   7 -11   27.17    1.09
   5   7 -10  197.93    4.98
   5   7  -9   29.50    2.36
   5   7  -8    6.22    1.36
   5   7  -7  266.24   17.44
   5   7  -6   90.29    3.23
   5   7  -5   72.36    6.74
   5   7  -4   22.20    2.56
   5   7  -3    1.90    1.05
   5   7  -2   35.15    2.33
   5   7  -1   32.90    2.68
   5   7   0  248.86    2.59
   5   7   1  293.21    6.69
   5   7   2   82.94    1.87
   5   7   3    9.99    1.75
   5   7   4  288.62    6.00
   5   7   5   92.16    6.55
   5   7   6    2.82    1.20
   5   7   7   60.72    3.71
   5   7   8   38.77    3.16
   5   7   9  135.84    4.70
   5   7  10    5.48    0.82
   5   7  11   35.51    2.66
   5   7  12    1.80    0.52
   5   7  13    1.55    0.77
   5   7  14   51.67    5.73
   5   7  15    3.36    1.75
   5   7  16    1.84    1.26
   5   7  17   14.77    2.08
   5   7  18    3.85    0.82
   5   7  19    2.70    0.84
   5   7  20    6.77    1.79
   5   7  21    0.83    1.63
   5   7  22    7.18    2.63
   5   7  23   10.69    2.73
   5   7  24   -2.04    1.46
   5   7  25    1.22    0.96
   5   7  26    1.23    0.96
   5   8 -24    1.32    1.13
   5   8 -23   -0.07    1.24
   5   8 -22    2.33    1.07
   5   8 -21    0.06    1.07
   5   8 -20   13.52    2.27
   5   8 -19    1.44    1.64
   5   8 -18   15.46    2.35
   5   8 -17    1.80    1.12
   5   8 -16   11.47    1.84
   5   8 -15    6.21    1.37
   5   8 -14    5.40    1.12
   5   8 -13   10.68    1.56
   5   8 -12   35.67    2.51
   5   8 -11   17.65    1.65
   5   8 -10   91.28    5.12
   5   8  -9   11.24    1.39
   5   8  -8   38.42    2.91
   5   8  -7  173.13    3.18
   5   8  -6   96.63    2.56
   5   8  -5    9.42    1.46
   5   8  -4  378.69   12.66
   5   8  -3   17.24    1.86
   5   8  -2   74.99    3.02
   5   8  -1   24.37    2.15
   5   8   0   12.55    1.36
   5   8   1   33.57    3.68
   5   8   2  153.46    4.06
   5   8   3    8.44    1.21
   5   8   4   42.71    2.96
   5   8   5   12.07    1.79
   5   8   6    2.40    0.56
   5   8   7  129.73    3.52
   5   8   8    2.61    0.67
   5   8   9    1.83    0.64
   5   8  10  108.43    6.54
   5   8  11    6.32    1.84
   5   8  12    0.03    0.57
   5   8  13   12.13    2.29
   5   8  14    3.01    0.96
   5   8  15   53.91    7.16
   5   8  16   25.68    4.45
   5   8  17    1.12    0.84
   5   8  18    2.54    0.82
   5   8  19    0.68    0.81
   5   8  20    4.28    1.22
   5   8  21    5.60    1.21
   5   8  22    7.17    2.17
   5   8  23    3.23    1.51
   5   8  24   -1.12    1.27
   5   8  25    1.66    0.93
   5   9 -24    2.83    1.11
   5   9 -23    1.21    2.17
   5   9 -22    1.80    1.30
   5   9 -21    4.89    3.05
   5   9 -20    0.75    2.78
   5   9 -19   61.04    7.25
   5   9 -18    1.50    1.35
   5   9 -17    2.76    2.71
   5   9 -16    5.62    1.38
   5   9 -15    3.05    1.03
   5   9 -14    1.91    0.91
   5   9 -13  107.41    6.09
   5   9 -12    2.14    0.96
   5   9 -11   -0.63    1.24
   5   9 -10   21.59    2.13
   5   9  -9    4.55    0.88
   5   9  -8   48.51    3.52
   5   9  -7   95.40    4.14
   5   9  -6    1.65    1.10
   5   9  -5   55.36    4.51
   5   9  -4  198.72    6.94
   5   9  -3    8.89    1.29
   5   9  -2   84.68    4.44
   5   9  -1   10.59    1.21
   5   9   0   84.78    4.76
   5   9   1    3.93    0.91
   5   9   2  316.57    4.72
   5   9   3   32.61    2.34
   5   9   4   16.85    1.66
   5   9   5   40.25    3.28
   5   9   6    1.73    0.65
   5   9   7    2.37    0.88
   5   9   8   15.40    1.79
   5   9   9   38.66    3.46
   5   9  10    7.50    1.32
   5   9  11   80.52    4.22
   5   9  12    3.52    0.74
   5   9  13   21.59    3.04
   5   9  14    5.05    0.62
   5   9  15    1.49    0.96
   5   9  16    0.05    1.54
   5   9  17   88.91   16.12
   5   9  18    2.33    1.17
   5   9  19    2.05    1.55
   5   9  20    3.42    1.04
   5   9  21    2.27    1.14
   5   9  22    0.82    1.63
   5   9  23    9.38    3.05
   5  10 -24   -0.29    1.35
   5  10 -23    0.46    1.34
   5  10 -22    0.52    0.96
   5  10 -21    1.14    0.81
   5  10 -20   18.71    9.99
   5  10 -19    3.21    0.97
   5  10 -18    8.89    2.08
   5  10 -17    3.27    1.31
   5  10 -16    6.86    2.58
   5  10 -15    2.29    0.85
   5  10 -14    5.76    1.15
   5  10 -13    5.28    1.39
   5  10 -12   19.11    1.77
   5  10 -11   55.33    3.41
   5  10 -10   12.77    1.62
   5  10  -9    1.95    1.39
   5  10  -8   11.60    2.01
   5  10  -7    3.10    1.07
   5  10  -6   13.28    1.95
   5  10  -5  102.91    7.98
   5  10  -4    8.71    1.70
   5  10  -3   10.18    2.32
   5  10  -2    0.97    1.21
   5  10  -1    9.33    1.37
   5  10   0    2.29    1.62
   5  10   1   40.28    4.22
   5  10   2  260.07    8.62
   5  10   3    2.10    1.35
   5  10   4   15.05    1.30
   5  10   5    2.76    0.75
   5  10   6    5.71    0.90
   5  10   7    2.69    0.82
   5  10   8  137.39    7.11
   5  10   9    4.05    0.86
   5  10  10  103.37    4.09
   5  10  11    2.06    0.98
   5  10  12    1.40    0.73
   5  10  13    2.85    0.97
   5  10  14    6.41    0.97
   5  10  15    0.98    0.78
   5  10  16   80.09    8.23
   5  10  17    1.97    1.05
   5  10  18    2.68    0.78
   5  10  19    7.55    1.21
   5  10  20    0.57    1.66
   5  10  21    0.11    1.03
   5  10  22    8.07    1.54
   5  11 -23    1.36    1.14
   5  11 -22    0.63    0.96
   5  11 -21    2.81    0.92
   5  11 -20   10.94    3.32
   5  11 -19    1.51    2.65
   5  11 -18    1.60    1.12
   5  11 -17    0.87    0.92
   5  11 -16    0.53    0.66
   5  11 -15    3.27    1.15
   5  11 -14    3.56    1.82
   5  11 -13   15.12    2.22
   5  11 -12   17.21    2.32
   5  11 -11    2.27    0.88
   5  11 -10    5.50    0.87
   5  11  -9   18.97    2.16
   5  11  -8    8.62    1.42
   5  11  -7    1.75    0.70
   5  11  -6   17.45    1.82
   5  11  -5  142.43    4.67
   5  11  -4    6.25    1.46
   5  11  -3    2.43    1.30
   5  11  -2   42.46    3.53
   5  11  -1   11.20    1.45
   5  11   0    2.22    0.81
   5  11   1   50.53    5.60
   5  11   2   10.40    1.83
   5  11   3   31.81    3.13
   5  11   4    0.15    0.87
   5  11   5    2.22    0.73
   5  11   6    1.97    1.43
   5  11   7   16.57    2.29
   5  11   8    8.61    1.98
   5  11   9   50.22    4.23
   5  11  10    1.06    2.12
   5  11  11   27.44    2.95
   5  11  12    4.67    1.02
   5  11  13    5.02    1.05
   5  11  14    3.23    0.95
   5  11  15   20.37    7.55
   5  11  16    1.52    0.89
   5  11  17   31.42    9.38
   5  11  18    2.68    0.93
   5  11  19    0.46    0.57
   5  11  20    4.30    1.80
   5  12 -20    7.17    2.90
   5  12 -19    3.12    1.67
   5  12 -18    2.40    1.08
   5  12 -17    1.99    0.91
   5  12 -16    4.43    1.05
   5  12 -15    1.08    2.13
   5  12 -14    1.72    1.78
   5  12 -13    5.26    1.49
   5  12 -12   11.36    1.83
   5  12 -11    2.30    0.73
   5  12 -10    2.47    1.76
   5  12  -9    2.90    1.03
   5  12  -8    1.04    0.87
   5  12  -7    3.19    1.45
   5  12  -6   26.34    3.08
   5  12  -5    2.66    0.92
   5  12  -4   28.04    3.10
   5  12  -3   24.10    4.54
   5  12  -2   23.93    5.06
   5  12  -1    2.20    1.49
   5  12   0    0.73    1.37
   5  12   1    2.46    1.69
   5  12   2   79.53    5.62
   5  12   3    8.48    1.36
   5  12   4   -0.22    0.92
   5  12   5    5.14    1.14
   5  12   6   16.50    2.06
   5  12   7    4.38    1.10
   5  12   8    3.88    1.25
   5  12   9   11.70    1.83
   5  12  10   40.93    5.30
   5  12  11    1.44    0.61
   5  12  12    1.66    0.91
   5  12  13    2.71    1.54
   5  12  14    1.71    0.89
   5  12  15    1.20    0.93
   5  12  16   20.18    2.41
   5  12  17    1.56    0.75
   5  12  18    5.45    3.95
   5  12  19    0.71    1.11
   5  13 -17    1.26    1.56
   5  13 -16    3.18    0.90
   5  13 -15    2.11    1.02
   5  13 -14   10.39    3.46
   5  13 -13    9.92    2.11
   5  13 -12    1.70    1.07
   5  13 -11    9.96    1.75
   5  13 -10   11.85    1.99
   5  13  -9    4.06    0.99
   5  13  -8    4.58    0.91
   5  13  -7    1.76    1.71
   5  13  -6    6.10    1.61
   5  13  -5   42.63    7.25
   5  13  -4   14.46    2.04
   5  13  -3    3.16    1.08
   5  13  -2    7.31    1.59
   5  13  -1    7.68    1.43
   5  13   0   15.21    1.73
   5  13   1   13.11    2.01
   5  13   2    5.27    1.14
   5  13   3    7.15    1.20
   5  13   4   20.38    2.65
   5  13   5    2.66    2.37
   5  13   6    2.95    0.76
   5  13   7    3.45    1.18
   5  13   8   10.17    1.54
   5  13   9   11.41    1.71
   5  13  10    2.80    1.33
   5  13  11    1.46    0.73
   5  13  12    7.65    1.67
   5  13  13    2.48    0.99
   5  13  14    2.19    0.98
   5  13  15    2.22    2.00
   5  13  16    3.99    1.75
   5  13  17    6.40    1.21
   5  13  18    0.67    0.81
   5  14 -15    0.92    0.92
   5  14 -14    1.71    1.38
   5  14 -13    3.95    1.06
   5  14 -12    7.85    2.05
   5  14 -11    3.01    2.35
   5  14 -10    5.63    1.44
   5  14  -9    0.99    1.89
   5  14  -8    1.13    0.86
   5  14  -7    6.35    1.31
   5  14  -6   15.48    3.05
   5  14  -5    4.01    1.48
   5  14  -4    1.45    1.20
   5  14  -3   18.37    2.65
   5  14  -2    3.78    1.01
   5  14  -1    2.31    1.28
   5  14   0    7.32    1.54
   5  14   1    3.64    1.27
   5  14   2    7.78    1.62
   5  14   3    1.24    1.17
   5  14   4    0.88    0.98
   5  14   5    2.90    1.25
   5  14   6    4.25    0.84
   5  14   7   10.30    1.54
   5  14   8    6.36    1.53
   5  14   9    1.01    1.08
   5  14  10    0.88    0.67
   5  14  11    5.01    1.27
   5  14  12    1.79    0.96
   5  14  13    1.54    1.17
   5  14  14    2.84    1.90
   5  14  15   -0.15    1.14
   5  15 -14   -0.42    1.48
   5  15 -13   -0.02    1.03
   5  15 -12   -0.41    1.20
   5  15 -11   -0.89    2.38
   5  15 -10    6.75    2.28
   5  15  -9    2.45    1.37
   5  15  -8    0.46    1.58
   5  15  -7    1.39    0.73
   5  15  -6    0.26    0.71
   5  15  -5    3.42    1.02
   5  15  -4    3.05    1.46
   5  15  -3    1.90    1.39
   5  15  -2    7.78    1.90
   5  15  -1    3.52    1.00
   5  15   0    3.63    0.82
   5  15   1    1.32    1.18
   5  15   2    1.58    1.06
   5  15   3    0.89    0.84
   5  15   4    5.80    1.44
   5  15   5   -0.42    1.18
   5  15   6    2.58    0.99
   5  15   7    1.59    0.76
   5  15   8    1.41    1.65
   5  15   9    3.13    1.20
   5  15  10    5.55    2.18
   5  15  11   -2.56    2.45
   5  16  -5    1.98    1.37
   5  16  -4    6.61    2.56
   5  16  -3   -1.41    1.83
   5  16  -2   -2.65    1.75
   5  16  -1    1.87    1.34
   5  16   0   -1.38    1.88
   5  16   1    1.34    1.62
   5  16   3    2.25    0.67
   5  16   4    2.07    1.35
   5  16   5    1.37    1.28
   5  16   6   -0.89    1.17
   5  16   7   -0.46    1.31
   6   0 -24   11.90    3.85
   6   0 -22   24.85    6.62
   6   0 -20   33.10   17.60
   6   0 -18    4.00    0.78
   6   0 -16  262.27    6.24
   6   0 -14  186.64    8.82
   6   0 -12  307.01    4.86
   6   0 -10  704.54   12.76
   6   0  -8 1315.98   17.11
   6   0  -6   15.32    4.26
   6   0  -4   77.47    1.20
   6   0  -2  648.76   10.37
   6   0   0   88.35    1.95
   6   0   2  947.01   25.50
   6   0   4 3217.02   74.79
   6   0   6  297.65    8.56
   6   0   8  413.45   21.09
   6   0  10    0.99    0.78
   6   0  12  515.89    9.00
   6   0  14  128.00    9.51
   6   0  16    0.21    1.08
   6   0  18    2.03    1.95
   6   0  20  152.60    8.84
   6   0  24    1.20    1.08
   6   0  26   22.72    6.82
   6   0  28   -1.08    1.19
   6   1 -24    2.34    0.94
   6   1 -23   16.05    4.21
   6   1 -22    0.84    0.62
   6   1 -21   13.62    2.72
   6   1 -20    3.15    1.10
   6   1 -19    4.79    1.35
   6   1 -18    2.45    0.76
   6   1 -17   14.41    1.46
   6   1 -16    2.22    0.38
   6   1 -15  372.78   12.05
   6   1 -14    0.41    0.44
   6   1 -13   12.61    2.15
   6   1 -12   29.92    2.69
   6   1 -11   14.50    1.64
   6   1 -10   51.91    3.00
   6   1  -9  806.71   10.41
   6   1  -8   39.36    2.52
   6   1  -7    1.00    0.35
   6   1  -6  188.02    7.35
   6   1  -5  215.25    3.05
   6   1  -4  150.51    5.01
   6   1  -3  998.66    9.40
   6   1  -2   20.52    1.35
   6   1  -1  453.72    3.81
   6   1   0   41.01    1.06
   6   1   1  124.04    2.06
   6   1   2   93.55    2.13
   6   1   3  129.15    1.90
   6   1   4   39.45    2.08
   6   1   5  959.02   21.25
   6   1   6   14.92    1.62
   6   1   7   60.48    2.38
   6   1   8    1.54    0.40
   6   1   9    0.83    0.23
   6   1  10   80.62    3.35
   6   1  11  125.12    3.50
   6   1  12   17.49    1.55
   6   1  13  356.54   20.14
   6   1  14    4.93    0.75
   6   1  15    0.88    0.30
   6   1  16    2.41    0.87
   6   1  17    1.40    2.16
   6   1  18    6.65    1.86
   6   1  19   64.02    4.33
   6   1  20    1.42    1.19
   6   1  21    5.71    2.16
   6   1  22    3.75    1.47
   6   1  23    2.75    0.83
   6   1  24    3.04    0.98
   6   1  25    1.19    0.88
   6   1  26    5.34    1.39
   6   1  27    7.59    2.00
   6   1  28    0.37    0.88
   6   2 -24    8.06    2.78
   6   2 -23    1.44    1.28
   6   2 -22    4.36    1.36
   6   2 -21    6.87    1.82
   6   2 -20    2.46    1.29
   6   2 -19   20.19    2.03
   6   2 -18    2.28    0.96
   6   2 -17   29.93    1.95
   6   2 -16  143.22    3.22
   6   2 -15   17.44    2.57
   6   2 -14    6.20    0.99
   6   2 -13   41.54    2.59
   6   2 -12   57.90    3.04
   6   2 -11    8.55    1.06
   6   2 -10  357.25   16.95
   6   2  -9    2.85    0.56
   6   2  -8  337.58    5.96
   6   2  -7   11.83    1.59
   6   2  -6   10.04    1.11
   6   2  -5  157.08    4.05
   6   2  -4    2.72    0.49
   6   2  -3    4.17    0.57
   6   2  -2  272.20    5.61
   6   2  -1   76.33    1.46
   6   2   0  260.72    4.13
   6   2   1   44.75    1.30
   6   2   2   48.85    1.76
   6   2   3    2.99    0.82
   6   2   4   32.70    4.80
   6   2   5    4.35    0.71
   6   2   6 1499.80   61.57
   6   2   7    3.76    0.77
   6   2   8  110.84    2.87
   6   2   9   74.43    1.97
   6   2  10   10.81    1.11
   6   2  11    5.78    1.40
   6   2  12  235.97    8.30
   6   2  13    0.13    0.34
   6   2  14   74.50    2.81
   6   2  15   10.89    2.35
   6   2  16    2.98    1.25
   6   2  17    0.30    0.38
   6   2  18   14.93    3.19
   6   2  19    1.31    1.10
   6   2  20   35.88    4.19
   6   2  21    1.68    2.03
   6   2  22    1.22    2.38
   6   2  23   12.43    4.36
   6   2  24    1.11    1.84
   6   2  25    2.89    0.80
   6   2  26    7.78    2.30
   6   2  27    2.96    1.71
   6   2  28    2.49    1.17
   6   3 -24    5.95    2.59
   6   3 -23    7.13    1.79
   6   3 -22    1.62    1.79
   6   3 -21    1.17    0.84
   6   3 -20    1.26    1.06
   6   3 -19    0.53    1.08
   6   3 -18   84.81    8.56
   6   3 -17   51.23    3.20
   6   3 -16    1.88    0.80
   6   3 -15   51.59    3.53
   6   3 -14   78.95    3.80
   6   3 -13   35.19    4.10
   6   3 -12  212.94    8.26
   6   3 -11  143.51    3.74
   6   3 -10  389.56    7.19
   6   3  -9   62.56    5.86
   6   3  -8  214.52    3.43
   6   3  -7  256.12    6.48
   6   3  -6    8.21    0.94
   6   3  -5  197.63    5.41
   6   3  -4    2.09    0.47
   6   3  -3  196.98    5.03
   6   3  -2  139.93    2.56
   6   3  -1  903.93   15.00
   6   3   0  237.97    5.38
   6   3   1   17.64    4.11
   6   3   2  170.01    7.06
   6   3   3  296.72   13.39
   6   3   4   10.69    1.58
   6   3   5   30.40    2.58
   6   3   6    0.00    0.62
   6   3   7   32.91    1.51
   6   3   8  327.53   24.64
   6   3   9    7.22    0.87
   6   3  10   66.87    5.19
   6   3  11   84.80    1.42
   6   3  12   48.52    3.35
   6   3  13  148.22    4.54
   6   3  14    2.27    0.43
   6   3  15    0.41    0.31
   6   3  16   68.23   14.11
   6   3  17    7.34    0.77
   6   3  18   15.59    2.49
   6   3  19   84.71    4.21
   6   3  20    7.31    2.14
   6   3  21    5.65    1.43
   6   3  22   25.69    5.89
   6   3  23    1.31    2.02
   6   3  24    2.57    1.26
   6   3  25    5.18    4.48
   6   3  26    0.80    0.85
   6   3  27    8.01    3.49
   6   3  28    2.35    1.71
   6   3  29   -0.53    1.18
   6   4 -24    5.82    1.62
   6   4 -23    5.82    1.18
   6   4 -22    1.34    0.83
   6   4 -21    5.03    1.12
   6   4 -20    3.93    1.05
   6   4 -19    1.16    0.97
   6   4 -18    1.18    0.52
   6   4 -17    3.93    2.18
   6   4 -16   44.62    4.26
   6   4 -15   17.04    1.89
   6   4 -14   53.83    4.96
   6   4 -13   20.94    6.69
   6   4 -12   29.29    3.82
   6   4 -11    2.08    2.43
   6   4 -10  159.49    3.53
   6   4  -9    9.94    0.97
   6   4  -8  372.24    5.96
   6   4  -7   23.51    1.74
   6   4  -6   36.40    1.57
   6   4  -5   -1.15    0.58
   6   4  -4  361.22   13.08
   6   4  -3   11.57    1.55
   6   4  -2  386.46    6.40
   6   4  -1  289.05   14.19
   6   4   0  170.61    6.27
   6   4   1   -1.05    0.75
   6   4   2  463.09    7.49
   6   4   3   53.23    3.85
   6   4   4  736.42    8.86
   6   4   5  102.17    3.16
   6   4   6    6.43    1.15
   6   4   7   63.83    2.89
   6   4   8  203.56    1.97
   6   4   9   29.13    1.47
   6   4  10  118.46    2.62
   6   4  11    7.66    1.25
   6   4  12    1.95    1.04
   6   4  13  100.81    6.33
   6   4  14   84.69    4.40
   6   4  15    3.93    0.79
   6   4  16   55.27    2.33
   6   4  17   -0.22    0.60
   6   4  18    4.16    1.09
   6   4  19    3.38    1.07
   6   4  20   71.94    5.09
   6   4  21   21.07    3.74
   6   4  22    2.89    1.38
   6   4  23    4.87    1.59
   6   4  24    6.94    1.75
   6   4  25    4.64    1.56
   6   4  26    9.20    2.75
   6   4  27    1.82    1.39
   6   4  28    1.99    1.23
   6   5 -24   24.65   10.96
   6   5 -23   16.19    5.35
   6   5 -22    8.83    2.02
   6   5 -21    4.65    0.81
   6   5 -20   29.89    4.49
   6   5 -19    2.34    0.67
   6   5 -18   75.29    3.73
   6   5 -17  154.64    4.52
   6   5 -16   41.45    2.80
   6   5 -15    7.40    2.96
   6   5 -14  106.68    4.25
   6   5 -13   34.79    1.67
   6   5 -12   25.41    1.02
   6   5 -11   64.81    2.34
   6   5 -10   12.69    1.07
   6   5  -9   98.94    1.45
   6   5  -8   27.69    1.99
   6   5  -7   80.06    1.37
   6   5  -6   86.47    2.77
   6   5  -5  101.03    3.16
   6   5  -4  139.45   12.02
   6   5  -3  237.95    5.63
   6   5  -2   36.25    2.09
   6   5  -1  181.16    4.45
   6   5   0    1.79    0.79
   6   5   1  321.69   17.82
   6   5   2  103.29    3.59
   6   5   3    8.34    1.12
   6   5   4  327.85    9.00
   6   5   5   91.83    3.30
   6   5   6   39.15    2.54
   6   5   7  467.48   14.01
   6   5   8   12.21    1.14
   6   5   9    1.59    0.42
   6   5  10   85.88    2.08
   6   5  11   23.70    1.53
   6   5  12   18.40    1.95
   6   5  13  255.43    2.60
   6   5  14   40.18    3.55
   6   5  15    1.11    0.80
   6   5  16    0.81    0.65
   6   5  17    7.41    1.81
   6   5  18    2.75    0.83
   6   5  19   11.19    4.16
   6   5  20    9.65    1.89
   6   5  21    5.30    1.71
   6   5  22    3.60    1.23
   6   5  23    1.56    1.21
   6   5  24    0.31    1.24
   6   5  25    3.75    1.05
   6   5  26    1.86    1.26
   6   5  27    2.04    1.74
   6   5  28   -0.08    0.85
   6   6 -25    3.93    3.03
   6   6 -24    4.68    1.40
   6   6 -23    2.06    1.38
   6   6 -22    4.13    2.04
   6   6 -21   15.83    1.86
   6   6 -20    9.75    2.40
   6   6 -19   12.38    2.32
   6   6 -18   54.75    3.06
   6   6 -17   41.96    2.75
   6   6 -16    1.20    1.31
   6   6 -15   58.53    2.55
   6   6 -14    3.67    1.56
   6   6 -13    5.36    1.04
   6   6 -12   42.71    2.61
   6   6 -11  124.76    7.38
   6   6 -10    0.85    0.76
   6   6  -9    0.58    0.55
   6   6  -8    6.73    1.04
   6   6  -7  134.80    3.37
   6   6  -6    3.93    0.60
   6   6  -5  150.90    3.56
   6   6  -4   96.56    1.95
   6   6  -3  177.88    3.30
   6   6  -2   29.34    2.24
   6   6  -1    9.37    1.29
   6   6   0   72.82   10.62
   6   6   1  183.17    3.15
   6   6   2  277.66   10.74
   6   6   3  193.62    2.60
   6   6   4   -0.85    0.73
   6   6   5  156.64    4.51
   6   6   6  177.47    2.24
   6   6   7  249.59    8.52
   6   6   8  154.79    5.85
   6   6   9    9.44    1.42
   6   6  10   95.14    2.33
   6   6  11  266.34    4.51
   6   6  12   15.42    1.66
   6   6  13   14.47    6.75
   6   6  14   54.27    5.37
   6   6  15    5.84    2.20
   6   6  16    3.03    1.01
   6   6  17   63.00    6.87
   6   6  18    5.13    1.51
   6   6  19    4.29    1.16
   6   6  20    1.41    1.36
   6   6  21    0.99    2.12
   6   6  22    2.08    1.11
   6   6  23    1.62    0.82
   6   6  24    2.56    3.34
   6   6  25    2.73    1.38
   6   6  26   -0.57    1.09
   6   6  27   -0.25    0.89
   6   7 -25   -0.14    0.60
   6   7 -24   -0.23    0.76
   6   7 -23    3.54    1.02
   6   7 -22    2.57    0.89
   6   7 -21    2.71    0.83
   6   7 -20    1.78    0.89
   6   7 -19   20.33    4.12
   6   7 -18    6.10    2.17
   6   7 -17   15.46    2.66
   6   7 -16    6.12    1.23
   6   7 -15    3.14    1.18
   6   7 -14    2.75    1.35
   6   7 -13   66.24    2.62
   6   7 -12   14.99    2.03
   6   7 -11   58.71    2.32
   6   7 -10    2.38    0.66
   6   7  -9   17.48    2.22
   6   7  -8   73.98    3.22
   6   7  -7   37.37    3.16
   6   7  -6   94.35    4.98
   6   7  -5  270.88    6.24
   6   7  -4    2.95    0.92
   6   7  -3    6.14    1.02
   6   7  -2  128.82    4.52
   6   7  -1  152.21    4.88
   6   7   0  236.08    3.04
   6   7   1   52.59    4.16
   6   7   2    0.33    0.55
   6   7   3   92.77    2.86
   6   7   4   41.99    3.69
   6   7   5   17.62    2.44
   6   7   6   47.69    3.99
   6   7   7   69.88    2.86
   6   7   8  133.92   10.59
   6   7   9   27.38    2.42
   6   7  10   88.40    4.31
   6   7  11   52.94    2.83
   6   7  12   37.37    3.78
   6   7  13    6.21    0.98
   6   7  14   21.33    2.81
   6   7  15   14.50    2.43
   6   7  16    3.72    1.29
   6   7  17   18.27    2.63
   6   7  18    7.02    1.97
   6   7  19    2.00    0.92
   6   7  20    2.70    1.20
   6   7  21    1.77    1.17
   6   7  22    0.94    1.02
   6   7  23   11.54    2.92
   6   7  24    4.25    1.40
   6   7  25   -0.12    1.28
   6   8 -25   -0.39    1.18
   6   8 -24   -0.58    1.28
   6   8 -23    2.77    1.60
   6   8 -22    1.48    1.73
   6   8 -21    2.54    1.51
   6   8 -20   16.49    3.55
   6   8 -19    1.85    0.72
   6   8 -18    1.59    0.76
   6   8 -17    3.56    0.99
   6   8 -16    1.23    0.77
   6   8 -15    6.00    1.31
   6   8 -14   71.59    4.24
   6   8 -13   75.56    4.34
   6   8 -12  105.50    3.98
   6   8 -11   32.43    3.15
   6   8 -10    1.81    0.78
   6   8  -9    2.04    1.32
   6   8  -8   33.68    3.15
   6   8  -7  229.19   11.26
   6   8  -6  136.01    3.01
   6   8  -5   62.93    5.05
   6   8  -4  136.28    3.81
   6   8  -3   83.40    3.96
   6   8  -2   20.14    2.06
   6   8  -1  273.83   10.38
   6   8   0   24.58    2.31
   6   8   1    1.51    1.06
   6   8   2   56.62    4.08
   6   8   3    4.46    0.89
   6   8   4    5.02    0.91
   6   8   5   18.12    1.91
   6   8   6    4.50    0.75
   6   8   7    6.37    0.96
   6   8   8   20.14    2.35
   6   8   9    0.87    0.63
   6   8  10   21.07    2.28
   6   8  11    0.26    0.62
   6   8  12   17.19    1.99
   6   8  13    2.11    0.59
   6   8  14    5.13    0.94
   6   8  15    2.06    0.80
   6   8  16   26.70    3.95
   6   8  17    5.51    2.12
   6   8  18    2.49    0.70
   6   8  19    2.64    0.82
   6   8  20    9.02    1.76
   6   8  21    1.44    0.65
   6   8  22   13.15    5.21
   6   8  23    4.57    1.72
   6   8  24    2.43    1.40
   6   9 -25    3.83    1.38
   6   9 -24    0.86    1.29
   6   9 -23    2.84    1.53
   6   9 -22    0.77    1.17
   6   9 -21    4.79    1.42
   6   9 -20    1.83    2.80
   6   9 -19   34.97    6.60
   6   9 -18    0.42    1.41
   6   9 -17    9.46    2.13
   6   9 -16   10.67    1.86
   6   9 -15    1.70    0.81
   6   9 -14    1.93    1.52
   6   9 -13   50.59    6.40
   6   9 -12   18.46    2.29
   6   9 -11   43.67    4.73
   6   9 -10   12.48    1.62
   6   9  -9    3.52    0.90
   6   9  -8    3.49    1.02
   6   9  -7    6.10    1.03
   6   9  -6    7.61    1.30
   6   9  -5   18.88    1.84
   6   9  -4    5.51    1.83
   6   9  -3   36.90    3.17
   6   9  -2   45.86    3.30
   6   9  -1   20.96    1.83
   6   9   0   40.70    3.16
   6   9   1    1.64    0.65
   6   9   2   20.49    1.78
   6   9   3   47.05    3.68
   6   9   4    3.04    0.97
   6   9   5    4.73    1.03
   6   9   6   27.77    2.38
   6   9   7   16.94    2.29
   6   9   8   40.70    3.95
   6   9   9   24.77    3.05
   6   9  10    5.11    0.96
   6   9  11   15.74    1.80
   6   9  12    0.39    0.79
   6   9  13    2.39    0.67
   6   9  14    5.03    0.99
   6   9  15    1.40    0.98
   6   9  16    3.08    2.03
   6   9  17   23.52    3.95
   6   9  18    2.46    0.71
   6   9  19    3.01    0.92
   6   9  20    1.04    1.07
   6   9  21    0.57    1.25
   6   9  22   -1.16    1.64
   6   9  23    3.11    2.92
   6  10 -24    3.33    1.22
   6  10 -23    1.07    0.88
   6  10 -22    0.87    2.93
   6  10 -21    4.19    1.21
   6  10 -20   11.94    3.34
   6  10 -19    2.34    0.86
   6  10 -18   24.35    4.62
   6  10 -17    0.30    1.14
   6  10 -16    1.19    0.90
   6  10 -15    1.94    0.98
   6  10 -14   17.99    2.30
   6  10 -13    3.44    0.88
   6  10 -12   22.63    2.49
   6  10 -11    7.40    1.23
   6  10 -10    3.96    0.96
   6  10  -9    3.57    0.81
   6  10  -8    1.79    1.25
   6  10  -7    4.25    2.01
   6  10  -6    2.41    0.96
   6  10  -5   40.10    3.74
   6  10  -4    4.39    1.25
   6  10  -3   16.47    1.63
   6  10  -2    5.99    1.43
   6  10  -1    1.34    0.80
   6  10   0    1.99    1.50
   6  10   1    4.28    1.39
   6  10   2   27.65    2.27
   6  10   3   12.52    1.80
   6  10   4   41.08    4.03
   6  10   5    3.94    0.85
   6  10   6    4.29    1.06
   6  10   7    4.04    1.26
   6  10   8   75.58    4.29
   6  10   9    8.90    1.31
   6  10  10   14.31    1.78
   6  10  11    3.05    0.98
   6  10  12    3.63    0.91
   6  10  13    0.47    0.50
   6  10  14    4.69    1.08
   6  10  15    5.87    2.05
   6  10  16   22.20    3.78
   6  10  17    0.51    1.32
   6  10  18    0.55    1.41
   6  10  19    2.53    1.13
   6  10  20    1.48    1.82
   6  10  21    1.75    1.36
   6  11 -23   -2.28    1.64
   6  11 -22    1.54    0.75
   6  11 -21    3.38    1.25
   6  11 -20    4.29    1.84
   6  11 -19    8.07    2.02
   6  11 -18    1.99    1.10
   6  11 -17    2.19    2.10
   6  11 -16    2.03    0.82
   6  11 -15    1.92    1.00
   6  11 -14    7.52    2.21
   6  11 -13   20.50    2.84
   6  11 -12    9.22    1.92
   6  11 -11    4.60    1.00
   6  11 -10    1.84    1.16
   6  11  -9   16.47    1.85
   6  11  -8    3.57    1.27
   6  11  -7   17.74    2.28
   6  11  -6   18.30    3.05
   6  11  -5   41.11    3.87
   6  11  -4    2.54    1.51
   6  11  -3    3.11    1.17
   6  11  -2    0.45    2.09
   6  11  -1    6.98    1.28
   6  11   0    4.73    1.22
   6  11   1   72.93    3.65
   6  11   2    2.56    1.21
   6  11   3   29.72    2.84
   6  11   4   11.66    1.55
   6  11   5    4.12    1.01
   6  11   6   18.98    2.17
   6  11   7    4.16    1.04
   6  11   8    3.18    0.96
   6  11   9  101.97    6.84
   6  11  10    7.02    1.11
   6  11  11    1.63    1.66
   6  11  12    0.91    0.80
   6  11  13    0.12    1.27
   6  11  14    0.64    0.95
   6  11  15   52.10    5.09
   6  11  16    0.63    1.09
   6  11  17    4.06    0.93
   6  11  18    1.57    0.79
   6  11  19    2.07    0.75
   6  11  20    0.42    0.96
   6  12 -20    9.27    2.83
   6  12 -19    3.95    0.97
   6  12 -18    1.87    1.14
   6  12 -17    2.26    0.90
   6  12 -16    2.42    1.19
   6  12 -15    4.30    1.08
   6  12 -14    2.21    1.02
   6  12 -13    4.91    2.03
   6  12 -12   14.48    2.94
   6  12 -11    8.32    2.83
   6  12 -10    0.44    0.74
   6  12  -9    0.64    0.80
   6  12  -8    2.75    0.86
   6  12  -7   20.14    2.70
   6  12  -6   24.49    2.99
   6  12  -5    1.18    0.94
   6  12  -4   57.75   11.96
   6  12  -3    4.40    1.23
   6  12  -2    5.34    0.96
   6  12  -1    0.80    0.84
   6  12   0   20.63    4.25
   6  12   1    1.92    0.91
   6  12   2   59.36    4.21
   6  12   3   15.04    2.27
   6  12   4    3.27    0.92
   6  12   5    4.26    1.04
   6  12   6    3.50    1.17
   6  12   7    5.78    1.00
   6  12   8    8.19    1.42
   6  12   9    2.21    0.71
   6  12  10   21.49    3.07
   6  12  11    2.95    0.94
   6  12  12    1.14    1.10
   6  12  13   -0.31    2.83
   6  12  14    1.36    1.29
   6  12  15    1.03    0.98
   6  12  16   11.14    3.88
   6  12  17    1.15    1.78
   6  12  18    2.32    0.87
   6  12  19    1.06    0.82
   6  13 -17    0.27    1.47
   6  13 -16    0.42    0.90
   6  13 -15    1.07    0.92
   6  13 -14    6.50    1.89
   6  13 -13   12.16    2.44
   6  13 -12    3.46    1.08
   6  13 -11    4.18    1.64
   6  13 -10    6.37    1.42
   6  13  -9    3.97    1.18
   6  13  -8    7.42    1.71
   6  13  -7   10.02    1.95
   6  13  -6    1.45    1.25
   6  13  -5   37.78    6.19
   6  13  -4    3.13    0.86
   6  13  -3    3.29    1.91
   6  13  -2    5.88    1.31
   6  13  -1    1.77    2.19
   6  13   0    4.40    1.00
   6  13   1   38.02    5.76
   6  13   2    2.64    1.23
   6  13   3    7.06    1.30
   6  13   4   23.24    3.22
   6  13   5    3.17    1.12
   6  13   6    8.11    1.02
   6  13   7    7.24    1.40
   6  13   8    2.55    1.06
   6  13   9    3.28    0.96
   6  13  10   10.03    1.98
   6  13  11    0.99    0.97
   6  13  12    1.38    1.14
   6  13  13    3.55    0.84
   6  13  14    2.86    1.47
   6  13  15    1.99    2.39
   6  13  16    0.18    3.08
   6  13  17    1.94    0.89
   6  14 -16    0.77    1.67
   6  14 -15    0.38    0.82
   6  14 -14    2.33    1.60
   6  14 -13    4.23    1.41
   6  14 -12    9.86    2.81
   6  14 -11    7.90    1.62
   6  14 -10    3.56    1.85
   6  14  -9    4.01    1.30
   6  14  -8    5.55    1.83
   6  14  -7   20.65    3.70
   6  14  -6   13.38    2.81
   6  14  -5    1.85    1.53
   6  14  -4    2.28    1.15
   6  14  -3   25.98    5.66
   6  14  -2    5.93    1.19
   6  14  -1    2.64    0.97
   6  14   0    2.09    1.75
   6  14   1    3.59    0.96
   6  14   2    5.60    1.26
   6  14   3    9.18    1.67
   6  14   4    1.90    1.32
   6  14   5    9.48    1.60
   6  14   6    0.33    1.11
   6  14   7    3.16    1.35
   6  14   8   13.30    2.55
   6  14   9    3.44    0.80
   6  14  10    1.48    1.08
   6  14  11    7.54    3.49
   6  14  12   -1.74    1.13
   6  14  13    0.58    0.99
   6  14  14    3.30    2.76
   6  15 -12    2.34    1.13
   6  15 -11    1.92    1.39
   6  15 -10    9.50    2.63
   6  15  -9    5.75    1.77
   6  15  -8    5.28    1.87
   6  15  -7    5.48    2.71
   6  15  -6    1.31    1.09
   6  15  -5    3.94    0.84
   6  15  -4   12.72    2.61
   6  15  -3    2.57    1.31
   6  15  -2    2.22    1.48
   6  15  -1    0.12    1.07
   6  15   0    2.46    1.00
   6  15   1    4.62    2.07
   6  15   2    8.14    1.61
   6  15   3    2.34    0.98
   6  15   4    8.54    1.42
   6  15   5    2.01    1.03
   6  15   6    2.61    1.25
   6  15   7    3.23    1.13
   6  15   8    2.65    1.86
   6  16  -4    1.15    0.86
   6  16  -3    2.57    1.33
   6  16  -2    2.52    1.51
   6  16  -1    3.86    1.49
   6  16   0   -0.28    1.87
   6  16   4    6.11    2.34
   6  16   5    3.20    2.08
   6  16   6    1.42    0.97
   7   0 -24  123.53   36.98
   7   0 -22   50.92    6.20
   7   0 -20    3.24    1.63
   7   0 -18   -1.39    1.65
   7   0 -16  536.91   26.37
   7   0 -14   52.33    3.17
   7   0 -12  217.04    2.48
   7   0 -10  612.58   16.47
   7   0  -8  402.94   23.78
   7   0  -6  593.39   23.26
   7   0  -2  624.95    7.54
   7   0   0 1171.18   11.10
   7   0   2   12.54    1.59
   7   0   4   42.89    2.94
   7   0   6 1594.38   25.43
   7   0   8  388.84    8.04
   7   0  10    7.77    1.36
   7   0  12  443.45   10.14
   7   0  14    2.40    1.69
   7   0  16   30.26    6.05
   7   0  18   79.87    9.83
   7   0  20   27.29    7.75
   7   0  22    1.60    1.32
   7   0  24    2.99    1.48
   7   0  26    5.87    2.74
   7   0  28    4.21    1.48
   7   1 -25    3.54    1.43
   7   1 -24    1.10    0.66
   7   1 -23   38.25    4.21
   7   1 -22    0.81    1.35
   7   1 -21    3.96    2.92
   7   1 -20    1.83    2.11
   7   1 -19    7.46    1.65
   7   1 -18   57.74    3.85
   7   1 -17  114.23    1.60
   7   1 -16    1.38    0.34
   7   1 -15  326.28   18.80
   7   1 -14    2.85    0.57
   7   1 -13   59.90    5.36
   7   1 -12   20.58    1.50
   7   1 -11    1.72    0.54
   7   1 -10   40.99    1.64
   7   1  -9 1058.08   15.82
   7   1  -8   65.05    1.59
   7   1  -7    0.36    0.50
   7   1  -6   62.41    2.31
   7   1  -5   71.84    1.15
   7   1  -4   57.45    3.52
   7   1  -3 1458.44   29.93
   7   1  -2  194.60    4.29
   7   1  -1 1132.04   26.18
   7   1   0  201.73    2.68
   7   1   1  981.36   13.41
   7   1   2   19.91    3.56
   7   1   3  507.77    6.80
   7   1   4   68.30    2.46
   7   1   5  497.96    8.30
   7   1   6  164.11    4.42
   7   1   7   30.35    1.39
   7   1   8   16.70    1.01
   7   1   9    0.20    0.22
   7   1  10   42.78    2.12
   7   1  11  135.32    3.25
   7   1  12    1.32    0.65
   7   1  13   58.14   10.16
   7   1  14   23.46    2.11
   7   1  15   -0.06    0.37
   7   1  16    3.41    1.38
   7   1  17    7.04    2.17
   7   1  18    1.58    1.76
   7   1  19  106.02    8.19
   7   1  20    2.66    1.40
   7   1  21    4.89    1.46
   7   1  22    4.73    2.24
   7   1  23    2.61    1.03
   7   1  24    1.75    0.81
   7   1  25    4.90    1.43
   7   1  26    2.34    1.04
   7   1  27    2.98    0.88
   7   1  28    1.26    1.44
   7   2 -25    1.14    1.04
   7   2 -24   13.59    3.17
   7   2 -23   10.46    2.33
   7   2 -22    1.45    0.95
   7   2 -21    2.62    1.03
   7   2 -20   27.43    3.60
   7   2 -19   18.15    2.41
   7   2 -18    4.41    1.24
   7   2 -17    1.43    0.83
   7   2 -16   27.74    2.39
   7   2 -15    3.42    0.65
   7   2 -14   16.67    2.19
   7   2 -13   11.17    1.21
   7   2 -12   23.28    1.41
   7   2 -11  104.77    2.01
   7   2 -10   69.99    1.94
   7   2  -9   83.95    2.90
   7   2  -8  671.04   14.22
   7   2  -7  162.37    4.47
   7   2  -6  304.16    5.02
   7   2  -5  636.61    5.52
   7   2  -4   55.07    2.66
   7   2  -3  218.55    6.15
   7   2  -2 1052.61    9.54
   7   2  -1  541.20   19.02
   7   2   0   88.69    4.86
   7   2   1   10.30    2.98
   7   2   2  124.90    2.07
   7   2   3   17.10    1.60
   7   2   4  874.77   28.86
   7   2   5   67.58    2.01
   7   2   6   56.33    1.75
   7   2   7  149.42    5.16
   7   2   8    4.01    0.48
   7   2   9   30.86    1.35
   7   2  10   42.74    2.62
   7   2  11   42.46    2.68
   7   2  12  201.59    4.93
   7   2  13   10.71    1.93
   7   2  14   17.50    1.68
   7   2  15    1.63    0.69
   7   2  16   23.32    3.01
   7   2  17    2.34    0.80
   7   2  18    3.92    1.56
   7   2  19   10.31    2.30
   7   2  20   23.74    4.44
   7   2  21    2.36    1.17
   7   2  22    3.12    0.96
   7   2  23    4.23    1.35
   7   2  24    1.52    2.22
   7   2  25    1.61    0.84
   7   2  26    6.40    1.53
   7   2  27    2.03    0.69
   7   2  28    1.70    1.52
   7   2  29    2.34    1.45
   7   3 -25    2.88    1.15
   7   3 -23    6.27    1.23
   7   3 -22    4.54    2.23
   7   3 -21   13.90    2.93
   7   3 -20    3.51    0.94
   7   3 -19    0.86    0.63
   7   3 -18   77.67    5.07
   7   3 -17   17.48    2.25
   7   3 -16   14.36    1.77
   7   3 -15    3.79    1.14
   7   3 -14   47.80    3.75
   7   3 -13   -0.60    1.02
   7   3 -12  265.74   16.04
   7   3 -11    0.74    0.40
   7   3 -10    8.51    1.10
   7   3  -9   38.03    1.80
   7   3  -8   29.50    0.96
   7   3  -7   21.81    1.37
   7   3  -6   40.54    1.68
   7   3  -5   68.10    2.11
   7   3  -4  144.05    3.27
   7   3  -3  574.09    5.53
   7   3  -2   43.37    2.81
   7   3  -1   20.18    1.91
   7   3   0   63.23    5.29
   7   3   1  121.82    2.57
   7   3   2  453.69   20.12
   7   3   3   44.37    2.94
   7   3   4   82.68    3.36
   7   3   5  334.49   10.92
   7   3   6   49.02    2.32
   7   3   7   47.91    1.75
   7   3   8    4.27    0.51
   7   3   9   16.40    1.72
   7   3  10    4.99    0.77
   7   3  11   15.97    1.31
   7   3  12   14.41    2.25
   7   3  13   53.55    2.48
   7   3  14   10.36    1.62
   7   3  15   33.44    5.18
   7   3  16    7.08    1.26
   7   3  17    0.98    0.57
   7   3  18   18.55    3.50
   7   3  19   38.54    5.46
   7   3  20    2.39    1.37
   7   3  21   43.70    9.63
   7   3  22    8.56    2.71
   7   3  23   -0.73    1.87
   7   3  24   -0.91    1.64
   7   3  25    7.54    1.59
   7   3  26    0.09    1.02
   7   3  27    8.98    4.66
   7   3  28    1.60    1.10
   7   4 -25    8.73    4.14
   7   4 -24    6.51    3.06
   7   4 -23    2.97    1.04
   7   4 -22    4.77    1.09
   7   4 -21    4.19    1.75
   7   4 -20    4.05    1.80
   7   4 -19   26.80    3.54
   7   4 -18    2.32    0.83
   7   4 -17  101.24   10.45
   7   4 -16   19.69    2.24
   7   4 -15   78.03    4.30
   7   4 -14    2.57    0.94
   7   4 -13    6.85    1.45
   7   4 -12   42.59    4.30
   7   4 -11  119.07    3.23
   7   4 -10  255.57    6.39
   7   4  -9   10.66    1.07
   7   4  -8   56.27    2.79
   7   4  -7   14.75    1.38
   7   4  -6   10.96    1.15
   7   4  -5  192.92    3.40
   7   4  -4  250.06    9.45
   7   4  -3    4.80    0.73
   7   4  -2  580.13   21.14
   7   4  -1   67.48    1.97
   7   4   0  122.33    3.76
   7   4   1    1.42    1.34
   7   4   2  331.03   12.65
   7   4   3   93.51    3.55
   7   4   4  184.42    5.02
   7   4   5  250.32    5.24
   7   4   6  194.71    3.89
   7   4   7   69.97    2.92
   7   4   8    7.89    0.83
   7   4   9   76.77    3.76
   7   4  10  112.01    2.91
   7   4  11  336.07   31.50
   7   4  12   73.01    3.90
   7   4  13   63.02    3.45
   7   4  14   40.91    8.11
   7   4  15   36.01    3.55
   7   4  16    2.47    0.96
   7   4  17   84.55    3.94
   7   4  18   24.81    5.21
   7   4  19   17.58    2.96
   7   4  20   47.61    4.75
   7   4  21    5.11    1.16
   7   4  22    0.90    1.64
   7   4  23    0.61    0.98
   7   4  24    0.00    2.24
   7   4  25    2.05    1.71
   7   4  26    5.32    2.16
   7   4  27   -0.01    1.35
   7   4  28    1.07    1.01
   7   5 -25    0.37    0.57
   7   5 -24   11.64    4.86
   7   5 -23    9.81    4.16
   7   5 -22    5.30    1.45
   7   5 -21    2.76    0.84
   7   5 -20   42.89    3.08
   7   5 -19    1.58    0.88
   7   5 -18   97.94   29.15
   7   5 -17  128.95    4.89
   7   5 -16    2.76    1.46
   7   5 -15   44.23    3.57
   7   5 -14  252.72    4.15
   7   5 -13   20.98    2.29
   7   5 -12   11.35    1.66
   7   5 -11  259.74    7.34
   7   5 -10   15.35    1.38
   7   5  -9   54.28    2.72
   7   5  -8  313.79    5.69
   7   5  -7    2.29    0.53
   7   5  -6   23.22    2.14
   7   5  -5   49.27    3.63
   7   5  -4    7.66    1.18
   7   5  -3   94.40    3.06
   7   5  -2   49.54    2.51
   7   5  -1   41.15    3.94
   7   5   0   38.59    2.63
   7   5   1   18.47    1.96
   7   5   2    7.17    1.63
   7   5   3  114.13    4.00
   7   5   4   32.96    3.32
   7   5   5  193.46    6.47
   7   5   6    7.28    0.93
   7   5   7  168.68    4.25
   7   5   8    0.74    0.47
   7   5   9  135.65    7.78
   7   5  10  122.24    4.61
   7   5  11    3.33    0.43
   7   5  12    2.46    0.42
   7   5  13  146.49    3.22
   7   5  14   18.16    1.87
   7   5  15   79.47    9.33
   7   5  16   27.08    2.98
   7   5  17    2.59    1.01
   7   5  18    1.01    3.13
   7   5  19   17.11    2.94
   7   5  20    2.10    0.86
   7   5  21    3.89    2.71
   7   5  22    0.16    0.98
   7   5  23    2.51    1.73
   7   5  24    1.90    1.27
   7   5  25   -0.80    1.58
   7   5  26    1.22    1.28
   7   5  27    3.42    1.58
   7   6 -25    1.46    0.91
   7   6 -24    8.90    4.19
   7   6 -23    4.12    1.34
   7   6 -22    1.00    0.76
   7   6 -21   27.72    5.18
   7   6 -20    1.81    1.75
   7   6 -19   12.46    1.97
   7   6 -18  154.68    8.70
   7   6 -17   27.41    3.74
   7   6 -16    1.00    0.76
   7   6 -15   59.90    5.17
   7   6 -14    2.50    0.86
   7   6 -13   78.83    3.40
   7   6 -12  240.19    4.80
   7   6 -11  173.73    6.87
   7   6 -10   27.27    1.98
   7   6  -9    0.54    0.41
   7   6  -8    4.61    0.71
   7   6  -7  311.48   14.37
   7   6  -6    5.94    2.25
   7   6  -5   17.09    3.11
   7   6  -4    6.79    0.84
   7   6  -3  123.67    5.78
   7   6  -2    9.99    1.22
   7   6  -1  421.37    7.44
   7   6   0    1.31    0.58
   7   6   1   76.78    2.74
   7   6   2   36.56    3.58
   7   6   3  182.92    3.08
   7   6   4   74.06    3.56
   7   6   5   14.98    1.83
   7   6   6    7.07    1.41
   7   6   7  146.50    2.67
   7   6   8  100.88    4.04
   7   6   9    5.02    0.80
   7   6  10    2.34    0.59
   7   6  11   60.53    2.95
   7   6  12  103.95    3.29
   7   6  13    8.57    1.22
   7   6  14   61.54    3.70
   7   6  15    0.55    1.15
   7   6  16    5.83    2.13
   7   6  17   17.95    3.25
   7   6  18   14.88    2.80
   7   6  19    2.64    0.87
   7   6  20    1.29    2.17
   7   6  21    1.23    1.34
   7   6  22    2.79    1.09
   7   6  23   -0.57    1.17
   7   6  24    2.79    1.06
   7   6  26    2.57    0.90
   7   7 -25    2.74    1.28
   7   7 -24    0.88    0.73
   7   7 -23    0.58    0.72
   7   7 -22    3.15    1.20
   7   7 -21   38.83    6.65
   7   7 -20    2.19    1.28
   7   7 -19   14.61    2.15
   7   7 -18   28.23    4.12
   7   7 -17    0.23    1.00
   7   7 -16    2.38    1.64
   7   7 -15   17.41    3.97
   7   7 -14   28.95    3.70
   7   7 -13   44.54    1.37
   7   7 -12   82.46    2.29
   7   7 -11  104.11    3.30
   7   7 -10   48.29    1.97
   7   7  -9    1.41    0.48
   7   7  -8  133.70    3.49
   7   7  -7  120.54    8.21
   7   7  -6   37.40    2.61
   7   7  -5  225.18   14.79
   7   7  -4  359.68    8.01
   7   7  -3   10.14    1.25
   7   7  -2    5.12    1.18
   7   7  -1   27.06    2.46
   7   7   0  195.92    5.52
   7   7   1  400.66   32.53
   7   7   2    0.94    0.67
   7   7   3   34.32    2.98
   7   7   4   73.09    8.37
   7   7   5   11.50    1.93
   7   7   6  116.88    3.20
   7   7   7    3.10    0.77
   7   7   8   49.45    2.55
   7   7   9  192.73    3.44
   7   7  10   59.28    3.44
   7   7  11    6.76    1.29
   7   7  12    0.13    0.39
   7   7  13    0.36    0.33
   7   7  14   31.71    2.71
   7   7  15   19.65    2.62
   7   7  16    1.72    0.85
   7   7  17   52.35    3.57
   7   7  18   18.44    5.63
   7   7  19    1.43    3.84
   7   7  20    3.71    1.45
   7   7  21    0.77    1.68
   7   7  22    5.50    1.41
   7   7  23   17.40    6.68
   7   7  24    3.04    1.00
   7   7  25    3.12    1.82
   7   8 -25    0.99    1.29
   7   8 -24    1.03    0.79
   7   8 -23    1.80    1.92
   7   8 -22   10.58    2.04
   7   8 -21    9.66    1.76
   7   8 -20   13.11    2.87
   7   8 -19    3.57    1.06
   7   8 -18    1.88    0.96
   7   8 -17    4.28    1.31
   7   8 -16    2.34    0.96
   7   8 -15   22.01    2.97
   7   8 -14   79.43    8.99
   7   8 -13    4.38    1.10
   7   8 -12   97.02    4.05
   7   8 -11    1.39    1.07
   7   8 -10   14.49    1.87
   7   8  -9    3.90    1.05
   7   8  -8   63.88    5.18
   7   8  -7   21.51    1.87
   7   8  -6  297.01    9.67
   7   8  -5    2.23    0.95
   7   8  -4   22.15    2.07
   7   8  -3    3.16    0.69
   7   8  -2   73.05    5.23
   7   8  -1    0.27    1.12
   7   8   0   41.67    4.07
   7   8   1    1.27    0.96
   7   8   2  292.22   20.30
   7   8   3    2.86    0.80
   7   8   4   44.25    3.93
   7   8   5   21.03    2.00
   7   8   6    5.44    1.08
   7   8   7    1.76    0.73
   7   8   8    3.01    1.04
   7   8   9    1.25    0.54
   7   8  10   68.80    3.16
   7   8  11    1.57    0.76
   7   8  12    0.39    0.63
   7   8  13    9.63    1.51
   7   8  14   28.95    4.22
   7   8  15    5.10    1.83
   7   8  16   35.60    3.40
   7   8  17    2.42    0.82
   7   8  18    9.62    2.85
   7   8  19    2.07    1.61
   7   8  20   11.44    2.00
   7   8  21    2.10    1.10
   7   8  22    2.44    1.31
   7   8  23    2.44    1.22
   7   9 -25    1.92    1.36
   7   9 -24    1.87    1.08
   7   9 -23    0.45    1.23
   7   9 -22   -0.39    1.05
   7   9 -21    8.51    3.08
   7   9 -20    2.00    0.84
   7   9 -19   15.47    3.71
   7   9 -18    1.24    1.31
   7   9 -17    3.37    1.41
   7   9 -16   -0.06    0.80
   7   9 -15    8.14    1.67
   7   9 -14    9.56    1.81
   7   9 -13   78.86    5.90
   7   9 -12    2.96    0.83
   7   9 -11   41.03    3.58
   7   9 -10    1.33    0.83
   7   9  -9   21.31    2.15
   7   9  -8   16.18    1.97
   7   9  -7   10.73    3.12
   7   9  -6    0.23    0.88
   7   9  -5   55.06    3.71
   7   9  -4    3.85    0.94
   7   9  -3    3.14    0.70
   7   9  -2   32.24    2.10
   7   9  -1   15.23    1.69
   7   9   0    5.98    1.14
   7   9   1   36.08    4.74
   7   9   2  159.98    4.03
   7   9   3   68.31    4.06
   7   9   4    2.96    1.00
   7   9   5   42.97    3.49
   7   9   6    6.45    1.14
   7   9   7   11.49    1.98
   7   9   8   35.42    3.36
   7   9   9    7.14    1.21
   7   9  10   16.28    2.21
   7   9  11    1.14    0.92
   7   9  12   10.06    2.32
   7   9  13    6.33    2.87
   7   9  14    1.06    0.91
   7   9  15    3.27    1.14
   7   9  16    1.36    0.95
   7   9  17    6.82    1.55
   7   9  18    3.86    1.29
   7   9  19    0.20    0.79
   7   9  20    4.18    1.18
   7   9  21    1.01    1.43
   7   9  22    2.50    0.96
   7  10 -24   -0.16    1.33
   7  10 -23    0.29    0.80
   7  10 -22    1.02    1.08
   7  10 -21    2.10    1.01
   7  10 -20   15.16    2.72
   7  10 -19    2.18    1.03
   7  10 -18    9.29    1.79
   7  10 -17    1.74    0.76
   7  10 -16    1.72    0.80
   7  10 -15    1.76    1.80
   7  10 -14    3.51    0.88
   7  10 -13    6.63    2.50
   7  10 -12   55.30    6.15
   7  10 -11    2.25    0.86
   7  10 -10    2.92    1.04
   7  10  -9    1.25    0.71
   7  10  -8    3.34    0.96
   7  10  -7    9.58    3.14
   7  10  -6   15.88    2.16
   7  10  -5    8.34    1.57
   7  10  -4    2.15    1.05
   7  10  -3    8.04    1.26
   7  10  -2   14.05    1.59
   7  10  -1    2.74    1.60
   7  10   0    2.32    0.90
   7  10   1    4.99    1.68
   7  10   2    4.22    0.87
   7  10   3   27.24    2.07
   7  10   4    0.95    0.81
   7  10   5    4.71    0.97
   7  10   6    0.95    1.09
   7  10   7    1.03    0.72
   7  10   8   32.81    3.61
   7  10   9    1.50    0.91
   7  10  10    0.89    0.83
   7  10  11    1.13    1.08
   7  10  12    1.15    0.87
   7  10  13    2.16    1.92
   7  10  14   13.68    3.22
   7  10  15    1.63    1.12
   7  10  16   13.51    2.72
   7  10  17    3.22    1.10
   7  10  18    1.73    1.24
   7  10  19   -1.04    1.29
   7  10  20    1.72    1.08
   7  10  21    1.25    1.54
   7  11 -22    0.39    1.88
   7  11 -21   10.12    2.56
   7  11 -20    3.43    1.82
   7  11 -19    5.16    1.58
   7  11 -18   -0.67    1.01
   7  11 -17    2.50    1.10
   7  11 -16    1.42    1.71
   7  11 -15    0.82    1.15
   7  11 -14    3.85    1.03
   7  11 -13   72.77    7.30
   7  11 -12    7.58    2.57
   7  11 -11   19.49    3.25
   7  11 -10    2.58    0.84
   7  11  -9    5.18    1.12
   7  11  -8    5.15    1.36
   7  11  -7   17.61    2.74
   7  11  -6    0.96    0.80
   7  11  -5  113.91    3.96
   7  11  -4    3.27    0.89
   7  11  -3    3.97    1.05
   7  11  -2    2.41    1.22
   7  11  -1    2.70    1.52
   7  11   0    2.28    0.74
   7  11   1  108.31   12.76
   7  11   2    4.19    1.87
   7  11   3   85.57    4.96
   7  11   4    1.00    1.11
   7  11   5   24.41    1.89
   7  11   6    4.12    1.43
   7  11   7    6.80    1.30
   7  11   8    2.82    1.26
   7  11   9   58.64    4.57
   7  11  10    7.21    1.53
   7  11  11    0.93    0.67
   7  11  12    1.65    1.04
   7  11  13    1.73    3.03
   7  11  14    0.71    1.84
   7  11  15    8.80    2.01
   7  11  16    7.54    1.30
   7  11  17    3.15    0.99
   7  11  18    1.51    0.73
   7  11  19   -0.62    1.07
   7  11  20   -1.13    1.58
   7  12 -20    3.47    2.53
   7  12 -19    2.27    1.01
   7  12 -18    2.38    1.67
   7  12 -17    2.76    2.31
   7  12 -16    1.26    1.58
   7  12 -15    6.75    1.39
   7  12 -14    3.31    2.34
   7  12 -13    3.28    1.50
   7  12 -12   53.58    7.14
   7  12 -11   13.36    2.02
   7  12 -10    3.03    1.08
   7  12  -9    0.84    1.42
   7  12  -8    2.00    0.71
   7  12  -7    7.08    2.25
   7  12  -6  106.09   16.65
   7  12  -5    2.60    0.80
   7  12  -4   13.66    2.04
   7  12  -3    6.28    1.37
   7  12  -2    2.68    1.48
   7  12  -1    5.25    3.03
   7  12   0   17.77    2.00
   7  12   1    6.08    1.53
   7  12   2   55.52    6.67
   7  12   3   10.44    2.03
   7  12   4    1.05    1.48
   7  12   5    0.82    0.88
   7  12   6   -0.32    0.99
   7  12   7    5.06    1.13
   7  12   8   21.53    3.18
   7  12   9    1.50    0.61
   7  12  10    2.62    1.00
   7  12  11    5.03    1.38
   7  12  12    0.46    2.93
   7  12  13    1.63    1.12
   7  12  14    1.97    1.24
   7  12  15    1.50    0.78
   7  12  16    7.19    3.03
   7  12  17    2.92    1.13
   7  12  18    0.44    2.16
   7  12  19    0.79    1.22
   7  13 -17    0.71    0.72
   7  13 -16    1.54    0.85
   7  13 -15    4.57    1.13
   7  13 -14    6.21    1.28
   7  13 -13   16.48    2.76
   7  13 -12    0.77    1.22
   7  13 -11    3.09    0.86
   7  13 -10    1.16    1.75
   7  13  -9    3.87    1.25
   7  13  -8    2.83    0.90
   7  13  -7   11.08    2.22
   7  13  -6    1.46    0.98
   7  13  -5   11.38    1.77
   7  13  -4    1.19    0.98
   7  13  -3    3.27    0.85
   7  13  -2    0.73    0.94
   7  13  -1    1.77    2.85
   7  13   0    7.35    1.41
   7  13   1   31.46    4.87
   7  13   2    1.76    1.23
   7  13   3   12.07    2.20
   7  13   4    4.86    1.45
   7  13   5    1.79    0.83
   7  13   6    2.12    0.61
   7  13   7    3.23    0.82
   7  13   8    2.53    1.28
   7  13   9    4.84    1.06
   7  13  10    5.71    1.34
   7  13  11    2.44    1.63
   7  13  12    1.44    1.23
   7  13  13    2.11    0.92
   7  13  14    0.84    1.33
   7  13  15    2.52    0.97
   7  13  16    0.37    1.16
   7  13  17    2.26    1.34
   7  14 -16   -1.23    1.47
   7  14 -15    4.95    1.80
   7  14 -14    5.69    3.12
   7  14 -13   -1.47    1.79
   7  14 -12    5.58    1.61
   7  14 -11    3.94    1.18
   7  14 -10    1.09    1.99
   7  14  -9    2.06    2.62
   7  14  -8    5.48    1.42
   7  14  -7    8.96    1.82
   7  14  -6   20.23    3.31
   7  14  -5    0.18    0.82
   7  14  -4   13.80    2.69
   7  14  -3    7.93    2.17
   7  14  -2    2.36    2.04
   7  14  -1   11.09    2.69
   7  14   0   12.53    2.34
   7  14   1    9.65    1.75
   7  14   2   18.79    4.69
   7  14   3    7.11    1.40
   7  14   4    0.90    1.12
   7  14   5    3.51    0.83
   7  14   6    3.31    0.93
   7  14   7    3.85    1.10
   7  14   8    4.05    0.98
   7  14   9    1.39    1.03
   7  14  10    3.67    1.58
   7  14  11    5.29    2.38
   7  14  12    3.80    1.63
   7  14  13   -1.60    1.79
   7  15  -9    4.14    1.51
   7  15  -7    4.51    2.46
   7  15  -6    0.13    1.58
   7  15  -5   -0.11    1.70
   7  15  -4    6.53    1.81
   7  15  -3    2.68    1.25
   7  15  -2    3.37    0.88
   7  15  -1    5.10    1.25
   7  15   0   13.03    2.90
   7  15   1    4.53    1.66
   7  15   2    2.10    1.28
   7  15   3    2.19    0.92
   7  15   4    3.95    1.03
   7  15   5    0.96    0.86
   7  15   6    3.29    1.02
   7  15   7    2.23    1.37
   7  15   8   -0.68    1.22
   7  16  -3    2.83    1.29
   7  16  -2    1.67    1.51
   7  16  -1    3.25    1.57
   8   0 -24  111.38   34.53
   8   0 -22   30.73   10.35
   8   0 -20    6.62    2.07
   8   0 -18   90.64    6.12
   8   0 -16  403.87    7.62
   8   0 -14   10.66    2.48
   8   0 -12   78.12    1.11
   8   0 -10  440.50   30.74
   8   0  -8  490.25   16.36
   8   0  -6  588.81   18.26
   8   0  -4   16.22    3.56
   8   0  -2  753.74    9.93
   8   0   0   62.20    2.10
   8   0   2  148.87    7.03
   8   0   4  206.07   16.39
   8   0   6  246.80    6.63
   8   0   8    3.74    0.60
   8   0  10    7.46    1.01
   8   0  12  434.93   12.18
   8   0  14    0.46    1.83
   8   0  16    4.04    1.33
   8   0  18   47.46   33.49
   8   0  20   42.44   11.20
   8   0  22    0.20    1.94
   8   0  24    5.82    1.88
   8   0  26    3.27    3.10
   8   0  28    1.59    0.94
   8   1 -25   10.12    3.81
   8   1 -24    0.16    1.64
   8   1 -23   47.89    3.72
   8   1 -22    6.18    1.52
   8   1 -21    2.38    1.35
   8   1 -20    5.32    1.48
   8   1 -19    4.10    1.30
   8   1 -18   17.43    2.54
   8   1 -17  138.90    4.21
   8   1 -16   13.47    1.79
   8   1 -15   11.59    2.29
   8   1 -14    0.90    0.52
   8   1 -13   89.22    4.82
   8   1 -12   88.70   12.73
   8   1 -11   78.50    4.06
   8   1 -10  185.08    7.10
   8   1  -9  858.69   19.98
   8   1  -8   45.56    1.20
   8   1  -7   29.13    0.98
   8   1  -6   23.60    1.32
   8   1  -5  491.74    6.66
   8   1  -4  962.94   36.13
   8   1  -3  445.20   12.09
   8   1  -2  573.82   12.90
   8   1  -1    2.31    0.76
   8   1   0   62.25    2.23
   8   1   1  396.52   12.83
   8   1   2   88.74    2.43
   8   1   3    2.23    1.05
   8   1   4  136.51    2.39
   8   1   5 1940.50   37.98
   8   1   6   19.37    0.94
   8   1   7   20.60    0.97
   8   1   8    0.23    0.25
   8   1   9  189.55    3.78
   8   1  10    3.32    0.40
   8   1  11  363.89    8.66
   8   1  12    0.21    0.15
   8   1  13  174.23    2.75
   8   1  14    2.06    0.36
   8   1  15   18.25    5.37
   8   1  16   12.56    2.65
   8   1  17   37.52    2.71
   8   1  18    7.38    1.39
   8   1  19   33.82    4.89
   8   1  20    0.70    1.37
   8   1  21    4.80    1.40
   8   1  22    1.03    1.70
   8   1  23   -0.93    1.27
   8   1  24    2.08    1.10
   8   1  25    6.81    1.82
   8   1  26    2.98    1.27
   8   1  27    1.22    0.73
   8   1  28    0.05    1.81
   8   2 -25    2.72    0.94
   8   2 -24   12.39    4.73
   8   2 -23    6.43    1.23
   8   2 -22    2.53    1.13
   8   2 -21    6.18    1.31
   8   2 -20   19.80    3.45
   8   2 -19    3.69    1.09
   8   2 -18    9.07    2.16
   8   2 -17    2.57    2.29
   8   2 -16   26.81    2.89
   8   2 -15    0.62    0.65
   8   2 -14   20.38    1.95
   8   2 -13    5.11    1.19
   8   2 -12    2.65    0.51
   8   2 -11  207.59    3.71
   8   2 -10  240.33    3.56
   8   2  -9  119.45    4.12
   8   2  -8    6.07    0.65
   8   2  -7  100.97    3.01
   8   2  -6  175.80    4.66
   8   2  -5  380.29    5.71
   8   2  -4   34.75    2.48
   8   2  -3  433.62    6.95
   8   2  -2  849.99   20.57
   8   2  -1    1.43    0.35
   8   2   0   94.48    4.56
   8   2   1    1.89    0.60
   8   2   2    4.20    2.46
   8   2   3  535.41   11.80
   8   2   4  227.62    6.33
   8   2   5    3.50    0.54
   8   2   6  135.52    3.19
   8   2   7  141.03    2.36
   8   2   8   36.91    1.84
   8   2   9    6.17    0.63
   8   2  10  175.07    3.85
   8   2  11   37.88    2.46
   8   2  12  115.34    4.09
   8   2  13   14.02    2.60
   8   2  14    0.82    0.30
   8   2  15   90.93    3.94
   8   2  16    1.68    0.69
   8   2  17   29.44    3.87
   8   2  18   22.24    2.54
   8   2  19    1.49    1.13
   8   2  20   14.55    2.17
   8   2  21    6.87    4.80
   8   2  22    0.85    1.35
   8   2  23    0.12    0.88
   8   2  24    1.51    1.48
   8   2  25    0.61    0.78
   8   2  26    2.44    1.40
   8   2  27    0.09    1.17
   8   2  28    1.85    1.21
   8   3 -24    2.01    0.83
   8   3 -23   12.32    3.55
   8   3 -22   17.48    3.92
   8   3 -21    0.76    1.29
   8   3 -20    5.71    1.84
   8   3 -19    5.11    1.71
   8   3 -18   44.93    3.17
   8   3 -17    2.30    1.07
   8   3 -16   34.70    2.90
   8   3 -15   36.89    4.80
   8   3 -14    8.37    1.52
   8   3 -13    8.97    2.18
   8   3 -12   45.66    2.99
   8   3 -11   25.29    3.89
   8   3 -10   28.32    2.05
   8   3  -9  442.12    7.80
   8   3  -8  185.42    1.87
   8   3  -7   85.54    2.53
   8   3  -6   26.36    1.96
   8   3  -5    0.46    0.33
   8   3  -4    1.91    0.58
   8   3  -3   67.76    2.29
   8   3  -2  245.79    4.64
   8   3  -1  149.58    3.37
   8   3   0  312.08    5.22
   8   3   1   50.04    2.60
   8   3   2   16.23    1.31
   8   3   3  372.34    5.88
   8   3   4  278.16    8.01
   8   3   5  248.73    4.71
   8   3   6    3.76    0.82
   8   3   7   25.96    1.46
   8   3   8  626.27   10.41
   8   3   9   68.02    2.19
   8   3  10  133.28    1.20
   8   3  11   40.48    2.38
   8   3  12    0.48    0.56
   8   3  13    5.86    1.19
   8   3  14  199.35    6.35
   8   3  15   51.41    3.87
   8   3  16    0.21    1.09
   8   3  17    0.68    1.65
   8   3  18    1.79    1.00
   8   3  19   19.32    4.00
   8   3  20   12.59    2.62
   8   3  21   20.40    3.28
   8   3  22    0.81    1.06
   8   3  23    2.96    2.40
   8   3  24   -1.58    1.32
   8   3  25    0.83    2.28
   8   3  26    0.66    0.96
   8   3  27    2.54    0.92
   8   4 -25   10.82    4.10
   8   4 -24    5.94    2.91
   8   4 -23   -1.63    1.41
   8   4 -22    4.00    1.62
   8   4 -21   55.61    4.95
   8   4 -20    0.80    1.24
   8   4 -19   51.29    2.53
   8   4 -18   31.95    4.28
   8   4 -17   21.18    2.67
   8   4 -16   27.53    3.22
   8   4 -15  121.29    5.21
   8   4 -14    1.67    0.79
   8   4 -13    4.56    2.24
   8   4 -12   17.46    2.26
   8   4 -11   88.37    4.14
   8   4 -10  111.38    3.40
   8   4  -9   10.70    1.29
   8   4  -8   98.82    2.05
   8   4  -7  301.87    3.65
   8   4  -6    9.59    0.95
   8   4  -5    9.86    0.94
   8   4  -4  445.76   14.89
   8   4  -3   42.58    1.92
   8   4  -2  115.88    3.69
   8   4  -1  177.39    2.58
   8   4   0  215.79    8.41
   8   4   1   43.10    2.16
   8   4   2   70.57    2.89
   8   4   3   10.72    1.12
   8   4   4  231.48    7.07
   8   4   5   24.37    2.19
   8   4   6  155.35    3.50
   8   4   7   11.11    0.98
   8   4   8   60.26    2.41
   8   4   9    7.34    1.06
   8   4  10   26.08    1.73
   8   4  11  162.65    2.45
   8   4  12  119.31    2.20
   8   4  13    4.13    0.93
   8   4  14    2.23    0.77
   8   4  15   41.48    3.89
   8   4  16    1.25    1.21
   8   4  17   16.11    6.53
   8   4  18   28.14    5.38
   8   4  19    1.27    1.30
   8   4  20    5.49    1.08
   8   4  21    4.50    1.35
   8   4  22    2.13    1.58
   8   4  23    0.97    1.04
   8   4  24    2.65    1.07
   8   4  25    0.59    1.11
   8   4  26    3.53    1.30
   8   4  27    2.15    1.00
   8   5 -25    2.40    1.45
   8   5 -24    0.60    1.21
   8   5 -23    2.60    0.95
   8   5 -22    6.64    2.19
   8   5 -21    3.07    1.03
   8   5 -20   53.81    4.20
   8   5 -19    9.27    1.53
   8   5 -18   31.18    3.83
   8   5 -17   63.23    3.72
   8   5 -16    4.45    1.24
   8   5 -15    6.66    1.77
   8   5 -14  240.24    3.52
   8   5 -13    7.14    0.98
   8   5 -12   52.88    6.34
   8   5 -11  187.46    1.51
   8   5 -10   42.17    2.73
   8   5  -9  100.79    1.80
   8   5  -8  288.56    7.14
   8   5  -7   50.94    2.80
   8   5  -6  102.97    2.43
   8   5  -5  227.07    2.87
   8   5  -4  585.69   27.20
   8   5  -3   13.71    1.35
   8   5  -2   32.84    2.26
   8   5  -1  146.64    8.88
   8   5   0  348.81    5.75
   8   5   1   58.26    4.92
   8   5   2   44.66    3.62
   8   5   3   50.62    3.73
   8   5   4  244.40    5.87
   8   5   5   89.61    2.38
   8   5   6   16.24    2.19
   8   5   7    4.27    0.72
   8   5   8    1.57    0.55
   8   5   9   18.52    1.92
   8   5  10  265.82    6.78
   8   5  11   79.72    9.25
   8   5  12    4.55    0.65
   8   5  13    2.12    0.71
   8   5  14   15.61    1.74
   8   5  15   20.28    2.18
   8   5  16   38.26    4.01
   8   5  17   10.06    2.44
   8   5  18   28.25    4.98
   8   5  19    9.53    1.68
   8   5  20    1.25    1.70
   8   5  21   10.31    2.68
   8   5  22    3.95    1.04
   8   5  23   -0.25    1.61
   8   5  24    1.36    1.78
   8   5  25    1.94    1.27
   8   5  26    1.55    1.20
   8   6 -25    3.66    2.16
   8   6 -24    0.61    0.76
   8   6 -23    2.89    0.91
   8   6 -22    2.95    0.77
   8   6 -21   41.00    8.65
   8   6 -20    3.77    1.92
   8   6 -19    1.46    0.78
   8   6 -18   42.17    3.84
   8   6 -17    2.78    1.31
   8   6 -16   25.57    2.87
   8   6 -15  171.34    6.15
   8   6 -14   23.03    2.34
   8   6 -13    1.77    1.06
   8   6 -12  229.02    3.54
   8   6 -11  158.96    3.00
   8   6 -10   98.10    4.35
   8   6  -9    4.70    0.63
   8   6  -8   35.93    2.51
   8   6  -7  522.89    9.23
   8   6  -6  173.19    3.93
   8   6  -5  170.32    3.97
   8   6  -4  175.20    4.30
   8   6  -3   63.58    5.73
   8   6  -2   12.27    1.44
   8   6  -1  438.88   11.58
   8   6   0   14.24    2.28
   8   6   1    1.86    1.32
   8   6   2  105.10    2.03
   8   6   3  273.53    8.22
   8   6   4   61.87    4.81
   8   6   5   44.35    8.83
   8   6   6   85.70    2.63
   8   6   7  206.71    5.41
   8   6   8   73.28    3.37
   8   6   9    1.15    0.36
   8   6  10    2.84    1.67
   8   6  11  193.80    8.04
   8   6  12   74.58    2.08
   8   6  13   28.53    1.38
   8   6  14   83.51    6.50
   8   6  15   23.25    3.49
   8   6  16    3.35    2.30
   8   6  17   83.66    9.74
   8   6  18   23.13    6.94
   8   6  19    1.53    2.11
   8   6  20   24.07    4.80
   8   6  21    1.59    1.28
   8   6  22   10.16    2.68
   8   6  23   -1.95    1.46
   8   6  24    4.99    1.58
   8   6  25    1.27    0.80
   8   7 -26    2.54    1.42
   8   7 -25    1.16    0.88
   8   7 -24    2.62    1.30
   8   7 -23    3.83    1.43
   8   7 -22    7.39    1.67
   8   7 -21   16.67    5.20
   8   7 -20    0.87    1.92
   8   7 -19   14.48    2.77
   8   7 -18   15.36    2.34
   8   7 -17   12.70    1.95
   8   7 -16    1.58    1.24
   8   7 -15   25.55    3.45
   8   7 -14  100.64    6.04
   8   7 -13   66.70    3.51
   8   7 -12  124.26    6.65
   8   7 -11    7.12    1.34
   8   7 -10   62.02    2.30
   8   7  -9    2.55    0.56
   8   7  -8  480.25    5.79
   8   7  -7   65.75    3.52
   8   7  -6   37.30    3.14
   8   7  -5  145.20    4.55
   8   7  -4  368.52    8.82
   8   7  -3    1.05    0.91
   8   7  -2   40.24    3.49
   8   7  -1    1.16    0.62
   8   7   0  507.20   10.55
   8   7   1  116.82    3.58
   8   7   2   58.35    4.67
   8   7   3  109.14    5.78
   8   7   4   70.69   21.16
   8   7   5   28.70    2.28
   8   7   6  328.07    4.68
   8   7   7  116.81    8.08
   8   7   8   28.70    2.28
   8   7   9  124.59    3.86
   8   7  10    1.93    0.75
   8   7  11    1.40    0.79
   8   7  12    0.74    0.91
   8   7  13   33.94    1.81
   8   7  14   14.23    1.74
   8   7  15   51.42    3.80
   8   7  16    3.32    1.01
   8   7  17   19.17    3.84
   8   7  18   20.63    4.31
   8   7  19    2.88    4.17
   8   7  20    4.75    2.84
   8   7  21    2.78    1.21
   8   7  22    1.45    0.91
   8   7  23   10.13    3.45
   8   7  24    2.00    1.14
   8   8 -26    2.22    1.01
   8   8 -25    2.23    1.10
   8   8 -24    2.72    1.42
   8   8 -23    1.24    0.99
   8   8 -22    2.95    1.33
   8   8 -21    3.19    1.38
   8   8 -20   17.72    2.97
   8   8 -19    6.05    1.32
   8   8 -18    3.46    0.99
   8   8 -17    0.39    0.87
   8   8 -16    1.22    1.10
   8   8 -15    2.02    2.25
   8   8 -14   29.56    3.68
   8   8 -13    0.87    1.11
   8   8 -12   31.80    3.45
   8   8 -11   14.09    1.54
   8   8 -10    2.51    0.69
   8   8  -9    2.42    1.09
   8   8  -8    2.22    1.10
   8   8  -7   30.56    2.46
   8   8  -6  359.54   12.15
   8   8  -5   41.86    2.36
   8   8  -4  101.52    6.10
   8   8  -3  180.90    6.86
   8   8  -2  105.57    8.83
   8   8  -1   23.84    1.90
   8   8   0  151.08    2.97
   8   8   1   52.48    2.88
   8   8   2  141.76    3.37
   8   8   3  148.47    4.89
   8   8   4   71.21    5.25
   8   8   5    1.12    0.60
   8   8   6   48.45    5.28
   8   8   7   26.59    2.49
   8   8   8   63.97    3.39
   8   8   9   19.58    2.48
   8   8  10   79.74    7.54
   8   8  11   23.34    2.49
   8   8  12   30.99    3.34
   8   8  13    2.58    0.80
   8   8  14    9.59    1.97
   8   8  15    2.58    0.94
   8   8  16    6.63    2.52
   8   8  17    2.68    0.88
   8   8  18    1.40    2.79
   8   8  19    5.61    1.48
   8   8  20   15.91    5.46
   8   8  21    2.85    1.49
   8   8  22    1.84    2.38
   8   8  23    0.47    1.22
   8   9 -25    1.12    1.30
   8   9 -24    2.56    1.02
   8   9 -23   -0.09    1.55
   8   9 -22   -0.29    1.04
   8   9 -21   14.18    2.50
   8   9 -20    2.96    0.80
   8   9 -19    5.36    1.16
   8   9 -18    3.90    1.39
   8   9 -17    4.11    0.93
   8   9 -16    3.45    1.52
   8   9 -15    2.20    1.69
   8   9 -14   -1.32    1.17
   8   9 -13   59.13    5.48
   8   9 -12    1.05    0.85
   8   9 -11   30.82    4.30
   8   9 -10    2.76    0.77
   8   9  -9   17.72    2.90
   8   9  -8    5.66    1.14
   8   9  -7   47.95    3.53
   8   9  -6   97.21    3.79
   8   9  -5  162.18    7.71
   8   9  -4   38.50    5.77
   8   9  -3   37.66    3.54
   8   9  -2   15.32    1.86
   8   9  -1    6.83    1.30
   8   9   0    3.61    0.70
   8   9   1   80.09    7.93
   8   9   2    2.18    1.01
   8   9   3    7.87    1.10
   8   9   4   19.81    1.96
   8   9   5    4.55    1.23
   8   9   6    2.90    1.00
   8   9   7    7.64    2.16
   8   9   8   15.28    1.62
   8   9   9   34.36    3.58
   8   9  10    9.79    2.03
   8   9  11    2.49    0.92
   8   9  12    0.24    0.77
   8   9  13    0.64    1.29
   8   9  14    0.86    1.39
   8   9  15    3.24    0.94
   8   9  16    5.81    1.18
   8   9  17    2.53    1.51
   8   9  18    3.46    0.99
   8   9  19    1.16    2.16
   8   9  20   -0.14    1.00
   8   9  21    1.95    1.42
   8   9  22    2.51    0.96
   8  10 -23   -0.98    1.30
   8  10 -22    2.07    0.93
   8  10 -21   -2.02    2.06
   8  10 -20   16.33    2.68
   8  10 -19    2.75    1.04
   8  10 -18    4.55    1.42
   8  10 -17    2.09    0.72
   8  10 -16    3.62    1.07
   8  10 -15    2.99    1.11
   8  10 -14   21.19    3.89
   8  10 -13    3.77    0.94
   8  10 -12   96.13    8.32
   8  10 -11    4.58    0.84
   8  10 -10    6.46    1.10
   8  10  -9    3.26    0.86
   8  10  -8    5.18    1.29
   8  10  -7    7.25    1.22
   8  10  -6  206.88   13.17
   8  10  -5    8.37    1.66
   8  10  -4    6.39    1.42
   8  10  -3    2.53    0.83
   8  10  -2    2.53    1.11
   8  10  -1    3.08    0.96
   8  10   0    1.46    0.77
   8  10   1    7.48    1.44
   8  10   2  182.91   16.09
   8  10   3    1.72    0.89
   8  10   4    6.18    1.16
   8  10   5   13.97    2.86
   8  10   6    9.05    1.37
   8  10   7   14.78    1.87
   8  10   8   93.74    4.16
   8  10   9    6.21    0.88
   8  10  10    2.80    0.67
   8  10  11    5.10    0.84
   8  10  12    4.82    0.72
   8  10  13    0.14    2.24
   8  10  14    7.30    1.82
   8  10  15    3.70    1.09
   8  10  16   19.41    5.78
   8  10  17   -0.06    0.98
   8  10  18    1.21    1.05
   8  10  19    3.04    1.11
   8  10  20    2.21    1.30
   8  10  21    1.63    1.68
   8  11 -22    2.79    1.93
   8  11 -21   11.94    4.47
   8  11 -20    0.43    0.90
   8  11 -19    8.87    2.02
   8  11 -18    1.08    1.26
   8  11 -17    0.66    1.67
   8  11 -16    1.92    1.17
   8  11 -15    5.26    1.65
   8  11 -14    1.24    1.75
   8  11 -13   36.31    7.08
   8  11 -12    2.86    1.46
   8  11 -11    7.00    1.61
   8  11 -10    3.71    1.11
   8  11  -9    3.75    1.01
   8  11  -8    6.03    1.30
   8  11  -7   41.34    5.94
   8  11  -6    2.34    0.87
   8  11  -5  150.66    5.03
   8  11  -4   15.14    1.81
   8  11  -3    1.98    0.85
   8  11  -2    7.50    1.28
   8  11  -1    2.90    1.03
   8  11   0    1.97    1.07
   8  11   1  145.84    6.07
   8  11   2    3.59    0.79
   8  11   3   12.42    1.89
   8  11   4    2.79    1.01
   8  11   5    9.28    1.98
   8  11   6    1.14    1.30
   8  11   7   17.65    2.37
   8  11   8    2.04    0.69
   8  11   9   81.92   14.89
   8  11  10    3.81    0.91
   8  11  11    2.01    0.54
   8  11  12    2.03    1.43
   8  11  13   -0.09    1.23
   8  11  14    0.97    0.69
   8  11  15    8.53    2.23
   8  11  16    3.80    0.94
   8  11  17    4.91    1.17
   8  11  18   -1.75    2.26
   8  11  19   -1.05    1.66
   8  11  20    4.78    1.67
   8  12 -20    4.36    1.66
   8  12 -19    3.34    2.78
   8  12 -18    0.14    0.97
   8  12 -17    0.59    0.95
   8  12 -16    1.03    1.23
   8  12 -15    5.11    1.26
   8  12 -14    5.39    1.24
   8  12 -13    1.37    1.34
   8  12 -12    9.43    1.74
   8  12 -11    3.03    1.90
   8  12 -10    5.26    2.07
   8  12  -9    3.61    0.79
   8  12  -8    2.28    0.82
   8  12  -7    5.38    1.46
   8  12  -6   94.12   17.60
   8  12  -5    3.10    1.21
   8  12  -4    2.16    1.41
   8  12  -3    2.03    1.48
   8  12  -2    9.07    1.56
   8  12  -1    7.97    2.46
   8  12   0   64.10    7.15
   8  12   1    8.57    1.69
   8  12   2   59.93   11.34
   8  12   3    0.93    1.23
   8  12   4    2.08    0.88
   8  12   5    2.49    1.14
   8  12   6    3.75    1.42
   8  12   7    6.31    1.17
   8  12   8   82.75   11.09
   8  12   9    3.06    1.01
   8  12  10    0.16    0.57
   8  12  11    3.33    0.75
   8  12  12    4.36    1.02
   8  12  13    2.37    0.93
   8  12  14    5.02    2.33
   8  12  15    1.38    1.04
   8  12  16    2.64    1.57
   8  12  17    0.16    1.07
   8  12  18   -0.87    1.70
   8  13 -17    0.76    0.65
   8  13 -16    1.52    0.88
   8  13 -15    0.64    3.29
   8  13 -14    2.17    1.00
   8  13 -13    4.29    1.26
   8  13 -12    2.45    1.31
   8  13 -11    2.45    1.05
   8  13 -10    2.20    1.51
   8  13  -9    1.20    0.92
   8  13  -8    4.81    1.35
   8  13  -7   13.29    2.38
   8  13  -6    3.82    0.86
   8  13  -5    6.54    1.66
   8  13  -4    5.10    1.28
   8  13  -3    1.93    1.21
   8  13  -2    1.50    1.24
   8  13  -1    3.95    1.01
   8  13   0    5.23    1.47
   8  13   1   26.66    3.34
   8  13   2    3.57    1.08
   8  13   3    6.23    1.50
   8  13   4    2.55    1.32
   8  13   5    2.20    1.05
   8  13   6    2.85    1.19
   8  13   7    6.68    1.41
   8  13   8    3.12    0.90
   8  13   9   15.70    3.00
   8  13  10    6.31    2.13
   8  13  11    2.57    0.79
   8  13  12    0.86    1.36
   8  13  13   -2.42    2.29
   8  13  14    3.66    1.15
   8  13  15    6.32    1.68
   8  14 -15    2.32    0.99
   8  14 -14    3.31    1.51
   8  14 -13    1.61    1.12
   8  14 -12    0.34    2.02
   8  14 -11    3.05    1.38
   8  14 -10    2.51    1.61
   8  14  -9    6.05    1.31
   8  14  -8    3.78    2.21
   8  14  -7    6.01    1.45
   8  14  -6   17.70    4.01
   8  14  -5    2.57    0.97
   8  14  -4    5.25    1.20
   8  14  -3    3.87    1.13
   8  14  -2    3.71    1.15
   8  14  -1   11.28    1.75
   8  14   0    9.84    1.51
   8  14   1    2.28    1.38
   8  14   2   16.06    3.00
   8  14   3    3.94    1.19
   8  14   4    1.41    1.00
   8  14   5    2.77    0.96
   8  14   6    2.41    0.71
   8  14   7    3.22    1.00
   8  14   8    4.37    0.91
   8  14   9    4.29    1.46
   8  14  10    4.15    1.40
   8  15  -4    2.67    1.64
   8  15  -3    1.67    0.82
   8  15  -2    2.81    1.12
   8  15  -1    1.99    2.81
   8  15   0    5.29    1.58
   8  15   1    0.65    0.83
   8  15   2    2.22    1.26
   8  15   3    5.04    2.21
   8  15   4    2.87    2.05
   8  15   5    1.53    1.01
   8  15   6    4.95    1.75
   8  15   7    1.37    1.17
   9   0 -24   53.41    9.01
   9   0 -22    2.15    1.07
   9   0 -20    7.74    2.63
   9   0 -18  229.33   11.71
   9   0 -16  229.34    5.59
   9   0 -14   55.84    7.68
   9   0 -12    3.37    0.59
   9   0 -10  417.58   11.81
   9   0  -8   27.34    1.48
   9   0  -6  467.04    8.11
   9   0  -4   91.29    5.48
   9   0  -2  315.23   12.64
   9   0   0 1084.88   16.16
   9   0   2  610.97    9.04
   9   0   4   94.48    8.01
   9   0   6   36.44    2.09
   9   0   8  304.81    4.72
   9   0  10    0.67    0.44
   9   0  12  323.50    7.57
   9   0  14   21.88    1.39
   9   0  16    8.39    5.31
   9   0  18  152.95    7.55
   9   0  20   12.77    3.27
   9   0  22   -0.50    1.86
   9   0  24    7.07    2.21
   9   0  26    5.91    2.50
   9   0  28    2.51    1.47
   9   1 -26   -0.23    0.79
   9   1 -25    6.75    1.13
   9   1 -24    0.61    1.39
   9   1 -23   32.51    9.36
   9   1 -22    1.95    1.44
   9   1 -21    3.41    1.33
   9   1 -20    3.09    1.25
   9   1 -19   28.75    4.99
   9   1 -18   26.19    6.94
   9   1 -17  187.02    7.08
   9   1 -16    2.53    0.61
   9   1 -15    0.06    0.44
   9   1 -14    3.81    0.81
   9   1 -13    1.11    0.61
   9   1 -12   27.12    2.72
   9   1 -11  137.40    3.56
   9   1 -10  147.27    6.74
   9   1  -9  422.79   10.99
   9   1  -8    5.32    0.74
   9   1  -7   59.38    1.25
   9   1  -6  106.51    2.95
   9   1  -5   52.30    1.51
   9   1  -4    3.09    0.50
   9   1  -3 1187.95   23.72
   9   1  -2    1.65    0.45
   9   1  -1  149.10    3.91
   9   1   0   21.41    1.80
   9   1   1  666.63   32.60
   9   1   2   14.96    1.36
   9   1   3   40.26    1.80
   9   1   4   22.23    1.40
   9   1   5  202.78    3.10
   9   1   6   37.81    1.67
   9   1   7   65.20    2.94
   9   1   8    3.25    0.55
   9   1   9  121.04    2.47
   9   1  10    1.03    0.48
   9   1  11  319.20    6.85
   9   1  12    2.86    0.39
   9   1  13   36.83    1.41
   9   1  14    9.43    2.08
   9   1  15   12.52    2.53
   9   1  16   -0.66    1.13
   9   1  17    6.92    2.70
   9   1  18    3.75    1.79
   9   1  19   85.69    5.61
   9   1  20    3.45    1.49
   9   1  21    3.75    1.14
   9   1  22    0.60    0.96
   9   1  23    0.74    1.78
   9   1  24    0.59    1.54
   9   1  25   10.08    4.33
   9   1  26    2.47    1.06
   9   1  27    2.23    0.81
   9   1  28   -0.87    1.35
   9   2 -26    3.44    1.40
   9   2 -25    1.60    0.81
   9   2 -24   12.19    3.82
   9   2 -23    1.81    0.86
   9   2 -22    3.86    1.25
   9   2 -21    1.85    3.16
   9   2 -20   -0.23    1.49
   9   2 -19    1.54    1.14
   9   2 -18  136.48    6.65
   9   2 -17    6.31    1.43
   9   2 -16  113.67    5.95
   9   2 -15   26.63    4.06
   9   2 -14   18.29    2.63
   9   2 -13   58.23    2.65
   9   2 -12    0.57    0.33
   9   2 -11    2.65    0.62
   9   2 -10  231.56    7.54
   9   2  -9   74.80    1.90
   9   2  -8  145.47    3.76
   9   2  -7   25.86    1.61
   9   2  -6  127.13    5.91
   9   2  -5   27.27    2.61
   9   2  -4 1074.77   25.73
   9   2  -3  436.75    6.24
   9   2  -2  676.77   14.44
   9   2  -1  375.53    7.74
   9   2   0  626.63    7.64
   9   2   1    9.15    1.53
   9   2   2    1.84    0.72
   9   2   3  748.41   11.89
   9   2   4 1120.17   23.60
   9   2   5    0.28    1.04
   9   2   6    4.06    0.62
   9   2   7  230.14    6.29
   9   2   8    8.29    0.74
   9   2   9   94.36    2.88
   9   2  10   28.46    2.56
   9   2  11  197.15    2.53
   9   2  12  148.39    2.67
   9   2  13  101.43    3.27
   9   2  14   23.00    3.24
   9   2  15   81.19    3.30
   9   2  16    2.17    3.50
   9   2  17   71.84    5.43
   9   2  18   55.32    4.48
   9   2  19    2.09    2.69
   9   2  20   19.88    4.70
   9   2  21   25.30    5.39
   9   2  22   -0.20    1.41
   9   2  23    1.89    1.12
   9   2  24    2.96    0.80
   9   2  25    0.30    2.05
   9   2  26   11.08    2.48
   9   2  27    2.13    1.21
   9   3 -26   11.79    5.01
   9   3 -25    8.12    4.09
   9   3 -24    1.20    0.98
   9   3 -23   19.59    4.88
   9   3 -22   10.72    1.94
   9   3 -21    4.15    1.56
   9   3 -20   19.24    3.23
   9   3 -19    2.73    1.00
   9   3 -18    1.72    1.59
   9   3 -17   98.11    9.93
   9   3 -16   14.98    3.96
   9   3 -15   41.43    4.06
   9   3 -14   89.22    5.04
   9   3 -13    4.35    0.95
   9   3 -12  135.57    2.87
   9   3 -11    0.34    0.85
   9   3 -10    7.06    1.34
   9   3  -9   99.98    0.63
   9   3  -8  277.30    4.19
   9   3  -7    4.18    0.79
   9   3  -6   33.58    1.67
   9   3  -5  136.35    2.49
   9   3  -4  681.50   12.01
   9   3  -3  278.90    5.64
   9   3  -2  725.38    8.05
   9   3  -1  123.14    4.81
   9   3   0   66.82    2.55
   9   3   1    2.81    0.74
   9   3   2  179.77    3.23
   9   3   3  249.22    4.74
   9   3   4   50.05    2.68
   9   3   5  173.49    3.72
   9   3   6  317.61    5.01
   9   3   7   15.67    1.54
   9   3   8    1.32    0.56
   9   3   9   91.67    1.81
   9   3  10   39.31    2.33
   9   3  11  197.68    4.86
   9   3  12    2.31    0.29
   9   3  13   42.80    4.56
   9   3  14  109.06    4.26
   9   3  15    3.64    0.72
   9   3  16    6.90    1.69
   9   3  17   33.02    4.67
   9   3  18   14.68    3.18
   9   3  19    0.34    1.58
   9   3  20   14.66    2.95
   9   3  21    1.67    1.26
   9   3  22   12.96    2.87
   9   3  23    1.36    0.99
   9   3  24    7.20    2.65
   9   3  25    2.07    0.95
   9   3  26    0.62    0.85
   9   3  27    3.86    1.16
   9   4 -26    2.21    1.10
   9   4 -25    6.10    3.21
   9   4 -24    2.37    1.44
   9   4 -23    0.24    0.85
   9   4 -22    4.09    1.15
   9   4 -21   11.80    2.86
   9   4 -20   45.59    2.12
   9   4 -19   83.97    3.03
   9   4 -18   15.97    2.13
   9   4 -17   14.03    1.68
   9   4 -16   28.07    4.01
   9   4 -15  103.49   15.20
   9   4 -14   65.63    3.75
   9   4 -13   60.48    3.86
   9   4 -12    5.18    1.21
   9   4 -11   61.27    2.93
   9   4 -10   34.74    4.94
   9   4  -9   76.56    3.22
   9   4  -8   51.07    2.65
   9   4  -7   17.21    1.88
   9   4  -6  150.59    3.71
   9   4  -5    3.34    0.91
   9   4  -4   43.03    2.81
   9   4  -3    5.69    1.13
   9   4  -2  359.52    5.48
   9   4  -1   45.01    3.05
   9   4   0   17.16    1.73
   9   4   1  174.57    3.09
   9   4   2   90.89    2.03
   9   4   3   39.79    3.11
   9   4   4  198.73    3.51
   9   4   5   10.24    1.27
   9   4   6  124.68    3.24
   9   4   7   57.06    4.25
   9   4   8   16.96    1.28
   9   4   9   67.94    3.01
   9   4  10   77.57    3.28
   9   4  11    0.94    0.29
   9   4  12   21.34    2.36
   9   4  13    2.89    0.87
   9   4  14    1.42    1.12
   9   4  15    0.90    0.91
   9   4  16    3.33    1.31
   9   4  17   41.16    5.41
   9   4  18    1.91    1.05
   9   4  19   -0.34    1.71
   9   4  20    2.08    1.35
   9   4  21   12.73    2.82
   9   4  22    2.55    1.42
   9   4  23    8.45    2.01
   9   4  24    1.92    1.97
   9   4  25    2.26    1.26
   9   4  26    1.90    0.93
   9   4  27    0.89    1.60
   9   5 -26    1.79    1.37
   9   5 -25    0.90    1.55
   9   5 -24    1.04    1.21
   9   5 -23    0.42    0.72
   9   5 -22    9.83    1.75
   9   5 -21   14.10    2.19
   9   5 -20   -0.58    0.87
   9   5 -19   55.13    4.11
   9   5 -18   40.44    5.07
   9   5 -17   35.80    3.06
   9   5 -16   47.51    5.87
   9   5 -15    1.09    0.84
   9   5 -14   56.68    3.31
   9   5 -13   77.93    3.78
   9   5 -12   73.83    5.56
   9   5 -11  159.40    7.67
   9   5 -10   85.94    3.10
   9   5  -9  107.28    1.84
   9   5  -8  275.37    7.71
   9   5  -7   11.90    1.75
   9   5  -6   32.82    3.08
   9   5  -5   85.75    2.63
   9   5  -4  121.19    3.38
   9   5  -3  459.75    8.58
   9   5  -2  166.36    7.48
   9   5  -1   23.46    1.90
   9   5   0  145.59    5.19
   9   5   1   11.02    1.22
   9   5   2  266.24    3.42
   9   5   3   11.02    1.11
   9   5   4  125.70    2.28
   9   5   5  264.05   34.29
   9   5   6  121.93    3.62
   9   5   7   16.93    2.01
   9   5   8   12.17    1.18
   9   5   9    6.29    0.79
   9   5  10  194.96    5.14
   9   5  11  102.48    3.57
   9   5  12    0.66    0.48
   9   5  13   38.05    4.10
   9   5  14   51.64    4.97
   9   5  15    0.58    1.14
   9   5  16   82.51    5.53
   9   5  17    0.64    2.36
   9   5  18   18.23    2.99
   9   5  19   17.67    3.39
   9   5  20   38.02    8.67
   9   5  21    6.12    1.99
   9   5  22    1.81    1.45
   9   5  23   -0.64    1.27
   9   5  24    5.48    1.49
   9   5  25    2.65    1.06
   9   5  26    1.54    1.23
   9   6 -26    1.37    0.87
   9   6 -25    0.86    1.24
   9   6 -24    8.38    2.90
   9   6 -23    6.10    1.45
   9   6 -22    2.26    1.25
   9   6 -21   18.79    3.34
   9   6 -20    1.65    0.94
   9   6 -19    3.04    0.94
   9   6 -18    6.19    1.96
   9   6 -17    8.67    1.66
   9   6 -16    0.60    1.50
   9   6 -15  322.97   20.69
   9   6 -14    1.85    0.71
   9   6 -13    6.27    1.33
   9   6 -12    7.02    1.58
   9   6 -11  453.80   13.76
   9   6 -10    2.00    0.64
   9   6  -9  246.68    6.69
   9   6  -8    3.62    0.62
   9   6  -7  238.88    4.62
   9   6  -6   90.76    3.40
   9   6  -5  483.68   14.15
   9   6  -4  182.72    6.35
   9   6  -3  180.66    6.18
   9   6  -2    5.83    1.55
   9   6  -1  612.76   19.17
   9   6   0   39.55    3.80
   9   6   1   51.92    4.03
   9   6   2  161.33    6.10
   9   6   3  305.06    7.38
   9   6   4    1.83    0.71
   9   6   5  196.40    2.38
   9   6   6    4.02    0.98
   9   6   7   53.28    2.51
   9   6   8  189.32    3.32
   9   6   9   88.78    7.31
   9   6  10    6.65    0.97
   9   6  11    1.99    0.73
   9   6  12    0.84    0.49
   9   6  13   76.18    5.87
   9   6  14  118.73    8.31
   9   6  15   25.34    3.04
   9   6  16    8.06    2.92
   9   6  17   48.38    5.37
   9   6  18    2.81    1.46
   9   6  19    1.96    2.80
   9   6  20    9.42    2.64
   9   6  21   16.77    5.33
   9   6  22    9.75    2.48
   9   6  23    4.06    1.77
   9   6  24    5.87    2.90
   9   6  25    1.34    1.50
   9   7 -26    1.62    1.08
   9   7 -25   -0.67    1.28
   9   7 -24    3.23    3.23
   9   7 -23    1.04    1.29
   9   7 -22    0.62    0.67
   9   7 -21    3.54    0.93
   9   7 -20    2.26    0.90
   9   7 -19    3.24    0.85
   9   7 -18    5.03    1.40
   9   7 -17   15.67    2.05
   9   7 -16   10.10    1.68
   9   7 -15    1.53    1.44
   9   7 -14   42.78    5.02
   9   7 -13    5.70    1.26
   9   7 -12   71.33    3.09
   9   7 -11   14.09    2.58
   9   7 -10   18.50    1.61
   9   7  -9   17.28    1.62
   9   7  -8  111.92    4.27
   9   7  -7    1.61    1.06
   9   7  -6   49.98    1.98
   9   7  -5  360.01    5.63
   9   7  -4   32.31    2.59
   9   7  -3    1.69    0.85
   9   7  -2  296.58    7.86
   9   7  -1    1.69    0.63
   9   7   0   80.51    4.29
   9   7   1  603.82   12.94
   9   7   2  269.82    6.57
   9   7   3    3.19    1.47
   9   7   4    1.46    0.80
   9   7   5    9.81    1.24
   9   7   6  250.30    4.55
   9   7   7  136.33    6.10
   9   7   8    0.25    0.43
   9   7   9   34.81    2.65
   9   7  10   25.35    2.11
   9   7  11    1.11    0.73
   9   7  12   55.43    2.93
   9   7  13   17.93    4.59
   9   7  14   17.88    2.72
   9   7  15   14.83    2.57
   9   7  16    1.22    0.91
   9   7  17   11.24    2.18
   9   7  18    2.04    3.15
   9   7  19    3.10    1.51
   9   7  20    3.94    1.07
   9   7  21    1.53    2.88
   9   7  22    2.78    1.30
   9   7  23   11.38    2.54
   9   7  24    7.48    2.00
   9   7  25    2.38    1.66
   9   8 -26    1.96    1.41
   9   8 -25    1.87    1.74
   9   8 -24    0.74    1.15
   9   8 -23    2.50    1.77
   9   8 -22    3.03    1.24
   9   8 -21    1.46    1.39
   9   8 -20   13.58    2.79
   9   8 -19    9.40    1.75
   9   8 -18    3.48    1.12
   9   8 -17    1.68    1.09
   9   8 -16    3.25    1.14
   9   8 -15    4.44    1.26
   9   8 -14   30.53    4.39
   9   8 -13    5.01    0.87
   9   8 -12    6.13    1.29
   9   8 -11   25.61    2.40
   9   8 -10    1.82    0.97
   9   8  -9    4.31    0.95
   9   8  -8   21.83    2.20
   9   8  -7  120.58    3.57
   9   8  -6  337.68    3.34
   9   8  -5   39.87    2.90
   9   8  -4    6.72    1.27
   9   8  -3   24.89    2.34
   9   8  -2    8.72    1.10
   9   8  -1  342.21    3.84
   9   8   0  320.86    6.15
   9   8   1   17.44    1.71
   9   8   2  276.69   19.24
   9   8   3  194.37    6.24
   9   8   4   41.40    4.13
   9   8   5  113.26    6.26
   9   8   6    7.90    2.15
   9   8   7   23.47    3.21
   9   8   8  268.13    7.78
   9   8   9   74.35    2.94
   9   8  10   13.88    2.09
   9   8  11    1.00    0.88
   9   8  12   12.14    1.71
   9   8  13   16.74    2.36
   9   8  14   12.69    2.05
   9   8  15    2.03    0.74
   9   8  16   12.78    2.13
   9   8  17   13.06    2.54
   9   8  18    5.96    1.95
   9   8  19    2.32    1.22
   9   8  20    3.15    1.52
   9   8  21    1.05    1.32
   9   8  22    2.48    1.00
   9   8  23    1.98    1.20
   9   8  24   -0.29    1.41
   9   9 -24    1.81    1.51
   9   9 -23    1.89    1.10
   9   9 -22    0.44    0.82
   9   9 -21    8.94    1.43
   9   9 -20    4.48    1.25
   9   9 -19    3.38    0.85
   9   9 -18    2.51    1.27
   9   9 -17    4.34    1.18
   9   9 -16    2.30    1.14
   9   9 -15   24.20    4.07
   9   9 -14    1.40    1.00
   9   9 -13   51.25    3.46
   9   9 -12    3.36    1.07
   9   9 -11    4.04    1.24
   9   9 -10    9.48    1.47
   9   9  -9    1.16    0.64
   9   9  -8    2.03    0.80
   9   9  -7   83.98    5.37
   9   9  -6    2.05    0.99
   9   9  -5   61.56    6.95
   9   9  -4   12.58    1.83
   9   9  -3    1.79    1.20
   9   9  -2    0.79    0.82
   9   9  -1   31.84    3.13
   9   9   0   48.77    3.96
   9   9   1   74.08    4.66
   9   9   2    2.61    0.87
   9   9   3   11.76    2.17
   9   9   4   24.88    2.86
   9   9   5   12.27    1.54
   9   9   6   24.05    2.24
   9   9   7   20.41    2.71
   9   9   8    1.46    0.81
   9   9   9   66.72    3.57
   9   9  10   77.23    4.90
   9   9  11    1.26    0.59
   9   9  12    2.80    0.79
   9   9  13    4.79    0.86
   9   9  14    0.62    0.97
   9   9  15   37.77   14.31
   9   9  16   13.10    3.36
   9   9  17    1.33    1.63
   9   9  18    5.18    3.09
   9   9  19    4.25    1.22
   9   9  20    1.33    1.70
   9   9  21    3.66    1.84
   9   9  22    2.01    1.86
   9   9  23   -0.45    1.49
   9  10 -22    3.94    1.75
   9  10 -21    1.45    0.88
   9  10 -20   11.29    2.06
   9  10 -19    1.74    1.05
   9  10 -18    1.14    1.00
   9  10 -17    2.19    0.94
   9  10 -16    2.88    1.12
   9  10 -15    3.09    0.88
   9  10 -14   33.63    5.85
   9  10 -13    3.14    1.31
   9  10 -12   32.53    5.02
   9  10 -11    6.01    1.62
   9  10 -10    5.49    1.24
   9  10  -9    4.44    1.33
   9  10  -8    7.61    1.28
   9  10  -7    2.61    0.93
   9  10  -6   75.62    9.22
   9  10  -5   21.17    2.87
   9  10  -4    1.93    1.51
   9  10  -3    5.60    0.99
   9  10  -2   11.93    1.65
   9  10  -1    3.73    0.94
   9  10   0  128.49    7.36
   9  10   1    2.98    1.18
   9  10   2   10.87    2.08
   9  10   3    1.49    0.77
   9  10   4   13.59    1.96
   9  10   5    3.46    1.48
   9  10   6    3.33    0.96
   9  10   7   10.57    1.87
   9  10   8   57.25    5.77
   9  10   9    2.67    0.86
   9  10  10    3.22    0.83
   9  10  11    1.53    0.78
   9  10  12    9.26    2.26
   9  10  13    5.37    1.03
   9  10  14   16.67    5.10
   9  10  15    3.76    1.01
   9  10  16    5.12    2.18
   9  10  17    0.89    1.48
   9  10  18   -0.54    1.31
   9  10  19    0.91    1.50
   9  10  20    2.23    1.74
   9  10  21    2.91    2.09
   9  11 -21    3.76    2.41
   9  11 -20    0.28    1.23
   9  11 -19    4.03    1.36
   9  11 -18    1.02    0.69
   9  11 -17    6.40    1.47
   9  11 -16    0.87    1.10
   9  11 -15    4.92    2.16
   9  11 -14    2.11    1.01
   9  11 -13   74.14   12.98
   9  11 -12    3.12    2.45
   9  11 -11    3.99    1.11
   9  11 -10    1.50    1.08
   9  11  -9    9.17    1.87
   9  11  -8    8.01    2.00
   9  11  -7   70.46    5.39
   9  11  -6    3.56    2.07
   9  11  -5   66.06    5.08
   9  11  -4    1.57    1.06
   9  11  -3   35.05    3.51
   9  11  -2    4.04    1.31
   9  11  -1    4.14    0.97
   9  11   0    3.91    0.94
   9  11   1  140.91    6.78
   9  11   2    8.14    1.60
   9  11   3    2.33    0.99
   9  11   4    1.24    0.92
   9  11   5    9.85    2.34
   9  11   6    3.13    1.33
   9  11   7   24.03    4.90
   9  11   8    0.52    0.98
   9  11   9   27.18    3.69
   9  11  10    2.36    0.93
   9  11  11    0.86    1.04
   9  11  12    4.76    1.85
   9  11  13    1.68    1.15
   9  11  14    2.02    1.56
   9  11  15   16.87    4.55
   9  11  16    2.40    1.00
   9  11  17    1.21    1.23
   9  11  18   -1.10    1.81
   9  11  19    1.05    1.18
   9  12 -19   -0.36    1.19
   9  12 -18    2.23    1.16
   9  12 -17    2.51    1.17
   9  12 -16    2.06    1.64
   9  12 -15    3.12    0.93
   9  12 -14   15.58    2.55
   9  12 -13    3.49    1.14
   9  12 -12    3.81    0.96
   9  12 -11    3.35    1.28
   9  12 -10    2.48    0.99
   9  12  -9    2.93    1.63
   9  12  -8   -1.64    1.32
   9  12  -7   26.51    4.84
   9  12  -6   15.81    2.29
   9  12  -5    1.31    1.04
   9  12  -4    1.25    1.26
   9  12  -3    3.21    1.09
   9  12  -2   -0.51    1.13
   9  12  -1    5.41    2.00
   9  12   0   44.90    8.75
   9  12   1    5.02    1.39
   9  12   2   17.64    2.63
   9  12   3    3.78    1.15
   9  12   4    1.81    1.21
   9  12   5    3.03    0.80
   9  12   6    7.65    1.50
   9  12   7    7.37    1.79
   9  12   8   25.39    3.98
   9  12   9    2.55    0.60
   9  12  10    5.63    1.10
   9  12  11    2.86    0.80
   9  12  12   -1.77    1.24
   9  12  13    3.69    1.62
   9  12  14   11.89    2.12
   9  12  15    5.73    1.80
   9  12  16    2.42    1.66
   9  12  17    2.59    1.54
   9  13 -17    0.07    1.39
   9  13 -16    2.97    1.84
   9  13 -15    2.25    1.72
   9  13 -14    0.03    0.92
   9  13 -13   10.58    1.98
   9  13 -12    7.09    1.72
   9  13 -11    1.22    0.94
   9  13 -10    2.09    0.89
   9  13  -9    3.72    1.18
   9  13  -8    2.64    2.10
   9  13  -7   38.15    7.67
   9  13  -6    2.09    1.29
   9  13  -5    8.08    1.34
   9  13  -4    0.91    1.03
   9  13  -3    3.47    1.17
   9  13  -2    2.33    0.93
   9  13  -1   13.38    1.62
   9  13   0    2.44    0.94
   9  13   1   23.03    2.96
   9  13   2    0.52    1.77
   9  13   3    2.02    1.61
   9  13   4    5.45    1.63
   9  13   5    1.74    1.08
   9  13   6   10.32    3.01
   9  13   7   18.78    4.12
   9  13   8    3.00    0.81
   9  13   9   15.76    3.42
   9  13  10    9.45    3.22
   9  13  11    2.95    0.86
   9  13  12    1.04    3.21
   9  13  13    3.17    1.39
   9  13  14    4.17    2.06
   9  13  15   40.95   10.82
   9  14 -12    6.83    2.53
   9  14 -11    4.95    3.09
   9  14 -10   -2.56    2.08
   9  14  -9    1.48    0.78
   9  14  -8    1.18    0.60
   9  14  -7    2.79    1.29
   9  14  -6    2.51    1.17
   9  14  -5    0.94    1.29
   9  14  -4    2.09    1.72
   9  14  -3    0.09    1.25
   9  14  -2    1.21    1.04
   9  14  -1   12.17    1.96
   9  14   0    4.86    1.57
   9  14   1    2.13    0.82
   9  14   2    6.62    1.13
   9  14   3    2.99    0.86
   9  14   4    1.56    1.03
   9  14   5    2.87    1.15
   9  14   6    0.97    1.04
   9  14   7    4.62    1.12
   9  14   8    7.13    2.05
   9  15  -3    1.67    1.32
   9  15  -2    2.23    1.39
   9  15  -1    1.76    1.19
   9  15   0    6.31    1.98
   9  15   1    2.86    1.18
   9  15   2    1.75    1.66
   9  15   3    1.50    0.84
   9  15   4    2.99    1.18
   9  15   5    2.76    1.07
   9  15   6    4.91    2.24
  10   0 -26    1.28    1.08
  10   0 -24    3.93    1.81
  10   0 -22    1.64    1.70
  10   0 -20   -0.87    2.10
  10   0 -18   18.91    3.99
  10   0 -16  253.90    5.89
  10   0 -14   47.44   10.55
  10   0 -12    0.94    0.34
  10   0 -10  551.28   12.80
  10   0  -8   75.37    1.99
  10   0  -6    5.54    0.91
  10   0  -4  174.12    4.07
  10   0  -2  160.82    5.13
  10   0   0    3.46    0.98
  10   0   2   28.32    3.60
  10   0   4  315.24    5.17
  10   0   6    0.79    0.55
  10   0   8  267.66   13.16
  10   0  10   52.99    3.84
  10   0  12   24.07    4.61
  10   0  14   27.05    2.84
  10   0  16   15.36    5.52
  10   0  18   73.94    6.34
  10   0  20    0.63    1.16
  10   0  22   11.33    4.56
  10   0  24    3.87    2.18
  10   0  26    4.27    2.42
  10   1 -26    1.74    1.13
  10   1 -25    2.41    0.78
  10   1 -24   -0.38    2.89
  10   1 -23   17.25    3.92
  10   1 -22    3.28    1.91
  10   1 -21    2.48    3.38
  10   1 -20    1.47    1.05
  10   1 -19    2.16    2.01
  10   1 -18    1.07    1.77
  10   1 -17  220.97    9.38
  10   1 -16    6.37    1.55
  10   1 -15    3.04    1.01
  10   1 -14    1.34    0.38
  10   1 -13   79.88    5.47
  10   1 -12    2.95    0.58
  10   1 -11  507.67   15.25
  10   1 -10    2.64    0.51
  10   1  -9    1.56    0.75
  10   1  -8   33.33    1.27
  10   1  -7    4.01    0.89
  10   1  -6   40.15    2.46
  10   1  -5  127.18    3.36
  10   1  -4  308.84    5.69
  10   1  -3  929.23   10.32
  10   1  -2    2.92    0.65
  10   1  -1   53.92    3.24
  10   1   0   26.93    1.55
  10   1   1  322.28    9.05
  10   1   2  126.76    7.28
  10   1   3  385.98    8.44
  10   1   4   30.89    2.19
  10   1   5  315.44    4.83
  10   1   6    5.86    1.09
  10   1   7  490.70   14.26
  10   1   8   11.00    1.23
  10   1   9    1.44    0.38
  10   1  10    2.13    0.59
  10   1  11  143.05    4.28
  10   1  12    0.24    0.26
  10   1  13   12.08    2.32
  10   1  14    9.31    2.81
  10   1  15  166.76    7.64
  10   1  16    1.76    2.58
  10   1  17    5.18    2.07
  10   1  18    1.12    2.03
  10   1  19   79.83    9.75
  10   1  20    4.17    1.39
  10   1  21    4.67    1.71
  10   1  22    3.64    1.00
  10   1  23    4.25    1.63
  10   1  24    4.99    1.41
  10   1  25   13.17    2.96
  10   1  26    1.32    0.94
  10   1  27    4.12    1.38
  10   2 -26    1.27    0.82
  10   2 -25    2.06    0.96
  10   2 -24   10.35    3.77
  10   2 -23    3.59    0.96
  10   2 -22   14.80    3.16
  10   2 -21    0.59    1.19
  10   2 -20    5.65    1.46
  10   2 -19    7.49    1.95
  10   2 -18   51.16    7.37
  10   2 -17   -0.34    1.10
  10   2 -16   63.34    4.43
  10   2 -15   11.81    2.31
  10   2 -14    2.57    0.58
  10   2 -13   15.07    1.63
  10   2 -12   63.70    5.90
  10   2 -11    1.07    0.68
  10   2 -10  146.89    4.30
  10   2  -9   70.05    2.95
  10   2  -8   84.91    2.23
  10   2  -7    8.56    0.79
  10   2  -6    3.93    0.94
  10   2  -5  536.89   15.80
  10   2  -4   47.31    2.77
  10   2  -3    4.17    0.65
  10   2  -2  969.00   14.84
  10   2  -1    9.91    1.52
  10   2   0    5.66    0.91
  10   2   1   19.76    1.40
  10   2   2    0.47    0.66
  10   2   3  471.71    7.73
  10   2   4  576.40   48.41
  10   2   5   29.72    2.97
  10   2   6   10.47    1.00
  10   2   7   83.28    2.61
  10   2   8   71.08    3.18
  10   2   9  177.46    6.90
  10   2  10   81.97    2.70
  10   2  11    0.96    0.34
  10   2  12  173.66    2.10
  10   2  13  113.91    9.36
  10   2  14    2.90    0.64
  10   2  15    0.30    0.79
  10   2  16    3.55    1.42
  10   2  17   15.31    2.50
  10   2  18   35.00    4.68
  10   2  19    3.33    1.17
  10   2  20    4.65    1.77
  10   2  21   28.71    9.04
  10   2  22    1.53    1.90
  10   2  23    2.80    0.98
  10   2  24    2.67    1.29
  10   2  25    1.21    0.90
  10   2  26    5.41    2.73
  10   2  27    5.43    2.11
  10   3 -26    5.29    3.92
  10   3 -25    3.11    1.24
  10   3 -24    2.23    0.66
  10   3 -23    6.31    2.13
  10   3 -22    2.63    0.58
  10   3 -21    2.28    1.07
  10   3 -20   12.96    2.66
  10   3 -19    1.01    1.17
  10   3 -18   40.61    2.95
  10   3 -17   68.23    2.93
  10   3 -16    5.10    1.23
  10   3 -15   36.95    2.65
  10   3 -14   14.35    2.23
  10   3 -13    1.38    0.87
  10   3 -12   50.89    4.04
  10   3 -11   42.41    4.55
  10   3 -10   24.04    2.60
  10   3  -9  123.28    2.89
  10   3  -8  283.62    7.54
  10   3  -7    1.50    0.37
  10   3  -6   44.67    2.70
  10   3  -5    2.40    0.64
  10   3  -4    7.09    1.67
  10   3  -3  440.99    7.07
  10   3  -2   48.61    2.92
  10   3  -1   65.61    7.67
  10   3   0   59.58    3.49
  10   3   1    1.34    0.99
  10   3   2   93.04    2.55
  10   3   3  111.79    4.00
  10   3   4    0.85    0.65
  10   3   5   32.47    2.36
  10   3   6  160.88    3.45
  10   3   7    4.49    0.70
  10   3   8   14.59    1.19
  10   3   9  113.59    2.06
  10   3  10  133.15    4.20
  10   3  11  251.86    2.50
  10   3  12   55.42    2.67
  10   3  13    5.88    1.02
  10   3  14   20.41    2.20
  10   3  15   36.05    5.66
  10   3  16    9.50    1.54
  10   3  17   78.89    4.45
  10   3  18    7.81    2.20
  10   3  19    6.90    1.82
  10   3  20   18.18    3.48
  10   3  21    5.62    1.79
  10   3  22    2.04    1.12
  10   3  23    2.04    1.16
  10   3  24    3.53    0.89
  10   3  25    2.91    1.37
  10   3  26    1.50    0.72
  10   3  27   -0.11    1.69
  10   4 -26   10.97    2.16
  10   4 -25   -1.02    1.67
  10   4 -24    0.98    1.42
  10   4 -23    2.63    1.44
  10   4 -22    2.23    1.03
  10   4 -21    1.84    2.36
  10   4 -20   23.34    3.41
  10   4 -19   11.23    1.94
  10   4 -18    1.27    1.32
  10   4 -17   11.29    1.83
  10   4 -16   19.00    2.03
  10   4 -15    2.63    1.33
  10   4 -14   54.63    3.17
  10   4 -13   13.17    3.61
  10   4 -12   60.56    4.38
  10   4 -11   38.31    4.84
  10   4 -10   29.20    2.78
  10   4  -9   63.81    2.83
  10   4  -8  204.77    4.25
  10   4  -7    1.54    0.52
  10   4  -6    0.50    0.29
  10   4  -5  113.90    2.68
  10   4  -4    7.50    0.93
  10   4  -3    4.42    1.14
  10   4  -2  177.28    3.43
  10   4  -1  381.08    6.55
  10   4   0   25.79    1.81
  10   4   1    4.27    0.93
  10   4   2   12.96    1.24
  10   4   3   62.70    2.58
  10   4   4  209.27    4.88
  10   4   5  346.31    6.94
  10   4   6    2.15    0.85
  10   4   7   14.74    1.57
  10   4   8    1.43    0.53
  10   4   9   38.59    2.14
  10   4  10   61.97    2.72
  10   4  11    9.58    1.00
  10   4  12   13.73    2.00
  10   4  13   42.23    3.32
  10   4  14   23.65    3.93
  10   4  15    0.08    0.95
  10   4  16   10.06    2.36
  10   4  17   42.20    6.18
  10   4  18    6.12    1.71
  10   4  19    5.11    1.65
  10   4  20    1.81    1.29
  10   4  21   10.05    3.43
  10   4  22   -1.84    2.20
  10   4  23   21.80    7.03
  10   4  24    2.55    1.29
  10   4  25    2.10    1.03
  10   4  26    1.57    1.56
  10   5 -26    1.24    0.99
  10   5 -25    4.85    1.69
  10   5 -24   -0.13    1.27
  10   5 -23    1.70    1.59
  10   5 -22   12.05    3.86
  10   5 -21    0.29    1.33
  10   5 -20   14.34    1.96
  10   5 -19    3.98    1.52
  10   5 -18    0.99    0.88
  10   5 -17   15.66    2.17
  10   5 -16   14.38    2.01
  10   5 -15   11.44    1.19
  10   5 -14    3.79    1.10
  10   5 -13   23.78    2.41
  10   5 -12  184.16    8.73
  10   5 -11    7.83    1.63
  10   5 -10   14.02    1.68
  10   5  -9   70.18    2.44
  10   5  -8   94.32    1.96
  10   5  -7   95.57    2.04
  10   5  -6   23.72    1.83
  10   5  -5   30.47    2.34
  10   5  -4  254.72    6.16
  10   5  -3   41.86    3.11
  10   5  -2   60.14    3.82
  10   5  -1  375.27    8.02
  10   5   0   27.30    2.44
  10   5   1  165.98    5.24
  10   5   2   25.95    2.37
  10   5   3    9.32    1.38
  10   5   4    0.24    1.26
  10   5   5   40.77    3.23
  10   5   6  143.62    3.27
  10   5   7  182.59    4.05
  10   5   8    1.71    0.73
  10   5   9    2.36    0.68
  10   5  10   76.09    2.13
  10   5  11   10.38    1.33
  10   5  12    1.58    0.61
  10   5  13  109.18    7.16
  10   5  14   80.53    2.83
  10   5  15    1.80    0.84
  10   5  16   23.03    5.13
  10   5  17    3.15    1.70
  10   5  18    2.65    0.80
  10   5  19   13.76    2.20
  10   5  20   26.98    5.40
  10   5  21    3.45    1.46
  10   5  22    1.21    1.38
  10   5  23    0.55    1.46
  10   5  24    2.24    1.19
  10   5  25    1.43    1.14
  10   5  26    4.57    1.71
  10   6 -26    0.55    0.84
  10   6 -25    1.07    0.94
  10   6 -24    2.84    1.20
  10   6 -23   11.17    1.87
  10   6 -22    3.80    1.46
  10   6 -21    0.98    0.88
  10   6 -20    4.13    1.93
  10   6 -19   12.81    2.15
  10   6 -18    5.91    1.50
  10   6 -17    6.41    1.21
  10   6 -16    7.12    1.50
  10   6 -15  100.79    6.45
  10   6 -14    3.72    1.42
  10   6 -13    3.34    1.16
  10   6 -12   19.95    4.63
  10   6 -11   96.52    5.33
  10   6 -10    0.29    0.42
  10   6  -9  197.18    3.99
  10   6  -8   11.29    2.08
  10   6  -7   20.80    2.31
  10   6  -6  117.89    2.81
  10   6  -5  330.82   12.28
  10   6  -4   76.44    3.20
  10   6  -3    2.43    1.55
  10   6  -2   22.10    2.07
  10   6  -1  234.44    8.91
  10   6   0  113.45    5.74
  10   6   1   12.00    1.47
  10   6   2  234.46    6.19
  10   6   3  259.57    7.01
  10   6   4  237.85    6.02
  10   6   5   90.49    4.58
  10   6   6    3.55    1.15
  10   6   7   90.25    5.17
  10   6   8   33.55    2.74
  10   6   9  235.35    4.89
  10   6  10   91.48    4.94
  10   6  11    0.89    0.61
  10   6  12   36.23    4.25
  10   6  13  141.93    4.22
  10   6  14   12.60    2.12
  10   6  15    3.73    1.07
  10   6  16    7.52    1.61
  10   6  17    8.78    4.07
  10   6  18   15.72    3.33
  10   6  19    7.36    1.95
  10   6  20    5.29    1.57
  10   6  21   11.32    2.66
  10   6  22    5.09    1.42
  10   6  23    1.58    0.93
  10   6  24    1.35    1.65
  10   6  25    2.44    1.32
  10   7 -26    1.63    1.07
  10   7 -25    1.75    1.03
  10   7 -24    0.53    0.92
  10   7 -23    1.38    0.75
  10   7 -22    1.74    1.60
  10   7 -21    3.72    1.42
  10   7 -20    2.32    0.97
  10   7 -19    1.99    0.92
  10   7 -18    3.80    0.87
  10   7 -17   26.43    5.11
  10   7 -16    1.18    0.92
  10   7 -15    6.79    1.45
  10   7 -14   -2.39    3.31
  10   7 -13    5.64    3.28
  10   7 -12    1.14    1.46
  10   7 -11   17.81    2.02
  10   7 -10    1.00    0.81
  10   7  -9   54.33    2.80
  10   7  -8  146.83    6.14
  10   7  -7    6.27    1.11
  10   7  -6   13.65    1.71
  10   7  -5  114.18    3.37
  10   7  -4  113.57    5.82
  10   7  -3  123.74    3.22
  10   7  -2  327.96    3.30
  10   7  -1   11.49    1.30
  10   7   0    4.94    1.10
  10   7   1  566.63    5.35
  10   7   2  222.57    9.14
  10   7   3    1.52    0.66
  10   7   4   36.54    2.76
  10   7   5   48.09    6.85
  10   7   6  309.91    3.94
  10   7   7  449.74    7.66
  10   7   8   41.65    3.30
  10   7   9   13.87    1.88
  10   7  10   98.40    5.93
  10   7  11    2.70    0.96
  10   7  12  109.67    8.12
  10   7  13   44.16    4.32
  10   7  14   15.24    2.96
  10   7  15   24.59    3.52
  10   7  16   12.37    2.00
  10   7  17    1.13    1.10
  10   7  18   -0.34    1.08
  10   7  19    2.01    1.60
  10   7  20    6.05    1.85
  10   7  21    1.54    1.01
  10   7  22    2.96    1.07
  10   7  23    2.56    1.07
  10   7  24    4.47    1.44
  10   8 -25    3.20    1.55
  10   8 -24    0.75    1.12
  10   8 -23    3.62    2.41
  10   8 -22    1.88    1.55
  10   8 -21    1.72    0.85
  10   8 -20    3.98    1.19
  10   8 -19    6.53    1.45
  10   8 -18    0.67    1.91
  10   8 -17    2.90    1.25
  10   8 -16    2.05    1.49
  10   8 -15    2.85    1.27
  10   8 -14   16.39    2.36
  10   8 -13   -1.18    1.29
  10   8 -12   -0.72    1.35
  10   8 -11   13.58    2.60
  10   8 -10   14.14    2.36
  10   8  -9    6.80    1.70
  10   8  -8   11.43    1.48
  10   8  -7    1.77    0.56
  10   8  -6    4.32    1.25
  10   8  -5  131.44    4.28
  10   8  -4   13.08    1.82
  10   8  -3    2.08    0.53
  10   8  -2   57.54    3.32
  10   8  -1  125.24    3.90
  10   8   0  241.34   10.90
  10   8   1   61.85    5.12
  10   8   2    8.16    1.73
  10   8   3    9.27    1.34
  10   8   4   45.65    3.43
  10   8   5   68.10    4.15
  10   8   6   67.29    4.24
  10   8   7    2.48    0.71
  10   8   8  151.83    7.83
  10   8   9   72.97    3.94
  10   8  10    1.93    0.87
  10   8  11    8.34    1.42
  10   8  12    9.34    1.61
  10   8  13    2.45    1.08
  10   8  14   53.24   10.06
  10   8  15    7.43    1.23
  10   8  16    7.75    1.96
  10   8  17    3.80    1.85
  10   8  18   11.95    6.11
  10   8  19    1.29    1.47
  10   8  20    0.23    0.76
  10   8  21    0.99    0.79
  10   8  22   -1.13    1.68
  10   8  23    3.65    1.74
  10   9 -23    1.69    1.52
  10   9 -21    5.27    1.41
  10   9 -20    2.35    1.02
  10   9 -19    2.22    2.07
  10   9 -18    2.59    0.90
  10   9 -17    6.51    1.71
  10   9 -16    2.69    1.15
  10   9 -15    4.68    1.05
  10   9 -14    2.23    1.97
  10   9 -13   32.94    3.78
  10   9 -12    5.82    1.65
  10   9 -11    3.21    1.20
  10   9 -10    7.49    2.05
  10   9  -9    3.36    1.09
  10   9  -8    3.56    2.89
  10   9  -7   53.16    3.43
  10   9  -6    1.59    0.84
  10   9  -5    7.87    1.58
  10   9  -4   37.80    3.67
  10   9  -3    0.64    1.31
  10   9  -2    7.69    2.60
  10   9  -1    4.56    1.59
  10   9   0    4.18    2.01
  10   9   1  133.74    7.24
  10   9   2    3.00    0.95
  10   9   3   16.41    1.84
  10   9   4   -0.60    0.95
  10   9   5    4.66    1.55
  10   9   6   20.53    2.17
  10   9   7   51.80    4.26
  10   9   8    2.34    0.73
  10   9   9   45.20    2.89
  10   9  10   11.87    1.47
  10   9  11    9.62    2.12
  10   9  12    1.25    0.97
  10   9  13    8.11    1.55
  10   9  14    6.38    1.52
  10   9  15   52.80    9.32
  10   9  16   14.56    3.75
  10   9  17    2.13    1.58
  10   9  18    1.20    1.84
  10   9  19    1.87    0.97
  10   9  20    2.40    1.31
  10   9  21    4.21    1.42
  10  10 -21    2.27    0.75
  10  10 -20    6.73    1.66
  10  10 -19    1.54    0.77
  10  10 -18    1.79    0.97
  10  10 -17    2.95    2.55
  10  10 -16    2.29    1.06
  10  10 -15    2.64    0.78
  10  10 -14   33.11    5.50
  10  10 -13    1.46    2.28
  10  10 -12    1.69    1.22
  10  10 -11    1.72    1.18
  10  10 -10    3.30    1.40
  10  10  -9   15.61    2.11
  10  10  -8   13.12    2.91
  10  10  -7    4.50    0.97
  10  10  -6   83.30    3.55
  10  10  -5    1.88    0.93
  10  10  -4    1.13    1.86
  10  10  -3    0.91    0.92
  10  10  -2    4.39    1.12
  10  10  -1    1.57    1.53
  10  10   0   72.69    5.90
  10  10   1    4.85    1.24
  10  10   2   14.61    1.85
  10  10   3    2.57    1.49
  10  10   4    9.72    1.32
  10  10   5    0.95    0.83
  10  10   6   17.76    2.08
  10  10   7   34.08    3.50
  10  10   8   64.64    4.28
  10  10   9    3.68    0.87
  10  10  10    1.05    0.65
  10  10  11   -1.58    1.45
  10  10  12    6.72    1.63
  10  10  13   10.54    1.83
  10  10  14   21.89    4.41
  10  10  15    0.28    1.04
  10  10  16   13.04    3.34
  10  10  17    4.69    1.38
  10  10  18    2.50    1.07
  10  10  19    3.20    1.44
  10  10  20    3.25    2.36
  10  11 -20    2.20    0.98
  10  11 -19    1.44    1.15
  10  11 -18    0.92    1.35
  10  11 -17    1.98    1.82
  10  11 -16    3.97    1.32
  10  11 -15    7.95    1.59
  10  11 -14    3.39    0.83
  10  11 -13   15.57    2.21
  10  11 -12    2.49    0.74
  10  11 -11    3.27    1.14
  10  11 -10    2.95    0.98
  10  11  -9    2.19    1.29
  10  11  -8    2.37    2.33
  10  11  -7   56.47   10.55
  10  11  -6    1.93    0.66
  10  11  -5   22.60    3.46
  10  11  -4    3.01    1.40
  10  11  -3   33.78    4.12
  10  11  -2    2.58    1.18
  10  11  -1   14.44    1.98
  10  11   0    5.34    0.96
  10  11   1  100.40    7.01
  10  11   2    2.47    1.52
  10  11   3    3.62    1.51
  10  11   4    0.99    1.04
  10  11   5   -0.23    0.67
  10  11   6    2.25    0.72
  10  11   7   17.77    2.52
  10  11   8    3.88    0.94
  10  11   9    9.01    1.22
  10  11  10    1.26    0.97
  10  11  11    3.42    1.42
  10  11  12    0.81    1.17
  10  11  13    2.81    1.74
  10  11  14    2.32    1.95
  10  11  15   17.97    2.97
  10  11  16    2.26    1.04
  10  11  17   -0.21    1.81
  10  11  18    1.04    1.49
  10  12 -19    1.94    0.87
  10  12 -18   -0.84    1.80
  10  12 -17    2.47    0.74
  10  12 -16    0.53    1.43
  10  12 -15    1.42    1.04
  10  12 -14   11.06    3.77
  10  12 -13    0.91    0.98
  10  12 -12    3.61    2.02
  10  12 -11    3.14    1.13
  10  12 -10    4.92    1.45
  10  12  -9    3.45    0.82
  10  12  -8   10.20    2.56
  10  12  -7    0.37    1.19
  10  12  -6   37.70    5.02
  10  12  -5    1.95    1.24
  10  12  -4    1.50    1.39
  10  12  -3    1.29    0.88
  10  12  -2    2.06    1.19
  10  12  -1    6.08    1.12
  10  12   0   41.75    6.60
  10  12   1    3.61    1.07
  10  12   2    3.10    0.86
  10  12   3   13.24    1.95
  10  12   4    1.45    0.97
  10  12   5    2.96    0.82
  10  12   6    8.67    1.63
  10  12   7    5.21    1.16
  10  12   8   16.43    3.59
  10  12   9    6.06    1.39
  10  12  10    4.14    0.87
  10  12  11    1.98    1.70
  10  12  12    2.98    1.15
  10  12  13    2.07    0.83
  10  12  14    5.64    1.45
  10  12  15    0.42    1.30
  10  12  16    6.00    2.24
  10  13 -16    2.37    1.76
  10  13 -15    1.89    1.48
  10  13 -14    3.25    1.03
  10  13 -13    6.18    1.71
  10  13 -12    4.79    1.21
  10  13 -11    1.69    1.13
  10  13 -10    1.76    0.88
  10  13  -9    0.38    0.99
  10  13  -8    2.25    0.94
  10  13  -7   30.97    5.69
  10  13  -6    1.25    1.12
  10  13  -5    5.10    4.26
  10  13  -4    5.73    1.13
  10  13  -3    2.29    1.97
  10  13  -2    3.16    0.89
  10  13  -1    5.74    1.77
  10  13   0    4.72    1.59
  10  13   1   27.25    5.56
  10  13   2    9.77    1.73
  10  13   3    3.34    1.28
  10  13   4   -0.65    1.17
  10  13   5    0.91    0.60
  10  13   6   12.58    1.90
  10  13   7    6.73    2.07
  10  13   8    2.48    1.03
  10  13   9    2.92    2.40
  10  13  10    1.28    1.38
  10  13  11    2.84    1.77
  10  13  12   -1.05    2.14
  10  13  13    3.93    1.36
  10  14  -9    4.01    1.75
  10  14  -8    4.71    1.99
  10  14  -7    2.31    0.87
  10  14  -6    5.00    1.13
  10  14  -5    8.49    2.08
  10  14  -4    5.47    1.59
  10  14  -3    1.16    0.93
  10  14  -2    2.92    1.03
  10  14  -1   16.08    2.82
  10  14   0   -0.75    1.01
  10  14   1    2.07    0.95
  10  14   2    5.88    1.16
  10  14   3    0.30    1.52
  10  14   4    4.67    1.53
  10  14   5    4.50    1.38
  10  14   6    0.59    0.60
  10  14   7    8.74    2.73
  10  15  -1    2.33    1.24
  10  15   0    1.44    2.01
  10  15   1    1.43    1.91
  10  15   2    2.03    1.34
  10  15   3   -1.28    1.31
  10  15   4   -0.22    1.14
  10  15   5    2.58    1.22
  11   0 -26    2.18    1.12
  11   0 -24    4.40    2.06
  11   0 -22    6.86    2.38
  11   0 -20    3.91    1.32
  11   0 -18    8.68    1.90
  11   0 -16   12.27    3.94
  11   0 -14   87.40   12.65
  11   0 -12   27.23    2.19
  11   0 -10  865.07   21.04
  11   0  -8    4.70    0.98
  11   0  -6   44.83    3.17
  11   0  -4  108.33    6.88
  11   0  -2  125.38    9.45
  11   0   0   10.86    1.71
  11   0   2   89.24    3.61
  11   0   4  379.10    9.40
  11   0   6   20.81    2.61
  11   0   8  168.79   16.41
  11   0  10   67.74    2.16
  11   0  12  101.16   10.37
  11   0  14  264.21   14.29
  11   0  16    2.49    2.29
  11   0  18   47.04    6.42
  11   0  20   17.95    3.95
  11   0  22   14.78    4.92
  11   0  24    1.44    1.05
  11   0  26    3.30    1.64
  11   1 -26    0.81    0.85
  11   1 -25    1.80    0.98
  11   1 -24    2.15    2.03
  11   1 -23    4.65    1.43
  11   1 -22    5.59    1.35
  11   1 -21    4.28    1.32
  11   1 -20    2.86    1.46
  11   1 -19    4.15    1.46
  11   1 -18    4.85    1.39
  11   1 -17   75.19    5.97
  11   1 -16   21.77    3.12
  11   1 -15    2.86    1.26
  11   1 -14   43.17    3.40
  11   1 -13   44.94    2.53
  11   1 -12    2.75    1.05
  11   1 -11  367.55   14.87
  11   1 -10   14.02    1.81
  11   1  -9  260.13   13.63
  11   1  -8    1.72    0.52
  11   1  -7    1.33    0.43
  11   1  -6    4.24    0.53
  11   1  -5  145.13    5.14
  11   1  -4    5.22    1.19
  11   1  -3  299.52    3.23
  11   1  -2   32.41    3.11
  11   1  -1    8.05    1.29
  11   1   0   70.45    3.10
  11   1   1   14.71    1.99
  11   1   2   39.18    3.16
  11   1   3  372.93   14.64
  11   1   4    3.00    1.30
  11   1   5  226.00   10.04
  11   1   6   31.51    3.18
  11   1   7   13.39    1.12
  11   1   8   11.46    2.14
  11   1   9   22.18    2.33
  11   1  10    0.57    0.27
  11   1  11  154.83    5.03
  11   1  12   24.71    3.27
  11   1  13    3.51    1.01
  11   1  14    1.93    1.40
  11   1  15   45.89    6.73
  11   1  16    2.87    1.38
  11   1  17   18.37    3.75
  11   1  18    1.09    2.59
  11   1  19   29.08    6.48
  11   1  20   10.02    5.16
  11   1  21   10.18    2.59
  11   1  22    3.79    1.50
  11   1  23    2.56    1.78
  11   1  24    1.44    1.52
  11   1  25    4.50    1.40
  11   1  26    1.89    1.75
  11   2 -26    1.86    1.15
  11   2 -25    0.49    1.51
  11   2 -24   16.62    4.87
  11   2 -23    4.15    1.63
  11   2 -22    7.75    1.96
  11   2 -21    3.34    1.12
  11   2 -20    3.79    1.33
  11   2 -19    0.11    1.17
  11   2 -18   26.29    3.06
  11   2 -17    1.97    0.66
  11   2 -16   57.74    3.74
  11   2 -15    3.03    0.75
  11   2 -14    7.35    1.17
  11   2 -13    7.95    1.28
  11   2 -12   35.79    3.09
  11   2 -11   62.99    3.22
  11   2 -10  330.90   11.04
  11   2  -9   28.36    2.09
  11   2  -8  107.11    1.92
  11   2  -7   34.93    2.83
  11   2  -6   18.39    1.50
  11   2  -5   75.45    4.79
  11   2  -4  446.55   10.42
  11   2  -3  130.63    3.40
  11   2  -2  604.00    9.50
  11   2  -1    6.36    1.50
  11   2   0   10.89    1.18
  11   2   1  563.47   10.69
  11   2   2   57.94    3.48
  11   2   3    7.58    1.22
  11   2   4 1014.49   26.81
  11   2   5   65.52    2.60
  11   2   6   14.75    1.20
  11   2   7   15.29    1.62
  11   2   8   23.10    1.73
  11   2   9  174.30    2.85
  11   2  10  225.19    2.31
  11   2  11   16.20    1.32
  11   2  12   39.57    2.55
  11   2  13    2.11    0.96
  11   2  14    1.47    0.93
  11   2  15    3.35    1.51
  11   2  16    2.41    1.09
  11   2  17    1.84    0.97
  11   2  18   61.49   12.54
  11   2  19    2.15    1.64
  11   2  20    5.07    1.93
  11   2  21   22.93    6.34
  11   2  22    2.60    1.96
  11   2  23    1.61    1.14
  11   2  24    6.21    1.81
  11   2  25    1.81    1.15
  11   2  26    4.11    1.56
  11   3 -27    0.19    0.91
  11   3 -26   -0.61    1.45
  11   3 -25    3.53    1.43
  11   3 -24    2.63    1.18
  11   3 -23    0.25    1.49
  11   3 -22    7.45    1.51
  11   3 -21    3.32    1.32
  11   3 -20    1.66    1.71
  11   3 -19    7.57    2.29
  11   3 -18    5.07    2.74
  11   3 -17   23.13    2.41
  11   3 -16    3.08    1.14
  11   3 -15    0.43    0.81
  11   3 -14    8.60    1.63
  11   3 -13    4.49    1.10
  11   3 -12  136.05    2.81
  11   3 -11  117.45    6.30
  11   3 -10    0.71    0.70
  11   3  -9  200.64    2.64
  11   3  -8  108.03    1.58
  11   3  -7    0.28    0.34
  11   3  -6   20.86    2.96
  11   3  -5   15.62    1.43
  11   3  -4   83.17    2.69
  11   3  -3  166.62    4.34
  11   3  -2   41.92    2.90
  11   3  -1   90.25    4.45
  11   3   0   53.75    3.66
  11   3   1    8.68    1.02
  11   3   2    2.92    0.75
  11   3   3  293.63    6.54
  11   3   4    5.20    1.55
  11   3   5  633.87   21.64
  11   3   6   40.06    4.22
  11   3   7    2.94    0.79
  11   3   8   24.54    3.39
  11   3   9   93.81    4.91
  11   3  10   17.16    2.02
  11   3  11  109.12    3.22
  11   3  12   16.00    1.90
  11   3  13    9.30    1.89
  11   3  14   31.38    3.33
  11   3  15   29.14    4.45
  11   3  16   31.19    4.72
  11   3  17   50.95    5.99
  11   3  18    3.41    2.25
  11   3  19    4.20    1.55
  11   3  20   17.26    3.63
  11   3  21    2.17    1.31
  11   3  22    4.35    2.07
  11   3  23    5.52    2.37
  11   3  24    3.16    1.21
  11   3  25    1.22    1.11
  11   4 -26   -0.33    1.71
  11   4 -25   -0.29    1.13
  11   4 -24    9.97    2.92
  11   4 -23    2.39    0.89
  11   4 -22    0.43    0.89
  11   4 -21    3.73    1.84
  11   4 -20   15.37    2.97
  11   4 -19    1.72    1.29
  11   4 -18   35.64    5.87
  11   4 -17    3.68    0.92
  11   4 -16    5.27    1.21
  11   4 -15    6.33    1.29
  11   4 -14   21.44    1.77
  11   4 -13   19.39    1.87
  11   4 -12   56.13    4.29
  11   4 -11   21.32    2.09
  11   4 -10  216.88    6.34
  11   4  -9   38.74    2.27
  11   4  -8    0.33    0.27
  11   4  -7    1.01    0.55
  11   4  -6   10.87    1.06
  11   4  -5   92.94    2.83
  11   4  -4  123.42    3.28
  11   4  -3   22.38    2.04
  11   4  -2   69.26    3.77
  11   4  -1  203.47    6.88
  11   4   0   60.41    3.23
  11   4   1   42.41    3.28
  11   4   2   14.60    1.21
  11   4   3   46.85    3.37
  11   4   4  188.73    3.44
  11   4   5  239.75    6.39
  11   4   6  248.04    6.36
  11   4   7  170.43    3.36
  11   4   8   21.44    1.74
  11   4   9   57.86    2.89
  11   4  10   28.07    4.12
  11   4  11   10.74    2.65
  11   4  12  153.66    6.52
  11   4  13  107.64    6.80
  11   4  14   -0.32    1.05
  11   4  15    8.35    1.78
  11   4  16    3.52    1.31
  11   4  17    3.71    1.22
  11   4  18   15.26    2.66
  11   4  19   13.09    3.60
  11   4  20    5.64    2.09
  11   4  21    4.17    1.23
  11   4  22    5.77    1.71
  11   4  23    7.38    1.95
  11   4  24    2.82    1.32
  11   4  25    2.27    2.01
  11   5 -26    1.64    1.11
  11   5 -25    3.42    1.81
  11   5 -24    2.80    1.02
  11   5 -23    6.89    2.20
  11   5 -22    5.09    1.17
  11   5 -21   11.77    2.24
  11   5 -20    1.25    1.19
  11   5 -19    5.09    1.64
  11   5 -18    2.64    0.80
  11   5 -17   23.25    2.74
  11   5 -16   74.89    3.28
  11   5 -15   36.70    4.03
  11   5 -14   33.29    2.93
  11   5 -13    4.64    1.45
  11   5 -12   53.55    5.84
  11   5 -11   14.98    2.38
  11   5 -10   10.89    1.99
  11   5  -9  105.16    4.36
  11   5  -8   23.42    1.93
  11   5  -7  128.08    2.81
  11   5  -6   61.45    2.98
  11   5  -5    8.29    1.30
  11   5  -4  211.43    5.18
  11   5  -3  115.74    5.55
  11   5  -2   14.69    1.84
  11   5  -1   57.32    3.60
  11   5   0   26.14    1.84
  11   5   1    4.85    1.37
  11   5   2  288.34    6.56
  11   5   3   79.12    2.93
  11   5   4    5.02    1.02
  11   5   5   19.47    1.52
  11   5   6   71.34    4.47
  11   5   7   24.35    2.68
  11   5   8    3.15    0.75
  11   5   9   18.23    1.76
  11   5  10   16.65    1.78
  11   5  11    3.31    1.34
  11   5  12   22.88    2.56
  11   5  13   17.36    2.35
  11   5  14   18.71    1.98
  11   5  15    1.01    1.38
  11   5  16    7.26    2.25
  11   5  17    2.26    2.28
  11   5  18    1.52    0.92
  11   5  19   19.18    5.13
  11   5  20   21.38    3.48
  11   5  21   -0.08    1.63
  11   5  22    5.32    0.97
  11   5  23    1.81    1.09
  11   5  24   -0.24    1.77
  11   6 -26    2.77    1.39
  11   6 -25    1.59    1.37
  11   6 -24    4.80    1.40
  11   6 -23    6.04    1.10
  11   6 -22   -0.62    1.85
  11   6 -21    3.33    3.08
  11   6 -20    5.25    1.77
  11   6 -19    3.87    1.56
  11   6 -18    2.33    0.95
  11   6 -17    6.37    1.70
  11   6 -16    0.97    0.86
  11   6 -15   12.56    2.11
  11   6 -14    3.25    2.50
  11   6 -13    3.52    1.21
  11   6 -12    2.13    1.58
  11   6 -11  128.35    4.58
  11   6 -10   18.28    1.89
  11   6  -9   16.92    1.50
  11   6  -8    1.08    0.43
  11   6  -7    4.74    0.81
  11   6  -6   11.67    2.29
  11   6  -5  240.77   13.77
  11   6  -4    1.20    0.88
  11   6  -3   15.81    1.41
  11   6  -2    1.83    0.59
  11   6  -1    1.97    0.65
  11   6   0    1.13    0.96
  11   6   1  169.29    5.96
  11   6   2   33.01    2.45
  11   6   3  161.36    4.70
  11   6   4    1.12    1.33
  11   6   5    5.75    1.92
  11   6   6   67.19    4.02
  11   6   7   57.47    4.11
  11   6   8    7.59    2.14
  11   6   9  107.83    5.64
  11   6  10    7.81    1.11
  11   6  11    2.01    0.88
  11   6  12   36.31    4.30
  11   6  13   29.49    3.96
  11   6  14    4.37    1.07
  11   6  15   19.89    2.94
  11   6  16    2.17    1.20
  11   6  17    1.39    1.61
  11   6  18   20.63    4.58
  11   6  19    9.60    2.33
  11   6  20    3.60    1.24
  11   6  21    4.94    2.74
  11   6  22    2.38    1.13
  11   6  23    1.84    1.71
  11   6  24    1.20    1.28
  11   7 -26    0.05    0.60
  11   7 -25   -0.82    1.20
  11   7 -24    2.25    1.94
  11   7 -23    2.47    0.70
  11   7 -22    2.32    2.40
  11   7 -21    5.26    1.27
  11   7 -20    5.62    1.61
  11   7 -19    1.04    1.18
  11   7 -18    5.22    1.39
  11   7 -17   11.08    2.01
  11   7 -16    3.20    1.45
  11   7 -15    4.87    1.33
  11   7 -14    0.98    1.10
  11   7 -13    9.05    2.95
  11   7 -12   40.70    8.20
  11   7 -11   69.90    9.19
  11   7 -10    5.54    1.48
  11   7  -9    2.03    0.74
  11   7  -8  152.31    4.37
  11   7  -7    7.68    1.07
  11   7  -6   31.49    2.85
  11   7  -5    6.79    1.72
  11   7  -4   85.71    3.53
  11   7  -3   41.67    2.90
  11   7  -2  164.06    2.99
  11   7  -1   18.49    1.84
  11   7   0    1.52    0.57
  11   7   1   57.17    5.70
  11   7   2  422.69    5.15
  11   7   3   11.59    2.43
  11   7   4   43.22    3.30
  11   7   5   13.93    1.49
  11   7   6  182.88    5.53
  11   7   7  107.67    6.69
  11   7   8  206.13    9.97
  11   7   9   15.84    1.65
  11   7  10   27.57    2.50
  11   7  11    2.24    0.57
  11   7  12   66.13    7.48
  11   7  13   33.26    3.21
  11   7  14    0.35    0.96
  11   7  15   15.58    2.69
  11   7  16   32.28    7.48
  11   7  17    4.64    1.50
  11   7  18    2.10    1.18
  11   7  19    0.72    2.04
  11   7  20    8.38    2.43
  11   7  21    3.14    1.58
  11   7  22    1.66    1.66
  11   7  23    3.82    1.61
  11   8 -24   -1.01    1.71
  11   8 -23   -2.16    1.42
  11   8 -22    3.71    1.45
  11   8 -21   -0.70    1.22
  11   8 -20    3.91    0.89
  11   8 -19   12.72    2.69
  11   8 -18    0.84    1.38
  11   8 -17    1.37    0.76
  11   8 -16    2.84    1.00
  11   8 -15    3.07    1.25
  11   8 -14   30.94    3.08
  11   8 -13   16.00    1.96
  11   8 -12    2.97    0.99
  11   8 -11    2.47    1.43
  11   8 -10    2.17    0.69
  11   8  -9    0.94    0.85
  11   8  -8    9.39    2.20
  11   8  -7    1.21    0.72
  11   8  -6   44.30    3.39
  11   8  -5    7.28    1.05
  11   8  -4   15.15    1.71
  11   8  -3   17.90    1.97
  11   8  -2    6.12    1.52
  11   8  -1    0.84    0.41
  11   8   0  101.06    3.91
  11   8   1    3.25    0.90
  11   8   2    1.03    0.77
  11   8   3    1.64    0.67
  11   8   4  128.37    5.65
  11   8   5   39.02    3.46
  11   8   6   35.82    4.23
  11   8   7    1.05    0.76
  11   8   8  117.93    6.23
  11   8   9    1.38    1.24
  11   8  10    9.78    1.77
  11   8  11   15.63    3.49
  11   8  12    4.95    1.05
  11   8  13    1.67    1.00
  11   8  14  116.69   21.05
  11   8  15    9.38    2.98
  11   8  16    5.92    1.37
  11   8  17    2.33    1.32
  11   8  18    2.48    1.28
  11   8  19    6.02    2.14
  11   8  20    9.34    3.08
  11   8  21   -4.50    1.88
  11   8  22   -1.18    1.66
  11   9 -22    2.20    0.85
  11   9 -21    5.44    1.82
  11   9 -20    2.01    1.08
  11   9 -19    2.50    2.14
  11   9 -18    1.27    0.88
  11   9 -17    1.89    0.95
  11   9 -16    1.41    0.95
  11   9 -15    6.17    1.55
  11   9 -14    1.16    0.89
  11   9 -13   24.38    3.63
  11   9 -12    0.66    1.25
  11   9 -11    2.29    1.23
  11   9 -10    2.96    2.27
  11   9  -9   13.58    1.68
  11   9  -8    2.53    0.80
  11   9  -7   20.10    2.19
  11   9  -6    6.53    1.21
  11   9  -5    6.25    1.55
  11   9  -4   13.25    1.83
  11   9  -3   27.62    2.95
  11   9  -2   38.75    4.03
  11   9  -1   22.24    2.37
  11   9   0    0.08    0.91
  11   9   1   22.12    2.16
  11   9   2    6.22    1.01
  11   9   3    6.09    1.15
  11   9   4   36.01    3.38
  11   9   5    2.62    1.02
  11   9   6    1.41    0.83
  11   9   7  107.07    8.25
  11   9   8    0.57    0.60
  11   9   9    9.68    1.26
  11   9  10    0.68    0.70
  11   9  11    9.53    1.68
  11   9  12   10.22    1.95
  11   9  13   50.15    9.10
  11   9  14    4.25    1.02
  11   9  15   13.12    4.00
  11   9  16    1.60    0.98
  11   9  17    5.38    1.80
  11   9  18    1.05    1.32
  11   9  19    2.16    2.18
  11   9  20    2.26    1.25
  11  10 -21    1.58    1.68
  11  10 -20    2.38    1.24
  11  10 -19    1.73    0.90
  11  10 -18    1.52    1.01
  11  10 -17    3.72    1.85
  11  10 -16    0.82    1.05
  11  10 -15    3.36    1.29
  11  10 -14   24.98    5.13
  11  10 -13    1.64    1.16
  11  10 -12    2.61    1.19
  11  10 -11    2.53    1.16
  11  10 -10    4.69    1.89
  11  10  -9    3.40    1.43
  11  10  -8   29.47    5.06
  11  10  -7    4.54    0.86
  11  10  -6   19.04    2.22
  11  10  -5    1.74    0.65
  11  10  -4   19.84    2.24
  11  10  -3    2.34    0.85
  11  10  -2   -0.04    0.80
  11  10  -1    8.78    1.25
  11  10   0   54.19    6.08
  11  10   1    0.57    0.80
  11  10   2   20.72    2.55
  11  10   3   12.67    1.57
  11  10   4    2.54    0.62
  11  10   5    3.29    0.66
  11  10   6   18.72    2.21
  11  10   7   12.17    1.89
  11  10   8   24.39    2.81
  11  10   9    6.05    1.45
  11  10  10    1.75    0.89
  11  10  11    5.05    1.18
  11  10  12    0.04    1.00
  11  10  13    7.55    1.83
  11  10  14    6.46    2.68
  11  10  15    3.65    1.40
  11  10  16   13.22    2.89
  11  10  17    3.65    1.26
  11  10  18    5.51    2.57
  11  11 -20    2.06    1.18
  11  11 -19    2.82    1.16
  11  11 -18    1.80    1.04
  11  11 -17    0.28    1.38
  11  11 -16    3.06    1.03
  11  11 -15    7.48    2.69
  11  11 -14    5.66    1.59
  11  11 -13   13.04    3.24
  11  11 -12    2.05    0.86
  11  11 -11    3.12    1.20
  11  11 -10   10.37    2.10
  11  11  -9    3.09    1.54
  11  11  -8    1.34    1.02
  11  11  -7   23.97    3.44
  11  11  -6    0.48    0.83
  11  11  -5    0.36    0.67
  11  11  -4    7.37    1.34
  11  11  -3    2.71    0.72
  11  11  -2    1.39    1.56
  11  11  -1   29.95    6.03
  11  11   0    1.42    0.90
  11  11   1   43.30    8.05
  11  11   2    0.86    0.84
  11  11   3    2.02    0.99
  11  11   4    1.66    0.68
  11  11   5    0.40    0.99
  11  11   6    3.00    0.95
  11  11   7   32.18    4.87
  11  11   8    1.19    0.67
  11  11   9    6.27    1.50
  11  11  10    3.80    1.17
  11  11  11    1.98    1.39
  11  11  12    3.28    1.13
  11  11  13    1.81    1.39
  11  11  14    2.39    0.71
  11  11  15    6.85    1.51
  11  11  16    6.40    2.44
  11  12 -18   -1.31    0.99
  11  12 -17    1.73    2.98
  11  12 -16    1.16    1.30
  11  12 -15    5.37    1.21
  11  12 -14   18.12    4.03
  11  12 -13    3.90    0.89
  11  12 -12    3.52    0.87
  11  12 -11    2.36    1.07
  11  12 -10   13.12    1.91
  11  12  -9    4.13    1.23
  11  12  -8   10.76    2.11
  11  12  -7    5.25    1.54
  11  12  -6   31.02    6.99
  11  12  -5    3.85    0.92
  11  12  -4    3.34    1.46
  11  12  -3    1.86    0.85
  11  12  -2    1.73    0.92
  11  12  -1    3.80    1.18
  11  12   0   42.96    3.94
  11  12   1    1.21    0.72
  11  12   2    3.11    0.82
  11  12   3   11.21    1.79
  11  12   4    0.77    0.71
  11  12   5    8.16    1.35
  11  12   6    8.66    1.65
  11  12   7    2.11    0.64
  11  12   8   14.73    2.96
  11  12   9    7.62    1.47
  11  12  10    3.52    1.28
  11  12  11    2.19    0.80
  11  12  12    1.85    0.96
  11  12  13    2.47    1.20
  11  12  14    0.50    1.34
  11  12  15   -1.91    1.88
  11  13 -14    4.21    1.26
  11  13 -13    3.83    1.43
  11  13 -12   -1.16    1.52
  11  13 -11    2.03    0.77
  11  13 -10    2.27    1.31
  11  13  -9    2.62    1.08
  11  13  -8    4.90    1.38
  11  13  -7    8.97    1.82
  11  13  -6    1.16    0.87
  11  13  -5    5.88    1.28
  11  13  -4   10.45    1.75
  11  13  -3    1.15    0.96
  11  13  -2   10.10    1.90
  11  13  -1    4.88    1.09
  11  13   0    1.75    1.23
  11  13   1   37.36    4.26
  11  13   2   15.78    2.72
  11  13   3    2.01    0.75
  11  13   4    6.36    1.48
  11  13   5    3.17    1.10
  11  13   6    7.32    1.48
  11  13   7    9.56    1.80
  11  13   8    3.75    1.94
  11  13   9    3.22    0.94
  11  13  10   -0.57    2.35
  11  13  11    7.25    2.35
  11  14  -5    8.16    3.96
  11  14  -4    2.03    0.96
  11  14  -3    1.08    1.40
  11  14  -2    2.03    2.87
  11  14  -1    9.37    2.32
  11  14   0    7.22    2.22
  11  14   1    1.22    1.02
  11  14   2    1.10    1.28
  11  14   3    0.96    0.87
  11  14   4    3.72    1.42
  11  14   5    4.76    1.10
  11  14   6    1.89    1.35
  11  15  -1    0.59    1.17
  11  15   0   -0.97    1.08
  11  15   1   -0.18    1.05
  11  15   4    1.78    1.15
  12   0 -26    4.47    1.66
  12   0 -24    3.92    1.72
  12   0 -22   27.54   10.35
  12   0 -20    0.43    1.93
  12   0 -18   43.87   12.28
  12   0 -16   15.34    2.71
  12   0 -14   87.97   11.08
  12   0 -12    8.52    1.87
  12   0 -10   79.56    4.45
  12   0  -8   10.20    2.86
  12   0  -6    5.55    0.86
  12   0  -4  609.30  132.04
  12   0  -2  249.06   18.47
  12   0   0   41.41    3.89
  12   0   2   47.54    4.63
  12   0   4   55.70    9.31
  12   0   6  268.83    8.69
  12   0   8   10.48    2.07
  12   0  10  196.35    8.61
  12   0  12   39.33    4.66
  12   0  14   27.02    5.30
  12   0  16   10.91    3.36
  12   0  18   75.10    8.79
  12   0  20   -2.33    2.22
  12   0  22    1.36    1.21
  12   0  24   17.45    3.77
  12   1 -26    0.43    1.33
  12   1 -25    1.86    1.35
  12   1 -24   12.82    2.86
  12   1 -23    2.50    1.25
  12   1 -22   11.50    2.52
  12   1 -21    0.42    1.49
  12   1 -20    1.37    1.71
  12   1 -19    6.61    1.35
  12   1 -18   36.08    4.95
  12   1 -17   18.39    2.23
  12   1 -16   85.26   13.11
  12   1 -15    6.20    2.01
  12   1 -14   39.00    5.21
  12   1 -13   51.94    3.30
  12   1 -12    2.45    0.74
  12   1 -11   21.08    1.75
  12   1 -10   46.87    1.73
  12   1  -9   91.38    2.95
  12   1  -8   54.43    2.52
  12   1  -7   39.90    2.78
  12   1  -6    0.25    0.38
  12   1  -5   71.46    4.25
  12   1  -4   87.30    2.96
  12   1  -3  336.78    7.18
  12   1  -2   79.38    4.12
  12   1  -1    7.85    1.70
  12   1   0   -0.17    0.84
  12   1   1   21.05    1.73
  12   1   2    8.28    2.15
  12   1   3  332.52   17.99
  12   1   4   41.82    3.26
  12   1   5  385.06    7.91
  12   1   6    1.54    0.71
  12   1   7  123.61    4.09
  12   1   8    2.56    0.87
  12   1   9   45.02    3.08
  12   1  10  156.81    5.04
  12   1  11  329.67   11.13
  12   1  12    2.18    0.76
  12   1  13    3.89    1.09
  12   1  14    7.91    2.44
  12   1  15   20.88    3.17
  12   1  16    6.49    1.26
  12   1  17   49.10    6.62
  12   1  18    0.43    1.93
  12   1  19   10.38    3.85
  12   1  20    4.67    1.94
  12   1  21    6.78    3.99
  12   1  22    0.14    2.82
  12   1  23    1.08    1.46
  12   1  24    1.66    1.72
  12   1  25    5.45    2.75
  12   2 -27   -0.33    1.29
  12   2 -26    4.02    1.67
  12   2 -25    0.30    0.66
  12   2 -24    2.91    1.19
  12   2 -23    3.19    1.24
  12   2 -22    1.39    3.72
  12   2 -21    3.39    0.95
  12   2 -20    0.10    1.16
  12   2 -19    1.50    3.75
  12   2 -18   43.01    5.86
  12   2 -17    8.59    2.05
  12   2 -16    6.80    1.44
  12   2 -15   42.47    4.03
  12   2 -14    2.44    0.81
  12   2 -13    1.64    1.39
  12   2 -12    1.69    0.77
  12   2 -11    1.74    0.52
  12   2 -10   34.12    3.10
  12   2  -9   21.09    1.81
  12   2  -8    3.35    0.59
  12   2  -7    3.35    0.62
  12   2  -6   14.66    1.41
  12   2  -5   40.76    2.74
  12   2  -4  318.39   14.40
  12   2  -3   21.66    2.23
  12   2  -2  152.36    7.65
  12   2  -1    2.14    0.66
  12   2   0   29.15    2.64
  12   2   1    1.12    0.57
  12   2   2   68.59    3.38
  12   2   3    3.32    0.98
  12   2   4  587.04   16.29
  12   2   5   16.81    1.72
  12   2   6    4.67    1.30
  12   2   7    0.67    0.55
  12   2   8   18.75    1.56
  12   2   9    2.65    1.13
  12   2  10  328.04    2.89
  12   2  11    1.64    0.78
  12   2  12   63.99    4.21
  12   2  13   35.11    4.40
  12   2  14   10.71    1.93
  12   2  15    3.89    1.55
  12   2  16    1.78    2.43
  12   2  17    1.27    0.93
  12   2  18   51.98   13.27
  12   2  19    3.09    1.34
  12   2  20    0.94    0.93
  12   2  21    4.54    1.44
  12   2  22    1.44    0.96
  12   2  23    2.52    2.25
  12   2  24    5.95    1.75
  12   2  25    1.94    1.52
  12   3 -27   -0.30    1.41
  12   3 -26    0.73    1.31
  12   3 -25    7.21    1.58
  12   3 -24    3.29    2.09
  12   3 -23    0.06    1.75
  12   3 -22    1.13    1.02
  12   3 -21    1.02    1.94
  12   3 -20    6.54    2.92
  12   3 -19   18.47    3.92
  12   3 -18    2.85    1.53
  12   3 -17    5.08    3.25
  12   3 -16   10.32    2.43
  12   3 -15    2.07    1.50
  12   3 -14    2.97    1.43
  12   3 -13    4.78    2.56
  12   3 -12    2.98    0.81
  12   3 -11  126.27    8.18
  12   3 -10    0.74    0.23
  12   3  -9   48.84    1.73
  12   3  -8   10.94    1.74
  12   3  -7   51.99    2.25
  12   3  -6   36.25    3.68
  12   3  -5   46.34    2.71
  12   3  -4    2.98    0.66
  12   3  -3  305.84   12.00
  12   3  -2   59.52    3.33
  12   3  -1  175.13    4.74
  12   3   0   61.06    3.23
  12   3   1   11.64    1.46
  12   3   2  179.05    6.26
  12   3   3  133.07   16.18
  12   3   4    5.35    0.95
  12   3   5  270.35   20.98
  12   3   6    5.87    1.13
  12   3   7   11.94    1.15
  12   3   8   39.23    2.70
  12   3   9   14.80    1.97
  12   3  10   31.82    2.33
  12   3  11  186.66    4.53
  12   3  12  113.07    4.65
  12   3  13   33.38    1.85
  12   3  14   15.00    3.85
  12   3  15    0.42    2.78
  12   3  16   31.32    4.43
  12   3  17   16.21    3.19
  12   3  18    2.50    1.18
  12   3  19   14.03    3.54
  12   3  20    8.46    2.40
  12   3  21    1.39    1.95
  12   3  22    1.77    1.48
  12   3  23    3.38    0.89
  12   3  24   -0.54    1.64
  12   4 -26    0.36    0.84
  12   4 -25    2.10    1.01
  12   4 -24    2.93    1.31
  12   4 -23    3.94    1.35
  12   4 -22    2.82    1.06
  12   4 -21    4.41    1.46
  12   4 -20   10.62    2.53
  12   4 -19    2.83    2.33
  12   4 -18   16.39    2.34
  12   4 -17   16.16    5.08
  12   4 -16   21.40    5.42
  12   4 -15    7.05    1.31
  12   4 -14   16.19    1.95
  12   4 -13    4.65    1.48
  12   4 -12  126.99    5.01
  12   4 -11    5.71    1.47
  12   4 -10   71.67    3.18
  12   4  -9   17.16    1.65
  12   4  -8   10.13    0.99
  12   4  -7   14.35    1.56
  12   4  -6  157.59    6.39
  12   4  -5  118.80    7.31
  12   4  -4  325.17    9.67
  12   4  -3    5.15    0.99
  12   4  -2    3.41    0.81
  12   4  -1    2.02    0.94
  12   4   0    2.51    0.85
  12   4   1   93.92    7.58
  12   4   2    0.88    0.74
  12   4   3  159.41    3.32
  12   4   4    9.26    2.30
  12   4   5    9.26    2.01
  12   4   6    3.47    0.79
  12   4   7    6.19    0.88
  12   4   8    0.34    0.77
  12   4   9  181.23    3.67
  12   4  10   21.41    2.59
  12   4  11   22.46    5.02
  12   4  12   30.00    5.87
  12   4  13   40.52    5.80
  12   4  14    1.11    0.71
  12   4  15   14.87    2.69
  12   4  16    0.42    2.68
  12   4  17   12.77    2.43
  12   4  18    5.34    1.38
  12   4  19    7.16    2.51
  12   4  20   10.33    2.57
  12   4  21    3.91    2.25
  12   4  22    1.66    2.87
  12   4  23    2.80    1.59
  12   4  24    1.76    1.52
  12   5 -26    2.22    1.30
  12   5 -24    2.04    1.77
  12   5 -23    5.18    1.42
  12   5 -22   -0.43    1.23
  12   5 -21   -0.27    0.91
  12   5 -20    5.50    1.48
  12   5 -19   34.79    9.23
  12   5 -18    8.34    1.49
  12   5 -17   43.41    5.59
  12   5 -16    7.79    1.22
  12   5 -15    0.62    1.13
  12   5 -14    7.48    3.20
  12   5 -13   40.08    3.14
  12   5 -12    2.00    1.09
  12   5 -11   32.90    4.14
  12   5 -10    7.58    1.26
  12   5  -9   18.06    1.57
  12   5  -8   11.68    2.12
  12   5  -7   10.84    1.91
  12   5  -6  167.17    2.07
  12   5  -5    3.11    0.97
  12   5  -4  115.19    3.17
  12   5  -3   20.06    1.80
  12   5  -2  129.84    3.71
  12   5  -1   63.89    3.50
  12   5   0  119.20    3.55
  12   5   1   59.51    4.30
  12   5   2  456.91    3.91
  12   5   3    1.27    1.12
  12   5   4   15.68    1.58
  12   5   5   53.77    3.66
  12   5   6    2.07    0.78
  12   5   7    2.85    0.71
  12   5   8  168.06    4.65
  12   5   9    0.53    0.57
  12   5  10   28.92    2.41
  12   5  11   18.48    2.96
  12   5  12   13.31    1.77
  12   5  13    3.32    0.88
  12   5  14   18.98    2.80
  12   5  15    0.80    1.02
  12   5  16   21.88    3.73
  12   5  17    4.59    1.64
  12   5  18    1.04    1.89
  12   5  19    8.15    2.32
  12   5  20   13.88    4.49
  12   5  21    0.55    1.23
  12   5  22    1.50    1.04
  12   5  23    1.10    1.44
  12   6 -26    3.41    1.80
  12   6 -25    0.81    1.04
  12   6 -24   -1.02    1.09
  12   6 -23    4.53    1.85
  12   6 -22    7.57    2.51
  12   6 -21    5.90    1.54
  12   6 -20    4.10    1.35
  12   6 -19    2.16    2.89
  12   6 -18    1.22    1.20
  12   6 -17    2.21    1.03
  12   6 -16    2.38    0.76
  12   6 -15    5.03    1.26
  12   6 -14   41.41    4.79
  12   6 -13   29.88    4.08
  12   6 -12   25.85    3.18
  12   6 -11   83.87    5.06
  12   6 -10    8.68    2.57
  12   6  -9   12.39    1.75
  12   6  -8  137.27    4.10
  12   6  -7    2.08    0.68
  12   6  -6    2.27    1.15
  12   6  -5  193.95    2.96
  12   6  -4   14.48    2.17
  12   6  -3    1.10    0.48
  12   6  -2   25.84    2.69
  12   6  -1   55.38    3.45
  12   6   0   93.75    4.70
  12   6   1   42.27    2.83
  12   6   2    2.47    0.83
  12   6   3  194.33    6.15
  12   6   4    1.60    1.22
  12   6   5    6.65    2.13
  12   6   6   44.39    2.89
  12   6   7    0.73    0.76
  12   6   8   47.01    3.61
  12   6   9  189.69   20.61
  12   6  10    1.13    0.83
  12   6  11    1.24    0.70
  12   6  12   34.18    2.60
  12   6  13   62.68    4.92
  12   6  14    3.21    0.99
  12   6  15   15.14    2.76
  12   6  16    2.38    1.39
  12   6  17    4.37    1.58
  12   6  18    3.42    1.92
  12   6  19   10.08    3.45
  12   6  20    1.43    1.49
  12   6  21    0.43    1.00
  12   6  22    4.11    1.45
  12   7 -24   -0.39    1.44
  12   7 -23    1.84    1.14
  12   7 -22    0.78    1.76
  12   7 -21    7.05    1.57
  12   7 -20    3.17    1.24
  12   7 -19   -1.41    1.52
  12   7 -18    6.86    2.16
  12   7 -17    2.14    0.91
  12   7 -16    2.32    0.65
  12   7 -15   21.38    2.33
  12   7 -14    2.00    0.88
  12   7 -13    1.23    1.56
  12   7 -12   15.16    2.19
  12   7 -11    2.18    1.59
  12   7 -10    4.64    1.36
  12   7  -9    0.84    0.54
  12   7  -8    2.03    0.85
  12   7  -7   14.50    1.62
  12   7  -6   14.60    1.60
  12   7  -5    2.78    1.03
  12   7  -4    1.58    0.67
  12   7  -3    1.72    0.58
  12   7  -2   66.81    3.44
  12   7  -1   22.22    2.11
  12   7   0   56.59    5.05
  12   7   1   14.30    1.93
  12   7   2   48.97    3.39
  12   7   3    1.64    1.27
  12   7   4    1.98    0.64
  12   7   5    2.16    0.77
  12   7   6   32.34    3.83
  12   7   7   36.62    3.59
  12   7   8   22.68    2.31
  12   7   9   36.86    2.98
  12   7  10   24.70    2.63
  12   7  11    3.91    1.04
  12   7  12   47.02    4.89
  12   7  13   15.17    2.33
  12   7  14    1.08    1.27
  12   7  15   28.29    6.83
  12   7  16   26.81    3.90
  12   7  17    2.22    1.19
  12   7  18    1.93    1.12
  12   7  19    5.82    1.62
  12   7  20    3.34    1.03
  12   8 -23    0.36    0.84
  12   8 -22    3.48    1.06
  12   8 -21    2.21    0.94
  12   8 -20    8.49    1.94
  12   8 -19    6.07    1.69
  12   8 -18    2.05    2.83
  12   8 -17    3.93    1.01
  12   8 -16    6.57    1.63
  12   8 -15    1.97    0.98
  12   8 -14   13.60    1.92
  12   8 -13   10.40    1.77
  12   8 -12    2.48    0.92
  12   8 -11    5.09    1.27
  12   8 -10    3.82    1.33
  12   8  -9    2.22    1.05
  12   8  -8   32.32    2.00
  12   8  -7   10.30    1.32
  12   8  -6    3.31    0.66
  12   8  -5   18.44    1.90
  12   8  -4    1.45    0.64
  12   8  -3    2.40    0.85
  12   8  -2    2.23    0.66
  12   8  -1  114.60    6.86
  12   8   0   37.90    3.52
  12   8   1   11.95    1.34
  12   8   2   10.32    1.14
  12   8   3   17.40    2.06
  12   8   4   57.66    5.39
  12   8   5   47.58    3.65
  12   8   6   10.20    1.52
  12   8   7    3.91    1.41
  12   8   8   71.23    3.42
  12   8   9    2.02    0.90
  12   8  10   22.81    3.40
  12   8  11   15.95    2.25
  12   8  12    0.40    0.99
  12   8  13    5.10    1.72
  12   8  14   42.47    8.84
  12   8  15    1.29    0.84
  12   8  16    2.94    1.33
  12   8  17    3.29    1.38
  12   8  18    4.15    1.91
  12   8  19    2.49    2.52
  12   9 -22    3.35    2.16
  12   9 -21    3.68    1.44
  12   9 -20    2.06    1.33
  12   9 -19    0.46    1.39
  12   9 -18    2.71    2.64
  12   9 -17    0.44    1.05
  12   9 -16    6.70    1.46
  12   9 -15   13.27    2.57
  12   9 -14    3.11    0.91
  12   9 -13   68.04   10.34
  12   9 -12    3.84    1.05
  12   9 -11    2.93    0.94
  12   9 -10    1.31    1.00
  12   9  -9    3.08    1.22
  12   9  -8    0.13    0.80
  12   9  -7  153.50    6.79
  12   9  -6    1.34    0.67
  12   9  -5    4.94    1.54
  12   9  -4    0.66    0.80
  12   9  -3    2.65    0.90
  12   9  -2    2.43    0.92
  12   9  -1   35.86    3.73
  12   9   0   32.27    2.96
  12   9   1   21.34    2.59
  12   9   2    5.58    1.04
  12   9   3    4.83    0.94
  12   9   4    1.34    0.78
  12   9   5    2.35    0.75
  12   9   6   12.81    2.08
  12   9   7   18.40    2.76
  12   9   8    1.78    0.82
  12   9   9    1.72    0.84
  12   9  10   15.61    2.91
  12   9  11    9.95    1.66
  12   9  12    1.21    1.04
  12   9  13   18.91    3.72
  12   9  14    3.38    1.08
  12   9  15    0.68    1.35
  12   9  16    1.96    1.83
  12   9  17    5.53    1.75
  12   9  18   -0.09    1.77
  12  10 -21    1.79    1.51
  12  10 -20    3.11    2.82
  12  10 -19    2.47    0.83
  12  10 -18    1.29    1.08
  12  10 -17    1.58    0.96
  12  10 -16    4.94    1.23
  12  10 -15    2.85    2.10
  12  10 -14    7.02    2.17
  12  10 -13    2.03    1.49
  12  10 -12    4.75    1.15
  12  10 -11    2.59    1.05
  12  10 -10    2.49    1.09
  12  10  -9    1.72    0.92
  12  10  -8   17.25    4.12
  12  10  -7    2.20    0.73
  12  10  -6   26.87    3.35
  12  10  -5    6.20    1.87
  12  10  -4    1.37    0.93
  12  10  -3    1.38    0.57
  12  10  -2    4.21    1.26
  12  10  -1    8.61    1.33
  12  10   0   26.35    2.77
  12  10   1    3.41    0.93
  12  10   2   22.16    2.56
  12  10   3    4.70    1.13
  12  10   4    1.79    0.68
  12  10   5    1.44    0.89
  12  10   6    6.32    1.11
  12  10   7    2.58    1.25
  12  10   8   10.29    1.62
  12  10   9    3.65    1.44
  12  10  10    3.09    0.97
  12  10  11    2.34    1.76
  12  10  12    3.89    0.93
  12  10  13    2.54    1.23
  12  10  14    8.66    2.21
  12  10  15    1.31    0.83
  12  10  16   -1.28    2.14
  12  11 -20   -0.66    1.56
  12  11 -19    2.20    1.27
  12  11 -18    1.24    1.12
  12  11 -17    1.06    0.92
  12  11 -16    0.88    0.77
  12  11 -15    6.58    1.79
  12  11 -14   -1.12    1.29
  12  11 -13   18.74    4.17
  12  11 -12    2.57    1.96
  12  11 -11    5.07    1.07
  12  11 -10    1.02    1.43
  12  11  -9    4.45    1.03
  12  11  -8    2.76    0.93
  12  11  -7   23.56    4.10
  12  11  -6    1.43    0.54
  12  11  -5    1.85    0.78
  12  11  -4    1.62    0.80
  12  11  -3    0.98    0.69
  12  11  -2    0.18    1.09
  12  11  -1    0.69    0.90
  12  11   0    3.39    1.00
  12  11   1   30.71    3.81
  12  11   2    0.07    0.94
  12  11   3    2.13    0.91
  12  11   4    2.04    0.78
  12  11   5    2.42    1.35
  12  11   6    2.34    0.65
  12  11   7   28.94    4.89
  12  11   8    2.56    0.85
  12  11   9    9.61    2.39
  12  11  10    1.91    1.09
  12  11  11    2.38    1.01
  12  11  12    2.45    1.35
  12  11  13    2.38    1.21
  12  11  14   -0.02    1.72
  12  11  15   14.79    4.44
  12  12 -17    1.07    1.68
  12  12 -16    0.85    1.26
  12  12 -15    3.44    1.12
  12  12 -14    5.84    2.09
  12  12 -13    1.27    1.14
  12  12 -12    2.06    0.89
  12  12 -11    1.98    0.98
  12  12 -10    3.17    1.05
  12  12  -9    2.05    1.13
  12  12  -8   17.79    4.30
  12  12  -7    3.37    1.40
  12  12  -6   11.85    2.76
  12  12  -5    7.45    1.46
  12  12  -4    5.52    1.07
  12  12  -3    0.72    1.11
  12  12  -2    1.66    0.78
  12  12  -1    3.27    0.85
  12  12   0   43.68    6.23
  12  12   1    6.44    1.31
  12  12   2    2.14    0.77
  12  12   3    1.65    0.70
  12  12   4    8.79    1.39
  12  12   5    0.48    1.32
  12  12   6   22.84    4.27
  12  12   7    0.87    0.82
  12  12   8   15.49    2.89
  12  12   9    8.86    2.26
  12  12  10    0.60    2.19
  12  12  11    2.66    1.12
  12  12  12    3.21    2.05
  12  12  13   -0.41    2.51
  12  12  14   13.47    6.58
  12  13 -12    3.45    2.99
  12  13 -11    3.95    1.59
  12  13 -10    0.25    0.88
  12  13  -9    2.71    2.19
  12  13  -8    1.78    0.85
  12  13  -7   13.76    2.82
  12  13  -6    6.69    1.39
  12  13  -5    3.21    1.45
  12  13  -4    4.26    0.94
  12  13  -3    2.54    0.74
  12  13  -2   10.98    1.78
  12  13  -1   14.57    3.03
  12  13   0    8.30    1.52
  12  13   1   18.99    3.45
  12  13   2   11.56    2.64
  12  13   3    6.48    1.67
  12  13   4    3.33    0.80
  12  13   5    1.35    0.91
  12  13   6    0.89    1.12
  12  13   7   28.90    5.40
  12  13   8    5.39    1.65
  12  13   9    0.02    1.44
  12  14  -3    2.64    2.07
  12  14  -2    2.98    0.79
  12  14  -1    9.10    1.79
  12  14   0    9.00    1.60
  12  14   1   14.39    3.56
  12  14   2    3.20    1.47
  12  14   3    0.83    1.00
  12  14   4    1.23    0.91
  12  14   5    8.52    4.73
  13   0 -26    3.24    1.88
  13   0 -24   -0.06    1.59
  13   0 -22   10.23    3.09
  13   0 -20    3.72    2.50
  13   0 -18   22.65    4.66
  13   0 -16   -0.98    2.34
  13   0 -14    7.47    1.93
  13   0 -12   65.26    2.81
  13   0 -10  652.41    5.71
  13   0  -8    4.12    0.73
  13   0  -6   19.18    2.46
  13   0  -4  621.73   52.34
  13   0  -2   89.73    3.39
  13   0   0   25.65    3.39
  13   0   2    5.23    1.70
  13   0   4  848.34   32.00
  13   0   6    1.67    0.93
  13   0   8    6.81    1.32
  13   0  10  276.23    5.63
  13   0  12   38.99    4.46
  13   0  14    0.56    2.31
  13   0  16  122.44   12.66
  13   0  18   30.99    9.97
  13   0  20    4.33    1.72
  13   0  22    5.55    1.94
  13   1 -27    1.64    0.99
  13   1 -26    1.78    0.71
  13   1 -25    4.03    1.04
  13   1 -24    6.69    1.79
  13   1 -23    2.48    1.55
  13   1 -22    6.00    1.72
  13   1 -21    0.89    1.34
  13   1 -20    3.07    1.65
  13   1 -19   12.47    2.86
  13   1 -18   17.61    2.78
  13   1 -17    7.38    1.83
  13   1 -16  106.50    7.66
  13   1 -15    4.61    1.19
  13   1 -14    9.68    2.38
  13   1 -13   20.17    3.66
  13   1 -12   24.31    2.18
  13   1 -11  335.96    6.20
  13   1 -10   95.02    4.21
  13   1  -9    7.46    1.22
  13   1  -8   29.42    1.56
  13   1  -7  205.57    3.23
  13   1  -6    2.79    0.88
  13   1  -5  182.65    6.11
  13   1  -4    1.55    0.83
  13   1  -3  397.11    8.81
  13   1  -2   16.34    1.43
  13   1  -1   76.57    3.96
  13   1   0   31.94    2.83
  13   1   1    8.12    1.28
  13   1   2   76.17    3.29
  13   1   3  477.34   14.64
  13   1   4   14.24    1.68
  13   1   5   22.20    2.30
  13   1   6   65.10    5.11
  13   1   7  123.90    2.60
  13   1   8   16.23    1.78
  13   1   9   99.09    4.01
  13   1  10    2.76    1.19
  13   1  11  388.95   16.76
  13   1  12    3.25    0.93
  13   1  13   -0.12    1.33
  13   1  14   -0.06    1.59
  13   1  15    2.46    2.32
  13   1  16    3.98    1.15
  13   1  17  109.45   23.99
  13   1  18    2.88    1.58
  13   1  19    3.56    2.49
  13   1  20    1.83    1.44
  13   1  21    3.16    2.57
  13   1  22    0.93    1.58
  13   1  23    5.11    2.12
  13   2 -27    0.41    1.02
  13   2 -26    1.09    1.06
  13   2 -25    0.71    1.46
  13   2 -24    4.07    1.14
  13   2 -23    4.10    3.06
  13   2 -22    3.71    0.95
  13   2 -21   -0.62    1.17
  13   2 -20   -1.04    1.69
  13   2 -19    4.37    6.06
  13   2 -18   11.52    1.94
  13   2 -17   21.94    3.18
  13   2 -16    9.22    2.65
  13   2 -15    1.10    0.64
  13   2 -14    8.47    1.31
  13   2 -13    1.48    0.94
  13   2 -12    5.00    1.15
  13   2 -11   18.19    1.30
  13   2 -10    9.16    1.37
  13   2  -9  112.21    2.08
  13   2  -8   10.48    1.21
  13   2  -7    2.54    0.58
  13   2  -6   49.22    3.10
  13   2  -5    2.05    0.71
  13   2  -4  107.91    4.04
  13   2  -3   72.00    5.18
  13   2  -2   19.15    1.99
  13   2  -1   35.62    2.43
  13   2   0   64.67    3.58
  13   2   1  107.09    3.55
  13   2   2  185.00    6.30
  13   2   3   10.56    1.48
  13   2   4   62.44    3.42
  13   2   5    5.00    0.90
  13   2   6    3.53    0.68
  13   2   7    1.51    1.23
  13   2   8    5.26    0.87
  13   2   9  155.94    4.56
  13   2  10   49.75    3.96
  13   2  11    0.06    0.64
  13   2  12   69.20    3.78
  13   2  13    9.84    1.72
  13   2  14    5.08    1.58
  13   2  15    1.83    1.80
  13   2  16    1.44    1.26
  13   2  17    4.85    1.19
  13   2  18   63.97    8.59
  13   2  19    3.60    1.10
  13   2  20    2.90    1.20
  13   2  21    3.20    1.30
  13   2  22    5.14    1.17
  13   2  23    0.94    1.07
  13   3 -27    1.71    1.19
  13   3 -26    2.47    1.42
  13   3 -25    9.42    4.36
  13   3 -24    0.89    1.04
  13   3 -23    1.35    2.02
  13   3 -22    4.53    1.48
  13   3 -21    2.52    2.25
  13   3 -20    3.79    2.63
  13   3 -19    8.76    3.07
  13   3 -18   -0.50    1.42
  13   3 -17    2.89    2.87
  13   3 -16    6.22    1.52
  13   3 -15    6.07    1.19
  13   3 -14    4.14    1.11
  13   3 -13    1.86    0.94
  13   3 -12    2.93    1.24
  13   3 -11   33.41    4.34
  13   3 -10    8.02    1.21
  13   3  -9   36.51    3.51
  13   3  -8  113.14    2.52
  13   3  -7   15.43    2.03
  13   3  -6   44.22    2.59
  13   3  -5  136.82    5.07
  13   3  -4   12.64    2.34
  13   3  -3    0.93    0.68
  13   3  -2   66.97    3.65
  13   3  -1   23.53    2.12
  13   3   0   17.01    1.67
  13   3   1  124.24    3.29
  13   3   2    2.31    1.11
  13   3   3    8.79    1.20
  13   3   4   18.70    1.76
  13   3   5   53.65    4.60
  13   3   6   59.44    2.23
  13   3   7   21.15    1.52
  13   3   8   73.45    4.05
  13   3   9    2.16    0.87
  13   3  10   23.46    3.08
  13   3  11  169.25    9.46
  13   3  12    2.96    1.06
  13   3  13    1.24    1.00
  13   3  14    1.88    2.84
  13   3  15    2.36    1.24
  13   3  16   18.78    3.80
  13   3  17   30.52   11.34
  13   3  18    1.97    1.71
  13   3  19    6.01    1.63
  13   3  20    0.01    1.10
  13   3  21    3.76    1.26
  13   3  22    2.61    1.45
  13   3  23    2.41    1.63
  13   4 -27    3.25    1.51
  13   4 -26    3.35    1.59
  13   4 -25    1.87    0.91
  13   4 -24    2.01    1.03
  13   4 -23    2.19    1.30
  13   4 -22    1.28    0.95
  13   4 -21    4.98    1.96
  13   4 -20    8.08    3.07
  13   4 -19    3.24    1.19
  13   4 -18   31.53    4.33
  13   4 -17    9.91    1.98
  13   4 -16    1.57    1.72
  13   4 -15   18.33    2.34
  13   4 -14    9.86    1.90
  13   4 -13    2.05    2.02
  13   4 -12  122.78    6.18
  13   4 -11   67.03    4.05
  13   4 -10    5.39    2.24
  13   4  -9   14.93    1.79
  13   4  -8    0.66    0.56
  13   4  -7    4.99    0.63
  13   4  -6   94.61    4.65
  13   4  -5    8.93    1.76
  13   4  -4   86.83    4.07
  13   4  -3   21.87    1.99
  13   4  -2   10.31    1.29
  13   4  -1   37.34    2.49
  13   4   0    2.40    0.76
  13   4   1   98.00   12.44
  13   4   2  108.60    2.81
  13   4   3   47.15    3.32
  13   4   4  131.00    3.73
  13   4   5   88.72    3.33
  13   4   6   15.81    1.43
  13   4   7   75.94    2.66
  13   4   8   27.85    2.02
  13   4   9   77.76    3.31
  13   4  10   96.06    7.89
  13   4  11    1.70    0.69
  13   4  12    6.00    1.39
  13   4  13    7.25    1.67
  13   4  14    7.52    1.54
  13   4  15   66.70    5.67
  13   4  16    3.55    2.01
  13   4  17   17.06    2.71
  13   4  18   10.53    1.97
  13   4  19   20.85    8.01
  13   4  20    6.95    1.69
  13   4  21    6.97    1.45
  13   4  22    4.89    2.41
  13   4  23    1.56    1.61
  13   5 -25    6.03    2.43
  13   5 -24    1.73    0.97
  13   5 -23    1.61    1.46
  13   5 -22    1.27    1.06
  13   5 -21    0.93    1.00
  13   5 -20    3.13    1.37
  13   5 -19   37.45    6.00
  13   5 -18    1.43    1.40
  13   5 -17   16.95    3.54
  13   5 -16    2.07    0.88
  13   5 -15    6.72    1.44
  13   5 -14    2.16    1.24
  13   5 -13   26.93    3.78
  13   5 -12    1.42    1.37
  13   5 -11   59.96    5.63
  13   5 -10    3.83    0.88
  13   5  -9   12.49    2.19
  13   5  -8   14.95    1.66
  13   5  -7    5.83    0.98
  13   5  -6   71.34    2.57
  13   5  -5   30.31    2.67
  13   5  -4    8.97    1.35
  13   5  -3   91.87    4.47
  13   5  -2   18.98    1.63
  13   5  -1   45.12    3.34
  13   5   0    1.79    0.62
  13   5   1   16.62    2.10
  13   5   2  277.56    4.42
  13   5   3   11.71    1.69
  13   5   4   64.68    5.13
  13   5   5   24.11    2.18
  13   5   6   12.05    1.61
  13   5   7    1.51    0.57
  13   5   8   91.62    7.04
  13   5   9    1.68    0.68
  13   5  10   51.55    2.32
  13   5  11    2.46    0.99
  13   5  12   15.78    2.42
  13   5  13    6.50    2.17
  13   5  14    0.67    1.52
  13   5  15    5.00    1.79
  13   5  16   22.73    4.89
  13   5  17    0.56    1.17
  13   5  18    0.65    1.23
  13   5  19    5.90    2.03
  13   5  20   11.42    3.38
  13   5  21   -1.34    2.25
  13   5  22    1.98    1.51
  13   6 -25    1.12    1.39
  13   6 -24    1.49    0.96
  13   6 -23   -1.52    1.81
  13   6 -22    2.18    1.34
  13   6 -21    3.38    1.60
  13   6 -20    9.61    2.94
  13   6 -19    2.30    1.43
  13   6 -18    3.69    1.37
  13   6 -17    4.54    1.11
  13   6 -16   10.35    2.36
  13   6 -15    4.33    1.37
  13   6 -14   28.64    3.61
  13   6 -13   34.15    3.62
  13   6 -12    2.91    1.56
  13   6 -11    2.24    1.58
  13   6 -10   18.00    2.74
  13   6  -9   78.75    2.95
  13   6  -8   21.75    2.58
  13   6  -7   10.01    1.33
  13   6  -6    2.02    0.66
  13   6  -5  310.79    9.67
  13   6  -4    0.98    0.60
  13   6  -3    3.80    0.89
  13   6  -2   85.67    3.34
  13   6  -1    9.49    1.34
  13   6   0    2.40    0.71
  13   6   1  215.33    4.06
  13   6   2    5.43    1.12
  13   6   3    9.21    1.23
  13   6   4   17.19    3.05
  13   6   5    6.75    1.15
  13   6   6   22.14    1.91
  13   6   7   12.13    1.37
  13   6   8   10.61    1.17
  13   6   9  102.97    3.48
  13   6  10   10.27    2.29
  13   6  11    8.59    1.90
  13   6  12   10.70    1.82
  13   6  13   11.94    2.83
  13   6  14   11.53    2.40
  13   6  15   11.70    4.08
  13   6  16    3.38    1.32
  13   6  17    7.61    2.60
  13   6  18    6.33    4.29
  13   6  19    9.72    2.45
  13   6  20    0.44    1.16
  13   6  21    2.18    1.59
  13   7 -23    0.99    1.36
  13   7 -22    2.59    0.95
  13   7 -21    8.02    2.53
  13   7 -20    3.52    1.33
  13   7 -19    1.81    2.23
  13   7 -18    2.63    3.97
  13   7 -17    4.46    1.25
  13   7 -16    5.59    1.39
  13   7 -15   17.84    2.85
  13   7 -14    4.14    0.97
  13   7 -13    3.72    2.03
  13   7 -12    4.47    1.20
  13   7 -11    5.18    1.37
  13   7 -10    6.21    1.96
  13   7  -9    8.86    1.68
  13   7  -8    2.06    0.85
  13   7  -7   20.56    1.99
  13   7  -6   14.03    1.53
  13   7  -5   11.33    1.33
  13   7  -4    2.02    1.07
  13   7  -3    3.54    1.61
  13   7  -2    1.73    0.74
  13   7  -1   39.63    3.38
  13   7   0    9.20    1.37
  13   7   1    4.44    0.96
  13   7   2    3.13    0.94
  13   7   3    0.82    0.77
  13   7   4    2.43    1.19
  13   7   5   24.20    1.96
  13   7   6   25.23    2.46
  13   7   7   27.13    1.95
  13   7   8   17.10    1.80
  13   7   9   14.00    1.60
  13   7  10   21.52    2.29
  13   7  11    1.12    1.09
  13   7  12    7.62    2.25
  13   7  13   19.27    3.67
  13   7  14    1.95    1.79
  13   7  15   25.80    6.21
  13   7  16   14.66    6.30
  13   7  17    1.27    2.01
  13   7  18    3.50    1.22
  13   7  19    2.72    1.42
  13   7  20    5.29    2.78
  13   8 -23    3.68    1.83
  13   8 -22    1.00    0.83
  13   8 -21    0.37    1.73
  13   8 -20    3.66    1.32
  13   8 -19    4.96    1.39
  13   8 -18    1.43    1.12
  13   8 -17    3.54    1.19
  13   8 -16    1.39    0.90
  13   8 -15    1.19    0.92
  13   8 -14    8.82    2.31
  13   8 -13    8.34    2.28
  13   8 -12    2.15    1.20
  13   8 -11    3.90    1.19
  13   8 -10    6.03    1.60
  13   8  -9    5.81    1.61
  13   8  -8   29.51    3.50
  13   8  -7   14.31    2.05
  13   8  -6    1.25    0.85
  13   8  -5   44.41    3.80
  13   8  -4   11.74    1.49
  13   8  -3    2.31    0.66
  13   8  -2   30.68    3.11
  13   8  -1  111.87    4.41
  13   8   0    5.58    1.65
  13   8   1    0.86    0.85
  13   8   2    3.37    1.61
  13   8   3    6.14    1.60
  13   8   4    1.68    0.85
  13   8   5   99.31    7.89
  13   8   6   10.89    1.63
  13   8   7    1.23    0.87
  13   8   8   14.31    2.28
  13   8   9    1.18    0.72
  13   8  10    1.02    0.93
  13   8  11    2.96    0.71
  13   8  12    0.91    1.08
  13   8  13    5.75    1.72
  13   8  14   23.64    3.96
  13   8  15    1.37    1.68
  13   8  16    1.95    1.44
  13   8  17    1.82    3.75
  13   8  18    2.90    1.32
  13   8  19    0.18    1.06
  13   9 -22    0.38    1.59
  13   9 -21    2.01    1.22
  13   9 -20    3.51    1.32
  13   9 -19    1.78    1.23
  13   9 -18    0.28    0.80
  13   9 -17    3.41    0.94
  13   9 -16    1.21    2.31
  13   9 -15    5.89    1.96
  13   9 -14    4.91    1.55
  13   9 -13   13.85    2.70
  13   9 -12    3.77    1.32
  13   9 -11    5.91    1.74
  13   9 -10    6.61    1.91
  13   9  -9    2.85    1.23
  13   9  -8    3.89    1.37
  13   9  -7  130.45    5.95
  13   9  -6    2.11    0.60
  13   9  -5    0.93    0.68
  13   9  -4    0.91    1.38
  13   9  -3    2.43    1.03
  13   9  -2    1.61    0.84
  13   9  -1   28.66    3.43
  13   9   0    1.62    1.00
  13   9   1    8.52    1.57
  13   9   2    4.94    1.00
  13   9   3    2.65    0.81
  13   9   4    1.70    0.86
  13   9   5   -0.04    0.83
  13   9   6   13.00    3.06
  13   9   7   13.12    2.20
  13   9   8    1.14    0.51
  13   9   9    3.99    1.17
  13   9  10    0.68    1.78
  13   9  11    3.21    1.53
  13   9  12    4.50    0.94
  13   9  13    1.01    0.79
  13   9  14    3.25    1.17
  13   9  15    1.60    0.97
  13   9  16    3.55    1.31
  13   9  17    4.45    2.49
  13  10 -21   -2.20    1.56
  13  10 -20    1.61    1.64
  13  10 -19    0.61    1.21
  13  10 -18   -0.52    1.55
  13  10 -17    4.10    1.44
  13  10 -16    8.36    1.51
  13  10 -15    1.06    1.09
  13  10 -14   10.18    2.76
  13  10 -13    2.39    0.97
  13  10 -12    1.35    1.70
  13  10 -11    3.71    1.75
  13  10 -10    2.13    1.30
  13  10  -9    1.22    1.31
  13  10  -8   35.25    5.32
  13  10  -7    5.91    1.25
  13  10  -6    9.03    2.01
  13  10  -5    2.36    0.76
  13  10  -4    3.49    1.46
  13  10  -3    0.73    0.86
  13  10  -2   11.20    2.19
  13  10  -1    2.21    1.03
  13  10   0   33.10    6.01
  13  10   1    0.90    0.85
  13  10   2    3.66    1.06
  13  10   3    2.09    0.85
  13  10   4    0.91    0.71
  13  10   5    3.77    0.99
  13  10   6    6.96    1.54
  13  10   7    2.06    0.77
  13  10   8   30.11    5.34
  13  10   9    2.33    1.49
  13  10  10    2.52    1.44
  13  10  11    1.16    1.01
  13  10  12    1.00    0.82
  13  10  13    2.99    1.73
  13  10  14    4.33    2.15
  13  10  15    7.37    2.66
  13  11 -18   -0.26    1.89
  13  11 -17    1.32    0.72
  13  11 -16    0.82    4.06
  13  11 -15    4.10    1.32
  13  11 -14    2.39    0.91
  13  11 -13    3.15    0.88
  13  11 -12    1.73    1.98
  13  11 -11    1.91    1.34
  13  11 -10    7.51    2.44
  13  11  -9    1.70    1.13
  13  11  -8    3.25    1.07
  13  11  -7   27.90    4.80
  13  11  -6    2.42    1.70
  13  11  -5    3.94    1.09
  13  11  -4    1.73    1.13
  13  11  -3    2.49    0.87
  13  11  -2   -0.21    0.76
  13  11  -1   20.71    2.62
  13  11   0    1.81    0.95
  13  11   1   14.93    2.32
  13  11   2    2.23    0.77
  13  11   3    1.16    0.87
  13  11   4    2.64    0.64
  13  11   5    6.42    1.53
  13  11   6    2.48    0.84
  13  11   7   15.16    2.85
  13  11   8    1.86    1.17
  13  11   9    5.89    1.79
  13  11  10    0.16    1.58
  13  11  11    2.47    1.34
  13  11  12    0.16    1.11
  13  11  13    4.35    2.46
  13  11  14    4.83    2.25
  13  12 -16   -1.04    1.47
  13  12 -15    2.55    1.62
  13  12 -14    5.40    1.81
  13  12 -13    1.56    1.40
  13  12 -12    0.08    2.59
  13  12 -11    2.79    0.65
  13  12 -10    0.26    1.66
  13  12  -9    8.28    1.61
  13  12  -8   14.59    3.92
  13  12  -7    3.02    1.07
  13  12  -6    5.71    1.39
  13  12  -5    0.83    1.28
  13  12  -4    0.14    1.06
  13  12  -3    5.37    0.84
  13  12  -2    3.26    1.29
  13  12  -1    1.66    0.67
  13  12   0   29.58    5.52
  13  12   1    0.66    0.68
  13  12   2    1.71    0.87
  13  12   3    0.75    0.55
  13  12   4    3.49    1.04
  13  12   5    1.49    0.74
  13  12   6   17.34    3.27
  13  12   7    1.77    1.62
  13  12   8   15.55    2.82
  13  12   9    1.64    1.07
  13  12  10    8.81    2.47
  13  12  11    3.90    1.27
  13  12  12    1.91    2.44
  13  12  13    5.60    2.44
  13  13  -8    4.62    3.76
  13  13  -7    9.53    4.37
  13  13  -6    1.62    1.11
  13  13  -5    2.07    1.30
  13  13  -4    2.05    0.66
  13  13  -3    2.29    1.29
  13  13  -2   11.00    2.06
  13  13  -1   10.90    1.31
  13  13   0    1.87    1.16
  13  13   1    3.04    1.41
  13  13   2    7.52    1.06
  13  13   3    4.03    0.85
  13  13   4   11.13    2.13
  13  13   5    2.70    1.07
  13  13   6    0.52    0.68
  13  13   7   15.83    7.54
  13  14  -1    0.85    0.98
  13  14   0    2.80    1.13
  13  14   1    4.23    1.51
  13  14   2    1.35    0.72
  13  14   3    0.78    0.95
  13  14   4   -1.29    1.62
  14   0 -26    4.41    1.94
  14   0 -24    1.66    1.62
  14   0 -22    4.23    1.97
  14   0 -20   17.27    7.36
  14   0 -18    5.96    2.28
  14   0 -16   -1.97    2.48
  14   0 -14    6.89    1.86
  14   0 -12   76.77    4.32
  14   0 -10  233.27    5.44
  14   0  -8   10.24    1.85
  14   0  -6   42.85    5.42
  14   0  -4  691.25   16.16
  14   0  -2   89.45    5.90
  14   0   0  110.37    4.28
  14   0   2  688.06    7.58
  14   0   4  245.01    5.05
  14   0   6   48.10    4.11
  14   0   8    5.02    1.62
  14   0  10  102.65    8.97
  14   0  12   19.44    5.02
  14   0  14   15.91    2.83
  14   0  16   33.99   13.80
  14   0  18    1.52    3.09
  14   0  20    4.68    1.86
  14   0  22    4.02    1.30
  14   1 -27    1.43    1.47
  14   1 -26    3.28    1.04
  14   1 -25    0.61    1.25
  14   1 -24    1.52    1.03
  14   1 -23    1.20    0.93
  14   1 -22    0.67    4.12
  14   1 -21    2.67    0.84
  14   1 -20    4.76    1.37
  14   1 -19   19.89    2.97
  14   1 -18   24.22    4.21
  14   1 -17    1.47    1.28
  14   1 -16   35.80    5.02
  14   1 -15    0.83    1.22
  14   1 -14    9.76    2.30
  14   1 -13    8.45    1.97
  14   1 -12   10.39    2.69
  14   1 -11    7.07    1.69
  14   1 -10  160.73    9.63
  14   1  -9   17.91    3.37
  14   1  -8    4.54    0.78
  14   1  -7    1.49    0.51
  14   1  -6    1.81    0.55
  14   1  -5  167.66   11.38
  14   1  -4    4.67    0.80
  14   1  -3   80.47    4.47
  14   1  -2   37.23    2.96
  14   1  -1   77.62    4.96
  14   1   0   94.15    4.22
  14   1   1   80.27    4.56
  14   1   2    4.75    1.65
  14   1   3  208.71    3.55
  14   1   4   39.94    2.44
  14   1   5    1.59    0.83
  14   1   6   14.92    1.75
  14   1   7    3.71    0.94
  14   1   8   14.17    1.85
  14   1   9   25.42    3.36
  14   1  10    6.19    1.03
  14   1  11   22.92    1.75
  14   1  12   10.44    2.16
  14   1  13    9.54    4.85
  14   1  14    1.14    1.93
  14   1  15    2.01    1.58
  14   1  16    5.38    1.17
  14   1  17   84.70    9.84
  14   1  18    1.85    3.55
  14   1  19    4.27    1.52
  14   1  20    2.46    1.60
  14   1  21    2.80    1.51
  14   1  22    2.58    0.88
  14   2 -27    1.86    1.52
  14   2 -26    2.43    1.11
  14   2 -25    2.62    1.38
  14   2 -24    2.64    3.27
  14   2 -23    0.22    1.37
  14   2 -22    2.47    1.00
  14   2 -21   -2.42    1.49
  14   2 -20    2.20    1.32
  14   2 -19    0.48    1.75
  14   2 -18   16.60    3.20
  14   2 -17   18.25    2.35
  14   2 -16    1.52    2.02
  14   2 -15    0.01    1.71
  14   2 -14    1.87    1.50
  14   2 -13   -0.25    0.99
  14   2 -12    4.53    1.26
  14   2 -11   23.16    2.95
  14   2 -10    1.55    0.62
  14   2  -9    0.37    0.42
  14   2  -8   32.11    6.74
  14   2  -7    2.60    0.76
  14   2  -6    1.14    0.67
  14   2  -5    2.02    0.63
  14   2  -4   15.87    1.62
  14   2  -3    3.30    0.78
  14   2  -2    2.82    0.81
  14   2  -1  120.85    4.11
  14   2   0   -0.38    1.17
  14   2   1    4.53    1.08
  14   2   2   16.56    2.94
  14   2   3   46.74    2.64
  14   2   4  108.67    6.74
  14   2   5  283.19   16.95
  14   2   6   10.49    1.39
  14   2   7    3.55    0.83
  14   2   8    4.56    1.28
  14   2   9   21.13    2.04
  14   2  10   79.08    4.95
  14   2  11    6.90    1.50
  14   2  12    6.59    1.34
  14   2  13   21.51    4.04
  14   2  14    5.30    1.53
  14   2  15   10.86    4.19
  14   2  16   24.81    5.22
  14   2  17    5.52    2.53
  14   2  18   32.25    7.55
  14   2  19    3.80    1.86
  14   2  20    3.19    1.55
  14   2  21   -1.50    1.55
  14   2  22   -0.03    1.23
  14   3 -27   -2.01    1.35
  14   3 -26   -0.86    1.37
  14   3 -25    2.40    1.05
  14   3 -24   -1.48    1.30
  14   3 -23    2.78    1.09
  14   3 -22    2.35    0.91
  14   3 -21    1.50    1.68
  14   3 -20    2.01    0.95
  14   3 -19   20.52    3.69
  14   3 -18    1.11    1.46
  14   3 -17    1.66    2.11
  14   3 -16   -0.91    1.52
  14   3 -15    0.83    2.15
  14   3 -14    1.66    0.64
  14   3 -13   26.55    4.69
  14   3 -12    2.43    0.87
  14   3 -11   28.78    3.06
  14   3 -10    2.22    0.51
  14   3  -9    6.49    0.87
  14   3  -8   12.73    2.95
  14   3  -7    8.54    1.28
  14   3  -6    3.86    0.86
  14   3  -5   71.34    4.53
  14   3  -4   30.16    3.07
  14   3  -3    1.03    0.93
  14   3  -2    3.39    1.10
  14   3  -1    1.77    0.62
  14   3   0  203.91    9.43
  14   3   1  173.00    6.03
  14   3   2    5.43    1.08
  14   3   3    5.26    1.48
  14   3   4   29.52    2.10
  14   3   5   22.04    2.15
  14   3   6   81.68    6.58
  14   3   7   95.41    4.26
  14   3   8   15.87    1.55
  14   3   9   38.30    3.90
  14   3  10    1.30    0.62
  14   3  11   26.77    3.21
  14   3  12   26.24    2.32
  14   3  13    3.96    1.35
  14   3  14   24.04    2.74
  14   3  15    4.22    2.03
  14   3  16    6.13    1.91
  14   3  17   41.58    7.73
  14   3  18    0.27    1.58
  14   3  19    2.57    1.40
  14   3  20   -2.60    2.02
  14   3  21    1.01    1.10
  14   3  22    3.54    1.78
  14   4 -26    1.46    1.44
  14   4 -25    0.93    2.07
  14   4 -24    3.45    1.41
  14   4 -23    0.47    0.97
  14   4 -22    2.67    0.80
  14   4 -21    6.23    2.36
  14   4 -20   11.72    3.16
  14   4 -19    1.67    2.77
  14   4 -18    5.45    1.73
  14   4 -17    4.50    1.20
  14   4 -16    2.11    1.51
  14   4 -15    1.98    1.43
  14   4 -14   18.60    2.35
  14   4 -13   -0.14    1.02
  14   4 -12   55.48    6.47
  14   4 -11   23.89    3.97
  14   4 -10    8.96    1.88
  14   4  -9    2.24    0.76
  14   4  -8    5.67    1.39
  14   4  -7   19.93    1.59
  14   4  -6   79.29    3.36
  14   4  -5   20.70    1.86
  14   4  -4   10.23    2.63
  14   4  -3   69.64    3.25
  14   4  -2   16.11    1.79
  14   4  -1  125.78    3.97
  14   4   0   27.76    2.21
  14   4   1   63.59    5.39
  14   4   2   22.20    2.44
  14   4   3   14.12    1.88
  14   4   4   15.08    1.77
  14   4   5   79.16    4.45
  14   4   6    2.26    0.71
  14   4   7   73.61    4.00
  14   4   8    0.74    1.32
  14   4   9    1.03    0.67
  14   4  10   20.05    2.64
  14   4  11    1.61    3.43
  14   4  12    3.55    0.99
  14   4  13    3.20    1.31
  14   4  14   15.32    4.56
  14   4  15   30.08   10.04
  14   4  16    8.67    2.62
  14   4  17   30.68   10.10
  14   4  18    6.23    2.30
  14   4  19    0.78    2.87
  14   4  20    0.86    2.02
  14   4  21    3.86    2.33
  14   5 -25   -0.13    1.02
  14   5 -24    1.25    1.01
  14   5 -23    1.89    0.84
  14   5 -22    1.99    1.05
  14   5 -21    1.37    2.00
  14   5 -20    5.43    2.62
  14   5 -19    6.20    3.11
  14   5 -18    7.63    3.14
  14   5 -17    4.01    2.07
  14   5 -16    7.68    1.93
  14   5 -15    3.86    0.98
  14   5 -14    5.25    1.54
  14   5 -13    5.49    1.42
  14   5 -12   31.64    5.43
  14   5 -11    5.47    0.93
  14   5 -10   26.34    4.15
  14   5  -9   43.15    2.45
  14   5  -8    5.00    1.54
  14   5  -7    4.89    1.08
  14   5  -6    2.87    1.11
  14   5  -5    4.90    0.90
  14   5  -4    1.08    0.63
  14   5  -3   13.60    1.97
  14   5  -2  130.87    4.96
  14   5  -1    4.48    1.35
  14   5   0   73.63    3.00
  14   5   1   30.95    3.01
  14   5   2   67.55    4.19
  14   5   3    2.86    0.76
  14   5   4   55.55    7.21
  14   5   5    3.00    1.13
  14   5   6    5.85    1.08
  14   5   7    2.28    1.47
  14   5   8  153.95    4.18
  14   5   9    1.55    1.03
  14   5  10    1.30    0.72
  14   5  11    2.03    0.97
  14   5  12    2.78    1.24
  14   5  13    3.55    0.85
  14   5  14    0.66    3.18
  14   5  15    2.60    0.88
  14   5  16   33.85    7.28
  14   5  17    2.11    1.94
  14   5  18    3.18    1.62
  14   5  19    1.09    1.95
  14   5  20    1.76    2.66
  14   6 -24    1.11    1.24
  14   6 -23    1.82    1.14
  14   6 -22    5.40    1.39
  14   6 -21    7.68    2.08
  14   6 -20    4.48    1.48
  14   6 -19    6.86    1.60
  14   6 -18    3.59    2.25
  14   6 -17    7.47    2.93
  14   6 -16    2.50    1.17
  14   6 -15    4.20    1.87
  14   6 -14    4.81    1.27
  14   6 -13   36.13    7.51
  14   6 -12   34.29    7.43
  14   6 -11    0.25    1.15
  14   6 -10    1.66    1.09
  14   6  -9   14.54    1.94
  14   6  -8   29.79    5.30
  14   6  -7   10.11    1.54
  14   6  -6   18.36    1.99
  14   6  -5    2.22    0.82
  14   6  -4    2.15    1.22
  14   6  -3    5.24    1.32
  14   6  -2    9.12    1.96
  14   6  -1    1.53    0.69
  14   6   0   16.63    1.63
  14   6   1    7.24    1.28
  14   6   2   12.70    2.43
  14   6   3   23.14    2.49
  14   6   4   12.27    1.94
  14   6   5    3.03    0.94
  14   6   6    2.89    0.76
  14   6   7    1.68    0.58
  14   6   8   10.69    1.53
  14   6   9   12.17    2.48
  14   6  10    1.50    1.16
  14   6  11    6.55    1.50
  14   6  12   12.00    1.68
  14   6  13    2.71    0.88
  14   6  14    2.55    1.46
  14   6  15   21.00    3.54
  14   6  16   -0.79    1.38
  14   6  17    2.04    1.40
  14   6  18    4.78    1.67
  14   6  19    5.54    1.57
  14   6  20    2.56    1.70
  14   7 -23    3.13    1.82
  14   7 -22    0.37    0.71
  14   7 -21   10.84    2.09
  14   7 -20    2.57    3.99
  14   7 -19    2.54    1.30
  14   7 -18    5.19    1.47
  14   7 -17    2.28    1.12
  14   7 -16    1.77    1.48
  14   7 -15   25.66    3.88
  14   7 -14    4.47    1.16
  14   7 -13    3.74    1.67
  14   7 -12    3.42    1.19
  14   7 -11    3.17    1.07
  14   7 -10    3.80    1.33
  14   7  -9   14.92    2.56
  14   7  -8    0.84    0.73
  14   7  -7    7.94    1.18
  14   7  -6   29.33    2.83
  14   7  -5   14.98    1.62
  14   7  -4    5.58    1.20
  14   7  -3    4.05    0.73
  14   7  -2    7.73    1.75
  14   7  -1   37.11    3.48
  14   7   0   25.33    2.98
  14   7   1   71.35    4.81
  14   7   2   69.03    4.26
  14   7   3    1.43    0.63
  14   7   4   19.81    2.25
  14   7   5   31.55    3.42
  14   7   6   18.62    2.12
  14   7   7    6.10    1.16
  14   7   8   27.64    4.30
  14   7   9    4.02    0.99
  14   7  10    5.20    1.25
  14   7  11    8.25    1.64
  14   7  12   18.01    4.96
  14   7  13    3.17    0.85
  14   7  14    0.90    0.99
  14   7  15   18.77    5.65
  14   7  16    8.22    2.92
  14   7  17    0.92    0.96
  14   7  18    2.07    1.12
  14   7  19    4.66    2.15
  14   8 -22    3.10    1.74
  14   8 -21   -1.51    1.79
  14   8 -20    0.81    0.96
  14   8 -19    2.27    1.14
  14   8 -18    0.70    1.36
  14   8 -17    3.47    0.80
  14   8 -16    2.09    1.20
  14   8 -15    0.87    2.38
  14   8 -14   14.78    2.47
  14   8 -13    5.46    1.75
  14   8 -12    1.15    1.15
  14   8 -11    0.74    2.36
  14   8 -10    1.64    1.72
  14   8  -9    2.42    1.65
  14   8  -8   11.52    3.93
  14   8  -7   10.93    1.74
  14   8  -6    4.42    1.06
  14   8  -5    1.05    1.08
  14   8  -4    2.20    1.07
  14   8  -3    2.44    1.21
  14   8  -2   51.13    4.16
  14   8  -1    2.29    0.63
  14   8   0   28.23    3.26
  14   8   1   19.90    3.12
  14   8   2    2.41    0.92
  14   8   3    7.02    1.58
  14   8   4    7.67    1.26
  14   8   5    9.98    1.45
  14   8   6   23.29    2.53
  14   8   7    3.19    1.07
  14   8   8   22.55    3.26
  14   8   9    1.91    0.89
  14   8  10    1.88    1.11
  14   8  11    2.18    0.97
  14   8  12    2.24    0.78
  14   8  13    2.17    1.09
  14   8  14   20.43    7.74
  14   8  15    1.42    1.20
  14   8  16    3.58    0.86
  14   8  17   -1.97    2.13
  14   9 -21    3.15    2.19
  14   9 -20    0.86    2.06
  14   9 -19    9.38    3.70
  14   9 -18    1.84    3.32
  14   9 -17    2.59    1.06
  14   9 -16    2.49    0.95
  14   9 -15    6.15    2.59
  14   9 -14    2.85    1.27
  14   9 -13    2.17    1.04
  14   9 -12    3.00    0.99
  14   9 -11   -0.67    1.04
  14   9 -10    0.86    1.20
  14   9  -9    5.55    1.34
  14   9  -8    3.45    1.24
  14   9  -7   24.24    3.95
  14   9  -6    6.63    1.15
  14   9  -5    0.70    0.54
  14   9  -4    1.88    0.80
  14   9  -3    0.91    1.10
  14   9  -2   12.62    1.68
  14   9  -1   31.25    4.04
  14   9   0    1.39    1.11
  14   9   1   25.34    2.65
  14   9   2   14.53    1.74
  14   9   3    3.58    1.00
  14   9   4    2.34    0.82
  14   9   5    4.30    1.12
  14   9   6   39.45    6.36
  14   9   7   11.21    2.26
  14   9   8    3.00    1.47
  14   9   9   14.99    2.75
  14   9  10   -1.32    1.93
  14   9  11    1.46    1.52
  14   9  12    7.89    1.58
  14   9  13    6.89    1.15
  14   9  14    0.50    1.43
  14   9  15    6.55    1.80
  14  10 -19    1.33    1.71
  14  10 -18    3.46    2.93
  14  10 -17    2.26    0.86
  14  10 -16    4.23    1.35
  14  10 -15    3.25    1.05
  14  10 -14    5.65    1.63
  14  10 -13    2.09    1.36
  14  10 -12    3.41    1.47
  14  10 -11    1.41    1.29
  14  10 -10    0.29    0.90
  14  10  -9    3.71    0.97
  14  10  -8   26.70    5.45
  14  10  -7    2.43    0.94
  14  10  -6    3.70    1.22
  14  10  -5    8.92    1.50
  14  10  -4    3.32    0.87
  14  10  -3    1.67    0.86
  14  10  -2   28.86    3.49
  14  10  -1    3.50    0.93
  14  10   0   24.50    3.40
  14  10   1    2.71    0.90
  14  10   2    2.73    0.96
  14  10   3    2.30    0.75
  14  10   4    1.64    0.59
  14  10   5    1.11    0.69
  14  10   6   20.12    3.05
  14  10   7    1.09    0.63
  14  10   8   11.47    3.73
  14  10   9    2.82    1.20
  14  10  10    0.80    0.65
  14  10  11    2.61    1.02
  14  10  12    4.13    1.80
  14  10  13    2.61    1.08
  14  11 -17    2.60    1.22
  14  11 -16    3.06    2.15
  14  11 -15    1.81    2.13
  14  11 -14    2.64    1.23
  14  11 -13    0.29    0.94
  14  11 -12    4.30    1.30
  14  11 -11    3.48    2.41
  14  11 -10    3.06    3.07
  14  11  -9    3.98    1.18
  14  11  -8    0.18    1.02
  14  11  -7    3.68    1.07
  14  11  -6    2.19    0.87
  14  11  -5    1.60    2.08
  14  11  -4    2.37    0.91
  14  11  -3   -0.81    0.77
  14  11  -2    2.29    1.12
  14  11  -1   27.56    4.31
  14  11   0    0.01    0.60
  14  11   1    2.26    0.79
  14  11   2    1.68    1.02
  14  11   3    4.60    1.40
  14  11   4    2.17    0.72
  14  11   5    2.26    0.78
  14  11   6    1.49    0.78
  14  11   7   12.37    2.81
  14  11   8    3.74    1.12
  14  11   9    2.16    1.33
  14  11  10    1.34    1.41
  14  11  11    1.18    0.80
  14  11  12   -1.32    1.78
  14  11  13    5.97    4.71
  14  12 -14    3.06    2.15
  14  12 -13    0.27    1.43
  14  12 -12    3.10    1.93
  14  12 -11    2.21    1.40
  14  12 -10    4.05    1.20
  14  12  -9    1.79    0.89
  14  12  -8    3.04    1.14
  14  12  -7    2.93    1.24
  14  12  -6    3.97    1.03
  14  12  -5    2.33    1.65
  14  12  -4    0.24    1.36
  14  12  -3    4.45    1.13
  14  12  -2    8.74    1.99
  14  12  -1    0.72    0.67
  14  12   0    4.63    1.05
  14  12   1    0.37    0.90
  14  12   2    2.06    0.62
  14  12   3    3.38    0.84
  14  12   4    1.80    0.77
  14  12   5    0.42    0.54
  14  12   6    3.67    1.04
  14  12   7    0.74    3.15
  14  12   8    2.90    1.99
  14  12   9   -2.97    2.03
  14  12  10    4.47    1.68
  14  13  -4    2.68    2.16
  14  13  -3    1.61    1.46
  14  13  -2    1.34    1.18
  14  13  -1    7.15    1.15
  14  13   0    3.06    1.07
  14  13   1    3.18    1.17
  14  13   3    1.46    0.67
  14  13   4    8.58    3.59
  14  13   5    2.60    1.55
  14  14   2    0.66    0.85
  15   0 -26    4.14    1.59
  15   0 -24   -0.58    1.83
  15   0 -22   -0.84    2.07
  15   0 -20    3.68    1.85
  15   0 -18   24.83    6.31
  15   0 -16    4.60    2.44
  15   0 -14    8.47    2.14
  15   0 -12  196.03   19.90
  15   0 -10   23.26    5.10
  15   0  -8   80.26    3.05
  15   0  -6  108.70    8.04
  15   0  -4  584.77    8.48
  15   0  -2   17.92    2.36
  15   0   0    5.80    2.31
  15   0   2  495.94    9.25
  15   0   4  100.29    5.21
  15   0   6    4.47    1.49
  15   0   8  119.18   10.18
  15   0  10  221.75    8.95
  15   0  12    2.41    2.14
  15   0  14    4.00    2.19
  15   0  16   31.94   11.66
  15   0  18   -0.01    3.01
  15   0  20    4.13    1.02
  15   1 -26    2.64    0.93
  15   1 -25    0.57    0.79
  15   1 -24    2.03    0.95
  15   1 -23    1.93    1.10
  15   1 -22    2.97    1.18
  15   1 -21    1.61    1.54
  15   1 -20    4.42    1.27
  15   1 -19    8.12    2.05
  15   1 -18    3.69    1.00
  15   1 -17    2.54    1.63
  15   1 -16    3.35    1.02
  15   1 -15    1.01    2.73
  15   1 -14   22.05    2.81
  15   1 -13    9.29    1.80
  15   1 -12    9.41    2.19
  15   1 -11   12.75    1.55
  15   1 -10   19.27    2.25
  15   1  -9   19.77    3.08
  15   1  -8    3.28    0.81
  15   1  -7    7.64    1.24
  15   1  -6    5.04    1.18
  15   1  -5   33.07    2.34
  15   1  -4   42.84    3.31
  15   1  -3  218.17    5.84
  15   1  -2    3.91    1.02
  15   1  -1   33.60    2.70
  15   1   0   54.15    2.82
  15   1   1    8.05    1.29
  15   1   2  213.53    5.08
  15   1   3  260.68    8.02
  15   1   4   52.75    4.02
  15   1   5    5.18    1.75
  15   1   6    6.74    1.21
  15   1   7    4.74    0.91
  15   1   8   60.65    4.59
  15   1   9   95.11    7.05
  15   1  10    2.26    0.69
  15   1  11   45.51    2.64
  15   1  12   49.47    8.41
  15   1  13    3.34    1.13
  15   1  14    3.55    1.51
  15   1  15    2.81    1.35
  15   1  16    6.78    1.80
  15   1  17   22.83    3.17
  15   1  18    2.88    1.80
  15   1  19    3.26    2.67
  15   1  20    3.85    1.46
  15   1  21    1.44    1.87
  15   2 -26    0.60    0.73
  15   2 -25    1.81    1.24
  15   2 -24    3.22    3.03
  15   2 -23    1.31    1.47
  15   2 -22    1.59    2.26
  15   2 -21    1.52    1.58
  15   2 -20   -0.05    0.77
  15   2 -19    3.32    3.86
  15   2 -18   11.67    2.44
  15   2 -17    6.81    2.40
  15   2 -16    0.81    2.11
  15   2 -15    0.11    1.69
  15   2 -14    0.05    3.49
  15   2 -13    2.31    0.72
  15   2 -12   17.27    5.15
  15   2 -11   19.09    2.41
  15   2 -10    2.38    0.88
  15   2  -9    0.55    0.57
  15   2  -8    0.79    0.80
  15   2  -7    4.83    2.46
  15   2  -6   27.64    2.36
  15   2  -5   91.80    4.30
  15   2  -4    1.24    0.79
  15   2  -3   -0.43    0.88
  15   2  -2    4.02    0.91
  15   2  -1   15.49    2.35
  15   2   0   37.59    2.88
  15   2   1    7.96    1.42
  15   2   2    2.95    1.91
  15   2   3    1.47    0.84
  15   2   4    0.10    1.38
  15   2   5   25.09    1.91
  15   2   6    8.01    1.18
  15   2   7   15.70    1.86
  15   2   8   47.29    3.93
  15   2   9   11.18    1.55
  15   2  10   15.84    1.69
  15   2  11   34.02    4.13
  15   2  12   18.76    3.42
  15   2  13   26.94    6.05
  15   2  14    5.12    1.32
  15   2  15   -0.57    1.76
  15   2  16    6.71    2.46
  15   2  17   -1.16    1.94
  15   2  18   16.45    4.13
  15   2  19   15.78    3.57
  15   2  20    3.49    1.08
  15   2  21   -2.08    2.07
  15   3 -25    2.49    1.25
  15   3 -24    4.77    1.49
  15   3 -23    2.60    1.04
  15   3 -22    2.80    0.98
  15   3 -21    2.30    1.94
  15   3 -20    4.88    1.74
  15   3 -19   28.90    6.42
  15   3 -18    2.27    1.47
  15   3 -17   10.34    2.70
  15   3 -16    6.12    1.87
  15   3 -15    4.76    1.60
  15   3 -14    2.29    1.26
  15   3 -13   10.79    2.90
  15   3 -12    4.68    1.03
  15   3 -11   11.47    4.04
  15   3 -10   14.07    3.19
  15   3  -9    1.21    0.61
  15   3  -8    0.72    0.93
  15   3  -7    3.38    0.63
  15   3  -6    1.95    0.67
  15   3  -5   17.82    1.98
  15   3  -4    1.54    0.78
  15   3  -3   44.12    2.50
  15   3  -2   31.94    2.61
  15   3  -1    2.16    1.05
  15   3   0    4.24    1.00
  15   3   1    9.62    1.47
  15   3   2   29.44    1.93
  15   3   3   24.25    1.86
  15   3   4    2.66    1.54
  15   3   5    2.30    0.70
  15   3   6   58.39    4.58
  15   3   7    3.21    0.96
  15   3   8    3.39    0.67
  15   3   9    5.31    1.05
  15   3  10    9.67    1.76
  15   3  11    2.57    1.01
  15   3  12   21.91    2.67
  15   3  13    3.20    1.56
  15   3  14    1.88    1.18
  15   3  15    0.57    1.61
  15   3  16    1.87    1.47
  15   3  17    4.78    1.39
  15   3  18    2.02    1.31
  15   3  19    3.07    1.87
  15   3  20   -0.37    3.13
  15   4 -25    3.50    1.75
  15   4 -24    1.21    3.16
  15   4 -23    2.08    0.85
  15   4 -22    3.66    1.44
  15   4 -21    3.07    1.09
  15   4 -20    6.51    3.20
  15   4 -19   10.20    2.59
  15   4 -18    6.18    1.42
  15   4 -17    3.17    1.55
  15   4 -16    7.73    2.31
  15   4 -15    2.77    2.08
  15   4 -14    5.24    1.50
  15   4 -13   34.63    4.15
  15   4 -12   17.10    2.77
  15   4 -11   11.68    2.92
  15   4 -10    2.31    0.87
  15   4  -9    4.07    0.87
  15   4  -8    1.41    0.62
  15   4  -7   12.37    1.74
  15   4  -6   73.71    3.96
  15   4  -5   23.10    2.01
  15   4  -4   20.44    1.87
  15   4  -3    4.26    1.14
  15   4  -2    2.97    1.37
  15   4  -1   32.52    2.25
  15   4   0    6.90    0.91
  15   4   1    4.43    1.32
  15   4   2   12.03    1.76
  15   4   3    1.66    1.15
  15   4   4    6.65    1.20
  15   4   5   39.64    3.75
  15   4   6    3.12    0.79
  15   4   7    0.91    0.75
  15   4   8    1.40    0.73
  15   4   9    0.91    0.74
  15   4  10   21.83    2.78
  15   4  11    9.59    2.77
  15   4  12    0.11    2.16
  15   4  13    2.29    1.25
  15   4  14    7.12    2.54
  15   4  15    3.58    1.47
  15   4  16    1.82    1.05
  15   4  17    4.29    1.14
  15   4  18    7.88    2.12
  15   4  19   -2.44    1.68
  15   4  20    1.18    2.29
  15   5 -24    2.86    1.09
  15   5 -23    2.76    1.27
  15   5 -22    2.92    0.88
  15   5 -21    3.60    1.44
  15   5 -20   10.89    2.68
  15   5 -19    5.60    2.06
  15   5 -18    1.07    1.99
  15   5 -17    3.56    1.36
  15   5 -16    6.82    4.16
  15   5 -15    2.17    1.49
  15   5 -14   25.91    3.89
  15   5 -13    7.99    2.42
  15   5 -12    6.14    2.67
  15   5 -11    4.04    1.94
  15   5 -10    1.24    0.97
  15   5  -9    9.39    1.97
  15   5  -8    0.95    0.60
  15   5  -7    7.32    1.47
  15   5  -6  141.22    7.41
  15   5  -5   26.89    1.98
  15   5  -4    1.99    0.77
  15   5  -3   35.00    2.71
  15   5  -2   16.40    2.41
  15   5  -1   -0.54    0.89
  15   5   0    1.85    0.82
  15   5   1   17.09    2.11
  15   5   2    4.19    0.84
  15   5   3    1.89    0.88
  15   5   4   91.74    5.02
  15   5   5    2.88    0.71
  15   5   6    4.14    1.81
  15   5   7    8.17    1.49
  15   5   8   19.01    2.55
  15   5   9    3.17    1.05
  15   5  10    4.65    1.21
  15   5  11    2.89    0.97
  15   5  12   21.11    4.58
  15   5  13    3.27    1.36
  15   5  14   13.19    6.39
  15   5  15   -0.57    1.58
  15   5  16    2.71    2.46
  15   5  17    3.27    1.29
  15   5  18    2.99    1.28
  15   5  19    1.49    1.27
  15   6 -24    2.12    1.66
  15   6 -23    1.00    0.93
  15   6 -22    1.09    1.44
  15   6 -21    5.88    1.38
  15   6 -20    1.17    2.43
  15   6 -19    2.76    1.67
  15   6 -18    1.49    1.26
  15   6 -17    4.43    1.42
  15   6 -16    2.89    1.55
  15   6 -15    3.94    1.17
  15   6 -14   19.67    4.03
  15   6 -13   33.09   10.72
  15   6 -12    7.42    2.73
  15   6 -11    2.91    1.15
  15   6 -10    5.90    1.51
  15   6  -9   26.91    2.55
  15   6  -8   18.28    2.56
  15   6  -7   49.63    3.70
  15   6  -6   32.24    3.30
  15   6  -5   10.66    2.69
  15   6  -4   21.14    3.06
  15   6  -3   12.81    1.81
  15   6  -2    4.97    0.85
  15   6  -1   13.35    3.22
  15   6   0    2.23    0.89
  15   6   1    7.68    1.03
  15   6   2    9.37    1.90
  15   6   3    6.28    1.02
  15   6   4    1.39    0.55
  15   6   5   31.75    2.42
  15   6   6    6.59    1.36
  15   6   7    1.91    1.71
  15   6   8    3.70    1.31
  15   6   9    2.39    0.89
  15   6  10    2.72    1.04
  15   6  11    7.52    1.70
  15   6  12    5.14    1.22
  15   6  13    1.29    1.21
  15   6  14    5.00    2.61
  15   6  15    2.96    1.04
  15   6  16    0.15    1.30
  15   6  17    1.13    1.14
  15   6  18    4.57    1.56
  15   7 -23    0.44    0.69
  15   7 -22    3.49    1.90
  15   7 -21    4.07    1.79
  15   7 -20    5.86    1.49
  15   7 -19    0.62    1.49
  15   7 -18    3.31    1.35
  15   7 -17    0.53    1.57
  15   7 -16    4.36    1.68
  15   7 -15   17.56    2.00
  15   7 -14    0.66    2.77
  15   7 -13   10.20    2.15
  15   7 -12    4.29    1.07
  15   7 -11    3.05    1.21
  15   7 -10   21.80    3.60
  15   7  -9    5.19    1.61
  15   7  -8    2.11    1.10
  15   7  -7   47.75    5.48
  15   7  -6   16.81    2.68
  15   7  -5    6.68    1.21
  15   7  -4    3.24    1.58
  15   7  -3    5.18    1.93
  15   7  -2   11.86    2.28
  15   7  -1   31.13    3.10
  15   7   0    5.16    1.93
  15   7   1    1.72    0.73
  15   7   2   -0.36    0.82
  15   7   3    3.57    1.58
  15   7   4    3.59    0.91
  15   7   5   15.23    2.04
  15   7   6    1.18    1.30
  15   7   7    4.78    1.58
  15   7   8    6.20    1.21
  15   7   9   16.23    2.30
  15   7  10   -0.62    0.78
  15   7  11   10.03    2.50
  15   7  12   23.28    3.15
  15   7  13    3.02    1.16
  15   7  14    1.91    0.94
  15   7  15   12.15    3.35
  15   7  16    3.17    1.10
  15   7  17    2.92    2.47
  15   8 -21    4.46    1.80
  15   8 -20    2.59    2.32
  15   8 -19    0.04    1.13
  15   8 -18    1.49    1.88
  15   8 -17    2.55    1.79
  15   8 -16    2.46    1.89
  15   8 -15    2.09    1.31
  15   8 -14    6.54    1.51
  15   8 -13    2.99    1.60
  15   8 -12    0.39    0.91
  15   8 -11    1.19    1.27
  15   8 -10    2.05    0.79
  15   8  -9    3.94    1.61
  15   8  -8   25.86    2.87
  15   8  -7    7.59    1.20
  15   8  -6    2.65    2.59
  15   8  -5    0.97    0.74
  15   8  -4    0.96    1.01
  15   8  -3   23.42    2.80
  15   8  -2    8.11    1.32
  15   8  -1    1.41    0.88
  15   8   0   11.85    2.80
  15   8   1    1.90    0.67
  15   8   2    2.18    0.62
  15   8   3    1.47    0.90
  15   8   4    6.98    1.32
  15   8   5    9.87    1.57
  15   8   6   45.75    8.77
  15   8   7    4.92    1.11
  15   8   8    4.21    1.40
  15   8   9    3.03    1.12
  15   8  10    1.52    0.91
  15   8  11    2.64    1.33
  15   8  12    4.32    1.28
  15   8  13    4.90    0.83
  15   8  14   12.50    3.70
  15   8  15    3.95    1.79
  15   9 -19    0.07    1.85
  15   9 -18    5.38    2.78
  15   9 -17    4.60    2.38
  15   9 -16    2.92    1.54
  15   9 -15    9.26    1.62
  15   9 -14    1.09    1.18
  15   9 -13    1.54    1.85
  15   9 -12    0.23    1.07
  15   9 -11    1.83    1.65
  15   9 -10    3.95    1.45
  15   9  -9   12.61    3.52
  15   9  -8    1.07    0.88
  15   9  -7    7.50    2.08
  15   9  -6    4.25    0.98
  15   9  -5    1.65    0.63
  15   9  -4    1.50    0.70
  15   9  -3    1.07    1.22
  15   9  -2    2.71    1.15
  15   9  -1   14.18    1.89
  15   9   0    2.38    0.67
  15   9   1    3.76    0.73
  15   9   2    4.40    0.92
  15   9   3    0.44    1.05
  15   9   4    1.23    0.58
  15   9   5    2.22    0.79
  15   9   6    0.81    0.87
  15   9   7    8.64    1.49
  15   9   8    4.70    2.10
  15   9   9    1.27    0.91
  15   9  10    0.30    1.22
  15   9  11    0.94    0.93
  15   9  12    2.83    1.11
  15   9  13    3.90    1.74
  15  10 -16    2.15    0.96
  15  10 -15    3.81    1.30
  15  10 -14    1.28    0.86
  15  10 -13    3.53    1.10
  15  10 -12    1.43    1.10
  15  10 -11    2.30    1.09
  15  10 -10    0.80    0.93
  15  10  -9   -0.35    1.11
  15  10  -8    6.36    1.36
  15  10  -7    3.13    1.08
  15  10  -6    9.87    1.88
  15  10  -5    1.56    1.58
  15  10  -4    3.96    1.18
  15  10  -3    1.85    1.37
  15  10  -2   11.86    1.78
  15  10  -1    2.06    1.21
  15  10   0   15.68    2.67
  15  10   1    0.72    1.01
  15  10   2    5.42    0.96
  15  10   3    4.60    0.98
  15  10   4    5.63    0.94
  15  10   5    1.66    0.85
  15  10   6    6.87    2.06
  15  10   7   -0.29    2.56
  15  10   8    4.70    1.23
  15  10   9    5.66    1.63
  15  10  10    1.68    1.63
  15  10  11    2.80    0.99
  15  10  12   -0.01    1.35
  15  11 -15    2.41    1.40
  15  11 -14    2.83    0.93
  15  11 -13    4.63    1.54
  15  11 -12    6.49    1.51
  15  11 -11    7.81    1.74
  15  11 -10    2.95    1.21
  15  11  -9    4.61    1.11
  15  11  -8    3.20    1.80
  15  11  -7    1.14    1.49
  15  11  -6    1.55    1.15
  15  11  -5    3.87    1.58
  15  11  -4    5.10    1.87
  15  11  -3    4.13    2.37
  15  11  -2    1.98    0.68
  15  11  -1    9.97    1.84
  15  11   0    0.89    0.83
  15  11   1    3.48    1.41
  15  11   2    0.51    1.32
  15  11   3    0.18    0.59
  15  11   4    4.22    0.75
  15  11   5   13.85    2.69
  15  11   6    0.64    1.07
  15  11   7    3.66    1.45
  15  11   8    2.57    1.11
  15  11   9    1.81    0.92
  15  11  10    1.19    2.12
  15  11  11    2.40    1.49
  15  11  12   -1.68    1.69
  15  12 -11    1.77    1.44
  15  12 -10    2.92    2.23
  15  12  -9    0.01    1.27
  15  12  -8    2.78    1.55
  15  12  -7   -2.14    1.45
  15  12  -6    1.78    1.15
  15  12  -5    2.23    0.78
  15  12  -4    2.05    0.85
  15  12  -3    0.40    1.20
  15  12  -2    2.45    0.94
  15  12  -1    0.67    1.62
  15  12   0    8.19    1.46
  15  12   1    1.57    0.97
  15  12   2    3.61    1.08
  15  12   3    0.48    0.74
  15  12   4    0.63    1.03
  15  12   5    3.60    1.33
  15  12   6    2.97    0.98
  15  12   7   -0.66    0.94
  15  13  -2    0.16    1.14
  15  13  -1    6.32    1.94
  15  13   0    0.61    1.09
  15  13   1    1.07    0.79
  15  13   2    0.63    0.68
  15  13   3    1.78    0.75
  15  13   4   -1.14    1.18
  16   0 -24    2.98    1.27
  16   0 -22    1.69    1.57
  16   0 -20   10.47    3.81
  16   0 -18   16.63    4.57
  16   0 -16    3.49    1.22
  16   0 -14    0.54    2.40
  16   0 -12   24.83    3.36
  16   0 -10   68.50    3.35
  16   0  -8   61.76    3.24
  16   0  -6   56.24    9.13
  16   0  -4  321.13   11.04
  16   0  -2    3.73    3.36
  16   0   0   66.13    6.15
  16   0   2  111.25    6.89
  16   0   4   75.47    8.59
  16   0   6    9.02    1.79
  16   0   8    5.96    1.34
  16   0  10   74.86   10.43
  16   0  12    5.16    1.85
  16   0  14    5.51    1.98
  16   0  16    4.40    1.93
  16   0  18   18.42    6.13
  16   1 -25    1.09    1.15
  16   1 -24    3.24    1.47
  16   1 -23    2.16    0.99
  16   1 -22    0.69    1.09
  16   1 -21    0.52    2.70
  16   1 -20    3.75    1.84
  16   1 -19    6.85    1.94
  16   1 -18    3.00    1.20
  16   1 -17    4.20    2.92
  16   1 -16    2.76    1.18
  16   1 -15    6.87    1.88
  16   1 -14    3.26    1.51
  16   1 -13   26.75    3.07
  16   1 -12    1.83    1.13
  16   1 -11   22.56    4.07
  16   1 -10    4.33    1.13
  16   1  -9    3.35    0.81
  16   1  -8    2.68    1.11
  16   1  -7    5.41    1.01
  16   1  -6    2.98    1.20
  16   1  -5   42.04    2.84
  16   1  -4   43.01    2.97
  16   1  -3   11.25    1.35
  16   1  -2   99.16    6.52
  16   1  -1    9.27    1.76
  16   1   0   30.88    2.44
  16   1   1   58.51    4.63
  16   1   2   18.28    1.90
  16   1   3  197.80   10.82
  16   1   4    1.10    0.95
  16   1   5    5.39    1.23
  16   1   6    1.75    1.19
  16   1   7    1.04    1.45
  16   1   8   67.66    3.15
  16   1   9  106.33    5.93
  16   1  10   30.26    3.13
  16   1  11   34.85    5.24
  16   1  12    0.48    1.00
  16   1  13    4.86    1.82
  16   1  14    8.82    2.31
  16   1  15    8.95    2.63
  16   1  16   28.62    4.93
  16   1  17   22.17    6.70
  16   1  18    4.82    2.26
  16   1  19    6.15    1.35
  16   2 -25    1.25    1.53
  16   2 -24    2.11    1.03
  16   2 -23   -0.36    2.88
  16   2 -22    3.79    1.04
  16   2 -21    3.17    1.41
  16   2 -20    2.83    0.92
  16   2 -19    1.65    1.04
  16   2 -18    6.67    1.71
  16   2 -17    5.01    1.27
  16   2 -16    5.25    1.55
  16   2 -15    4.41    1.62
  16   2 -14    0.77    1.48
  16   2 -13    6.99    1.48
  16   2 -12    6.43    2.19
  16   2 -11   16.41    2.05
  16   2 -10   10.51    2.78
  16   2  -9    1.71    0.71
  16   2  -8    2.51    0.87
  16   2  -7   31.31    2.45
  16   2  -6    1.67    0.60
  16   2  -5   34.17    3.32
  16   2  -4   35.29    4.37
  16   2  -3    3.23    1.26
  16   2  -2   18.26    1.50
  16   2  -1    5.54    1.95
  16   2   0    6.64    1.29
  16   2   1   16.47    4.98
  16   2   2   23.30    2.85
  16   2   3    1.82    0.88
  16   2   4    4.48    0.94
  16   2   5   41.55    3.40
  16   2   6   10.92    1.62
  16   2   7    3.49    1.02
  16   2   8    6.13    0.94
  16   2   9   25.39    3.73
  16   2  10    4.15    0.91
  16   2  11   11.73    2.03
  16   2  12   31.30    8.71
  16   2  13    3.27    3.72
  16   2  14   18.27    3.79
  16   2  15   29.51    5.46
  16   2  16   15.76    4.31
  16   2  17    3.56    1.70
  16   2  18    4.98    1.71
  16   2  19    6.20    1.63
  16   3 -25    1.52    1.17
  16   3 -24    2.57    2.02
  16   3 -23    0.95    1.11
  16   3 -22    2.51    1.21
  16   3 -21    2.33    1.39
  16   3 -20    5.52    1.55
  16   3 -19    8.23    1.90
  16   3 -18    3.07    4.72
  16   3 -17    5.88    1.87
  16   3 -16    1.09    1.74
  16   3 -15    2.98    1.10
  16   3 -14    7.12    2.28
  16   3 -13   20.09    2.56
  16   3 -12    0.72    0.90
  16   3 -11   55.54    3.79
  16   3 -10    2.76    1.02
  16   3  -9    0.14    1.19
  16   3  -8    3.36    0.90
  16   3  -7    2.94    0.74
  16   3  -6   19.60    3.01
  16   3  -5    1.46    0.72
  16   3  -4    0.66    0.59
  16   3  -3    7.93    1.62
  16   3  -2    2.47    0.95
  16   3  -1    4.40    1.11
  16   3   0   75.08    3.59
  16   3   1    3.21    1.25
  16   3   2    4.56    1.09
  16   3   3   19.05    1.86
  16   3   4    1.47    1.06
  16   3   5    5.08    1.19
  16   3   6   62.29    5.65
  16   3   7   11.07    1.60
  16   3   8    3.00    0.92
  16   3   9    1.40    0.65
  16   3  10    2.70    1.39
  16   3  11    8.85    2.06
  16   3  12   11.23    2.70
  16   3  13    1.74    1.27
  16   3  14   -0.36    1.60
  16   3  15    1.44    0.98
  16   3  16    3.16    1.88
  16   3  17    0.27    1.36
  16   3  18    2.27    1.83
  16   3  19    2.42    1.13
  16   4 -24    1.38    1.20
  16   4 -23    2.65    0.69
  16   4 -22    1.10    1.38
  16   4 -21    4.05    1.33
  16   4 -20    4.41    1.46
  16   4 -19    1.64    1.08
  16   4 -18    4.34    3.02
  16   4 -17    6.31    3.11
  16   4 -16    4.83    4.54
  16   4 -15    3.57    1.40
  16   4 -14   12.26    3.06
  16   4 -13   35.09    7.42
  16   4 -12   10.55    3.26
  16   4 -11    1.76    1.16
  16   4 -10   10.75    1.83
  16   4  -9   33.36    5.24
  16   4  -8    2.47    0.79
  16   4  -7   38.75    5.44
  16   4  -6    2.91    0.87
  16   4  -5   21.23    2.04
  16   4  -4   16.89    2.66
  16   4  -3   41.60    4.74
  16   4  -2    1.76    1.00
  16   4  -1    5.96    1.09
  16   4   0    1.68    1.50
  16   4   1   21.58    2.24
  16   4   2    6.32    1.21
  16   4   3    8.88    1.45
  16   4   4    4.26    0.82
  16   4   5   34.29    3.26
  16   4   6    3.03    1.01
  16   4   7    1.71    0.90
  16   4   8    0.83    0.90
  16   4   9    2.15    1.37
  16   4  10   10.48    1.78
  16   4  11   18.43    2.18
  16   4  12    2.90    1.19
  16   4  13    6.52    2.18
  16   4  14   13.85    3.30
  16   4  15   -0.36    1.64
  16   4  16    3.60    1.37
  16   4  17    4.19    2.14
  16   4  18    0.86    1.98
  16   5 -24    1.30    1.03
  16   5 -23    2.15    1.04
  16   5 -22    2.07    1.13
  16   5 -21    1.87    1.91
  16   5 -20    8.15    1.90
  16   5 -19    8.91    2.21
  16   5 -18    3.81    1.40
  16   5 -17    3.06    1.53
  16   5 -16    5.44    1.03
  16   5 -15    2.55    1.24
  16   5 -14   20.50    3.82
  16   5 -13    8.56    1.57
  16   5 -12    5.76    1.79
  16   5 -11    6.40    1.34
  16   5 -10   20.83    2.76
  16   5  -9    9.50    1.86
  16   5  -8    9.48    4.48
  16   5  -7    7.38    2.26
  16   5  -6   30.32    2.83
  16   5  -5   12.15    1.86
  16   5  -4    1.23    0.95
  16   5  -3   21.44    2.39
  16   5  -2    6.91    1.14
  16   5  -1    9.48    1.71
  16   5   0   51.53    2.96
  16   5   1    4.79    1.24
  16   5   2    1.45    1.56
  16   5   3   11.52    1.47
  16   5   4   14.28    1.80
  16   5   5    9.97    1.60
  16   5   6    5.65    0.89
  16   5   7    2.28    1.35
  16   5   8   10.36    1.27
  16   5   9    1.65    1.12
  16   5  10    7.40    1.27
  16   5  11    6.52    1.45
  16   5  12    6.36    1.66
  16   5  13    1.09    2.98
  16   5  14    1.15    1.68
  16   5  15    3.17    1.13
  16   5  16    0.35    1.14
  16   5  17    1.30    1.11
  16   6 -22   -0.15    2.12
  16   6 -21    4.46    1.52
  16   6 -20    4.86    1.41
  16   6 -19    3.25    1.87
  16   6 -18    2.14    2.81
  16   6 -17    2.36    2.58
  16   6 -16   13.58    3.45
  16   6 -15    4.48    1.40
  16   6 -14   11.43    2.91
  16   6 -13   15.62    5.26
  16   6 -12    2.40    1.08
  16   6 -11    6.36    3.06
  16   6 -10   11.12    1.61
  16   6  -9   29.62    3.80
  16   6  -8   48.09    5.60
  16   6  -7   25.16    6.50
  16   6  -6   15.48    3.65
  16   6  -5   11.24    2.02
  16   6  -4   10.31    1.68
  16   6  -3    8.81    1.47
  16   6  -2   54.71    3.30
  16   6  -1    2.77    1.03
  16   6   0   94.62    5.83
  16   6   1   50.99    3.71
  16   6   2   15.82    2.08
  16   6   3    1.90    0.77
  16   6   4    5.55    1.32
  16   6   5   44.33    4.04
  16   6   6   14.20    2.21
  16   6   7    5.92    1.02
  16   6   8   22.70    3.81
  16   6   9    6.59    1.43
  16   6  10    3.30    1.35
  16   6  11   17.99    3.07
  16   6  12    3.96    0.85
  16   6  13    2.67    1.13
  16   6  14   13.18    3.30
  16   6  15   -1.50    1.73
  16   6  16   -2.20    1.41
  16   7 -21    1.24    2.00
  16   7 -20    4.05    1.65
  16   7 -19    2.55    1.24
  16   7 -18    4.33    2.27
  16   7 -17    3.44    1.64
  16   7 -16    1.91    3.53
  16   7 -15    6.24    2.88
  16   7 -14   13.56    2.18
  16   7 -13    3.75    1.36
  16   7 -12    1.97    1.33
  16   7 -11    1.89    0.97
  16   7 -10   10.24    1.86
  16   7  -9   11.72    3.52
  16   7  -8    0.77    1.19
  16   7  -7   27.86    6.36
  16   7  -6   18.27    2.89
  16   7  -5    1.77    1.03
  16   7  -4    6.33    1.32
  16   7  -3    8.42    1.13
  16   7  -2    1.54    0.61
  16   7  -1   53.33    5.29
  16   7   0   17.89    2.27
  16   7   1   39.27    5.07
  16   7   2    3.04    1.17
  16   7   3    3.46    0.87
  16   7   4    4.84    1.25
  16   7   5   14.82    1.79
  16   7   6    1.42    0.71
  16   7   7   12.32    1.85
  16   7   8   14.51    1.88
  16   7   9    3.88    0.95
  16   7  10    1.69    1.59
  16   7  11    3.19    0.96
  16   7  12    5.39    1.46
  16   7  13    3.21    1.82
  16   7  14    1.72    2.26
  16   7  15    1.65    1.20
  16   8 -19    2.55    1.06
  16   8 -18    1.43    1.51
  16   8 -17    6.49    3.28
  16   8 -16    6.07    2.30
  16   8 -15    3.41    1.77
  16   8 -14   13.82    3.93
  16   8 -13    6.82    2.60
  16   8 -12    0.43    1.51
  16   8 -11    0.94    1.16
  16   8 -10    1.06    1.28
  16   8  -9    1.59    1.44
  16   8  -8   17.73    2.63
  16   8  -7    5.36    1.38
  16   8  -6    8.63    1.56
  16   8  -5    3.28    0.83
  16   8  -4    1.56    1.01
  16   8  -3    2.70    0.74
  16   8  -2    8.16    2.14
  16   8  -1    2.40    1.24
  16   8   0   21.79    2.61
  16   8   1    3.26    0.69
  16   8   2    3.83    1.50
  16   8   3    6.62    0.87
  16   8   4    1.93    1.09
  16   8   5    0.92    1.07
  16   8   6    5.33    1.36
  16   8   7    0.73    1.72
  16   8   8    0.53    0.85
  16   8   9    9.14    2.39
  16   8  10    0.25    0.76
  16   8  11    2.15    0.92
  16   8  12    1.45    1.04
  16   8  13    2.47    2.22
  16   8  14    4.19    1.42
  16   9 -16    4.83    2.87
  16   9 -15    8.41    1.84
  16   9 -14    2.99    1.21
  16   9 -13    1.61    1.99
  16   9 -12    2.56    0.97
  16   9 -11    4.58    1.14
  16   9 -10    1.80    1.10
  16   9  -9   16.91    4.25
  16   9  -8    6.41    1.67
  16   9  -7   28.61    6.24
  16   9  -6    1.22    2.29
  16   9  -5   -1.45    1.22
  16   9  -4    2.21    1.12
  16   9  -3    6.32    1.70
  16   9  -2    1.22    0.53
  16   9  -1   24.33    3.49
  16   9   0    2.39    0.68
  16   9   1    2.60    0.78
  16   9   2    1.34    0.84
  16   9   3    5.27    0.90
  16   9   4   11.80    1.69
  16   9   5    7.05    1.44
  16   9   6    3.32    0.90
  16   9   7    6.56    1.63
  16   9   8    2.41    1.08
  16   9   9    3.04    0.99
  16   9  10    2.48    1.99
  16   9  11    2.77    1.35
  16   9  12    2.25    1.08
  16  10 -15    1.77    1.01
  16  10 -14    1.31    0.98
  16  10 -13    3.34    1.28
  16  10 -12    1.85    0.92
  16  10 -11    1.49    2.21
  16  10 -10    1.32    0.98
  16  10  -9    5.24    1.30
  16  10  -8    3.42    1.13
  16  10  -7    1.71    1.38
  16  10  -6    1.29    1.32
  16  10  -5    8.19    1.36
  16  10  -4    0.88    1.19
  16  10  -3    2.73    1.35
  16  10  -2    5.33    1.30
  16  10  -1    0.49    0.54
  16  10   0    9.12    1.38
  16  10   1    0.36    0.71
  16  10   2    1.64    0.99
  16  10   3    0.39    0.58
  16  10   4    2.26    0.90
  16  10   5    2.18    0.80
  16  10   6   11.73    2.57
  16  10   7    2.11    0.72
  16  10   8    1.56    2.15
  16  10   9    0.78    0.67
  16  10  10    1.33    1.46
  16  10  11    2.74    2.22
  16  10  12    4.13    1.79
  16  11 -14    2.04    2.00
  16  11 -13    3.21    1.61
  16  11 -12    2.99    1.85
  16  11 -11    2.57    2.28
  16  11 -10    0.89    1.84
  16  11  -9    0.84    2.22
  16  11  -8    2.26    1.14
  16  11  -7    0.39    1.28
  16  11  -6    0.85    0.96
  16  11  -5    1.20    1.25
  16  11  -4    2.94    1.17
  16  11  -3    2.14    1.08
  16  11  -2    1.48    0.95
  16  11  -1    2.76    0.77
  16  11   0    1.21    0.83
  16  11   1    1.30    0.81
  16  11   2    0.83    0.78
  16  11   3    1.62    1.32
  16  11   4    1.41    0.72
  16  11   5    3.65    1.34
  16  11   6    2.31    1.17
  16  11   7    2.05    1.14
  16  11   8    1.07    1.53
  16  11   9    9.96    2.62
  16  11  10    3.93    2.06
  16  11  11   -0.08    1.68
  16  12  -5    2.94    2.32
  16  12  -4    1.03    1.65
  16  12  -3    3.08    2.10
  16  12  -2    3.10    1.19
  16  12  -1    1.99    1.98
  16  12   0    1.47    0.74
  16  12   1    0.17    0.67
  16  12   2   -0.41    1.85
  16  12   3    1.93    0.88
  16  12   4   -0.61    1.22
  16  12   5    1.86    1.20
  16  12   6    2.56    1.10
  17   0 -24    0.79    1.07
  17   0 -22   -1.16    1.91
  17   0 -20   14.80    8.36
  17   0 -18   11.36    3.62
  17   0 -16   -1.84    2.48
  17   0 -14   10.97    3.39
  17   0 -12   24.31    4.78
  17   0 -10    5.95    1.64
  17   0  -8    2.64    1.03
  17   0  -6    2.29    1.03
  17   0  -4   23.81    3.73
  17   0  -2    6.43    3.69
  17   0   0  116.73    8.62
  17   0   2  137.26   11.84
  17   0   4   65.80    6.81
  17   0   6   22.33    5.32
  17   0   8   19.70    3.17
  17   0  10   23.15    5.07
  17   0  12   -0.81    2.48
  17   0  14    5.96    3.64
  17   0  16   24.79    8.87
  17   0  18    2.54    1.39
  17   1 -23    1.63    0.84
  17   1 -22    1.40    1.55
  17   1 -21    3.89    1.67
  17   1 -20    1.13    0.86
  17   1 -19   11.10    4.86
  17   1 -18    1.28    1.75
  17   1 -17    3.93    1.26
  17   1 -16    1.43    1.03
  17   1 -15    9.15    2.39
  17   1 -14   10.46    4.27
  17   1 -13   31.24    5.10
  17   1 -12    3.61    3.65
  17   1 -11  124.50    8.88
  17   1 -10    6.11    1.23
  17   1  -9   54.64    2.30
  17   1  -8    0.94    1.19
  17   1  -7    0.10    1.11
  17   1  -6   22.22    1.48
  17   1  -5  178.62   10.05
  17   1  -4   12.87    1.59
  17   1  -3    3.80    0.85
  17   1  -2    5.80    1.03
  17   1  -1   10.74    1.30
  17   1   0    4.70    1.30
  17   1   1   63.71    4.66
  17   1   2    6.11    1.41
  17   1   3   42.71    5.04
  17   1   4    3.60    1.89
  17   1   5    1.75    1.09
  17   1   6    2.76    1.03
  17   1   7    0.56    1.09
  17   1   8    7.68    1.19
  17   1   9   73.99    4.91
  17   1  10   -1.35    1.96
  17   1  11    5.67    1.47
  17   1  12    6.12    1.81
  17   1  13    4.28    1.72
  17   1  14   13.24    2.59
  17   1  15    3.45    6.62
  17   1  16    3.34    1.88
  17   1  17   18.04    4.64
  17   1  18    1.80    1.94
  17   2 -23    1.16    1.63
  17   2 -22    0.74    1.51
  17   2 -21    4.92    1.53
  17   2 -20    1.81    1.65
  17   2 -19   -0.17    2.57
  17   2 -18   12.39    2.86
  17   2 -17    4.30    1.06
  17   2 -16    5.80    3.00
  17   2 -15    5.38    2.74
  17   2 -14   -1.82    1.95
  17   2 -13    7.28    1.74
  17   2 -12   48.73    8.10
  17   2 -11    4.12    1.27
  17   2 -10   20.91    2.44
  17   2  -9    1.67    0.80
  17   2  -8    1.81    0.65
  17   2  -7    1.59    0.72
  17   2  -6   13.69    4.25
  17   2  -5    2.62    0.79
  17   2  -4  152.83   12.37
  17   2  -3   10.33    1.28
  17   2  -2    1.20    0.92
  17   2  -1    2.45    0.89
  17   2   0    3.28    1.22
  17   2   1    4.97    1.37
  17   2   2   85.93    3.99
  17   2   3    1.76    1.16
  17   2   4   28.47    2.46
  17   2   5    1.31    1.32
  17   2   6    1.24    0.68
  17   2   7    1.60    0.64
  17   2   8    6.10    1.56
  17   2   9   25.30    5.02
  17   2  10   11.29    1.53
  17   2  11   19.47    2.50
  17   2  12    4.96    2.04
  17   2  13   -3.51    1.74
  17   2  14    6.47    2.82
  17   2  15   16.22    5.14
  17   2  16   10.36    2.52
  17   2  17    1.64    1.15
  17   2  18   16.76    3.31
  17   3 -23    1.71    1.36
  17   3 -22    2.06    3.22
  17   3 -21    4.49    1.16
  17   3 -20    7.13    1.90
  17   3 -19    2.33    4.00
  17   3 -18    5.83    1.89
  17   3 -17    2.17    1.17
  17   3 -16    3.20    1.13
  17   3 -15    0.89    1.34
  17   3 -14    5.46    1.86
  17   3 -13    8.00    3.24
  17   3 -12   11.60    2.97
  17   3 -11   19.08    3.29
  17   3 -10   34.63    3.35
  17   3  -9    2.71    1.36
  17   3  -8    6.74    1.36
  17   3  -7    4.03    1.10
  17   3  -6   10.02    1.41
  17   3  -5   34.09    2.76
  17   3  -4   31.04    3.65
  17   3  -3   23.69    2.58
  17   3  -2    1.18    0.68
  17   3  -1    2.28    0.86
  17   3   0   39.22    2.67
  17   3   1    3.21    0.86
  17   3   2    0.72    1.81
  17   3   3   40.71    3.19
  17   3   4    5.63    1.15
  17   3   5    0.80    1.32
  17   3   6    4.87    0.88
  17   3   7    5.24    1.82
  17   3   8    2.31    1.09
  17   3   9   12.80    2.16
  17   3  10    2.54    1.20
  17   3  11    3.38    3.28
  17   3  12    6.56    3.00
  17   3  13    3.13    1.46
  17   3  14    2.94    0.88
  17   3  15    5.88    2.29
  17   3  16    3.16    1.63
  17   3  17    5.95    2.34
  17   4 -22    2.55    1.27
  17   4 -21    4.36    1.33
  17   4 -20    2.22    3.69
  17   4 -19    2.58    1.53
  17   4 -18    3.01    1.62
  17   4 -17    6.45    1.65
  17   4 -16    3.58    1.16
  17   4 -15    0.11    1.43
  17   4 -14    5.65    2.59
  17   4 -13    7.68    2.21
  17   4 -12    6.32    1.29
  17   4 -11    6.98    1.54
  17   4 -10    2.49    0.68
  17   4  -9    0.80    0.93
  17   4  -8    1.91    1.17
  17   4  -7   37.41    2.15
  17   4  -6   23.61    2.44
  17   4  -5   -1.18    0.92
  17   4  -4   14.81    1.90
  17   4  -3    3.30    1.06
  17   4  -2   -0.28    0.67
  17   4  -1    3.74    1.13
  17   4   0    0.67    1.14
  17   4   1   27.87    2.46
  17   4   2   52.06    4.75
  17   4   3    2.57    0.95
  17   4   4   17.99    1.72
  17   4   5   10.88    1.61
  17   4   6    6.32    1.19
  17   4   7    5.49    1.15
  17   4   8    2.22    1.86
  17   4   9    2.63    0.97
  17   4  10   51.67    6.12
  17   4  11   25.18    5.52
  17   4  12    2.55    2.34
  17   4  13    2.41    1.09
  17   4  14    2.37    1.03
  17   4  15    2.07    1.53
  17   4  16   11.41    3.29
  17   4  17    2.68    1.07
  17   5 -21    2.98    1.66
  17   5 -20    3.86    1.83
  17   5 -19    2.39    1.05
  17   5 -18    2.34    1.51
  17   5 -17    1.27    1.06
  17   5 -16    2.34    3.56
  17   5 -15    2.89    2.06
  17   5 -14   11.79    3.89
  17   5 -13    3.46    1.54
  17   5 -12    1.82    1.17
  17   5 -11    4.40    1.45
  17   5 -10    5.21    1.09
  17   5  -9    1.43    1.74
  17   5  -8    2.12    1.11
  17   5  -7    6.31    1.89
  17   5  -6   60.92    5.49
  17   5  -5    3.08    0.80
  17   5  -4   36.55    3.58
  17   5  -3   19.25    3.30
  17   5  -2   13.20    1.87
  17   5  -1    8.57    2.13
  17   5   0   52.07    3.51
  17   5   1    4.76    0.90
  17   5   2    3.19    0.85
  17   5   3   22.32    2.46
  17   5   4   75.24    8.63
  17   5   5    6.92    1.38
  17   5   6    3.36    0.64
  17   5   7    4.17    0.93
  17   5   8    5.70    1.40
  17   5   9    2.57    0.72
  17   5  10    2.79    0.77
  17   5  11    1.56    1.04
  17   5  12   11.31    2.89
  17   5  13    3.97    1.11
  17   5  14    2.22    1.24
  17   5  15    2.08    0.87
  17   5  16    7.10    2.30
  17   6 -20   -0.07    1.87
  17   6 -19    3.72    1.20
  17   6 -18    2.24    1.25
  17   6 -17   -0.65    1.82
  17   6 -16    5.98    1.95
  17   6 -15    3.96    1.34
  17   6 -14    8.48    4.09
  17   6 -13    6.02    1.77
  17   6 -12    3.19    1.26
  17   6 -11    6.20    1.96
  17   6 -10    2.48    1.11
  17   6  -9    2.73    1.01
  17   6  -8   15.22    2.53
  17   6  -7   33.80    7.52
  17   6  -6    4.52    1.63
  17   6  -5    2.41    0.81
  17   6  -4    1.93    0.61
  17   6  -3   64.97    6.22
  17   6  -2   23.69    2.62
  17   6  -1   17.73    2.38
  17   6   0   11.98    1.73
  17   6   1    5.05    0.94
  17   6   2    7.47    1.35
  17   6   3    3.79    1.15
  17   6   4    3.69    1.56
  17   6   5    1.41    1.10
  17   6   6   13.41    1.90
  17   6   7    2.41    1.21
  17   6   8    2.57    2.31
  17   6   9    4.12    1.05
  17   6  10    3.97    1.15
  17   6  11    6.45    2.12
  17   6  12    1.63    1.58
  17   6  13    3.08    1.26
  17   6  14    2.00    1.03
  17   6  15    3.00    1.52
  17   7 -19    2.80    2.19
  17   7 -18    4.96    3.50
  17   7 -17    2.14    1.35
  17   7 -16    2.37    1.84
  17   7 -15    3.80    3.64
  17   7 -14    9.99    2.64
  17   7 -13    1.91    1.04
  17   7 -12    1.84    1.73
  17   7 -11   -0.23    2.87
  17   7 -10    6.52    1.49
  17   7  -9   12.00    2.22
  17   7  -8    4.83    1.32
  17   7  -7    5.40    1.01
  17   7  -6    6.57    1.54
  17   7  -5    3.06    1.53
  17   7  -4    2.60    0.66
  17   7  -3    1.14    0.79
  17   7  -2    2.69    0.87
  17   7  -1   23.08    4.48
  17   7   0   34.02    7.08
  17   7   1    3.44    2.27
  17   7   2    3.38    1.35
  17   7   3    1.91    1.06
  17   7   4    3.79    0.72
  17   7   5   10.27    1.68
  17   7   6    0.41    0.54
  17   7   7   22.59    4.27
  17   7   8   12.89    2.65
  17   7   9    1.31    1.19
  17   7  10    3.27    1.11
  17   7  11    1.40    1.66
  17   7  12    2.34    1.41
  17   7  13    3.91    2.34
  17   7  14   10.23    3.89
  17   8 -17    1.22    2.48
  17   8 -16    3.74    2.65
  17   8 -15    6.59    1.70
  17   8 -14    5.42    1.83
  17   8 -13    3.40    1.07
  17   8 -12    3.25    1.30
  17   8 -11    0.56    1.17
  17   8 -10    0.58    1.24
  17   8  -9    1.35    0.96
  17   8  -8   16.98    2.96
  17   8  -7   14.06    2.29
  17   8  -6    3.01    1.55
  17   8  -5    3.94    1.22
  17   8  -4    0.27    0.74
  17   8  -3    1.51    0.62
  17   8  -2   17.11    2.92
  17   8  -1    6.01    1.46
  17   8   0   10.37    2.16
  17   8   1    4.75    2.38
  17   8   2    1.45    1.30
  17   8   3    3.93    1.72
  17   8   4   11.73    2.08
  17   8   5    1.72    0.99
  17   8   6   23.36    5.00
  17   8   7    2.50    0.91
  17   8   8    1.48    0.77
  17   8   9    1.38    1.03
  17   8  10    2.12    1.08
  17   8  11    2.50    0.95
  17   8  12    9.54    2.75
  17   9 -14    4.63    1.67
  17   9 -13   -1.46    2.18
  17   9 -12    0.52    0.90
  17   9 -11   -0.07    0.88
  17   9 -10    1.82    1.31
  17   9  -9   14.56    2.56
  17   9  -8    3.16    1.31
  17   9  -7   11.85    3.04
  17   9  -6    3.95    1.12
  17   9  -5    3.60    1.29
  17   9  -4    0.95    0.85
  17   9  -3    7.18    1.56
  17   9  -2    1.23    0.65
  17   9  -1   33.46    6.87
  17   9   0    6.32    1.71
  17   9   1    3.51    1.02
  17   9   2    3.01    0.81
  17   9   3    2.43    2.10
  17   9   4    0.82    1.07
  17   9   5   17.94    2.50
  17   9   6    1.96    1.08
  17   9   7    6.82    1.47
  17   9   8    8.02    1.62
  17   9   9    4.21    1.17
  17   9  10    2.66    1.38
  17   9  11    2.15    1.23
  17  10 -14    2.87    1.86
  17  10 -13    3.80    1.88
  17  10 -12    4.17    1.54
  17  10 -11    2.87    1.31
  17  10 -10    0.88    1.00
  17  10  -9    1.22    1.13
  17  10  -8    3.65    1.76
  17  10  -7    1.82    1.47
  17  10  -6    2.95    1.29
  17  10  -5    1.42    1.31
  17  10  -4   -2.66    1.38
  17  10  -3    2.90    1.12
  17  10  -2   12.19    2.50
  17  10  -1    4.36    1.35
  17  10   0    5.18    1.22
  17  10   1    4.73    1.09
  17  10   2    3.14    1.00
  17  10   3    1.25    0.70
  17  10   4    2.62    0.97
  17  10   5    3.93    1.37
  17  10   6    3.26    1.45
  17  10   7    2.81    1.37
  17  10   8    1.46    0.90
  17  10   9    2.42    1.18
  17  10  10    3.79    2.15
  17  10  11    2.84    1.30
  17  11 -13    4.14    1.27
  17  11 -12   15.52    6.88
  17  11 -11    0.17    2.28
  17  11 -10    3.02    2.24
  17  11  -9    2.56    1.07
  17  11  -8    4.22    2.08
  17  11  -7   -1.67    2.06
  17  11  -6    4.94    1.49
  17  11  -5    0.94    2.31
  17  11  -4    4.27    1.27
  17  11  -3    2.84    1.30
  17  11  -2    2.41    1.13
  17  11  -1    1.96    1.09
  17  11   0    1.45    0.88
  17  11   1    2.13    0.73
  17  11   2    0.77    0.66
  17  11   3    2.14    0.72
  17  11   4    0.34    0.83
  17  11   5    1.63    1.11
  17  11   6    2.87    1.29
  17  12  -1    0.82    1.76
  17  12   0   -0.26    1.37
  17  12   1    1.06    1.10
  17  12   2    1.89    1.11
  17  12   3    2.90    1.10
  17  12   4    0.39    0.62
  18   0 -22    2.52    1.44
  18   0 -20   13.33    5.04
  18   0 -18    7.45    2.49
  18   0 -16    7.12    3.00
  18   0 -14   21.52    6.14
  18   0 -12   73.31   26.21
  18   0 -10    8.02    2.68
  18   0  -8    0.84    0.95
  18   0  -6   81.67   16.29
  18   0  -4   35.10    3.70
  18   0  -2   57.34    7.96
  18   0   0    7.80    1.90
  18   0   2  128.60    6.45
  18   0   4   25.72    2.79
  18   0   6   32.48    3.63
  18   0   8   17.79    3.35
  18   0  10   77.74   13.04
  18   0  12    7.38    3.57
  18   0  14    7.22    2.84
  18   0  16   17.39    4.81
  18   1 -22    3.13    2.56
  18   1 -21    3.38    1.53
  18   1 -20    2.09    2.33
  18   1 -19    6.21    1.52
  18   1 -18    0.44    0.87
  18   1 -17   -0.03    2.47
  18   1 -16    4.40    1.56
  18   1 -15    4.09    2.48
  18   1 -14    1.26    1.47
  18   1 -13    7.59    1.61
  18   1 -12    2.85    2.99
  18   1 -11   25.72    3.06
  18   1 -10    7.08    1.28
  18   1  -9    4.42    1.37
  18   1  -8   44.72    3.42
  18   1  -7    2.65    1.36
  18   1  -6    2.52    1.01
  18   1  -5  126.18    4.57
  18   1  -4    7.28    1.84
  18   1  -3    3.93    0.95
  18   1  -2    2.84    1.52
  18   1  -1    9.50    1.10
  18   1   0    4.95    1.06
  18   1   1   21.80    1.94
  18   1   2   15.60    2.12
  18   1   3   33.64    3.44
  18   1   4    1.36    1.07
  18   1   5    7.86    1.74
  18   1   6    3.12    1.53
  18   1   7    4.95    1.15
  18   1   8    1.67    0.97
  18   1   9   30.05    5.63
  18   1  10    2.36    2.03
  18   1  11    1.04    1.29
  18   1  12    3.41    3.03
  18   1  13    2.98    2.68
  18   1  14    2.70    3.70
  18   1  15    8.25    2.25
  18   1  16   11.68    1.94
  18   2 -21    2.26    1.04
  18   2 -20    1.64    2.66
  18   2 -19    2.48    1.14
  18   2 -18    2.08    0.98
  18   2 -17    1.73    1.26
  18   2 -16    5.21    1.82
  18   2 -15    3.14    1.27
  18   2 -14    3.46    1.59
  18   2 -13    4.35    1.68
  18   2 -12   26.19    7.03
  18   2 -11    0.32    2.02
  18   2 -10    0.34    0.62
  18   2  -9    2.04    1.44
  18   2  -8    4.23    0.81
  18   2  -7   29.11    2.23
  18   2  -6   78.70    4.34
  18   2  -5    1.19    0.89
  18   2  -4   23.96    2.27
  18   2  -3   20.30    3.02
  18   2  -2    2.76    0.76
  18   2  -1    1.22    1.01
  18   2   0    9.48    1.88
  18   2   1    1.45    0.80
  18   2   2   77.93    4.83
  18   2   3    7.50    0.88
  18   2   4    2.90    1.32
  18   2   5    0.45    1.09
  18   2   6    2.75    0.88
  18   2   7    1.46    0.63
  18   2   8   30.78    7.76
  18   2   9    3.77    1.49
  18   2  10    3.63    2.61
  18   2  11    6.94    1.84
  18   2  12    1.26    3.00
  18   2  13    0.09    1.10
  18   2  14   -0.26    1.22
  18   2  15    7.38    2.71
  18   2  16    6.88    1.51
  18   3 -21    1.48    2.41
  18   3 -20    2.49    2.70
  18   3 -19    2.31    1.63
  18   3 -18    6.32    2.06
  18   3 -17   -0.45    1.99
  18   3 -16    0.08    1.28
  18   3 -15    3.62    1.53
  18   3 -14   20.63    3.12
  18   3 -13    5.62    1.43
  18   3 -12    3.82    1.48
  18   3 -11    9.65    2.47
  18   3 -10    3.66    1.24
  18   3  -9    0.23    1.71
  18   3  -8    1.33    1.67
  18   3  -7    6.01    1.29
  18   3  -6   11.53    1.75
  18   3  -5   80.29    5.44
  18   3  -4    4.92    1.03
  18   3  -3    1.52    0.69
  18   3  -2    2.61    1.37
  18   3  -1    1.77    0.83
  18   3   0   22.26    2.69
  18   3   1   21.78    2.11
  18   3   2    1.80    1.75
  18   3   3   17.58    1.97
  18   3   4    7.41    1.31
  18   3   5    2.37    0.82
  18   3   6   15.51    2.08
  18   3   7    2.09    0.73
  18   3   8    4.98    1.56
  18   3   9   42.45   11.02
  18   3  10    0.97    1.90
  18   3  11    2.75    1.69
  18   3  12    3.58    1.68
  18   3  13   13.31    3.23
  18   3  14    2.27    1.37
  18   3  15    3.33    1.17
  18   3  16    0.24    1.35
  18   4 -20    2.68    1.74
  18   4 -19    2.50    2.10
  18   4 -18   -0.38    1.94
  18   4 -17    3.14    1.64
  18   4 -16    2.13    1.45
  18   4 -15    6.25    1.44
  18   4 -14    1.85    3.93
  18   4 -13    4.00    1.39
  18   4 -12   10.05    6.18
  18   4 -11   16.18    4.26
  18   4 -10    2.92    1.73
  18   4  -9    1.66    1.17
  18   4  -8    5.76    1.07
  18   4  -7   16.19    4.49
  18   4  -6    3.17    1.06
  18   4  -5    0.92    1.30
  18   4  -4    3.29    1.26
  18   4  -3   22.14    2.59
  18   4  -2    2.41    1.08
  18   4  -1   20.92    2.40
  18   4   0    2.95    0.95
  18   4   1    7.64    1.66
  18   4   2   14.41    1.97
  18   4   3    5.60    1.26
  18   4   4    4.66    1.09
  18   4   5    1.12    0.95
  18   4   6    1.07    0.72
  18   4   7    6.03    1.55
  18   4   8    7.97    1.37
  18   4   9    1.06    1.10
  18   4  10   17.50    4.38
  18   4  11    3.15    1.37
  18   4  12    1.07    1.14
  18   4  13    2.73    1.11
  18   4  14    0.15    2.53
  18   4  15    6.28    3.45
  18   5 -19    5.30    2.47
  18   5 -18    3.67    1.13
  18   5 -17   -2.57    2.12
  18   5 -16    1.52    1.67
  18   5 -15    5.93    1.62
  18   5 -14    3.77    1.56
  18   5 -13    2.62    2.76
  18   5 -12    2.64    1.23
  18   5 -11    0.61    1.08
  18   5 -10    4.62    1.25
  18   5  -9    2.07    1.03
  18   5  -8    3.49    1.37
  18   5  -7    5.83    1.43
  18   5  -6    5.13    2.23
  18   5  -5    7.25    1.28
  18   5  -4    5.80    1.32
  18   5  -3    3.32    0.88
  18   5  -2    2.37    0.95
  18   5  -1    0.97    0.79
  18   5   0   43.90    4.24
  18   5   1   13.76    1.98
  18   5   2    5.73    1.16
  18   5   3    4.53    0.95
  18   5   4   11.12    3.18
  18   5   5    7.90    1.34
  18   5   6    9.45    1.96
  18   5   7   17.06    2.69
  18   5   8    5.14    1.92
  18   5   9    7.42    1.72
  18   5  10    3.69    1.76
  18   5  11    0.83    2.07
  18   5  12    5.90    1.60
  18   5  13    1.66    2.09
  18   5  14    5.11    1.32
  18   6 -18    2.54    2.44
  18   6 -17    1.33    1.80
  18   6 -16    2.33    1.40
  18   6 -15    3.76    2.69
  18   6 -14    2.87    3.43
  18   6 -13    0.97    1.96
  18   6 -12    2.33    1.13
  18   6 -11   10.43    1.68
  18   6 -10    2.48    1.02
  18   6  -9    0.64    0.99
  18   6  -8    8.00    1.71
  18   6  -7    8.32    1.86
  18   6  -6    3.98    2.22
  18   6  -5    3.45    0.86
  18   6  -4    3.32    1.83
  18   6  -3    3.24    1.27
  18   6  -2    7.65    2.09
  18   6  -1    4.84    1.01
  18   6   0    0.11    1.12
  18   6   1   16.97    2.51
  18   6   2    2.44    1.00
  18   6   3    5.86    1.05
  18   6   4   12.55    2.16
  18   6   5    3.22    0.55
  18   6   6    7.80    1.53
  18   6   7    9.01    2.23
  18   6   8    2.66    0.98
  18   6   9    2.82    0.85
  18   6  10    3.07    1.04
  18   6  11    8.04    2.13
  18   6  12   15.25    2.58
  18   6  13    3.79    1.04
  18   7 -16    4.38    1.95
  18   7 -15    0.34    1.49
  18   7 -14    2.95    1.90
  18   7 -13    1.72    2.53
  18   7 -12    2.71    1.31
  18   7 -11    1.60    1.02
  18   7 -10    0.89    1.04
  18   7  -9    2.72    1.05
  18   7  -8    6.50    1.08
  18   7  -7    5.73    1.44
  18   7  -6    7.69    2.11
  18   7  -5    2.69    1.29
  18   7  -4   10.04    1.84
  18   7  -3    0.44    1.01
  18   7  -2    1.14    1.02
  18   7  -1    3.59    1.02
  18   7   0   23.55    3.15
  18   7   1   -0.36    0.71
  18   7   2    0.83    0.81
  18   7   3    2.37    0.62
  18   7   4    5.97    1.06
  18   7   5    5.71    1.22
  18   7   6    9.74    1.39
  18   7   7    3.86    0.98
  18   7   8   13.05    1.70
  18   7   9    0.05    0.84
  18   7  10    7.07    1.58
  18   7  11    3.04    1.35
  18   7  12    3.76    1.92
  18   8 -14   -2.08    2.30
  18   8 -13    1.88    1.85
  18   8 -12    1.18    1.33
  18   8 -11    1.24    1.00
  18   8 -10    4.79    1.03
  18   8  -9    2.83    2.10
  18   8  -8    7.63    3.30
  18   8  -7    5.12    1.82
  18   8  -6    2.02    1.48
  18   8  -5   -1.81    1.33
  18   8  -4    2.22    2.18
  18   8  -3    4.43    1.33
  18   8  -2    8.56    1.49
  18   8  -1    3.89    0.84
  18   8   0    2.53    0.94
  18   8   1    3.69    0.90
  18   8   2    6.00    1.29
  18   8   3    3.64    0.90
  18   8   4    3.87    0.81
  18   8   5   -0.19    0.73
  18   8   6   15.56    3.70
  18   8   7    5.90    1.15
  18   8   8    2.61    1.93
  18   8   9    0.67    0.94
  18   8  10    0.02    0.81
  18   8  11   -0.18    1.81
  18   9 -12   -0.64    1.30
  18   9 -11    0.99    1.88
  18   9 -10   -1.74    1.05
  18   9  -9   18.30    3.65
  18   9  -8    3.53    1.38
  18   9  -7    4.89    1.33
  18   9  -6    1.32    0.80
  18   9  -5    0.26    1.72
  18   9  -4    1.70    1.24
  18   9  -3    8.92    2.39
  18   9  -2    2.79    1.68
  18   9  -1   11.23    2.29
  18   9   0    1.86    1.08
  18   9   1    2.73    1.21
  18   9   2    0.12    0.55
  18   9   3    0.99    1.59
  18   9   4    0.90    0.64
  18   9   5    9.36    2.18
  18   9   6    4.77    1.34
  18   9   7    5.02    2.69
  18   9   8    0.29    0.93
  18   9   9   -0.51    1.10
  18   9  10    2.90    1.78
  18  10 -12    1.07    1.33
  18  10 -11    1.13    1.40
  18  10 -10    2.36    1.38
  18  10  -9    3.34    1.36
  18  10  -8    1.75    1.40
  18  10  -7   -0.19    1.08
  18  10  -6    2.87    1.95
  18  10  -5    0.50    1.08
  18  10  -4    1.02    1.45
  18  10  -3    2.17    0.89
  18  10  -2    3.43    0.92
  18  10  -1    5.15    1.17
  18  10   0    3.63    0.85
  18  10   1    0.93    0.64
  18  10   2    0.88    1.27
  18  10   3    0.81    0.58
  18  10   4    1.09    2.22
  18  10   5    5.37    1.98
  18  10   6   10.01    3.30
  18  10   7    1.98    1.32
  18  10   8    5.61    2.52
  18  10   9   -0.04    1.71
  18  11  -3    0.95    2.29
  18  11  -2   -0.05    0.96
  18  11  -1    1.00    1.01
  18  11   0    0.24    0.76
  18  11   1    2.00    1.73
  18  11   2    0.23    0.84
  18  11   3    0.83    0.93
  18  11   4    3.08    1.61
  18  11   5    5.77    2.60
  19   0 -20    4.91    2.08
  19   0 -18    8.55    2.28
  19   0 -16    5.86    2.15
  19   0 -14    2.86    2.06
  19   0 -12   40.29    8.96
  19   0 -10   -1.65    2.69
  19   0  -8    9.94    2.59
  19   0  -6   94.26    8.33
  19   0  -4    8.03    1.68
  19   0  -2   40.86    7.37
  19   0   0    2.90    1.04
  19   0   2   64.75    6.10
  19   0   4    3.97    1.05
  19   0   6   23.91    3.48
  19   0   8   77.63   12.78
  19   0  10   -0.42    2.33
  19   0  12    5.59    2.27
  19   0  14    4.96    2.13
  19   1 -19   13.86    2.06
  19   1 -18    1.34    1.32
  19   1 -17    2.80    1.58
  19   1 -16    2.38    2.05
  19   1 -15    2.07    1.06
  19   1 -14    6.50    3.23
  19   1 -13    3.78    1.15
  19   1 -12    4.80    1.52
  19   1 -11    3.67    1.52
  19   1 -10    2.27    1.46
  19   1  -9    2.12    3.87
  19   1  -8    2.20    1.13
  19   1  -7    1.93    0.77
  19   1  -6    1.46    0.69
  19   1  -5   38.31    6.31
  19   1  -4    1.99    1.04
  19   1  -3    2.44    0.76
  19   1  -2    4.11    1.04
  19   1  -1    9.50    1.32
  19   1   0    6.19    0.91
  19   1   1  119.93   13.66
  19   1   2    3.85    2.77
  19   1   3    6.25    1.36
  19   1   4    6.17    1.49
  19   1   5    6.30    1.06
  19   1   6    2.75    0.96
  19   1   7    2.16    0.98
  19   1   8   -0.26    1.55
  19   1   9   60.65    7.49
  19   1  10    2.60    1.78
  19   1  11    4.47    1.46
  19   1  12   14.10    2.86
  19   1  13    4.98    1.39
  19   1  14    2.85    1.82
  19   1  15   15.98    7.12
  19   2 -20   -2.66    2.36
  19   2 -19    0.82    0.75
  19   2 -18    5.28    1.74
  19   2 -17    4.89    1.97
  19   2 -16    3.01    1.61
  19   2 -15    2.94    1.31
  19   2 -14    2.44    1.52
  19   2 -13    4.52    2.49
  19   2 -12   19.78    4.52
  19   2 -11    5.38    4.28
  19   2 -10    5.06    2.04
  19   2  -9    1.32    1.54
  19   2  -8    1.51    1.01
  19   2  -7    5.49    3.71
  19   2  -6   21.57    2.49
  19   2  -5    6.07    1.08
  19   2  -4   17.45    2.05
  19   2  -3    3.79    1.08
  19   2  -2    2.00    0.65
  19   2  -1   22.98    2.25
  19   2   0   19.30    2.21
  19   2   1    1.13    1.43
  19   2   2   58.52    5.11
  19   2   3    5.38    1.35
  19   2   4    2.32    0.85
  19   2   5    2.69    1.65
  19   2   6    3.51    1.00
  19   2   7    3.82    1.05
  19   2   8   21.06    2.29
  19   2   9    2.27    1.35
  19   2  10    5.92    1.93
  19   2  11    2.57    1.38
  19   2  12    2.37    0.92
  19   2  13    2.46    1.76
  19   2  14    4.95    2.39
  19   3 -19   10.16    3.75
  19   3 -18    0.96    2.53
  19   3 -17    3.73    1.26
  19   3 -16    3.14    1.66
  19   3 -15    2.60    2.56
  19   3 -14    2.56    1.93
  19   3 -13   12.83    4.39
  19   3 -12    2.51    3.06
  19   3 -11    2.76    1.20
  19   3 -10    0.34    1.88
  19   3  -9    2.76    1.03
  19   3  -8    1.97    1.22
  19   3  -7    9.03    2.30
  19   3  -6    3.98    1.13
  19   3  -5   17.57    1.99
  19   3  -4    6.27    1.13
  19   3  -3    1.61    1.69
  19   3  -2    2.14    0.74
  19   3  -1    2.10    0.88
  19   3   0   16.18    2.31
  19   3   1   12.18    1.96
  19   3   2    2.38    1.00
  19   3   3   14.53    1.90
  19   3   4    4.73    0.99
  19   3   5    3.46    0.79
  19   3   6    5.22    1.13
  19   3   7    1.73    1.10
  19   3   8    2.11    2.78
  19   3   9   13.41    2.90
  19   3  10    1.41    1.10
  19   3  11    3.19    1.75
  19   3  12    1.48    1.48
  19   3  13    5.75    2.07
  19   3  14    3.21    1.25
  19   4 -18   -1.74    2.29
  19   4 -17    6.05    1.54
  19   4 -16    4.91    2.22
  19   4 -15   -1.42    1.76
  19   4 -14    4.50    2.59
  19   4 -13    5.21    1.27
  19   4 -12    2.51    1.04
  19   4 -11    4.97    2.12
  19   4 -10    1.72    1.88
  19   4  -9   -1.26    1.25
  19   4  -8    1.45    1.11
  19   4  -7   13.61    3.65
  19   4  -6    5.07    2.41
  19   4  -5    1.60    0.78
  19   4  -4    0.69    0.56
  19   4  -3   17.49    2.58
  19   4  -2    2.05    1.14
  19   4  -1   15.45    2.77
  19   4   0    7.86    1.44
  19   4   1    8.05    1.94
  19   4   2    2.49    0.68
  19   4   3   20.86    3.58
  19   4   4    2.66    0.95
  19   4   5    3.72    1.03
  19   4   6    2.07    1.51
  19   4   7    0.42    1.24
  19   4   8   12.74    2.08
  19   4   9   -0.31    1.33
  19   4  10    8.60    2.03
  19   4  11    4.11    1.75
  19   4  12    3.59    1.22
  19   4  13    5.28    1.42
  19   5 -17   -0.70    1.85
  19   5 -16    4.83    1.32
  19   5 -15    4.57    1.41
  19   5 -14   10.57    2.79
  19   5 -13    2.29    2.21
  19   5 -12    0.76    2.01
  19   5 -11    1.19    1.70
  19   5 -10    2.21    0.80
  19   5  -9    5.78    1.53
  19   5  -8    3.52    1.09
  19   5  -7    3.56    1.07
  19   5  -6    4.20    1.01
  19   5  -5    4.20    1.18
  19   5  -4    3.48    0.94
  19   5  -3    2.33    0.94
  19   5  -2    2.93    0.70
  19   5  -1    4.26    1.89
  19   5   0    8.69    1.07
  19   5   1    2.98    1.19
  19   5   2    1.67    1.07
  19   5   3   -1.01    1.88
  19   5   4   22.98    2.66
  19   5   5    4.29    1.01
  19   5   6   10.22    2.06
  19   5   7    1.13    2.56
  19   5   8    3.14    1.13
  19   5   9    1.46    1.28
  19   5  10   10.25    3.40
  19   5  11    8.76    3.29
  19   5  12    2.42    0.99
  19   5  13    3.04    1.32
  19   6 -15    3.94    0.81
  19   6 -14    4.97    1.45
  19   6 -13    2.49    2.10
  19   6 -12    3.51    1.73
  19   6 -11    5.16    1.66
  19   6 -10    0.41    0.68
  19   6  -9    5.45    1.52
  19   6  -8    1.72    1.29
  19   6  -7    2.56    1.37
  19   6  -6    6.73    2.16
  19   6  -5    0.68    1.54
  19   6  -4    2.49    1.50
  19   6  -3    4.14    1.04
  19   6  -2    2.11    1.00
  19   6  -1    3.16    1.28
  19   6   0    7.05    2.31
  19   6   1    3.91    0.90
  19   6   2    2.66    0.86
  19   6   3    6.36    1.48
  19   6   4    0.98    0.79
  19   6   5    0.27    1.28
  19   6   6    3.30    1.18
  19   6   7   15.90    4.21
  19   6   8    2.86    0.99
  19   6   9    2.25    1.02
  19   6  10    2.06    1.04
  19   6  11    4.01    1.18
  19   6  12    2.74    1.21
  19   7 -13    1.07    1.21
  19   7 -12    2.78    1.42
  19   7 -11    3.69    0.83
  19   7 -10    4.39    3.03
  19   7  -9    9.60    2.86
  19   7  -8    1.18    1.89
  19   7  -7    4.03    1.03
  19   7  -6    0.91    1.01
  19   7  -5    1.64    1.86
  19   7  -4   10.22    1.99
  19   7  -3   25.30    5.29
  19   7  -2    2.93    1.27
  19   7  -1    5.28    1.42
  19   7   0    8.53    1.67
  19   7   1    1.44    0.66
  19   7   2    1.18    0.69
  19   7   3    2.32    0.86
  19   7   4    3.01    0.92
  19   7   5    4.01    1.21
  19   7   6    5.38    1.44
  19   7   7    0.88    0.87
  19   7   8    2.22    0.96
  19   7   9    0.83    1.52
  19   7  10    2.61    1.47
  19   7  11    5.51    2.24
  19   8 -11    2.75    2.51
  19   8 -10    2.56    1.24
  19   8  -9    5.54    1.36
  19   8  -8    8.50    2.01
  19   8  -7    3.54    0.95
  19   8  -6   -0.38    1.36
  19   8  -5    1.99    1.41
  19   8  -4    2.38    1.50
  19   8  -3    7.20    1.57
  19   8  -2    8.55    2.73
  19   8  -1    1.05    0.71
  19   8   0    8.58    1.65
  19   8   1    2.05    0.89
  19   8   2    1.00    0.82
  19   8   3    5.18    0.89
  19   8   4    0.35    0.76
  19   8   5    3.47    1.32
  19   8   6    6.37    1.19
  19   8   7    5.12    1.31
  19   8   8    2.01    2.70
  19   8   9    3.26    2.53
  19   9 -11    0.97    0.98
  19   9 -10    3.16    1.77
  19   9  -9   -2.36    1.78
  19   9  -8    3.39    1.93
  19   9  -7    3.81    0.93
  19   9  -6    1.35    0.83
  19   9  -5    2.42    1.29
  19   9  -4    1.39    1.01
  19   9  -3    5.33    1.19
  19   9  -2    1.18    1.64
  19   9  -1    4.33    1.27
  19   9   0    3.39    1.31
  19   9   1    0.97    0.87
  19   9   2    5.35    1.01
  19   9   3    0.72    1.49
  19   9   4    1.01    0.76
  19   9   5    3.45    1.24
  19   9   6    1.95    1.27
  19   9   7    2.46    0.80
  19   9   8    1.09    1.10
  19   9   9   -1.24    1.61
  19  10 -11    0.40    1.08
  19  10 -10   -1.42    1.80
  19  10  -9    2.18    1.60
  19  10  -8    2.06    1.60
  19  10  -7    2.31    1.60
  19  10  -6   -0.24    1.82
  19  10  -5   -1.67    1.83
  19  10  -4    0.06    0.77
  19  10  -3    3.06    1.05
  19  10  -2    3.95    3.36
  19  10  -1    1.49    1.23
  19  10   0    1.00    1.46
  19  10   1    0.50    0.66
  19  10   2    1.24    1.00
  19  10   3    1.98    1.12
  19  10   4    0.91    1.26
  19  10   5   -0.87    1.05
  19  10   6    4.33    1.35
  19  11   0    1.91    1.20
  20   0 -18    8.87    3.11
  20   0 -16    3.33    1.71
  20   0 -14    9.48    4.18
  20   0 -12   27.21    6.60
  20   0 -10    8.90    2.15
  20   0  -8    5.67    1.95
  20   0  -6   19.93    5.63
  20   0  -4    0.98    1.13
  20   0  -2    2.48    1.29
  20   0   0   10.68    4.72
  20   0   2   18.58    9.19
  20   0   4    9.90    2.02
  20   0   6    2.94    0.86
  20   0   8   28.71    8.90
  20   0  10    2.79    1.42
  20   0  12    9.49    6.68
  20   1 -17   -1.64    1.65
  20   1 -16    1.10    1.51
  20   1 -15    4.57    1.39
  20   1 -14    5.11    1.20
  20   1 -13   35.96    9.00
  20   1 -12    3.19    1.91
  20   1 -11    0.88    2.82
  20   1 -10    5.03    1.47
  20   1  -9    6.65    2.60
  20   1  -8    5.05    1.59
  20   1  -7    3.39    1.69
  20   1  -6    1.38    0.58
  20   1  -5   20.68    4.21
  20   1  -4    2.61    1.26
  20   1  -3    0.70    0.62
  20   1  -2    1.71    1.47
  20   1  -1    2.12    0.67
  20   1   0    1.71    0.66
  20   1   1   44.10    9.01
  20   1   2    1.22    0.68
  20   1   3    2.79    0.82
  20   1   4    1.66    0.80
  20   1   5   16.54    3.75
  20   1   6    1.97    1.28
  20   1   7   11.91    2.41
  20   1   8    3.38    1.07
  20   1   9   11.45    3.66
  20   1  10   10.07    3.61
  20   1  11    0.68    1.64
  20   1  12    1.50    2.11
  20   1  13    3.38    1.45
  20   2 -17    1.30    1.87
  20   2 -16   -0.35    1.23
  20   2 -15    2.95    1.16
  20   2 -14    8.26    1.77
  20   2 -13    0.60    1.24
  20   2 -12    2.65    1.54
  20   2 -11    8.99    1.53
  20   2 -10    3.39    1.23
  20   2  -9   -1.32    1.82
  20   2  -8    2.92    1.02
  20   2  -7    1.33    0.98
  20   2  -6    7.45    1.62
  20   2  -5    1.59    0.74
  20   2  -4    7.79    1.53
  20   2  -3    3.21    0.80
  20   2  -2    2.89    0.99
  20   2  -1    3.00    0.82
  20   2   0    2.18    0.76
  20   2   1    4.48    1.65
  20   2   2   22.95    2.50
  20   2   3    9.96    1.64
  20   2   4    2.47    0.83
  20   2   5    0.83    0.89
  20   2   6    4.41    1.09
  20   2   7    7.87    2.66
  20   2   8   38.06   11.94
  20   2   9    2.42    1.62
  20   2  10    3.29    1.48
  20   2  11    2.57    1.15
  20   2  12    2.82    0.92
  20   3 -16    1.77    1.38
  20   3 -15    1.93    1.31
  20   3 -14    4.48    1.52
  20   3 -13   20.62    3.96
  20   3 -12    2.47    2.86
  20   3 -11    1.08    1.05
  20   3 -10    4.85    1.71
  20   3  -9    4.54    2.06
  20   3  -8    2.75    0.97
  20   3  -7    1.46    1.17
  20   3  -6    1.36    1.00
  20   3  -5    2.93    1.40
  20   3  -4    6.96    2.05
  20   3  -3    3.22    0.98
  20   3  -2    0.24    1.41
  20   3  -1    0.64    1.13
  20   3   0    5.33    1.33
  20   3   1   22.41    3.48
  20   3   2    1.03    0.89
  20   3   3    1.57    0.86
  20   3   4    1.52    0.78
  20   3   5    2.54    0.49
  20   3   6    7.46    3.13
  20   3   7    3.94    1.23
  20   3   8    4.49    1.38
  20   3   9    0.96    1.61
  20   3  10    1.78    2.51
  20   3  11    2.89    1.62
  20   3  12    4.62    1.02
  20   4 -15    2.29    1.13
  20   4 -14    6.04    3.17
  20   4 -13    1.20    1.84
  20   4 -12    5.30    1.85
  20   4 -11    6.08    1.75
  20   4 -10    5.55    1.66
  20   4  -9    1.13    0.73
  20   4  -8    0.60    0.76
  20   4  -7    8.63    2.16
  20   4  -6   17.02    3.47
  20   4  -5    0.39    0.83
  20   4  -4    2.50    0.80
  20   4  -3    3.05    0.85
  20   4  -2    1.59    0.83
  20   4  -1    2.94    1.16
  20   4   0    8.39    1.64
  20   4   1    3.69    1.42
  20   4   2    3.41    2.24
  20   4   3    6.69    1.31
  20   4   4    1.94    1.12
  20   4   5    1.42    0.74
  20   4   6    1.71    2.02
  20   4   7   16.02    2.74
  20   4   8    2.02    1.18
  20   4   9    1.91    1.92
  20   4  10    5.81    1.87
  20   4  11    0.85    0.87
  20   4  12    1.29    1.12
  20   5 -14    1.89    1.75
  20   5 -13    4.84    1.57
  20   5 -12    5.72    2.44
  20   5 -11   -0.15    3.06
  20   5 -10    7.01    3.38
  20   5  -9    0.18    1.17
  20   5  -8    6.42    1.53
  20   5  -7    5.17    1.39
  20   5  -6    3.43    0.97
  20   5  -5    2.20    2.45
  20   5  -4    5.54    1.21
  20   5  -3    3.95    1.86
  20   5  -2    0.68    0.91
  20   5  -1    9.57    1.54
  20   5   0    5.59    1.12
  20   5   1    3.12    0.86
  20   5   2    2.86    0.78
  20   5   3    2.54    0.94
  20   5   4    5.63    1.11
  20   5   5    3.58    1.43
  20   5   6    3.29    1.32
  20   5   7    4.16    1.28
  20   5   8    1.89    1.27
  20   5   9    2.85    1.78
  20   5  10    7.95    4.35
  20   5  11    3.21    1.56
  20   6 -12    2.30    2.81
  20   6 -11    1.00    1.27
  20   6 -10    6.71    2.40
  20   6  -9    2.70    2.16
  20   6  -8    2.43    0.93
  20   6  -7    6.16    1.60
  20   6  -6    1.45    1.33
  20   6  -5    4.47    1.43
  20   6  -4    7.71    2.02
  20   6  -3    7.24    2.25
  20   6  -2    1.50    2.27
  20   6  -1    3.18    0.93
  20   6   0    3.56    0.81
  20   6   1    2.52    1.09
  20   6   2    1.42    0.85
  20   6   3   29.13    4.84
  20   6   4    4.79    1.46
  20   6   5    0.52    1.00
  20   6   6    0.68    0.99
  20   6   7    6.29    1.87
  20   6   8    1.16    1.90
  20   6   9    5.91    3.26
  20   6  10    3.72    2.05
  20   7 -10    6.99    1.75
  20   7  -9   14.32    2.96
  20   7  -8    2.46    0.87
  20   7  -7    0.58    2.01
  20   7  -6    1.25    0.74
  20   7  -5    1.09    1.49
  20   7  -4    6.76    1.40
  20   7  -3   11.75    4.00
  20   7  -2    3.18    1.33
  20   7  -1    4.13    2.19
  20   7   0    3.42    1.30
  20   7   1   -0.24    0.55
  20   7   2    4.61    1.25
  20   7   3    3.56    0.79
  20   7   4   12.80    2.83
  20   7   5    7.98    1.40
  20   7   6    0.74    1.84
  20   7   7    1.37    1.14
  20   7   8    1.43    1.13
  20   7   9    0.62    0.96
  20   8 -10    9.46    4.76
  20   8  -9    2.17    0.75
  20   8  -8    2.22    3.29
  20   8  -7    1.37    0.86
  20   8  -6    2.66    0.93
  20   8  -5    3.48    1.06
  20   8  -4    3.55    2.67
  20   8  -3    3.44    1.38
  20   8  -2    7.27    2.03
  20   8  -1    1.46    1.46
  20   8   0    2.54    2.73
  20   8   1    0.28    0.65
  20   8   2    1.09    0.64
  20   8   3    0.69    1.15
  20   8   4    1.82    1.34
  20   8   5    0.50    1.99
  20   8   6    4.52    1.82
  20   8   7    2.13    0.94
  20   8   8    0.96    1.35
  20   9 -10   -0.00    1.05
  20   9  -9    2.47    1.44
  20   9  -8   -2.67    1.49
  20   9  -7    3.66    1.96
  20   9  -6    2.55    1.24
  20   9  -5    0.96    1.03
  20   9  -4   -0.38    0.84
  20   9  -3    1.06    0.98
  20   9  -2    1.73    1.01
  20   9  -1    0.22    1.33
  20   9   0    2.34    3.74
  20   9   1   -0.58    1.19
  20   9   2    0.72    0.58
  20   9   3   -0.58    1.21
  20   9   4    1.70    0.97
  20   9   5    3.52    1.97
  20   9   6    1.63    1.31
  20  10  -1    0.94    1.08
  20  10   0    1.01    0.93
  21   0 -14    4.92    3.46
  21   0 -12    5.30    1.85
  21   0 -10    4.77    2.52
  21   0  -8    5.40    3.53
  21   0  -6   21.75    3.95
  21   0  -4    2.66    1.85
  21   0  -2   10.73    1.87
  21   0   0   17.10    6.87
  21   0   2   15.63    2.39
  21   0   4    3.33    1.16
  21   0   6    1.81    1.56
  21   0   8   18.19    6.16
  21   0  10    2.74    1.80
  21   1 -15    1.85    1.29
  21   1 -14   -2.81    1.53
  21   1 -13   25.04    4.18
  21   1 -12    5.20    1.73
  21   1 -11    5.41    1.10
  21   1 -10    1.74    1.36
  21   1  -9    3.14    1.36
  21   1  -8    3.16    3.80
  21   1  -7   26.48    3.77
  21   1  -6    1.78    1.45
  21   1  -5    9.84    3.07
  21   1  -4    2.29    1.24
  21   1  -3    2.91    0.69
  21   1  -2    1.73    0.71
  21   1  -1    2.19    0.68
  21   1   0    2.27    0.71
  21   1   1   22.92    3.56
  21   1   2    2.78    0.86
  21   1   3    4.71    1.53
  21   1   4    3.64    0.70
  21   1   5    5.06    0.92
  21   1   6    7.84    1.92
  21   1   7    8.08    1.94
  21   1   8    2.46    1.12
  21   1   9    4.97    1.66
  21   1  10    1.68    1.41
  21   1  11    3.14    1.96
  21   2 -14    2.97    1.73
  21   2 -13    2.78    2.25
  21   2 -12    4.91    1.83
  21   2 -11    3.49    1.17
  21   2 -10    2.27    2.18
  21   2  -9    0.95    1.45
  21   2  -8    2.70    1.86
  21   2  -7    6.06    1.29
  21   2  -6   19.10    4.40
  21   2  -5    2.47    0.75
  21   2  -4    1.81    0.78
  21   2  -3    6.46    1.07
  21   2  -2    2.28    0.83
  21   2  -1    0.49    1.27
  21   2   0    7.75    1.29
  21   2   1    1.72    0.98
  21   2   2    7.83    1.90
  21   2   3    0.93    0.77
  21   2   4    2.29    0.55
  21   2   5    1.91    0.91
  21   2   6    1.17    0.75
  21   2   7    5.32    1.91
  21   2   8    8.84    2.09
  21   2   9    0.63    1.43
  21   2  10    3.96    1.28
  21   2  11    1.82    2.10
  21   3 -14    2.53    5.39
  21   3 -13    2.47    1.02
  21   3 -12    3.43    3.62
  21   3 -11    1.79    3.10
  21   3 -10    0.89    2.88
  21   3  -9    3.31    1.62
  21   3  -8    2.91    1.73
  21   3  -7    2.20    0.91
  21   3  -6    2.00    0.86
  21   3  -5    5.74    1.67
  21   3  -4    5.10    1.08
  21   3  -3   -0.13    0.77
  21   3  -2    1.20    0.70
  21   3  -1    3.51    0.98
  21   3   0    1.11    1.36
  21   3   1   10.87    1.94
  21   3   2    2.61    1.49
  21   3   3    2.85    0.61
  21   3   4    2.42    1.28
  21   3   5    0.09    0.86
  21   3   6    0.72    1.50
  21   3   7   10.03    3.27
  21   3   8    1.77    1.31
  21   3   9    5.09    1.51
  21   3  10    5.25    2.69
  21   4 -12    0.55    1.38
  21   4 -11    3.12    1.67
  21   4 -10    2.84    1.41
  21   4  -9    0.04    1.93
  21   4  -8    0.99    1.21
  21   4  -7    1.89    1.19
  21   4  -6    0.89    0.90
  21   4  -5    5.13    1.59
  21   4  -4    3.53    0.99
  21   4  -3    1.39    0.82
  21   4  -2    1.42    1.61
  21   4  -1    3.25    0.65
  21   4   0    3.95    1.73
  21   4   1    4.17    1.26
  21   4   2    2.54    1.30
  21   4   3   19.26    4.19
  21   4   4    4.29    0.96
  21   4   5    1.50    1.32
  21   4   6    4.11    1.24
  21   4   7    6.43    2.08
  21   4   8    2.74    1.21
  21   4   9    4.40    1.30
  21   4  10    1.43    2.00
  21   5 -11    2.65    1.65
  21   5 -10    5.15    1.75
  21   5  -9    1.04    1.22
  21   5  -8    2.76    0.91
  21   5  -7    5.61    1.14
  21   5  -6    2.03    0.90
  21   5  -5    0.81    1.18
  21   5  -4    8.64    2.35
  21   5  -3    4.81    0.94
  21   5  -2    4.82    0.99
  21   5  -1    3.78    0.86
  21   5   0    4.17    1.06
  21   5   1    1.23    1.98
  21   5   2    3.00    0.87
  21   5   3    2.77    0.88
  21   5   4    7.07    1.66
  21   5   5    3.80    1.33
  21   5   6    7.77    2.91
  21   5   7    1.15    0.87
  21   5   8    2.86    1.44
  21   5   9    3.70    1.94
  21   6 -10   10.78    3.55
  21   6  -9    1.10    1.90
  21   6  -8    2.49    1.25
  21   6  -7    2.82    1.04
  21   6  -6   -0.06    0.80
  21   6  -5    7.68    1.59
  21   6  -4    2.95    1.28
  21   6  -3    4.67    1.52
  21   6  -2    5.29    1.28
  21   6  -1   13.78    3.43
  21   6   0    0.84    0.67
  21   6   1   -0.07    0.82
  21   6   2    4.71    1.16
  21   6   3   21.14    3.35
  21   6   4    2.82    1.71
  21   6   5    1.68    1.08
  21   6   6    2.59    2.10
  21   6   7    2.35    1.74
  21   6   8   -0.74    1.45
  21   7  -8    3.48    1.60
  21   7  -7    0.40    0.93
  21   7  -6    2.38    0.99
  21   7  -5    3.40    1.32
  21   7  -4   17.07    5.35
  21   7  -3   13.16    5.93
  21   7  -2    5.57    1.21
  21   7  -1   -1.01    1.27
  21   7   0    5.76    1.66
  21   7   1    1.44    0.90
  21   7   2    3.76    0.81
  21   7   3    4.86    1.43
  21   7   4    7.17    1.57
  21   7   5    2.67    0.89
  21   7   6    3.00    1.13
  21   7   7    3.34    1.36
  21   8  -8    3.00    1.64
  21   8  -7    6.49    2.76
  21   8  -6    1.96    1.52
  21   8  -5    1.92    1.36
  21   8  -4    9.26    2.46
  21   8  -3    0.93    1.22
  21   8  -2    2.12    2.49
  21   8  -1    0.97    0.75
  21   8   0    3.72    0.96
  21   8   2    1.69    0.84
  21   8   3    1.03    1.02
  21   8   4    4.54    1.36
  21   8   5   -0.58    1.18
  21   9  -7    1.60    0.98
  21   9  -6    4.73    1.34
  21   9  -1    2.63    1.52
  21   9   1    1.21    1.41
  22   0 -12    5.13    1.66
  22   0 -10    3.15    2.25
  22   0  -8   -0.29    2.65
  22   0  -6   24.74    4.02
  22   0  -4    1.72    3.40
  22   0  -2    0.38    1.37
  22   0   0    6.91    1.34
  22   0   2    6.52    1.55
  22   0   4    3.76    0.83
  22   0   6   -0.72    1.67
  22   0   8   15.63    6.09
  22   1 -12    2.08    1.08
  22   1 -11    1.52    1.18
  22   1 -10    1.84    2.34
  22   1  -9    4.64    2.06
  22   1  -8    5.04    1.67
  22   1  -7   22.55    3.19
  22   1  -6    3.92    1.21
  22   1  -5    4.05    1.26
  22   1  -4    1.55    1.16
  22   1  -3    0.04    1.09
  22   1  -2    0.61    1.63
  22   1  -1    2.96    1.28
  22   1   0    3.61    0.68
  22   1   1    9.32    1.57
  22   1   2    2.83    0.96
  22   1   3    3.25    0.73
  22   1   4    1.55    1.03
  22   1   5    1.41    0.65
  22   1   6    1.23    1.51
  22   1   7    5.55    3.44
  22   1   8    1.02    0.89
  22   1   9    7.94    1.71
  22   2 -11    2.09    2.31
  22   2 -10   -0.26    1.32
  22   2  -9    3.15    0.96
  22   2  -8    6.65    1.74
  22   2  -7    7.57    1.74
  22   2  -6   10.38    2.92
  22   2  -5    1.73    1.61
  22   2  -4    3.25    1.09
  22   2  -3    1.86    1.92
  22   2  -2    1.15    0.99
  22   2  -1    3.24    0.81
  22   2   0   19.98    3.79
  22   2   1    2.48    0.85
  22   2   2    0.80    0.91
  22   2   3    3.48    0.90
  22   2   4    1.64    1.33
  22   2   5    1.34    0.95
  22   2   6    4.53    0.82
  22   2   7    0.75    0.83
  22   2   8    4.43    0.99
  22   2   9    4.92    2.33
  22   3 -11    5.56    2.43
  22   3 -10    0.04    1.68
  22   3  -9   -0.90    2.46
  22   3  -8    5.51    1.06
  22   3  -7    7.57    1.60
  22   3  -6    1.43    2.00
  22   3  -5    3.92    2.64
  22   3  -4    0.11    0.85
  22   3  -3    1.83    0.78
  22   3  -2    2.46    1.10
  22   3  -1    2.15    1.15
  22   3   0    2.37    1.05
  22   3   1    1.22    0.83
  22   3   2    2.65    0.83
  22   3   3    3.19    0.72
  22   3   4   -0.05    1.37
  22   3   5    1.28    0.85
  22   3   6    3.40    1.31
  22   3   7    5.15    1.79
  22   3   8    0.01    1.77
  22   4 -10    0.82    1.66
  22   4  -9    2.71    1.42
  22   4  -8    1.46    1.18
  22   4  -7    3.54    1.19
  22   4  -6    3.68    1.73
  22   4  -5    1.52    0.75
  22   4  -4    2.89    0.91
  22   4  -3   -0.12    1.59
  22   4  -2    1.40    1.38
  22   4  -1    5.91    1.35
  22   4   0    1.53    0.96
  22   4   1    2.75    0.68
  22   4   2    2.86    0.71
  22   4   3    1.78    0.71
  22   4   4    0.94    1.07
  22   4   5    3.22    2.76
  22   4   6    1.42    1.17
  22   4   7    4.31    1.33
  22   4   8    0.51    0.88
  22   5  -8    9.03    2.80
  22   5  -7    1.71    1.77
  22   5  -6    1.16    1.19
  22   5  -5    0.42    1.06
  22   5  -4    2.17    0.97
  22   5  -3    1.44    1.09
  22   5  -2    4.10    1.42
  22   5  -1    1.25    0.73
  22   5   0    2.91    0.99
  22   5   1    0.42    1.10
  22   5   2    2.53    0.76
  22   5   3   -0.54    0.99
  22   5   4    1.66    0.99
  22   5   5    1.49    1.15
  22   5   6    1.80    1.78
  22   5   7    1.54    1.44
  22   6  -7    1.24    1.71
  22   6  -6    2.33    1.23
  22   6  -5    2.23    1.13
  22   6  -4    2.60    1.03
  22   6  -3    2.62    1.48
  22   6  -2    2.22    0.94
  22   6  -1    5.06    1.55
  22   6   0    0.27    0.81
  22   6   1    1.22    2.29
  22   6   2    3.29    0.99
  22   6   3    5.92    1.54
  22   6   4    0.96    1.20
  22   6   5    3.24    1.18
  22   6   6    1.49    1.50
  22   7  -7    3.38    1.64
  22   7  -6    1.89    1.38
  22   7  -5    3.60    2.41
  22   7  -4    3.58    1.52
  22   7  -3    2.58    1.39
  22   7  -2    1.78    0.97
  22   7  -1    2.40    0.89
  22   7   0    0.74    0.94
  22   7   1    3.90    1.29
  22   7   3    5.54    2.15
  22   7   4    3.99    1.70
  22   7   5    2.14    2.04
  22   8  -6    2.34    1.26
  22   8  -5   -0.18    1.33
  22   8   0    4.40    1.47
  23   0  -8    7.74    2.43
  23   0  -6    5.59    1.81
  23   0  -4   -0.28    2.50
  23   0  -2    0.91    2.84
  23   0   0    4.01    1.47
  23   0   2    4.75    1.11
  23   0   4    4.29    1.09
  23   0   6   -1.04    1.65
  23   1  -8    1.41    1.08
  23   1  -7   11.15    4.43
  23   1  -6    3.91    1.72
  23   1  -5    0.96    2.78
  23   1  -4    2.63    3.50
  23   1  -3   -1.02    0.94
  23   1  -2   -0.66    1.30
  23   1  -1    6.73    1.69
  23   1   0    0.97    0.78
  23   1   1    4.87    1.15
  23   1   2    0.38    0.54
  23   1   3    1.16    0.91
  23   1   4    2.44    0.99
  23   1   5    2.72    1.12
  23   1   6    2.92    1.08
  23   1   7    1.08    1.17
  23   2  -8    0.98    4.57
  23   2  -7    1.29    1.05
  23   2  -6    2.57    1.67
  23   2  -5    4.76    1.23
  23   2  -4    1.59    1.42
  23   2  -3    4.51    1.06
  23   2  -2    5.36    1.03
  23   2  -1    8.05    1.65
  23   2   0    4.29    1.22
  23   2   1    3.10    0.75
  23   2   2    1.42    0.91
  23   2   3    1.06    0.72
  23   2   4    1.19    0.84
  23   2   5    3.25    0.87
  23   2   6    4.43    1.85
  23   2   7    4.17    2.30
  23   3  -7    3.38    1.67
  23   3  -6    2.19    1.88
  23   3  -5    0.98    1.69
  23   3  -4    0.70    1.01
  23   3  -3    1.20    0.65
  23   3  -2    2.75    0.85
  23   3  -1    1.49    1.40
  23   3   0    1.95    1.14
  23   3   1    3.43    1.50
  23   3   2    1.49    1.02
  23   3   3    1.13    0.97
  23   3   4    4.03    0.92
  23   3   5    0.74    1.65
  23   3   6    0.53    1.23
  23   4  -6   -1.94    2.17
  23   4  -5    2.21    1.60
  23   4  -4    3.65    1.73
  23   4  -3    0.76    1.00
  23   4  -2    3.28    1.13
  23   4  -1    1.14    0.61
  23   4   0    1.23    1.69
  23   4   1    1.76    0.92
  23   4   2    1.53    0.82
  23   4   3    2.27    0.77
  23   4   4    0.91    0.82
  23   4   5    1.03    2.39
  23   4   6    8.08    2.78
  23   5  -5    0.76    1.00
  23   5  -4    1.76    1.38
  23   5  -3    2.09    1.15
  23   5  -2    2.03    0.99
  23   5  -1    2.54    1.06
  23   5   0    3.07    0.97
  23   5   1    2.61    0.85
  23   5   2    1.98    1.53
  23   5   3    2.54    1.22
  23   5   4    0.95    0.81
  23   5   5    1.87    0.78
  23   6  -5    1.38    1.28
  23   6  -4    1.45    0.88
  23   6  -3    1.78    1.23
  23   6  -2    2.74    1.46
  23   6  -1    2.31    1.13
  23   6   0    0.03    1.53
  23   6   4    0.72    1.58
  24   0  -4    1.08    1.28
  24   0  -2   -2.39    1.85
  24   0   0    1.25    2.07
  24   0   2    0.36    2.06
  24   0   4    0.03    1.09
  24   1  -4    2.68    1.95
  24   1  -3    5.11    2.40
  24   1  -2    2.01    0.89
  24   1  -1    0.76    1.13
  24   1   0    0.67    0.69
  24   1   1    5.24    1.30
  24   1   2    1.15    0.63
  24   1   3    0.78    0.80
  24   1   4    1.29    1.46
  24   1   5   -0.85    1.75
  24   2  -3    2.30    1.17
  24   2  -2    0.76    0.71
  24   2  -1    8.63    1.37
  24   2   0    4.82    1.00
  24   2   1    3.31    1.46
  24   2   2    2.39    0.61
  24   2   3    0.07    1.26
  24   2   4    3.03    1.58
  24   2   5    3.38    2.03
  24   3  -3    2.61    1.76
  24   3  -2    0.60    1.24
  24   3  -1    0.68    1.76
  24   3   0    2.00    1.29
  24   3   1    2.00    0.84
  24   3   2    1.80    0.81
  24   3   3    1.30    0.75
  24   3   4    5.31    1.62
  24   4  -3    0.27    1.01
  24   4  -2    3.15    1.44
  24   4  -1    1.68    2.35
  24   4   0    0.34    1.31
  24   4   1    1.67    1.30
  24   5  -2    2.49    1.12
;
_shelx_hkl_checksum              14306
loop_
_space_group_symop_operation_xyz
'x, y, z'
'-x, y+1/2, -z+1/2'
'-x, -y, -z'
'x, -y-1/2, z-1/2'
loop_
_atom_site_label
_atom_site_type_symbol
_atom_site_fract_x
_atom_site_fract_y
_atom_site_fract_z
_atom_site_U_iso_or_equiv
_atom_site_adp_type
_atom_site_occupancy
_atom_site_site_symmetry_order
_atom_site_calc_flag
_atom_site_refinement_flags_posn
_atom_site_refinement_flags_adp
_atom_site_refinement_flags_occupancy
_atom_site_disorder_assembly
_atom_site_disorder_group
C1 C 0.9355(3) 0.2036(4) 1.02616(18) 0.0451(9) Uani 1 1 d . . . . .
C2 C 0.8626(3) 0.2604(4) 1.0355(2) 0.0513(10) Uani 1 1 d . . . . .
H1 H 0.8550 0.3409 1.0420 0.062 Uiso 1 1 calc R U . . .
C3 C 0.8060(3) 0.1758(4) 1.0330(2) 0.0512(10) Uani 1 1 d . . . . .
H2 H 0.7518 0.1880 1.0372 0.061 Uiso 1 1 calc R U . . .
C4 C 0.8428(3) 0.0639(4) 1.0230(2) 0.0459(10) Uani 1 1 d . . . . .
C5 C 0.8145(3) -0.0524(4) 1.01600(19) 0.0451(9) Uani 1 1 d . . . . .
C6 C 0.8657(3) -0.1486(4) 1.00152(19) 0.0474(10) Uani 1 1 d . . . . .
C7 C 0.8556(3) -0.2715(4) 0.9963(2) 0.0512(10) Uani 1 1 d . . . . .
H3 H 0.8084 -0.3126 1.0009 0.061 Uiso 1 1 calc R U . . .
C8 C 0.9266(3) -0.3205(4) 0.98335(19) 0.0483(10) Uani 1 1 d . . . . .
H4 H 0.9366 -0.4005 0.9772 0.058 Uiso 1 1 calc R U . . .
C9 C 0.9814(3) -0.2284(4) 0.98102(19) 0.0468(10) Uani 1 1 d . . . . .
C10 C 0.7319(3) -0.0757(4) 1.02426(19) 0.0474(10) Uani 1 1 d . . . . .
C11 C 0.6923(3) -0.0202(4) 1.0712(2) 0.0513(10) Uani 1 1 d . . . . .
H5 H 0.7194 0.0359 1.0971 0.062 Uiso 1 1 calc R U . . .
C12 C 0.6161(3) -0.0451(4) 1.0803(3) 0.0606(12) Uani 1 1 d . . . . .
H6 H 0.5912 -0.0050 1.1118 0.073 Uiso 0.5 1 calc R U P A 1
C13 C 0.5741(3) -0.1287(5) 1.0440(3) 0.0720(15) Uani 1 1 d . . . . .
H7 H 0.5210 -0.1457 1.0502 0.086 Uiso 0.5 1 calc R U P B 2
C14 C 0.6127(3) -0.1855(5) 0.9989(3) 0.0690(14) Uani 1 1 d . . . . .
H8 H 0.5861 -0.2448 0.9748 0.083 Uiso 0.5 1 calc R U P C 1
C15 C 0.6890(3) -0.1580(4) 0.9879(2) 0.0566(11) Uani 1 1 d . . . . .
H9 H 0.7127 -0.1958 0.9551 0.068 Uiso 1 1 calc R U . . .
C16 C 0.5759(7) 0.0160(10) 1.1346(6) 0.068(3) Uani 0.5 1 d . U P D 2
C17 C 0.4571(8) -0.0885(14) 1.0855(9) 0.112(5) Uani 0.5 1 d . U P E 1
H10 H 0.4717 -0.1132 1.1285 0.168 Uiso 0.5 1 calc R U P E 1
H11 H 0.4011 -0.1022 1.0753 0.168 Uiso 0.5 1 calc R U P E 1
H12 H 0.4685 -0.0058 1.0813 0.168 Uiso 0.5 1 calc R U P E 1
C18 C 0.4647(7) -0.2544(16) 1.0165(8) 0.102(5) Uani 0.5 1 d . U P E 1
H13 H 0.4694 -0.2525 0.9714 0.152 Uiso 0.5 1 calc R U P E 1
H14 H 0.4092 -0.2572 1.0245 0.152 Uiso 0.5 1 calc R U P E 1
H15 H 0.4914 -0.3232 1.0345 0.152 Uiso 0.5 1 calc R U P E 1
C19 C 0.5631(8) -0.2847(15) 0.9674(6) 0.092(4) Uani 0.5 1 d . U P F 2
C20 C 0.8278(3) 0.1670(4) 0.8758(2) 0.0473(10) Uani 1 1 d . . . . .
C21 C 0.7465(3) 0.1548(4) 0.8788(2) 0.0505(10) Uani 1 1 d . . . . .
H16 H 0.7107 0.2151 0.8863 0.061 Uiso 1 1 calc R U . . .
C22 C 0.7279(3) 0.0384(4) 0.8687(2) 0.0504(10) Uani 1 1 d . . . . .
H17 H 0.6772 0.0050 0.8682 0.061 Uiso 1 1 calc R U . . .
C23 C 0.7987(3) -0.0216(4) 0.8593(2) 0.0462(10) Uani 1 1 d . . . . .
C24 C 0.8167(3) -0.1403(4) 0.84306(19) 0.0455(9) Uani 1 1 d . . . . .
C25 C 0.8934(3) -0.1806(4) 0.83606(19) 0.0453(9) Uani 1 1 d . . . . .
C26 C 0.9246(3) -0.2869(4) 0.81271(19) 0.0489(10) Uani 1 1 d . . . . .
H18 H 0.8963 -0.3568 0.8045 0.059 Uiso 1 1 calc R U . . .
C27 C 1.0027(3) -0.2689(4) 0.8045(2) 0.0496(10) Uani 1 1 d . . . . .
H19 H 1.0377 -0.3236 0.7889 0.060 Uiso 1 1 calc R U . . .
C28 C 1.0212(3) -0.1520(4) 0.82385(19) 0.0482(10) Uani 1 1 d . . . . .
C29 C 1.0846(3) -0.0641(4) 0.82218(19) 0.0470(10) Uani 1 1 d . . . . .
C30 C 1.1574(3) -0.0462(4) 0.7990(2) 0.0533(11) Uani 1 1 d . . . . .
H20 H 1.1882 -0.1030 0.7805 0.064 Uiso 1 1 calc R U . . .
C31 C 1.1769(3) 0.0715(4) 0.8080(2) 0.0519(11) Uani 1 1 d . . . . .
H21 H 1.2234 0.1085 0.7971 0.062 Uiso 1 1 calc R U . . .
C32 C 1.1139(2) 0.1247(4) 0.83637(19) 0.0451(9) Uani 1 1 d . . . . .
C33 C 1.0945(2) 0.2457(4) 0.84743(19) 0.0437(9) Uani 1 1 d . . . . .
C34 C 1.0196(2) 0.2805(4) 0.86155(19) 0.0443(9) Uani 1 1 d . . . . .
C35 C 0.9848(3) 0.3929(4) 0.8745(2) 0.0482(10) Uani 1 1 d . . . . .
H22 H 1.0113 0.4653 0.8767 0.058 Uiso 1 1 calc R U . . .
C36 C 0.9066(3) 0.3747(4) 0.8829(2) 0.0499(10) Uani 1 1 d . . . . .
H23 H 0.8695 0.4326 0.8914 0.060 Uiso 1 1 calc R U . . .
C37 C 0.8916(2) 0.2538(4) 0.8766(2) 0.0462(10) Uani 1 1 d . . . . .
C38 C 0.7486(3) -0.2187(4) 0.82725(19) 0.0457(9) Uani 1 1 d . . . . .
C39 C 0.6842(3) -0.1784(4) 0.7891(2) 0.0508(10) Uani 1 1 d . . . . .
H24 H 0.6852 -0.1028 0.7717 0.061 Uiso 1 1 calc R U . . .
C40 C 0.6184(3) -0.2486(4) 0.7764(2) 0.0579(12) Uani 1 1 d . . . . .
C41 C 0.6169(3) -0.3596(4) 0.7994(3) 0.0660(14) Uani 1 1 d . . . . .
H25 H 0.5724 -0.4077 0.7900 0.079 Uiso 1 1 calc R U . . .
C42 C 0.6816(3) -0.4006(4) 0.8366(3) 0.0617(12) Uani 1 1 d . . . . .
C43 C 0.7469(3) -0.3314(4) 0.8505(2) 0.0511(10) Uani 1 1 d . . . . .
H26 H 0.7905 -0.3608 0.8759 0.061 Uiso 1 1 calc R U . . .
C44 C 0.5497(3) -0.2022(5) 0.7359(3) 0.0715(15) Uani 1 1 d . . . . .
C45 C 0.6803(4) -0.5227(6) 0.8584(4) 0.0827(18) Uani 1 1 d . . . . .
C46 C 1.1545(2) 0.3341(4) 0.84016(19) 0.0454(9) Uani 1 1 d . . . . .
C47 C 1.2311(3) 0.3202(4) 0.8674(2) 0.0494(10) Uani 1 1 d . . . . .
H27 H 1.2453 0.2494 0.8879 0.059 Uiso 1 1 calc R U . . .
C48 C 1.2868(3) 0.4067(4) 0.8652(2) 0.0538(11) Uani 1 1 d . . . . .
H28 H 1.3374 0.3963 0.8861 0.065 Uiso 1 1 calc R U . . .
C49 C 1.2689(3) 0.5099(4) 0.8323(2) 0.0520(11) Uani 1 1 d . . . . .
C50 C 1.1930(3) 0.5224(4) 0.8027(2) 0.0516(11) Uani 1 1 d . . . . .
H29 H 1.1800 0.5907 0.7794 0.062 Uiso 1 1 calc R U . . .
C51 C 1.1372(3) 0.4370(4) 0.8070(2) 0.0471(10) Uani 1 1 d . . . . .
H30 H 1.0861 0.4481 0.7871 0.057 Uiso 1 1 calc R U . . .
C52 C 1.3957(3) 0.5912(6) 0.8699(3) 0.0873(19) Uani 1 1 d . . . . .
H31 H 1.3809 0.5949 0.9129 0.131 Uiso 1 1 calc R U . . .
H32 H 1.4291 0.6577 0.8619 0.131 Uiso 1 1 calc R U . . .
H33 H 1.4244 0.5192 0.8639 0.131 Uiso 1 1 calc R U . . .
C53 C 1.3013(3) 0.7066(5) 0.8018(3) 0.0786(16) Uani 1 1 d . . . . .
H34 H 1.2746 0.6966 0.7600 0.118 Uiso 1 1 calc R U . . .
H35 H 1.3474 0.7560 0.7992 0.118 Uiso 1 1 calc R U . . .
H36 H 1.2654 0.7429 0.8292 0.118 Uiso 1 1 calc R U . . .
N1 N 0.9207(2) 0.0893(3) 1.01928(16) 0.0466(8) Uani 1 1 d . . . . .
N2 N 0.9421(2) -0.1280(3) 0.99144(16) 0.0453(8) Uani 1 1 d . . . . .
N3 N 0.5001(5) -0.1518(10) 1.0448(6) 0.089(3) Uani 0.5 1 d . U P E 1
N4 N 0.8569(2) 0.0592(3) 0.86519(17) 0.0471(8) Uani 1 1 d . . . . .
N5 N 0.9566(2) -0.1045(3) 0.84422(17) 0.0470(8) Uani 1 1 d . . . . .
N6 N 1.0605(2) 0.0394(3) 0.84425(16) 0.0447(8) Uani 1 1 d . . . . .
N7 N 0.9598(2) 0.2016(3) 0.86510(16) 0.0460(8) Uani 1 1 d . . . . .
N8 N 1.3256(2) 0.5942(4) 0.8269(2) 0.0694(12) Uani 1 1 d . . . . .
Ni1 Ni 1.0000 0.0000 1.0000 0.0451(2) Uani 1 2 d S . P . .
Ni2 Ni 0.95968(3) 0.04756(5) 0.85929(3) 0.0457(2) Uani 1 1 d . . . . .
F1 F 0.6211(4) 0.0230(6) 1.1892(3) 0.0845(19) Uani 0.5 1 d . U P D 2
F2 F 0.5597(5) 0.1272(6) 1.1198(4) 0.095(2) Uani 0.5 1 d . U P D 2
F3 F 0.5083(5) -0.0309(8) 1.1493(5) 0.123(3) Uani 0.5 1 d . U P D 2
F4 F 0.4960(5) -0.3115(10) 0.9889(4) 0.116(3) Uani 0.5 1 d . U P F 2
F5 F 0.5506(5) -0.2570(10) 0.9086(4) 0.134(4) Uani 0.5 1 d . U P F 2
F6 F 0.6064(6) -0.3851(10) 0.9680(5) 0.140(4) Uani 0.5 1 d . U P F 2
F7 F 0.55565(19) -0.2188(4) 0.67495(18) 0.0912(11) Uani 1 1 d . . . . .
F8 F 0.5396(2) -0.0894(4) 0.7431(2) 0.1210(16) Uani 1 1 d . . . . .
F9 F 0.48258(18) -0.2547(4) 0.74777(19) 0.1001(12) Uani 1 1 d . . . . .
F10 F 0.7226(2) -0.5385(3) 0.91342(18) 0.0852(10) Uani 1 1 d . . . . .
F11 F 0.6110(2) -0.5661(4) 0.8632(3) 0.1287(18) Uani 1 1 d . . . . .
F12 F 0.7138(3) -0.5965(3) 0.8185(2) 0.1277(17) Uani 1 1 d . . . . .
loop_
_atom_site_aniso_label
_atom_site_aniso_U_11
_atom_site_aniso_U_22
_atom_site_aniso_U_33
_atom_site_aniso_U_23
_atom_site_aniso_U_13
_atom_site_aniso_U_12
C1 0.056(2) 0.044(2) 0.035(2) -0.0024(17) -0.0002(18) 0.0015(19)
C2 0.057(3) 0.045(2) 0.052(2) -0.0003(19) 0.005(2) 0.008(2)
C3 0.050(2) 0.056(3) 0.048(2) 0.001(2) 0.0041(19) 0.005(2)
C4 0.046(2) 0.046(2) 0.045(2) 0.0000(18) -0.0005(18) 0.0076(18)
C5 0.051(2) 0.046(2) 0.038(2) 0.0008(17) -0.0027(18) 0.0045(19)
C6 0.051(2) 0.049(2) 0.042(2) -0.0002(18) 0.0004(19) 0.0000(19)
C7 0.059(3) 0.051(3) 0.043(2) 0.0014(19) -0.004(2) -0.005(2)
C8 0.060(3) 0.038(2) 0.046(2) 0.0008(18) 0.000(2) -0.0009(19)
C9 0.055(2) 0.045(2) 0.040(2) -0.0027(18) 0.0014(18) 0.0018(19)
C10 0.051(2) 0.045(2) 0.044(2) 0.0025(18) -0.0071(19) 0.0014(19)
C11 0.048(2) 0.047(2) 0.059(3) 0.005(2) 0.001(2) 0.0041(19)
C12 0.052(3) 0.058(3) 0.072(3) 0.003(2) 0.008(2) 0.004(2)
C13 0.047(3) 0.066(3) 0.101(4) 0.007(3) -0.005(3) -0.004(2)
C14 0.057(3) 0.065(3) 0.082(4) -0.004(3) -0.013(3) -0.006(3)
C15 0.059(3) 0.060(3) 0.049(2) 0.002(2) -0.007(2) -0.002(2)
C16 0.062(6) 0.059(6) 0.086(7) -0.005(5) 0.016(6) -0.008(5)
C17 0.067(8) 0.101(10) 0.174(14) 0.015(10) 0.050(9) 0.006(7)
C18 0.042(6) 0.151(14) 0.112(11) 0.002(10) 0.011(7) -0.036(8)
C19 0.069(7) 0.131(11) 0.079(8) -0.034(8) 0.015(6) -0.039(7)
C20 0.053(2) 0.038(2) 0.050(2) -0.0018(18) -0.0028(19) 0.0030(18)
C21 0.052(2) 0.041(2) 0.058(3) 0.0021(19) 0.000(2) 0.0016(19)
C22 0.052(2) 0.042(2) 0.056(3) 0.0014(19) -0.004(2) -0.0010(19)
C23 0.049(2) 0.037(2) 0.050(2) 0.0018(18) -0.0048(19) -0.0037(18)
C24 0.054(2) 0.039(2) 0.043(2) -0.0002(17) -0.0011(19) -0.0036(18)
C25 0.055(2) 0.040(2) 0.040(2) -0.0009(17) -0.0050(18) -0.0013(19)
C26 0.061(3) 0.041(2) 0.042(2) -0.0010(18) -0.008(2) 0.0030(19)
C27 0.060(3) 0.042(2) 0.046(2) -0.0057(18) 0.000(2) 0.008(2)
C28 0.059(3) 0.045(2) 0.039(2) -0.0028(18) -0.0067(19) 0.006(2)
C29 0.055(3) 0.041(2) 0.044(2) -0.0011(18) -0.0035(19) 0.0051(19)
C30 0.065(3) 0.048(3) 0.046(2) -0.0009(19) 0.002(2) 0.013(2)
C31 0.055(3) 0.052(3) 0.048(2) 0.004(2) 0.000(2) 0.009(2)
C32 0.047(2) 0.047(2) 0.041(2) 0.0000(18) -0.0029(18) 0.0039(18)
C33 0.050(2) 0.039(2) 0.042(2) -0.0030(17) -0.0014(18) 0.0002(18)
C34 0.048(2) 0.040(2) 0.043(2) 0.0005(17) -0.0009(18) -0.0016(18)
C35 0.052(2) 0.038(2) 0.053(2) -0.0054(19) 0.000(2) 0.0004(18)
C36 0.048(2) 0.041(2) 0.061(3) -0.0025(19) 0.004(2) 0.0034(18)
C37 0.043(2) 0.045(2) 0.050(2) 0.0005(19) -0.0015(18) 0.0011(18)
C38 0.052(2) 0.043(2) 0.042(2) -0.0041(17) 0.0050(18) -0.0056(19)
C39 0.050(2) 0.050(3) 0.053(2) -0.002(2) 0.000(2) 0.000(2)
C40 0.047(2) 0.057(3) 0.070(3) 0.000(2) 0.005(2) 0.000(2)
C41 0.045(2) 0.054(3) 0.098(4) -0.003(3) 0.003(3) -0.005(2)
C42 0.054(3) 0.045(3) 0.087(4) 0.007(2) 0.008(3) -0.003(2)
C43 0.055(3) 0.041(2) 0.057(3) -0.0010(19) 0.004(2) 0.0012(19)
C44 0.045(3) 0.066(4) 0.101(5) -0.003(3) -0.008(3) 0.000(2)
C45 0.058(3) 0.071(4) 0.117(5) 0.018(4) -0.006(3) -0.006(3)
C46 0.049(2) 0.045(2) 0.041(2) -0.0005(18) 0.0024(18) 0.0026(18)
C47 0.052(2) 0.046(2) 0.049(2) 0.0046(19) 0.0017(19) 0.0032(19)
C48 0.045(2) 0.057(3) 0.059(3) 0.003(2) 0.005(2) 0.002(2)
C49 0.047(2) 0.048(3) 0.061(3) 0.004(2) 0.010(2) -0.0020(19)
C50 0.051(3) 0.049(2) 0.055(3) 0.010(2) 0.011(2) 0.006(2)
C51 0.048(2) 0.046(2) 0.047(2) 0.0017(18) -0.0005(19) 0.0054(19)
C52 0.063(3) 0.072(4) 0.124(5) 0.021(4) -0.009(3) -0.025(3)
C53 0.068(3) 0.055(3) 0.113(5) 0.020(3) 0.008(3) -0.007(3)
N1 0.050(2) 0.044(2) 0.0449(19) -0.0051(15) -0.0015(16) 0.0002(16)
N2 0.0475(19) 0.046(2) 0.0425(18) -0.0026(15) 0.0014(15) 0.0040(16)
N3 0.041(5) 0.101(8) 0.130(9) 0.016(7) 0.032(5) 0.004(5)
N4 0.049(2) 0.0395(19) 0.052(2) -0.0020(15) -0.0025(16) -0.0004(15)
N5 0.049(2) 0.0408(19) 0.0496(19) -0.0022(16) -0.0040(16) 0.0032(15)
N6 0.051(2) 0.0381(19) 0.0436(19) -0.0015(14) -0.0022(16) 0.0042(15)
N7 0.0462(19) 0.0415(19) 0.050(2) -0.0009(15) 0.0011(16) -0.0016(15)
N8 0.051(2) 0.056(3) 0.101(3) 0.019(2) 0.006(2) -0.0042(19)
Ni1 0.0458(4) 0.0414(4) 0.0477(4) -0.0039(3) 0.0012(3) 0.0029(3)
Ni2 0.0473(3) 0.0362(3) 0.0522(4) -0.0033(2) -0.0033(3) 0.0006(2)
F1 0.096(5) 0.092(5) 0.068(4) -0.005(3) 0.025(4) 0.016(4)
F2 0.112(6) 0.070(4) 0.101(5) -0.009(4) 0.004(4) 0.026(4)
F3 0.088(5) 0.124(7) 0.168(8) -0.066(6) 0.078(5) -0.041(5)
F4 0.080(5) 0.175(9) 0.101(5) -0.056(5) 0.045(4) -0.074(6)
F5 0.089(5) 0.231(11) 0.081(5) -0.056(6) 0.010(4) -0.085(6)
F6 0.122(7) 0.125(8) 0.172(9) -0.066(7) 0.009(7) -0.053(6)
F7 0.068(2) 0.113(3) 0.089(2) 0.018(2) -0.0167(18) -0.0114(19)
F8 0.092(3) 0.080(3) 0.180(4) -0.013(3) -0.053(3) 0.029(2)
F9 0.0463(17) 0.131(3) 0.122(3) 0.027(2) 0.0003(17) -0.0029(19)
F10 0.086(2) 0.066(2) 0.105(3) 0.0267(18) 0.011(2) -0.0086(17)
F11 0.083(3) 0.097(3) 0.202(5) 0.062(3) -0.009(3) -0.038(2)
F12 0.182(5) 0.052(2) 0.150(4) 0.000(2) 0.023(3) 0.008(3)
loop_
_atom_type_symbol
_atom_type_description
_atom_type_scat_dispersion_real
_atom_type_scat_dispersion_imag
_atom_type_scat_source
Ni Ni 0.3393 1.1124 'International Tables Vol C Tables 4.2.6.8 and 6.1.1.4'
N N 0.0061 0.0033 'International Tables Vol C Tables 4.2.6.8 and 6.1.1.4'
C C 0.0033 0.0016 'International Tables Vol C Tables 4.2.6.8 and 6.1.1.4'
H H 0.0000 0.0000 'International Tables Vol C Tables 4.2.6.8 and 6.1.1.4'
F F 0.0171 0.0103 'International Tables Vol C Tables 4.2.6.8 and 6.1.1.4'
loop_
_geom_angle_atom_site_label_1
_geom_angle_atom_site_label_2
_geom_angle_atom_site_label_3
_geom_angle
_geom_angle_site_symmetry_1
_geom_angle_site_symmetry_3
N1 C1 C2 107.6(4) . .
N1 C1 C9 110.7(4) . 3_757
C2 C1 C9 141.6(4) . 3_757
C3 C2 C1 106.7(4) . .
C3 C2 H1 126.6 . .
C1 C2 H1 126.6 . .
C2 C3 C4 108.8(4) . .
C2 C3 H2 125.6 . .
C4 C3 H2 125.6 . .
N1 C4 C5 121.1(4) . .
N1 C4 C3 104.6(4) . .
C5 C4 C3 134.3(4) . .
C4 C5 C6 122.0(4) . .
C4 C5 C10 118.8(4) . .
C6 C5 C10 119.2(4) . .
N2 C6 C7 105.8(4) . .
N2 C6 C5 120.0(4) . .
C7 C6 C5 134.2(4) . .
C8 C7 C6 108.5(4) . .
C8 C7 H3 125.8 . .
C6 C7 H3 125.8 . .
C7 C8 C9 107.1(4) . .
C7 C8 H4 126.5 . .
C9 C8 H4 126.5 . .
N2 C9 C8 107.0(4) . .
N2 C9 C1 110.2(4) . 3_757
C8 C9 C1 142.7(4) . 3_757
C15 C10 C11 116.4(4) . .
C15 C10 C5 121.6(4) . .
C11 C10 C5 121.9(4) . .
C12 C11 C10 121.9(5) . .
C12 C11 H5 119.1 . .
C10 C11 H5 119.1 . .
C11 C12 C13 121.2(5) . .
C11 C12 C16 119.7(6) . .
C13 C12 C16 119.1(6) . .
C11 C12 H6 119.4 . .
C13 C12 H6 119.4 . .
N3 C13 C14 115.8(8) . .
N3 C13 C12 126.3(8) . .
C14 C13 C12 117.6(5) . .
C14 C13 H7 121.2 . .
C12 C13 H7 121.2 . .
C13 C14 C15 121.6(5) . .
C13 C14 C19 112.4(7) . .
C15 C14 C19 125.9(7) . .
C13 C14 H8 119.2 . .
C15 C14 H8 119.2 . .
C14 C15 C10 121.4(5) . .
C14 C15 H9 119.3 . .
C10 C15 H9 119.3 . .
F3 C16 F2 106.0(10) . .
F3 C16 F1 105.2(10) . .
F2 C16 F1 103.9(9) . .
F3 C16 C12 115.8(9) . .
F2 C16 C12 110.4(9) . .
F1 C16 C12 114.7(9) . .
N3 C17 H10 109.5 . .
N3 C17 H11 109.5 . .
H10 C17 H11 109.5 . .
N3 C17 H12 109.5 . .
H10 C17 H12 109.5 . .
H11 C17 H12 109.5 . .
N3 C18 H13 109.5 . .
N3 C18 H14 109.5 . .
H13 C18 H14 109.5 . .
N3 C18 H15 109.5 . .
H13 C18 H15 109.5 . .
H14 C18 H15 109.5 . .
F5 C19 F4 108.7(11) . .
F5 C19 F6 105.0(12) . .
F4 C19 F6 106.6(14) . .
F5 C19 C14 106.4(11) . .
F4 C19 C14 119.1(11) . .
F6 C19 C14 110.2(10) . .
N4 C20 C21 107.1(4) . .
N4 C20 C37 109.7(4) . .
C21 C20 C37 143.1(4) . .
C22 C21 C20 107.7(4) . .
C22 C21 H16 126.2 . .
C20 C21 H16 126.2 . .
C21 C22 C23 107.7(4) . .
C21 C22 H17 126.1 . .
C23 C22 H17 126.1 . .
N4 C23 C22 106.2(4) . .
N4 C23 C24 119.9(4) . .
C22 C23 C24 133.9(4) . .
C25 C24 C23 123.6(4) . .
C25 C24 C38 119.5(4) . .
C23 C24 C38 116.6(4) . .
N5 C25 C24 119.9(4) . .
N5 C25 C26 105.8(4) . .
C24 C25 C26 133.7(4) . .
C27 C26 C25 107.9(4) . .
C27 C26 H18 126.0 . .
C25 C26 H18 126.0 . .
C26 C27 C28 107.2(4) . .
C26 C27 H19 126.4 . .
C28 C27 H19 126.4 . .
N5 C28 C27 108.1(4) . .
N5 C28 C29 110.7(4) . .
C27 C28 C29 140.8(4) . .
N6 C29 C30 107.4(4) . .
N6 C29 C28 110.2(4) . .
C30 C29 C28 141.7(4) . .
C29 C30 C31 107.6(4) . .
C29 C30 H20 126.2 . .
C31 C30 H20 126.2 . .
C30 C31 C32 107.2(4) . .
C30 C31 H21 126.4 . .
C32 C31 H21 126.4 . .
N6 C32 C31 106.4(4) . .
N6 C32 C33 120.4(4) . .
C31 C32 C33 132.4(4) . .
C34 C33 C32 122.3(4) . .
C34 C33 C46 119.1(4) . .
C32 C33 C46 118.5(4) . .
N7 C34 C33 121.4(4) . .
N7 C34 C35 105.1(4) . .
C33 C34 C35 133.6(4) . .
C36 C35 C34 107.7(4) . .
C36 C35 H22 126.2 . .
C34 C35 H22 126.2 . .
C35 C36 C37 107.8(4) . .
C35 C36 H23 126.1 . .
C37 C36 H23 126.1 . .
N7 C37 C36 107.6(4) . .
N7 C37 C20 110.1(4) . .
C36 C37 C20 142.3(4) . .
C43 C38 C39 118.8(4) . .
C43 C38 C24 121.5(4) . .
C39 C38 C24 119.7(4) . .
C40 C39 C38 120.4(4) . .
C40 C39 H24 119.8 . .
C38 C39 H24 119.8 . .
C41 C40 C39 120.7(5) . .
C41 C40 C44 120.2(5) . .
C39 C40 C44 119.1(5) . .
C40 C41 C42 118.9(5) . .
C40 C41 H25 120.5 . .
C42 C41 H25 120.5 . .
C43 C42 C41 121.2(5) . .
C43 C42 C45 120.7(5) . .
C41 C42 C45 118.1(5) . .
C42 C43 C38 119.9(4) . .
C42 C43 H26 120.0 . .
C38 C43 H26 120.0 . .
F8 C44 F7 106.1(5) . .
F8 C44 F9 107.4(5) . .
F7 C44 F9 104.9(4) . .
F8 C44 C40 112.7(5) . .
F7 C44 C40 113.4(5) . .
F9 C44 C40 111.7(5) . .
F11 C45 F10 107.8(6) . .
F11 C45 F12 104.1(6) . .
F10 C45 F12 104.0(5) . .
F11 C45 C42 115.4(5) . .
F10 C45 C42 112.6(5) . .
F12 C45 C42 112.0(6) . .
C47 C46 C51 117.4(4) . .
C47 C46 C33 121.2(4) . .
C51 C46 C33 121.4(4) . .
C48 C47 C46 121.9(4) . .
C48 C47 H27 119.1 . .
C46 C47 H27 119.1 . .
C47 C48 C49 120.4(4) . .
C47 C48 H28 119.8 . .
C49 C48 H28 119.8 . .
N8 C49 C48 120.8(4) . .
N8 C49 C50 121.2(4) . .
C48 C49 C50 118.0(4) . .
C51 C50 C49 121.1(4) . .
C51 C50 H29 119.5 . .
C49 C50 H29 119.5 . .
C50 C51 C46 121.2(4) . .
C50 C51 H30 119.4 . .
C46 C51 H30 119.4 . .
N8 C52 H31 109.5 . .
N8 C52 H32 109.5 . .
H31 C52 H32 109.5 . .
N8 C52 H33 109.5 . .
H31 C52 H33 109.5 . .
H32 C52 H33 109.5 . .
N8 C53 H34 109.5 . .
N8 C53 H35 109.5 . .
H34 C53 H35 109.5 . .
N8 C53 H36 109.5 . .
H34 C53 H36 109.5 . .
H35 C53 H36 109.5 . .
C1 N1 C4 112.2(4) . .
C1 N1 Ni1 116.8(3) . .
C4 N1 Ni1 130.7(3) . .
C6 N2 C9 111.7(4) . .
C6 N2 Ni1 131.4(3) . .
C9 N2 Ni1 116.2(3) . .
C13 N3 C17 117.8(12) . .
C13 N3 C18 122.8(10) . .
C17 N3 C18 118.0(11) . .
C23 N4 C20 111.3(4) . .
C23 N4 Ni2 131.4(3) . .
C20 N4 Ni2 117.2(3) . .
C28 N5 C25 110.8(4) . .
C28 N5 Ni2 116.7(3) . .
C25 N5 Ni2 130.8(3) . .
C29 N6 C32 111.3(4) . .
C29 N6 Ni2 115.8(3) . .
C32 N6 Ni2 130.8(3) . .
C37 N7 C34 111.9(4) . .
C37 N7 Ni2 117.4(3) . .
C34 N7 Ni2 130.7(3) . .
C49 N8 C53 118.5(4) . .
C49 N8 C52 118.5(4) . .
C53 N8 C52 117.0(5) . .
N2 Ni1 N2 180.0 . 3_757
N2 Ni1 N1 85.70(16) . 3_757
N2 Ni1 N1 94.30(16) 3_757 3_757
N2 Ni1 N1 94.30(16) . .
N2 Ni1 N1 85.70(16) 3_757 .
N1 Ni1 N1 180.0 3_757 .
N4 Ni2 N7 85.13(16) . .
N4 Ni2 N5 94.19(16) . .
N7 Ni2 N5 173.51(16) . .
N4 Ni2 N6 173.56(16) . .
N7 Ni2 N6 93.99(16) . .
N5 Ni2 N6 85.96(16) . .
loop_
_geom_bond_atom_site_label_1
_geom_bond_atom_site_label_2
_geom_bond_distance
_geom_bond_site_symmetry_2
C1 N1 1.348(6) .
C1 C2 1.439(6) .
C1 C9 1.473(6) 3_757
C2 C3 1.374(7) .
C2 H1 0.9500 .
C3 C4 1.460(6) .
C3 H2 0.9500 .
C4 N1 1.374(6) .
C4 C5 1.430(6) .
C5 C6 1.464(6) .
C5 C10 1.466(6) .
C6 N2 1.365(6) .
C6 C7 1.432(6) .
C7 C8 1.390(6) .
C7 H3 0.9500 .
C8 C9 1.421(6) .
C8 H4 0.9500 .
C9 N2 1.368(5) .
C9 C1 1.473(6) 3_757
C10 C15 1.399(6) .
C10 C11 1.414(7) .
C11 C12 1.366(7) .
C11 H5 0.9500 .
C12 C13 1.402(8) .
C12 C16 1.570(12) .
C12 H6 0.9500 .
C13 N3 1.297(10) .
C13 C14 1.384(8) .
C13 H7 0.9500 .
C14 C15 1.385(7) .
C14 C19 1.547(14) .
C14 H8 0.9500 .
C15 H9 0.9500 .
C16 F3 1.341(13) .
C16 F2 1.345(13) .
C16 F1 1.354(14) .
C17 N3 1.395(18) .
C17 H10 0.9800 .
C17 H11 0.9800 .
C17 H12 0.9800 .
C18 N3 1.440(19) .
C18 H13 0.9800 .
C18 H14 0.9800 .
C18 H15 0.9800 .
C19 F5 1.306(17) .
C19 F4 1.310(14) .
C19 F6 1.374(19) .
C20 N4 1.366(5) .
C20 C21 1.406(6) .
C20 C37 1.482(6) .
C21 C22 1.394(6) .
C21 H16 0.9500 .
C22 C23 1.424(6) .
C22 H17 0.9500 .
C23 N4 1.364(5) .
C23 C24 1.452(6) .
C24 C25 1.413(6) .
C24 C38 1.493(6) .
C25 N5 1.394(5) .
C25 C26 1.444(6) .
C26 C27 1.379(6) .
C26 H18 0.9500 .
C27 C28 1.440(6) .
C27 H19 0.9500 .
C28 N5 1.339(6) .
C28 C29 1.489(6) .
C29 N6 1.362(5) .
C29 C30 1.396(7) .
C30 C31 1.408(7) .
C30 H20 0.9500 .
C31 C32 1.421(6) .
C31 H21 0.9500 .
C32 N6 1.364(6) .
C32 C33 1.460(6) .
C33 C34 1.402(6) .
C33 C46 1.466(6) .
C34 N7 1.376(5) .
C34 C35 1.463(6) .
C35 C36 1.383(6) .
C35 H22 0.9500 .
C36 C37 1.423(6) .
C36 H23 0.9500 .
C37 N7 1.355(5) .
C38 C43 1.395(6) .
C38 C39 1.398(6) .
C39 C40 1.395(6) .
C39 H24 0.9500 .
C40 C41 1.373(7) .
C40 C44 1.504(7) .
C41 C42 1.394(7) .
C41 H25 0.9500 .
C42 C43 1.387(7) .
C42 C45 1.486(8) .
C43 H26 0.9500 .
C44 F8 1.323(7) .
C44 F7 1.336(7) .
C44 F9 1.343(6) .
C45 F11 1.299(7) .
C45 F10 1.348(7) .
C45 F12 1.368(8) .
C46 C47 1.401(6) .
C46 C51 1.405(6) .
C47 C48 1.384(6) .
C47 H27 0.9500 .
C48 C49 1.405(7) .
C48 H28 0.9500 .
C49 N8 1.385(6) .
C49 C50 1.407(7) .
C50 C51 1.382(6) .
C50 H29 0.9500 .
C51 H30 0.9500 .
C52 N8 1.454(7) .
C52 H31 0.9800 .
C52 H32 0.9800 .
C52 H33 0.9800 .
C53 N8 1.452(7) .
C53 H34 0.9800 .
C53 H35 0.9800 .
C53 H36 0.9800 .
N1 Ni1 1.781(4) .
N2 Ni1 1.780(4) .
N4 Ni2 1.780(4) .
N5 Ni2 1.785(4) .
N6 Ni2 1.785(4) .
N7 Ni2 1.782(4) .
Ni1 N2 1.780(4) 3_757
Ni1 N1 1.781(4) 3_757
loop_
_geom_torsion_atom_site_label_1
_geom_torsion_atom_site_label_2
_geom_torsion_atom_site_label_3
_geom_torsion_atom_site_label_4
_geom_torsion
_geom_torsion_site_symmetry_1
_geom_torsion_site_symmetry_4
N1 C1 C2 C3 -0.6(5) . .
C9 C1 C2 C3 175.7(5) 3_757 .
C1 C2 C3 C4 0.8(5) . .
C2 C3 C4 N1 -0.7(5) . .
C2 C3 C4 C5 -179.3(5) . .
N1 C4 C5 C6 -3.1(6) . .
C3 C4 C5 C6 175.3(4) . .
N1 C4 C5 C10 176.2(4) . .
C3 C4 C5 C10 -5.4(7) . .
C4 C5 C6 N2 -3.0(6) . .
C10 C5 C6 N2 177.6(4) . .
C4 C5 C6 C7 174.8(4) . .
C10 C5 C6 C7 -4.5(7) . .
N2 C6 C7 C8 0.2(5) . .
C5 C6 C7 C8 -177.9(4) . .
C6 C7 C8 C9 0.5(5) . .
C7 C8 C9 N2 -1.0(5) . .
C7 C8 C9 C1 175.8(5) . 3_757
C4 C5 C10 C15 143.6(4) . .
C6 C5 C10 C15 -37.0(6) . .
C4 C5 C10 C11 -39.4(6) . .
C6 C5 C10 C11 140.0(4) . .
C15 C10 C11 C12 -0.4(7) . .
C5 C10 C11 C12 -177.6(4) . .
C10 C11 C12 C13 1.2(8) . .
C10 C11 C12 C16 178.0(6) . .
C11 C12 C13 N3 -173.4(8) . .
C16 C12 C13 N3 9.8(12) . .
C11 C12 C13 C14 0.3(8) . .
C16 C12 C13 C14 -176.5(7) . .
N3 C13 C14 C15 171.8(7) . .
C12 C13 C14 C15 -2.6(8) . .
N3 C13 C14 C19 -12.1(11) . .
C12 C13 C14 C19 173.5(8) . .
C13 C14 C15 C10 3.4(8) . .
C19 C14 C15 C10 -172.1(9) . .
C11 C10 C15 C14 -1.8(7) . .
C5 C10 C15 C14 175.4(4) . .
C11 C12 C16 F3 -165.7(9) . .
C13 C12 C16 F3 11.1(13) . .
C11 C12 C16 F2 73.9(10) . .
C13 C12 C16 F2 -109.2(8) . .
C11 C12 C16 F1 -42.9(11) . .
C13 C12 C16 F1 133.9(8) . .
C13 C14 C19 F5 117.3(10) . .
C15 C14 C19 F5 -66.9(15) . .
C13 C14 C19 F4 -5.8(18) . .
C15 C14 C19 F4 170.1(11) . .
C13 C14 C19 F6 -129.4(9) . .
C15 C14 C19 F6 46.4(15) . .
N4 C20 C21 C22 -1.0(5) . .
C37 C20 C21 C22 174.5(6) . .
C20 C21 C22 C23 -0.1(5) . .
C21 C22 C23 N4 1.2(5) . .
C21 C22 C23 C24 -175.4(5) . .
N4 C23 C24 C25 3.7(6) . .
C22 C23 C24 C25 179.9(5) . .
N4 C23 C24 C38 -170.3(4) . .
C22 C23 C24 C38 6.0(7) . .
C23 C24 C25 N5 -0.6(6) . .
C38 C24 C25 N5 173.1(4) . .
C23 C24 C25 C26 -170.3(4) . .
C38 C24 C25 C26 3.5(7) . .
N5 C25 C26 C27 -3.3(5) . .
C24 C25 C26 C27 167.3(4) . .
C25 C26 C27 C28 1.1(5) . .
C26 C27 C28 N5 1.6(5) . .
C26 C27 C28 C29 -169.4(5) . .
N5 C28 C29 N6 2.4(5) . .
C27 C28 C29 N6 173.2(5) . .
N5 C28 C29 C30 -166.9(5) . .
C27 C28 C29 C30 3.9(10) . .
N6 C29 C30 C31 0.3(5) . .
C28 C29 C30 C31 169.8(5) . .
C29 C30 C31 C32 -0.7(5) . .
C30 C31 C32 N6 0.9(5) . .
C30 C31 C32 C33 -168.4(4) . .
N6 C32 C33 C34 -5.1(6) . .
C31 C32 C33 C34 163.0(4) . .
N6 C32 C33 C46 178.2(4) . .
C31 C32 C33 C46 -13.7(7) . .
C32 C33 C34 N7 -0.7(6) . .
C46 C33 C34 N7 176.0(4) . .
C32 C33 C34 C35 179.9(4) . .
C46 C33 C34 C35 -3.4(7) . .
N7 C34 C35 C36 -1.9(5) . .
C33 C34 C35 C36 177.6(4) . .
C34 C35 C36 C37 0.9(5) . .
C35 C36 C37 N7 0.4(5) . .
C35 C36 C37 C20 -176.3(5) . .
N4 C20 C37 N7 1.5(5) . .
C21 C20 C37 N7 -173.9(6) . .
N4 C20 C37 C36 178.2(6) . .
C21 C20 C37 C36 2.8(11) . .
C25 C24 C38 C43 49.8(6) . .
C23 C24 C38 C43 -136.0(4) . .
C25 C24 C38 C39 -131.2(4) . .
C23 C24 C38 C39 43.0(6) . .
C43 C38 C39 C40 2.2(7) . .
C24 C38 C39 C40 -176.8(4) . .
C38 C39 C40 C41 -2.2(7) . .
C38 C39 C40 C44 179.2(5) . .
C39 C40 C41 C42 1.1(8) . .
C44 C40 C41 C42 179.7(5) . .
C40 C41 C42 C43 -0.1(8) . .
C40 C41 C42 C45 -177.1(6) . .
C41 C42 C43 C38 0.1(8) . .
C45 C42 C43 C38 177.0(5) . .
C39 C38 C43 C42 -1.1(7) . .
C24 C38 C43 C42 177.9(4) . .
C41 C40 C44 F8 147.7(6) . .
C39 C40 C44 F8 -33.7(8) . .
C41 C40 C44 F7 -91.7(6) . .
C39 C40 C44 F7 86.9(6) . .
C41 C40 C44 F9 26.6(8) . .
C39 C40 C44 F9 -154.8(5) . .
C43 C42 C45 F11 156.2(6) . .
C41 C42 C45 F11 -26.7(9) . .
C43 C42 C45 F10 31.9(8) . .
C41 C42 C45 F10 -151.1(5) . .
C43 C42 C45 F12 -84.9(7) . .
C41 C42 C45 F12 92.1(6) . .
C34 C33 C46 C47 135.5(4) . .
C32 C33 C46 C47 -47.7(6) . .
C34 C33 C46 C51 -43.0(6) . .
C32 C33 C46 C51 133.8(4) . .
C51 C46 C47 C48 3.8(6) . .
C33 C46 C47 C48 -174.7(4) . .
C46 C47 C48 C49 -3.5(7) . .
C47 C48 C49 N8 -176.3(5) . .
C47 C48 C49 C50 0.8(7) . .
N8 C49 C50 C51 178.5(5) . .
C48 C49 C50 C51 1.4(7) . .
C49 C50 C51 C46 -1.0(7) . .
C47 C46 C51 C50 -1.6(6) . .
C33 C46 C51 C50 176.9(4) . .
C2 C1 N1 C4 0.2(5) . .
C9 C1 N1 C4 -177.3(3) 3_757 .
C2 C1 N1 Ni1 174.5(3) . .
C9 C1 N1 Ni1 -3.0(4) 3_757 .
C5 C4 N1 C1 179.1(4) . .
C3 C4 N1 C1 0.3(5) . .
C5 C4 N1 Ni1 5.8(6) . .
C3 C4 N1 Ni1 -173.0(3) . .
C7 C6 N2 C9 -0.8(5) . .
C5 C6 N2 C9 177.6(4) . .
C7 C6 N2 Ni1 -171.0(3) . .
C5 C6 N2 Ni1 7.4(6) . .
C8 C9 N2 C6 1.1(5) . .
C1 C9 N2 C6 -176.8(3) 3_757 .
C8 C9 N2 Ni1 173.0(3) . .
C1 C9 N2 Ni1 -5.0(4) 3_757 .
C14 C13 N3 C17 -174.1(11) . .
C12 C13 N3 C17 -0.2(16) . .
C14 C13 N3 C18 19.9(15) . .
C12 C13 N3 C18 -166.2(11) . .
C22 C23 N4 C20 -1.9(5) . .
C24 C23 N4 C20 175.3(4) . .
C22 C23 N4 Ni2 -179.9(3) . .
C24 C23 N4 Ni2 -2.7(6) . .
C21 C20 N4 C23 1.9(5) . .
C37 C20 N4 C23 -175.3(3) . .
C21 C20 N4 Ni2 -179.8(3) . .
C37 C20 N4 Ni2 3.0(5) . .
C27 C28 N5 C25 -3.8(5) . .
C29 C28 N5 C25 170.1(3) . .
C27 C28 N5 Ni2 -170.3(3) . .
C29 C28 N5 Ni2 3.6(4) . .
C24 C25 N5 C28 -167.8(4) . .
C26 C25 N5 C28 4.5(5) . .
C24 C25 N5 Ni2 -3.8(6) . .
C26 C25 N5 Ni2 168.5(3) . .
C30 C29 N6 C32 0.3(5) . .
C28 C29 N6 C32 -172.8(3) . .
C30 C29 N6 Ni2 165.7(3) . .
C28 C29 N6 Ni2 -7.4(4) . .
C31 C32 N6 C29 -0.7(5) . .
C33 C32 N6 C29 170.1(4) . .
C31 C32 N6 Ni2 -163.2(3) . .
C33 C32 N6 Ni2 7.6(6) . .
C36 C37 N7 C34 -1.7(5) . .
C20 C37 N7 C34 176.2(3) . .
C36 C37 N7 Ni2 176.6(3) . .
C20 C37 N7 Ni2 -5.5(4) . .
C33 C34 N7 C37 -177.3(4) . .
C35 C34 N7 C37 2.2(4) . .
C33 C34 N7 Ni2 4.6(6) . .
C35 C34 N7 Ni2 -175.8(3) . .
C48 C49 N8 C53 -169.8(5) . .
C50 C49 N8 C53 13.2(8) . .
C48 C49 N8 C52 -17.9(8) . .
C50 C49 N8 C52 165.1(5) . .
C6 N2 Ni1 N1 175.4(4) . 3_757
C9 N2 Ni1 N1 5.5(3) . 3_757
C6 N2 Ni1 N1 -4.6(4) . .
C9 N2 Ni1 N1 -174.5(3) . .
C1 N1 Ni1 N2 -175.3(3) . .
C4 N1 Ni1 N2 -2.2(4) . .
C1 N1 Ni1 N2 4.7(3) . 3_757
C4 N1 Ni1 N2 177.8(4) . 3_757
C23 N4 Ni2 N7 172.9(4) . .
C20 N4 Ni2 N7 -5.0(3) . .
C23 N4 Ni2 N5 -0.6(4) . .
C20 N4 Ni2 N5 -178.5(3) . .
C37 N7 Ni2 N4 6.0(3) . .
C34 N7 Ni2 N4 -176.1(4) . .
C37 N7 Ni2 N6 179.6(3) . .
C34 N7 Ni2 N6 -2.5(4) . .
C28 N5 Ni2 N4 167.2(3) . .
C25 N5 Ni2 N4 3.9(4) . .
C28 N5 Ni2 N6 -6.3(3) . .
C25 N5 Ni2 N6 -169.6(4) . .
C29 N6 Ni2 N7 -165.7(3) . .
C32 N6 Ni2 N7 -3.8(4) . .
C29 N6 Ni2 N5 7.8(3) . .
C32 N6 Ni2 N5 169.7(4) . .
