#------------------------------------------------------------------------------
#$Date: 2020-06-05 12:51:55 +0300 (Fri, 05 Jun 2020) $
#$Revision: 252710 $
#$URL: file:///home/coder/svn-repositories/cod/cif/7/12/62/7126283.cif $
#------------------------------------------------------------------------------
#
# This file is available in the Crystallography Open Database (COD),
# http://www.crystallography.net/
#
# All data on this site have been placed in the public domain by the
# contributors.
#
data_7126283
loop_
_publ_author_name
'Lemon, Christopher M.'
'Maher, Andrew G.'
'Mazzotti, Anthony R.'
'Powers, David C.'
'Gonzalez, Miguel I.'
'Nocera, Daniel G.'
_publ_section_title
;
 Multielectron C-H photoactivation with an Sb(v) oxo corrole.
;
_journal_issue                   39
_journal_name_full
'Chemical communications (Cambridge, England)'
_journal_page_first              5247
_journal_page_last               5250
_journal_paper_doi               10.1039/c9cc09892e
_journal_volume                  56
_journal_year                    2020
_chemical_formula_moiety         'C78 H30 F20 N8 O6 Sb2, 4(C7 H8)'
_chemical_formula_sum            'C106 H62 F20 N8 O6 Sb2'
_chemical_formula_weight         2167.13
_space_group_crystal_system      monoclinic
_space_group_IT_number           14
_space_group_name_Hall           '-P 2ybc'
_space_group_name_H-M_alt        'P 1 21/c 1'
_atom_sites_solution_hydrogens   geom
_atom_sites_solution_primary     dual
_atom_sites_solution_secondary   difmap
_audit_creation_date             2020-02-13
_audit_creation_method
;
Olex2 1.3
(compiled 2019.11.21 svn.r41b79517 for OlexSys, GUI svn.r6003)
;
_audit_update_record
;
2020-03-09 deposited with the CCDC.	2020-03-23 downloaded from the CCDC.
;
_cell_angle_alpha                90
_cell_angle_beta                 100.277(2)
_cell_angle_gamma                90
_cell_formula_units_Z            4
_cell_length_a                   14.7806(17)
_cell_length_b                   19.611(2)
_cell_length_c                   32.180(4)
_cell_measurement_reflns_used    3107
_cell_measurement_temperature    99.98
_cell_measurement_theta_max      18.414
_cell_measurement_theta_min      2.443
_cell_volume                     9178.1(18)
_computing_cell_refinement       'SAINT V8.38A (?, 2016)'
_computing_data_collection       'Bruker APEX3'
_computing_data_reduction        'SAINT V8.38A (?, 2016)'
_computing_molecular_graphics    'Olex2 1.3 (Dolomanov et al., 2009)'
_computing_publication_material  'Olex2 1.3 (Dolomanov et al., 2009)'
_computing_structure_refinement  'SHELXL 2018/3 (Sheldrick, 2015)'
_computing_structure_solution    'SHELXT 2018/2 (Sheldrick, 2018)'
_diffrn_ambient_temperature      99.98
_diffrn_measured_fraction_theta_full 0.999
_diffrn_measured_fraction_theta_max 0.999
_diffrn_measurement_device_type  'Bruker APEX-II CCD'
_diffrn_measurement_method       '\f and \w scans'
_diffrn_radiation_type           MoK\a
_diffrn_radiation_wavelength     0.71073
_diffrn_reflns_av_R_equivalents  0.1222
_diffrn_reflns_av_unetI/netI     0.0786
_diffrn_reflns_Laue_measured_fraction_full 0.999
_diffrn_reflns_Laue_measured_fraction_max 0.999
_diffrn_reflns_limit_h_max       13
_diffrn_reflns_limit_h_min       -13
_diffrn_reflns_limit_k_max       17
_diffrn_reflns_limit_k_min       -17
_diffrn_reflns_limit_l_max       28
_diffrn_reflns_limit_l_min       -28
_diffrn_reflns_number            38130
_diffrn_reflns_point_group_measured_fraction_full 0.999
_diffrn_reflns_point_group_measured_fraction_max 0.999
_diffrn_reflns_theta_full        18.507
_diffrn_reflns_theta_max         18.507
_diffrn_reflns_theta_min         1.221
_diffrn_source                   'fine-focus sealed tube'
_diffrn_source_current           30.0
_diffrn_source_power             1.5
_diffrn_source_voltage           50.0
_diffrn_standards_number         0
_exptl_absorpt_coefficient_mu    0.692
_exptl_absorpt_correction_T_max  0.966
_exptl_absorpt_correction_T_min  0.812
_exptl_absorpt_correction_type   multi-scan
_exptl_absorpt_process_details
;
SADABS-2016/2 (Bruker,2016) was used for absorption correction.
wR2(int) was 0.0807 before and 0.0659 after correction.
The Ratio of minimum to maximum transmission is 0.8407.
The \l/2 correction factor is Not present.
;
_exptl_crystal_colour            'dark red'
_exptl_crystal_density_diffrn    1.568
_exptl_crystal_density_method    'not measured'
_exptl_crystal_description       plate
_exptl_crystal_F_000             4336
_exptl_crystal_size_max          0.1
_exptl_crystal_size_mid          0.1
_exptl_crystal_size_min          0.05
_refine_diff_density_max         4.066
_refine_diff_density_min         -0.688
_refine_diff_density_rms         0.148
_refine_ls_extinction_method     none
_refine_ls_goodness_of_fit_ref   1.023
_refine_ls_hydrogen_treatment    constr
_refine_ls_matrix_type           full
_refine_ls_number_parameters     1247
_refine_ls_number_reflns         6846
_refine_ls_number_restraints     1931
_refine_ls_restrained_S_all      0.896
_refine_ls_R_factor_all          0.1223
_refine_ls_R_factor_gt           0.0818
_refine_ls_shift/su_max          0.000
_refine_ls_shift/su_mean         0.000
_refine_ls_structure_factor_coef Fsqd
_refine_ls_weighting_details
'w=1/[\s^2^(Fo^2^)+(0.1409P)^2^+116.7862P] where P=(Fo^2^+2Fc^2^)/3'
_refine_ls_weighting_scheme      calc
_refine_ls_wR_factor_gt          0.2031
_refine_ls_wR_factor_ref         0.2333
_reflns_Friedel_coverage         0.000
_reflns_number_gt                4599
_reflns_number_total             6846
_reflns_threshold_expression     'I > 2\s(I)'
_cod_data_source_file            c9cc09892e2.cif
_cod_data_source_block           dcp1428_sq
_cod_depositor_comments          'Adding full bibliography for 7126283.cif.'
_cod_original_cell_volume        9177.8(19)
_cod_database_code               7126283
_shelx_shelxl_version_number     2018/3
_shelx_space_group_comment
;
The symmetry employed for this shelxl refinement is uniquely defined
by the following loop, which should always be used as a source of
symmetry information in preference to the above space-group names.
They are only intended as comments.
;
_shelx_estimated_absorpt_t_max   0.966
_shelx_estimated_absorpt_t_min   0.934
_olex2_refinement_description
;
1. Fixed Uiso
 At 1.2 times of:
  All C(H) groups
 At 1.5 times of:
  All C(H,H,H) groups
2. Restrained distances
 C106-C100
 1.51 with sigma of 0.02
 C1B-C107
 1.51 with sigma of 0.02
 C99-C93
 1.51 with sigma of 0.02
 C105-C106 \\sim C101-C106
 with sigma of 0.02
3. Restrained planarity
 C103, C102, C101, C100, C105, C104, C106
 with sigma of 0.1
4. Uiso/Uaniso restraints and constraints
N8 \\sim N5 \\sim N6 \\sim N1 \\sim N2 \\sim N7 \\sim N4 \\sim N3 \\sim C43
\\sim C19 \\sim C58 \\sim C47 \\sim C4 \\sim C48 \\sim C54 \\sim C18 \\sim C57
\\sim C41 \\sim C55 \\sim C2 \\sim C40 \\sim C13 \\sim C7 \\sim C5 \\sim C15
\\sim C53 \\sim C44 \\sim C52 \\sim C10 \\sim C1 \\sim C49 \\sim C46 \\sim C14
\\sim C16 \\sim C50 \\sim C8 \\sim C45 \\sim C11 \\sim C51 \\sim C9 \\sim C12
\\sim C56 \\sim C42 \\sim C3 \\sim C6 \\sim C17: within 2A with sigma of 0.005
and sigma for terminal atoms of 0.01 within 2A
C82 \\sim C83 \\sim C79 \\sim C81 \\sim C85 \\sim C84 \\sim C80: within 2A with
sigma of 0.04 and sigma for terminal atoms of 0.08 within 2A
C72 \\sim O5 \\sim C71 \\sim O6 \\sim C69 \\sim C68 \\sim C67 \\sim C66 \\sim
C65 \\sim C70: within 2A with sigma of 0.01 and sigma for terminal atoms of
0.02 within 2A
O3 \\sim O4 \\sim C32 \\sim C29 \\sim C27 \\sim C28 \\sim C26 \\sim C30 \\sim
C31 \\sim C33: within 2A with sigma of 0.04 and sigma for terminal atoms of
0.08 within 2A
F5 \\sim F1 \\sim F4 \\sim F3 \\sim F2 \\sim C23 \\sim C24 \\sim C25 \\sim C21
\\sim C20 \\sim C22: within 2A with sigma of 0.04 and sigma for terminal atoms
of 0.08 within 2A
C96 \\sim C97 \\sim C98 \\sim C93 \\sim C94 \\sim C95 \\sim C99: within 2A with
sigma of 0.04 and sigma for terminal atoms of 0.08 within 2A
C91 \\sim C86 \\sim C87 \\sim C90 \\sim C92 \\sim C88 \\sim C89: within 2A with
sigma of 0.04 and sigma for terminal atoms of 0.08 within 2A
C106 \\sim C100 \\sim C105 \\sim C104 \\sim C103 \\sim C102 \\sim C101 \\sim
C107 \\sim C1A \\sim C1B \\sim C1C \\sim C1D \\sim C1E \\sim C1F: within 2A
with sigma of 0.04 and sigma for terminal atoms of 0.08 within 2A
Uanis(C44) = Uanis(C43)
Uanis(N6) = Uanis(N5) = Uanis(N8) = Uanis(N7)
Uanis(N3) = Uanis(N4) = Uanis(N1) = Uanis(N2)
5. Rigid body (RIGU) restrains
 N8, N5, N6, N1, N2, N7, N4, N3, C43, C19, C58, C47, C4, C48, C54, C18, C57,
 C41, C55, C2, C40, C13, C7, C5, C15, C53, C44, C52, C10, C1, C49, C46, C14,
 C16, C50, C8, C45, C11, C51, C9, C12, C56, C42, C3, C6, C17
 with sigma for 1-2 distances of 0.004 and sigma for 1-3 distances of 0.004
 C82, C83, C79, C81, C85, C84, C80
 with sigma for 1-2 distances of 0.004 and sigma for 1-3 distances of 0.004
 C72, O5, C71, O6, C69, C68, C67, C66, C65, C70
 with sigma for 1-2 distances of 0.004 and sigma for 1-3 distances of 0.004
 O3, O4, C32, C29, C27, C28, C26, C30, C31, C33
 with sigma for 1-2 distances of 0.004 and sigma for 1-3 distances of 0.004
 F5, F1, F4, F3, F2, C23, C24, C25, C21, C20, C22
 with sigma for 1-2 distances of 0.004 and sigma for 1-3 distances of 0.004
 F20, F16, F17, F19, F18, C74, C73, C75, C78, C76, C77
 with sigma for 1-2 distances of 0.004 and sigma for 1-3 distances of 0.004
 F6, F10, F9, F7, F8, C35, C37, C34, C39, C36, C38
 with sigma for 1-2 distances of 0.004 and sigma for 1-3 distances of 0.004
 F15, F11, F12, F14, F13, C59, C64, C63, C60, C62, C61
 with sigma for 1-2 distances of 0.004 and sigma for 1-3 distances of 0.004
 C96, C97, C98, C93, C94, C95, C99
 with sigma for 1-2 distances of 0.004 and sigma for 1-3 distances of 0.004
 C91, C86, C87, C90, C92, C88, C89
 with sigma for 1-2 distances of 0.004 and sigma for 1-3 distances of 0.004
 C102, C106, C100, C105, C101, C104, C103
 with sigma for 1-2 distances of 0.004 and sigma for 1-3 distances of 0.004
 C1F, C107, C1B, C1A, C1C, C1D, C1E
 with sigma for 1-2 distances of 0.004 and sigma for 1-3 distances of 0.004
6. Others
 Fixed Sof: C106(0.47) H10A(0.47) H10B(0.47) H10C(0.47) C100(0.47) C105(0.47)
 H105(0.47) C104(0.47) H104(0.47) C103(0.47) H103(0.47) C102(0.47) H102(0.47)
 C101(0.47) H101(0.47) C107(0.53) H10D(0.53) H10E(0.53) H10F(0.53) C1A(0.53)
 H1A(0.53) C1B(0.53) C1C(0.53) H1C(0.53) C1D(0.53) H1D(0.53) C1E(0.53)
 H1E(0.53) C1F(0.53) H1F(0.53)
7.a Aromatic/amide H refined with riding coordinates:
 C41(H41), C69(H69), C67(H67), C66(H66), C70(H70), C55(H55), C2(H2), C56(H56),
 C7(H7), C42(H42), C46(H46), C16(H16), C50(H50), C45(H45), C3(H3), C11(H11),
 C51(H51), C6(H6), C17(H17), C27(H27), C28(H28), C12(H12), C30(H30), C31(H31),
 C80(H80), C81(H81), C82(H82), C83(H83), C84(H84), C91(H91), C87(H87), C90(H90),
  C88(H88), C96(H96), C97(H97), C98(H98), C94(H94), C95(H95), C89(H89),
 C105(H105), C104(H104), C103(H103), C102(H102), C101(H101), C1A(H1A), C1C(H1C),
  C1D(H1D), C1E(H1E), C1F(H1F)
7.b Fitted hexagon refined as free rotating group:
 C69(C68,C67,C66,C65,C70), C79(C80,C81,C82,C83,C84), C96(C97,C98,C93,C94,C95),
 C100(C105,C104,C103,C102,C101), C1A(C1B,C1C,C1D,C1E,C1F)
7.c Idealised Me refined as rotating group:
 C33(H33A,H33B,H33C), C72(H72A,H72B,H72C), C85(H85A,H85B,H85C), C92(H92A,H92B,
 H92C), C99(H99A,H99B,H99C), C106(H10A,H10B,H10C), C107(H10D,H10E,H10F)
;
_shelx_res_file
;
TITL dcp1428_a.res in P2(1)/c
    dcp1428_sq.res
    created by SHELXL-2018/3 at 15:38:51 on 13-Feb-2020
REM Old TITL dcp1428 in P2(1)/c
REM SHELXT solution in P2(1)/c: R1 0.158, Rweak 0.008, Alpha 0.070
REM <I/s> 0.576 for 302 systematic absences, Orientation as input
REM Formula found by SHELXT: C101 N9 O8 F20 Sb2
CELL 0.71073 14.7806 19.6106 32.1797 90 100.277 90
ZERR 4 0.0017 0.0023 0.0038 0 0.002 0
LATT 1
SYMM -X,0.5+Y,0.5-Z
SFAC C H F N O Sb
UNIT 424 248 80 32 24 8
DFIX 1.51 C106 C100
SIMU 0.005 0.01 2 N8 N5 N6 N1 N2 N7 N4 N3 C43 C19 C58 C47 C4 C48 C54 C18 =
 C57 C41 C55 C2 C40 C13 C7 C5 C15 C53 C44 C52 C10 C1 C49 C46 C14 C16 C50 C8 =
 C45 C11 C51 C9 C12 C56 C42 C3 C6 C17
RIGU N8 N5 N6 N1 N2 N7 N4 N3 C43 C19 C58 C47 C4 C48 C54 C18 C57 C41 C55 C2 =
 C40 C13 C7 C5 C15 C53 C44 C52 C10 C1 C49 C46 C14 C16 C50 C8 C45 C11 C51 C9 =
 C12 C56 C42 C3 C6 C17
RIGU C82 C83 C79 C81 C85 C84 C80
RIGU C72 O5 C71 O6 C69 C68 C67 C66 C65 C70
SIMU C82 C83 C79 C81 C85 C84 C80
SIMU 0.01 0.02 2 C72 O5 C71 O6 C69 C68 C67 C66 C65 C70
DFIX 1.51 C1B C107
RIGU O3 O4 C32 C29 C27 C28 C26 C30 C31 C33
SIMU O3 O4 C32 C29 C27 C28 C26 C30 C31 C33
FLAT C103 C102 C101 C100 C105 C104 C106
RIGU F5 F1 F4 F3 F2 C23 C24 C25 C21 C20 C22
SIMU F5 F1 F4 F3 F2 C23 C24 C25 C21 C20 C22
EADP C44 C43
RIGU F20 F16 F17 F19 F18 C74 C73 C75 C78 C76 C77
RIGU F6 F10 F9 F7 F8 C35 C37 C34 C39 C36 C38
RIGU F15 F11 F12 F14 F13 C59 C64 C63 C60 C62 C61
DFIX 1.51 C99 C93
RIGU C96 C97 C98 C93 C94 C95 C99
SIMU C96 C97 C98 C93 C94 C95 C99
SIMU C91 C86 C87 C90 C92 C88 C89
RIGU C91 C86 C87 C90 C92 C88 C89
RIGU C102 C106 C100 C105 C101 C104 C103
RIGU C1F C107 C1B C1A C1C C1D C1E
SIMU C106 C100 C105 C104 C103 C102 C101 C107 C1A C1B C1C C1D C1E C1F
SADI C105 C106 C101 C106
EADP N6 N5 N8 N7
EADP N3 N4 N1 N2

L.S. 5 0 26
PLAN  20
SIZE 0.1 0.1 0.05
TEMP -173.17
CONF
BOND
MORE -1
BOND $H
ABIN
fmap 2
acta
REM <olex2.extras>
REM <HklSrc "%./dcp1428_sq.hkl">
REM </olex2.extras>

WGHT    0.140900  116.786194
FVAR       0.12759
SB2   6    0.473751    0.326251    0.279101    11.00000    0.02221    0.02175 =
         0.01192   -0.00386    0.01326   -0.00188
SB1   6    0.450700    0.186398    0.318274    11.00000    0.02591    0.02597 =
         0.00891   -0.00234    0.01246   -0.00035
F15   3    0.128146    0.313826    0.272778    11.00000    0.03148    0.05388 =
         0.03925    0.00065    0.02063   -0.00111
F11   3    0.165688    0.459097    0.160238    11.00000    0.04126    0.05142 =
         0.04594    0.00489    0.01756    0.00102
F20   3    0.771496    0.296535    0.392769    11.00000    0.05045    0.06214 =
         0.02949    0.00315    0.00624   -0.00461
F6    3    0.084878    0.068843    0.315840    11.00000    0.04098    0.04930 =
         0.05036    0.01641    0.02096   -0.01122
F16   3    0.842955    0.433574    0.283596    11.00000    0.03034    0.04288 =
         0.05956    0.01593    0.02263   -0.00037
F10   3    0.145191    0.211549    0.206384    11.00000    0.06395    0.04919 =
         0.01828    0.00953    0.00162   -0.01772
F12   3   -0.015269    0.457201    0.132727    11.00000    0.03418    0.07966 =
         0.05937    0.00934   -0.00553    0.01131
O1    5    0.415968    0.237364    0.264222    11.00000    0.03722    0.02402 =
         0.01496    0.00300    0.01302   -0.00164
F5    3    0.811026    0.192510    0.330088    11.00000    0.06324    0.06129 =
         0.06442    0.00530    0.04681   -0.00303
O3    5    0.321933    0.338209    0.590602    11.00000    0.06260    0.04343 =
         0.01387   -0.01080    0.01442    0.00330
N8    4    0.590575    0.327192    0.253654    11.00000    0.01950    0.02659 =
         0.01440   -0.00345    0.01274   -0.00266
F17   3    1.020988    0.425518    0.316101    11.00000    0.02614    0.08156 =
         0.09044   -0.01772    0.02287   -0.00876
N5    4    0.545988    0.401825    0.317085    11.00000    0.01950    0.02659 =
         0.01440   -0.00345    0.01274   -0.00266
O2    5    0.508963    0.275899    0.331661    11.00000    0.03902    0.03905 =
         0.01209    0.00094    0.00209    0.00108
F9    3   -0.032918    0.206887    0.171465    11.00000    0.07292    0.09810 =
         0.03799    0.02502   -0.01472    0.00020
F14   3   -0.052115    0.313595    0.246246    11.00000    0.03174    0.09385 =
         0.07094   -0.00960    0.02821   -0.01706
F13   3   -0.127274    0.385303    0.175772    11.00000    0.02431    0.10038 =
         0.08427   -0.01752    0.00761    0.00684
N6    4    0.377876    0.393080    0.293002    11.00000    0.01950    0.02659 =
         0.01440   -0.00345    0.01274   -0.00266
F7    3   -0.091929    0.063847    0.280169    11.00000    0.04117    0.06837 =
         0.09988    0.01043    0.01973   -0.01904
F1    3    0.739069    0.037790    0.430951    11.00000    0.05071    0.08524 =
         0.05540    0.02277    0.01251    0.01120
N1    4    0.378798    0.110957    0.280554    11.00000    0.03113    0.03789 =
         0.00982   -0.00081    0.01147    0.00030
N2    4    0.546121    0.118569    0.303929    11.00000    0.03113    0.03789 =
         0.00982   -0.00081    0.01147    0.00030
O6    5    0.582660    0.042005    0.056525    11.00000    0.08017    0.05996 =
         0.03061   -0.01817    0.01701    0.01006
F19   3    0.951335    0.285157    0.424577    11.00000    0.05442    0.09713 =
         0.07141    0.01087   -0.02125    0.01583
N7    4    0.407652    0.347000    0.217394    11.00000    0.01950    0.02659 =
         0.01440   -0.00345    0.01274   -0.00266
N4    4    0.333583    0.188713    0.343739    11.00000    0.03113    0.03789 =
         0.00982   -0.00081    0.01147    0.00030
O4    5    0.309247    0.436380    0.556858    11.00000    0.07702    0.03782 =
         0.03745   -0.01263    0.00985    0.00779
F18   3    1.078021    0.349886    0.386649    11.00000    0.02832    0.10603 =
         0.10520   -0.02655   -0.02062    0.01378
F8    3   -0.153595    0.135018    0.208469    11.00000    0.05273    0.10263 =
         0.08391    0.00220   -0.01865   -0.01490
O5    5    0.596294    0.134524    0.017361    11.00000    0.05711    0.06638 =
         0.02403   -0.01893    0.01763    0.00396
N3    4    0.520817    0.168481    0.380271    11.00000    0.03113    0.03789 =
         0.00982   -0.00081    0.01147    0.00030
C43   1    0.497024    0.434046    0.344516    11.00000    0.02100    0.02591 =
         0.01337   -0.00259    0.01412   -0.00124
F4    3    0.988214    0.172407    0.359012    11.00000    0.04550    0.12026 =
         0.12089   -0.04104    0.05319   -0.03037
C19   1    0.221523    0.143851    0.283170    11.00000    0.02996    0.03688 =
         0.01005    0.00073    0.01017   -0.00199
C58   1    0.703346    0.365541    0.316944    11.00000    0.02023    0.02732 =
         0.01561   -0.00177    0.01044   -0.00477
F3    3    1.044552    0.081139    0.422695    11.00000    0.03025    0.16433 =
         0.10204   -0.05993   -0.01047    0.01991
C47   1    0.288204    0.403746    0.274953    11.00000    0.01866    0.02687 =
         0.01635   -0.00200    0.01384   -0.00147
C4    1    0.427999    0.075806    0.255194    11.00000    0.03286    0.03349 =
         0.00683    0.00132    0.01294   -0.00070
C48   1    0.254857    0.381127    0.233750    11.00000    0.01837    0.02654 =
         0.01601   -0.00111    0.01260   -0.00262
C54   1    0.597105    0.292069    0.216860    11.00000    0.02157    0.02624 =
         0.01601   -0.00410    0.01281   -0.00404
C18   1    0.244654    0.182198    0.320194    11.00000    0.03026    0.04041 =
         0.01016   -0.00136    0.01014   -0.00063
C57   1    0.681639    0.331486    0.279013    11.00000    0.01965    0.02691 =
         0.01653   -0.00318    0.01159   -0.00287
C41   1    0.645774    0.437511    0.373877    11.00000    0.02384    0.02762 =
         0.01442   -0.00224    0.01023   -0.00371
AFIX  43
H41   2    0.701182    0.447678    0.392773    11.00000   -1.20000
AFIX   0
C35   1    0.056301    0.104305    0.279693    11.00000    0.03980    0.03877 =
         0.04474    0.00709    0.01482   -0.00909
C59   1    0.156536    0.385764    0.217567    11.00000    0.02900    0.01963 =
         0.03209   -0.01034    0.01192    0.00146
F2    3    0.918168    0.014000    0.458119    11.00000    0.07710    0.15319 =
         0.07025    0.01510   -0.01543    0.05082
C64   1    0.093230    0.351454    0.238796    11.00000    0.02296    0.03635 =
         0.04271   -0.00356    0.00973   -0.00441
AFIX  66
C69   1    0.559135    0.127058    0.123477    11.00000    0.03299    0.05498 =
         0.02319   -0.00548    0.01396    0.02969
AFIX  43
H69   2    0.562053    0.079177    0.128004    11.00000   -1.20000
AFIX  65
C68   1    0.572034    0.153802    0.084959    11.00000    0.03078    0.04910 =
         0.02989    0.00260    0.01862    0.02301
C67   1    0.567765    0.223858    0.078334    11.00000    0.02508    0.04593 =
         0.02661    0.00127    0.01603    0.02242
AFIX  43
H67   2    0.576581    0.242136    0.052008    11.00000   -1.20000
AFIX  65
C66   1    0.550598    0.267171    0.110227    11.00000    0.03074    0.03202 =
         0.02432    0.00603    0.01553    0.01560
AFIX  43
H66   2    0.547680    0.315051    0.105699    11.00000   -1.20000
AFIX  65
C65   1    0.537699    0.240428    0.148745    11.00000    0.02509    0.03417 =
         0.02110    0.00031    0.01290    0.01079
C70   1    0.541968    0.170372    0.155371    11.00000    0.03282    0.03678 =
         0.02071    0.00200    0.02072    0.01311
AFIX  43
H70   2    0.533153    0.152094    0.181696    11.00000   -1.20000
AFIX   0
C55   1    0.688718    0.272472    0.218621    11.00000    0.02130    0.02841 =
         0.01912   -0.00538    0.01322   -0.00449
AFIX  43
H55   2    0.712302    0.246593    0.197988    11.00000   -1.20000
AFIX   0
C2    1    0.274628    0.069960    0.226467    11.00000    0.03248    0.03419 =
         0.00911    0.00204    0.00758   -0.00375
AFIX  43
H2    2    0.218750    0.058758    0.208207    11.00000   -1.20000
AFIX   0
C56   1    0.737919    0.297305    0.255354    11.00000    0.01926    0.02823 =
         0.01813   -0.00282    0.01310   -0.00543
AFIX  43
H56   2    0.802473    0.292010    0.263801    11.00000   -1.20000
AFIX   0
C40   1    0.638251    0.399294    0.336740    11.00000    0.02110    0.02671 =
         0.01412   -0.00222    0.01069   -0.00394
C13   1    0.493387    0.205829    0.412457    11.00000    0.03110    0.04224 =
         0.01101   -0.00298    0.01094    0.00036
C7    1    0.667992    0.059996    0.294315    11.00000    0.03163    0.04017 =
         0.01511    0.00050    0.01412    0.00410
AFIX  43
H7    2    0.729067    0.043126    0.297340    11.00000   -1.20000
AFIX   0
C5    1    0.519588    0.078189    0.268026    11.00000    0.03266    0.03534 =
         0.00805    0.00118    0.01369    0.00064
C15   1    0.331218    0.223363    0.381491    11.00000    0.03019    0.04329 =
         0.00891   -0.00251    0.01276   -0.00010
C53   1    0.521457    0.283641    0.184969    11.00000    0.02211    0.02506 =
         0.01675   -0.00313    0.01210   -0.00347
C71   1    0.584762    0.102477    0.052247    11.00000    0.04651    0.06021 =
         0.02724   -0.01181    0.01656    0.01343
C44   1    0.401652    0.431388    0.329157    11.00000    0.02100    0.02591 =
         0.01337   -0.00259    0.01412   -0.00124
C52   1    0.435780    0.310983    0.184241    11.00000    0.02194    0.02681 =
         0.01610   -0.00256    0.01168   -0.00436
C63   1    0.002571    0.351140    0.224843    11.00000    0.02232    0.04137 =
         0.05064   -0.01270    0.01298   -0.00168
C10   1    0.615997    0.157444    0.390348    11.00000    0.03064    0.03865 =
         0.01256   -0.00065    0.01027   -0.00146
C1    1    0.284921    0.111193    0.264001    11.00000    0.03106    0.03571 =
         0.00969    0.00211    0.00992   -0.00099
C49   1    0.312844    0.356162    0.207394    11.00000    0.01950    0.02723 =
         0.01532   -0.00271    0.01071   -0.00255
C42   1    0.559932    0.457565    0.378209    11.00000    0.02482    0.02580 =
         0.01429   -0.00195    0.01202   -0.00230
AFIX  43
H42   2    0.545573    0.483786    0.400992    11.00000   -1.20000
AFIX   0
C46   1    0.251694    0.446637    0.303485    11.00000    0.02123    0.02567 =
         0.01857   -0.00117    0.01462    0.00147
AFIX  43
H46   2    0.189303    0.460494    0.300636    11.00000   -1.20000
AFIX   0
C14   1    0.404456    0.231289    0.412705    11.00000    0.02968    0.04219 =
         0.00859   -0.00280    0.01189    0.00066
C74   1    0.865774    0.396520    0.318394    11.00000    0.02397    0.02212 =
         0.04839   -0.00483    0.00858   -0.00138
C16   1    0.236169    0.240055    0.379960    11.00000    0.03094    0.04744 =
         0.01061   -0.00346    0.01101    0.00056
AFIX  43
H16   2    0.212538    0.265300    0.400844    11.00000   -1.20000
AFIX   0
C60   1    0.114410    0.421509    0.180864    11.00000    0.03179    0.04128 =
         0.03537   -0.00123    0.01469    0.01023
C50   1    0.282616    0.329965    0.165623    11.00000    0.02135    0.02844 =
         0.01654   -0.00217    0.01010   -0.00521
AFIX  43
H50   2    0.221801    0.331606    0.149911    11.00000   -1.20000
AFIX   0
C8    1    0.636036    0.106610    0.322235    11.00000    0.03175    0.03865 =
         0.01234    0.00129    0.01246    0.00078
C37   1   -0.062441    0.135623    0.225862    11.00000    0.04237    0.06044 =
         0.05587    0.00220   -0.00295   -0.01242
C45   1    0.320919    0.464739    0.335713    11.00000    0.02288    0.02598 =
         0.01751   -0.00266    0.01445    0.00168
AFIX  43
H45   2    0.315551    0.494475    0.358452    11.00000   -1.20000
AFIX   0
C3    1    0.360856    0.050186    0.222313    11.00000    0.03538    0.03332 =
         0.00851    0.00191    0.00973   -0.00230
AFIX  43
H3    2    0.374113    0.022465    0.199943    11.00000   -1.20000
AFIX   0
C11   1    0.643845    0.184935    0.430821    11.00000    0.03135    0.04218 =
         0.01575   -0.00394    0.00828   -0.00167
AFIX  43
H11   2    0.704910    0.183879    0.446287    11.00000   -1.20000
AFIX   0
C51   1    0.357216    0.302374    0.152739    11.00000    0.02304    0.02824 =
         0.01640   -0.00100    0.01118   -0.00486
AFIX  43
H51   2    0.356531    0.280476    0.126352    11.00000   -1.20000
AFIX   0
C32   1    0.325059    0.377536    0.557770    11.00000    0.03422    0.03779 =
         0.02017   -0.00729    0.01047    0.00414
C6    1    0.598605    0.043404    0.262962    11.00000    0.03335    0.03707 =
         0.01239    0.00023    0.01450    0.00259
AFIX  43
H6    2    0.603019    0.012496    0.240680    11.00000   -1.20000
AFIX   0
C34   1    0.123806    0.141617    0.262038    11.00000    0.03474    0.03409 =
         0.03143    0.01006    0.00943   -0.00257
C17   1    0.185764    0.214611    0.344579    11.00000    0.03010    0.04550 =
         0.01126   -0.00179    0.01068   -0.00130
AFIX  43
H17   2    0.120774    0.217756    0.336981    11.00000   -1.20000
AFIX   0
C29   1    0.347829    0.337758    0.521865    11.00000    0.05113    0.03899 =
         0.01576   -0.00455    0.01034    0.00521
C9    1    0.668724    0.127112    0.364025    11.00000    0.03134    0.03865 =
         0.01342    0.00040    0.01148   -0.00112
C62   1   -0.037299    0.385039    0.189174    11.00000    0.02464    0.05433 =
         0.06509   -0.00177    0.01209    0.00782
C39   1    0.088337    0.173640    0.224727    11.00000    0.04134    0.02477 =
         0.02607    0.00262    0.00364   -0.00114
C36   1   -0.032692    0.101673    0.262397    11.00000    0.04203    0.05122 =
         0.04845   -0.00427    0.01183   -0.01186
C73   1    0.798301    0.365084    0.337004    11.00000    0.02404    0.02658 =
         0.04436   -0.00131    0.01025    0.00362
C75   1    0.958878    0.393571    0.335907    11.00000    0.02042    0.06310 =
         0.06843   -0.01232    0.00932    0.00444
C78   1    0.830556    0.328967    0.373109    11.00000    0.03415    0.03877 =
         0.03545   -0.00437    0.00918    0.00878
C23   1    0.955278    0.094256    0.409367    11.00000    0.02554    0.09873 =
         0.05567   -0.04131   -0.00168    0.00541
C27   1    0.376019    0.234662    0.486049    11.00000    0.05473    0.03844 =
         0.02318   -0.00850    0.01990    0.00150
AFIX  43
H27   2    0.381916    0.186420    0.486859    11.00000   -1.20000
AFIX   0
C28   1    0.356578    0.269020    0.521472    11.00000    0.06555    0.03710 =
         0.02245   -0.00574    0.02428    0.00306
AFIX  43
H28   2    0.349341    0.243618    0.545802    11.00000   -1.20000
AFIX   0
C38   1   -0.000354    0.173555    0.206782    11.00000    0.05074    0.04977 =
         0.02950    0.00286   -0.00782   -0.00542
C26   1    0.386735    0.268933    0.450268    11.00000    0.03641    0.05120 =
         0.02734   -0.00088    0.01555   -0.00049
C61   1    0.019224    0.420684    0.167111    11.00000    0.03260    0.04784 =
         0.03850   -0.00942    0.01483    0.01573
C24   1    0.927610    0.139232    0.376543    11.00000    0.02426    0.08475 =
         0.06854   -0.03114    0.02265   -0.00684
C76   1    0.985363    0.353426    0.371240    11.00000    0.02488    0.06581 =
         0.07254   -0.01141   -0.00695    0.00782
C25   1    0.837773    0.148342    0.362974    11.00000    0.02996    0.06186 =
         0.04895   -0.00996    0.01990   -0.01041
C21   1    0.801488    0.073425    0.413368    11.00000    0.02904    0.07244 =
         0.04367    0.00276   -0.00322    0.00191
C12   1    0.572388    0.212713    0.444436    11.00000    0.03203    0.04409 =
         0.01492   -0.00357    0.00878   -0.00045
AFIX  43
H12   2    0.573999    0.233700    0.471165    11.00000   -1.20000
AFIX   0
C20   1    0.769155    0.118657    0.379433    11.00000    0.02595    0.04836 =
         0.02186   -0.01468    0.01434    0.00175
C30   1    0.360216    0.373089    0.485026    11.00000    0.05470    0.04555 =
         0.02548    0.00484    0.01417    0.00634
AFIX  43
H30   2    0.354173    0.421318    0.484076    11.00000   -1.20000
AFIX   0
C31   1    0.381096    0.338676    0.450089    11.00000    0.04265    0.05607 =
         0.03534    0.00969    0.02942    0.00413
AFIX  43
H31   2    0.391460    0.363614    0.426066    11.00000   -1.20000
AFIX   0
C77   1    0.921137    0.324757    0.390309    11.00000    0.03946    0.06630 =
         0.06877    0.00048   -0.00521    0.01080
C33   1    0.299672    0.370015    0.628055    11.00000    0.08823    0.05952 =
         0.01862   -0.01449    0.01981    0.02084
AFIX 137
H33A  2    0.233282    0.378221    0.624076    11.00000   -1.50000
H33B  2    0.332493    0.413490    0.633085    11.00000   -1.50000
H33C  2    0.318157    0.339886    0.652385    11.00000   -1.50000
AFIX   0
C72   1    0.605191    0.089245   -0.018692    11.00000    0.07431    0.09303 =
         0.02825   -0.02996    0.02183    0.00375
AFIX 137
H72A  2    0.617166    0.116890   -0.042497    11.00000   -1.50000
H72B  2    0.548020    0.063545   -0.027191    11.00000   -1.50000
H72C  2    0.656258    0.057425   -0.010176    11.00000   -1.50000
AFIX   0
C22   1    0.891920    0.060661    0.426464    11.00000    0.03270    0.10202 =
         0.04938   -0.01258   -0.00361    0.02172

AFIX  66
C79   1    0.334045    0.019393    0.385163    11.00000    0.11266    0.07046 =
         0.10498   -0.03210    0.05715   -0.02946
C80   1    0.429321    0.021011    0.396236    11.00000    0.11295    0.09442 =
         0.13020   -0.04931    0.05993   -0.04419
AFIX  43
H80   2    0.457526    0.042356    0.421782    11.00000   -1.20000
AFIX  65
C81   1    0.483330   -0.008604    0.369933    11.00000    0.11498    0.08405 =
         0.12604   -0.03538    0.06359   -0.03923
AFIX  43
H81   2    0.548448   -0.007498    0.377502    11.00000   -1.20000
AFIX  65
C82   1    0.442063   -0.039835    0.332556    11.00000    0.13812    0.04271 =
         0.12508   -0.02109    0.03339    0.00400
AFIX  43
H82   2    0.478977   -0.060075    0.314579    11.00000   -1.20000
AFIX  65
C83   1    0.346787   -0.041453    0.321482    11.00000    0.13792    0.04551 =
         0.09588   -0.01684    0.03250   -0.00098
AFIX  43
H83   2    0.318583   -0.062799    0.295936    11.00000   -1.20000
AFIX  65
C84   1    0.292777   -0.011839    0.347785    11.00000    0.13011    0.05872 =
         0.09779   -0.01590    0.03323   -0.00656
AFIX  43
H84   2    0.227659   -0.012945    0.340216    11.00000   -1.20000
AFIX   0

C91   1    0.790870    0.254784    0.562075    11.00000    0.10826    0.17456 =
         0.13245    0.04761    0.06608    0.01598
AFIX  43
H91   2    0.766434    0.294606    0.572747    11.00000   -1.20000
AFIX   0
C86   1    0.834325    0.256635    0.526705    11.00000    0.05169    0.15552 =
         0.08679    0.03549    0.01306    0.01323

C85   1    0.273544    0.057841    0.410665    11.00000    0.14833    0.08102 =
         0.10575   -0.00799    0.07240    0.00717
AFIX 137
H85A  2    0.259045    0.102970    0.398158    11.00000   -1.50000
H85B  2    0.306071    0.063029    0.439813    11.00000   -1.50000
H85C  2    0.216449    0.032349    0.410491    11.00000   -1.50000
AFIX   0

C87   1    0.867027    0.197465    0.512097    11.00000    0.07825    0.14325 =
         0.06615    0.01685    0.00260   -0.01118
AFIX  43
H87   2    0.894209    0.197642    0.487480    11.00000   -1.20000
AFIX   0
C90   1    0.785779    0.191341    0.580481    11.00000    0.13897    0.18065 =
         0.12362    0.05309    0.06361    0.01152
AFIX  43
H90   2    0.761735    0.189091    0.605926    11.00000   -1.20000
AFIX   0
C92   1    0.844730    0.325082    0.506751    11.00000    0.10343    0.15664 =
         0.11240    0.04040    0.05048    0.02606
AFIX 137
H92A  2    0.806970    0.326311    0.478444    11.00000   -1.50000
H92B  2    0.909368    0.332346    0.504668    11.00000   -1.50000
H92C  2    0.824616    0.361080    0.524169    11.00000   -1.50000
AFIX   0
C88   1    0.859524    0.136616    0.534258    11.00000    0.11670    0.14385 =
         0.07554    0.01443    0.00851   -0.02214
AFIX  43
H88   2    0.890077    0.097138    0.526659    11.00000   -1.20000
AFIX  66

C96   1    0.143209    0.302151   -0.014458    11.00000    0.14712    0.16692 =
         0.08931   -0.01192   -0.01571    0.00691
AFIX  43
H96   2    0.160447    0.315000   -0.040423    11.00000   -1.20000
AFIX  65
C97   1    0.135892    0.351344    0.015864    11.00000    0.14781    0.17359 =
         0.05637   -0.00095   -0.02306    0.02419
AFIX  43
H97   2    0.148130    0.397813    0.010623    11.00000   -1.20000
AFIX  65
C98   1    0.110670    0.332545    0.053855    11.00000    0.10182    0.17095 =
         0.07151    0.00438   -0.03168   -0.01227
AFIX  43
H98   2    0.105669    0.366165    0.074579    11.00000   -1.20000
AFIX  65
C93   1    0.092764    0.264553    0.061523    11.00000    0.08810    0.17975 =
         0.11456    0.00962   -0.02957   -0.02450
C94   1    0.100080    0.215360    0.031202    11.00000    0.06671    0.17612 =
         0.12421    0.00100   -0.04521   -0.01235
AFIX  43
H94   2    0.087843    0.168891    0.036443    11.00000   -1.20000
AFIX  65
C95   1    0.125302    0.234158   -0.006789    11.00000    0.11065    0.17334 =
         0.13684   -0.00041   -0.02215   -0.00168
AFIX  43
H95   2    0.130303    0.200537   -0.027513    11.00000   -1.20000
AFIX   0

C89   1    0.813028    0.131921    0.564457    11.00000    0.14253    0.17110 =
         0.11782    0.04418    0.04758   -0.00465
AFIX  43
H89   2    0.798380    0.088890    0.575091    11.00000   -1.20000
AFIX   0

C99   1    0.059557    0.244627    0.099727    11.00000    0.12271    0.27912 =
         0.14723    0.04866    0.00950   -0.02478
AFIX 137
H99A  2    0.111662    0.230661    0.121331    11.00000   -1.50000
H99B  2    0.016494    0.206469    0.093385    11.00000   -1.50000
H99C  2    0.028167    0.283341    0.110176    11.00000   -1.50000
AFIX   0

PART 1
C106  1   -0.117409    0.444010    0.470507    10.47000    0.18377    0.22852 =
         0.14889   -0.02920    0.03200    0.00591
AFIX 137
H10A  2   -0.091468    0.451304    0.500386    10.47000   -1.50000
H10B  2   -0.122731    0.394969    0.464734    10.47000   -1.50000
H10C  2   -0.178415    0.465080    0.463959    10.47000   -1.50000
AFIX  66
C100  1   -0.055550    0.475681    0.443614    10.47000    0.13918    0.13995 =
         0.11297   -0.05733    0.00997    0.03478
C105  1    0.038818    0.464961    0.453377    10.47000    0.14192    0.13235 =
         0.10220   -0.05637    0.00025    0.03822
AFIX  43
H105  2    0.063911    0.437195    0.476801    10.47000   -1.20000
AFIX  65
C104  1    0.096473    0.494867    0.428866    10.47000    0.13361    0.13839 =
         0.10998   -0.05786    0.00395    0.04157
AFIX  43
H104  2    0.160970    0.487540    0.435539    10.47000   -1.20000
AFIX  65
C103  1    0.059759    0.535493    0.394592    10.47000    0.12457    0.13347 =
         0.12196   -0.04805    0.00934    0.03613
AFIX  43
H103  2    0.099163    0.555932    0.377840    10.47000   -1.20000
AFIX  65
C102  1   -0.034610    0.546213    0.384829    10.47000    0.12322    0.13064 =
         0.11786   -0.05576    0.00968    0.03757
AFIX  43
H102  2   -0.059702    0.573979    0.361404    10.47000   -1.20000
AFIX  65
C101  1   -0.092266    0.516308    0.409339    10.47000    0.11902    0.13446 =
         0.11507   -0.06228    0.00963    0.03753
AFIX  43
H101  2   -0.156762    0.523635    0.402667    10.47000   -1.20000
AFIX   0

PART 0
PART 2
C107  1   -0.098603    0.505152    0.423364    10.53000    0.12156    0.16572 =
         0.11946   -0.07058    0.00864    0.03633
AFIX 137
H10D  2   -0.113136    0.524669    0.449429    10.53000   -1.50000
H10E  2   -0.117176    0.457124    0.421250    10.53000   -1.50000
H10F  2   -0.131801    0.530264    0.399007    10.53000   -1.50000
AFIX  66
C1A   1    0.043092    0.546649    0.394911    10.53000    0.12621    0.13431 =
         0.11368   -0.05240    0.00770    0.04489
AFIX  43
H1A   2    0.005773    0.572703    0.373551    10.53000   -1.20000
AFIX  65
C1B   1    0.002955    0.510357    0.423989    10.53000    0.12323    0.13869 =
         0.11525   -0.05195    0.00404    0.04015
C1C   1    0.057558    0.472235    0.455242    10.53000    0.13417    0.13839 =
         0.10487   -0.05471    0.00192    0.04144
AFIX  43
H1C   2    0.030126    0.447431    0.475115    10.53000   -1.20000
AFIX  65
C1D   1    0.152298    0.470406    0.457418    10.53000    0.13221    0.13964 =
         0.10186   -0.05936   -0.00181    0.04633
AFIX  43
H1D   2    0.189617    0.444352    0.478778    10.53000   -1.20000
AFIX  65
C1E   1    0.192436    0.506698    0.428341    10.53000    0.12003    0.14055 =
         0.09760   -0.06625   -0.00328    0.04315
AFIX  43
H1E   2    0.257187    0.505447    0.429828    10.53000   -1.20000
AFIX  65
C1F   1    0.137834    0.544820    0.397087    10.53000    0.12530    0.13902 =
         0.10892   -0.05667    0.00691    0.04853
AFIX  43
H1F   2    0.165266    0.569624    0.377214    10.53000   -1.20000
AFIX   0
HKLF 4




REM  dcp1428_a.res in P2(1)/c
REM wR2 = 0.2333, GooF = S = 1.023, Restrained GooF = 0.896 for all data
REM R1 = 0.0818 for 4599 Fo > 4sig(Fo) and 0.1223 for all 6846 data
REM 1247 parameters refined using 1931 restraints

END

WGHT      0.1409    116.8181

REM Highest difference peak  4.066,  deepest hole -0.688,  1-sigma level  0.148
Q1    1   0.6032  0.1801  0.1185  11.00000  0.05    4.07
Q2    1   0.6212  0.3188  0.0803  11.00000  0.05    3.84
Q3    1   0.6417  0.2656  0.1178  11.00000  0.05    0.90
Q4    1   0.4549  0.1777  0.3269  11.00000  0.05    0.83
Q5    1   0.2225  0.4239  0.6133  11.00000  0.05    0.64
Q6    1   0.5234  0.2313  0.2825  11.00000  0.05    0.61
Q7    1  -0.0803  0.2943  0.1908  11.00000  0.05    0.58
Q8    1   0.3352  0.3316  0.4878  11.00000  0.05    0.57
Q9    1   0.3153  0.0355  0.4587  11.00000  0.05    0.57
Q10   1   1.0020  0.3396  0.5073  11.00000  0.05    0.57
Q11   1  -0.2336  0.1566  0.1847  11.00000  0.05    0.56
Q12   1  -0.0876  0.0409  0.2356  11.00000  0.05    0.54
Q13   1   0.5468  0.2603  0.2485  11.00000  0.05    0.53
Q14   1   0.6991  0.1297  0.0994  11.00000  0.05    0.53
Q15   1   0.2852 -0.1030  0.3684  11.00000  0.05    0.52
Q16   1   0.6725  0.1703  0.1686  11.00000  0.05    0.51
Q17   1  -0.0922  0.1084  0.1703  11.00000  0.05    0.51
Q18   1   0.3949  0.2814  0.3172  11.00000  0.05    0.50
Q19   1   0.3160 -0.0404  0.3282  11.00000  0.05    0.49
Q20   1   0.4613  0.4701  0.3406  11.00000  0.05    0.49
;
_shelx_res_checksum              67489
_shelx_fab_file
;
    1    0    0    -80.31      0.00
    2    0    0     32.95      0.00
    3    0    0     -4.73      0.00
    4    0    0     -6.36      0.00
    5    0    0     12.40      0.00
    6    0    0    -12.82      0.00
    7    0    0      9.73      0.00
    8    0    0     -6.21      0.00
    9    0    0      1.62      0.00
   10    0    0      1.44      0.00
   11    0    0     -1.10      0.00
   12    0    0     -0.43      0.00
    1    1    0     -1.60      0.00
    2    1    0     -2.48      0.00
    3    1    0      6.63      0.00
    4    1    0     -4.52      0.00
    5    1    0     -0.22      0.00
    6    1    0      1.71      0.00
    7    1    0     -0.31      0.00
    8    1    0     -0.81      0.00
    9    1    0      0.94      0.00
   10    1    0     -0.98      0.00
   11    1    0      0.94      0.00
   12    1    0     -0.36      0.00
    0    2    0     54.38      0.00
    1    2    0    -40.81      0.00
    2    2    0     18.32      0.00
    3    2    0     -6.65      0.00
    4    2    0     -0.06      0.00
    5    2    0      5.70      0.00
    6    2    0     -6.16      0.00
    7    2    0      5.21      0.00
    8    2    0     -5.09      0.00
    9    2    0      2.50      0.00
   10    2    0      0.18      0.00
   11    2    0     -0.18      0.00
   12    2    0      0.02      0.00
    1    3    0     -7.19      0.00
    2    3    0      4.25      0.00
    3    3    0      1.13      0.00
    4    3    0     -0.75      0.00
    5    3    0     -0.70      0.00
    6    3    0     -1.31      0.00
    7    3    0      3.75      0.00
    8    3    0     -3.80      0.00
    9    3    0      2.23      0.00
   10    3    0     -0.62      0.00
   11    3    0     -0.34      0.00
   12    3    0      0.76      0.00
    0    4    0     -4.04      0.00
    1    4    0      4.14      0.00
    2    4    0     -0.95      0.00
    3    4    0     -3.29      0.00
    4    4    0      0.79      0.00
    5    4    0      2.95      0.00
    6    4    0     -1.45      0.00
    7    4    0      0.70      0.00
    8    4    0     -2.10      0.00
    9    4    0      0.64      0.00
   10    4    0      0.75      0.00
   11    4    0      0.86      0.00
   12    4    0     -1.09      0.00
    1    5    0     -6.29      0.00
    2    5    0      7.62      0.00
    3    5    0     -7.13      0.00
    4    5    0      5.69      0.00
    5    5    0     -1.19      0.00
    6    5    0     -2.72      0.00
    7    5    0      2.81      0.00
    8    5    0     -1.85      0.00
    9    5    0      1.13      0.00
   10    5    0      0.29      0.00
   11    5    0     -0.98      0.00
   12    5    0      0.09      0.00
    0    6    0     -1.76      0.00
    1    6    0      3.95      0.00
    2    6    0     -5.47      0.00
    3    6    0      4.25      0.00
    4    6    0     -5.18      0.00
    5    6    0      5.85      0.00
    6    6    0     -3.16      0.00
    7    6    0      1.86      0.00
    8    6    0     -2.12      0.00
    9    6    0      0.15      0.00
   10    6    0      0.90      0.00
   11    6    0      1.21      0.00
   12    6    0     -2.33      0.00
    1    7    0      0.34      0.00
    2    7    0     -2.79      0.00
    3    7    0      2.59      0.00
    4    7    0      0.67      0.00
    5    7    0     -2.81      0.00
    6    7    0      4.39      0.00
    7    7    0     -5.51      0.00
    8    7    0      3.34      0.00
    9    7    0      0.10      0.00
   10    7    0     -1.48      0.00
   11    7    0      2.27      0.00
    0    8    0     -0.74      0.00
    1    8    0      3.22      0.00
    2    8    0     -5.26      0.00
    3    8    0      3.01      0.00
    4    8    0     -0.96      0.00
    5    8    0      0.28      0.00
    6    8    0      0.07      0.00
    7    8    0      2.05      0.00
    8    8    0     -4.78      0.00
    9    8    0      3.93      0.00
   10    8    0     -1.38      0.00
   11    8    0      0.25      0.00
    1    9    0     -1.60      0.00
    2    9    0     -1.10      0.00
    3    9    0      2.01      0.00
    4    9    0      1.26      0.00
    5    9    0     -3.63      0.00
    6    9    0      4.05      0.00
    7    9    0     -3.59      0.00
    8    9    0      1.32      0.00
    9    9    0      0.98      0.00
   10    9    0     -1.45      0.00
   11    9    0      1.73      0.00
    0   10    0     -1.58      0.00
    1   10    0      2.10      0.00
    2   10    0     -1.92      0.00
    3   10    0      0.51      0.00
    4   10    0      0.15      0.00
    5   10    0     -0.80      0.00
    6   10    0      1.65      0.00
    7   10    0     -0.58      0.00
    8   10    0     -0.90      0.00
    9   10    0     -0.04      0.00
   10   10    0      1.65      0.00
    1   11    0     -2.55      0.00
    2   11    0      1.61      0.00
    3   11    0     -0.99      0.00
    4   11    0      1.67      0.00
    5   11    0     -0.85      0.00
    6   11    0      0.03      0.00
    7   11    0     -0.45      0.00
    8   11    0      0.19      0.00
    9   11    0      0.05      0.00
   10   11    0      0.72      0.00
    0   12    0      6.48      0.00
    1   12    0     -4.50      0.00
    2   12    0      0.60      0.00
    3   12    0      2.29      0.00
    4   12    0     -2.95      0.00
    5   12    0      1.14      0.00
    6   12    0      1.69      0.00
    7   12    0     -3.48      0.00
    8   12    0      4.45      0.00
    9   12    0     -4.89      0.00
    1   13    0      0.44      0.00
    2   13    0     -2.36      0.00
    3   13    0      3.40      0.00
    4   13    0     -2.94      0.00
    5   13    0      1.83      0.00
    6   13    0      0.73      0.00
    7   13    0     -3.00      0.00
    8   13    0      2.41      0.00
    0   14    0      1.13      0.00
    1   14    0      0.03      0.00
    2   14    0     -1.53      0.00
    3   14    0      0.93      0.00
    4   14    0      1.15      0.00
    5   14    0     -2.85      0.00
    6   14    0      3.35      0.00
    7   14    0     -2.83      0.00
    1   15    0     -1.79      0.00
    2   15    0      1.69      0.00
    3   15    0     -0.53      0.00
    4   15    0     -1.11      0.00
    5   15    0      2.45      0.00
    6   15    0     -1.70      0.00
    0   16    0     -1.73      0.00
    1   16    0      1.95      0.00
    2   16    0     -1.56      0.00
    3   16    0     -0.31      0.00
    4   16    0      2.20      0.00
    5   16    0     -2.30      0.00
    1   17    0     -1.89      0.00
    2   17    0      2.64      0.00
    3   17    0     -2.24      0.00
  -13    1    1     -1.43      0.00
  -12    1    1     -0.30      0.00
  -11    1    1      2.06      0.00
  -10    1    1     -1.88      0.00
   -9    1    1     -1.92      0.00
   -8    1    1      5.83      0.00
   -7    1    1     -8.30      0.00
   -6    1    1     11.35      0.00
   -5    1    1    -10.70      0.00
   -4    1    1      4.31      0.00
   -3    1    1      4.33      0.00
   -2    1    1    -25.72      0.00
   -1    1    1     64.98      0.00
    0    1    1    -88.41      0.00
    1    1    1     68.31      0.00
    2    1    1    -30.18      0.00
    3    1    1      6.71      0.00
    4    1    1      3.42      0.00
    5    1    1     -8.57      0.00
    6    1    1      9.21      0.00
    7    1    1     -8.21      0.00
    8    1    1      6.27      0.00
    9    1    1     -2.31      0.00
   10    1    1      0.06      0.00
   11    1    1     -0.50      0.00
   12    1    1      0.69      0.00
  -12    2    1      0.09      0.00
  -11    2    1     -0.08      0.00
  -10    2    1     -0.15      0.00
   -9    2    1      0.61      0.00
   -8    2    1     -1.64      0.00
   -7    2    1      2.26      0.00
   -6    2    1     -1.53      0.00
   -5    2    1      2.43      0.00
   -4    2    1     -6.97      0.00
   -3    2    1      7.53      0.00
   -2    2    1      2.82      0.00
   -1    2    1    -14.04      0.00
    0    2    1     13.13      0.00
    1    2    1     -6.09      0.00
    2    2    1      4.92      0.00
    3    2    1     -6.52      0.00
    4    2    1      2.91      0.00
    5    2    1      2.76      0.00
    6    2    1     -3.47      0.00
    7    2    1     -0.19      0.00
    8    2    1      2.98      0.00
    9    2    1     -2.90      0.00
   10    2    1      1.92      0.00
   11    2    1     -1.24      0.00
   12    2    1      0.00      0.00
  -12    3    1      0.74      0.00
  -11    3    1     -0.96      0.00
  -10    3    1      0.34      0.00
   -9    3    1     -2.11      0.00
   -8    3    1      3.05      0.00
   -7    3    1     -1.27      0.00
   -6    3    1      1.63      0.00
   -5    3    1     -2.45      0.00
   -4    3    1     -0.50      0.00
   -3    3    1      2.31      0.00
   -2    3    1     -3.82      0.00
   -1    3    1     11.71      0.00
    0    3    1    -17.59      0.00
    1    3    1     13.69      0.00
    2    3    1    -10.15      0.00
    3    3    1      9.64      0.00
    4    3    1     -3.60      0.00
    5    3    1     -3.16      0.00
    6    3    1      3.45      0.00
    7    3    1     -3.03      0.00
    8    3    1      3.78      0.00
    9    3    1     -1.49      0.00
   10    3    1     -0.79      0.00
   11    3    1      0.27      0.00
   12    3    1     -0.32      0.00
  -12    4    1      1.19      0.00
  -11    4    1     -1.32      0.00
  -10    4    1     -0.21      0.00
   -9    4    1      2.35      0.00
   -8    4    1     -4.16      0.00
   -7    4    1      5.36      0.00
   -6    4    1     -3.79      0.00
   -5    4    1     -0.95      0.00
   -4    4    1      4.55      0.00
   -3    4    1     -6.63      0.00
   -2    4    1     10.71      0.00
   -1    4    1    -12.03      0.00
    0    4    1      4.85      0.00
    1    4    1      3.33      0.00
    2    4    1     -4.59      0.00
    3    4    1      3.15      0.00
    4    4    1     -2.76      0.00
    5    4    1      0.78      0.00
    6    4    1      2.38      0.00
    7    4    1     -3.76      0.00
    8    4    1      3.27      0.00
    9    4    1     -1.68      0.00
   10    4    1     -0.17      0.00
   11    4    1      0.86      0.00
   12    4    1     -0.50      0.00
  -12    5    1      1.42      0.00
  -11    5    1     -0.50      0.00
  -10    5    1     -1.61      0.00
   -9    5    1      0.25      0.00
   -8    5    1      2.20      0.00
   -7    5    1     -2.50      0.00
   -6    5    1      3.97      0.00
   -5    5    1     -5.34      0.00
   -4    5    1      2.49      0.00
   -3    5    1     -0.66      0.00
   -2    5    1      3.10      0.00
   -1    5    1     -4.78      0.00
    0    5    1      6.18      0.00
    1    5    1     -8.14      0.00
    2    5    1      5.19      0.00
    3    5    1     -1.10      0.00
    4    5    1      3.27      0.00
    5    5    1     -4.98      0.00
    6    5    1      1.27      0.00
    7    5    1      0.50      0.00
    8    5    1      0.58      0.00
    9    5    1      0.62      0.00
   10    5    1     -1.13      0.00
   11    5    1     -1.48      0.00
   12    5    1      2.58      0.00
  -12    6    1     -1.98      0.00
  -11    6    1      0.92      0.00
  -10    6    1     -0.40      0.00
   -9    6    1     -0.01      0.00
   -8    6    1      1.37      0.00
   -7    6    1     -1.58      0.00
   -6    6    1      0.85      0.00
   -5    6    1     -2.17      0.00
   -4    6    1      3.72      0.00
   -3    6    1     -3.13      0.00
   -2    6    1      2.71      0.00
   -1    6    1     -1.86      0.00
    0    6    1     -1.31      0.00
    1    6    1      2.71      0.00
    2    6    1     -1.37      0.00
    3    6    1      2.04      0.00
    4    6    1     -3.29      0.00
    5    6    1      1.68      0.00
    6    6    1     -0.78      0.00
    7    6    1      1.85      0.00
    8    6    1     -1.03      0.00
    9    6    1     -0.79      0.00
   10    6    1      0.72      0.00
   11    6    1     -0.54      0.00
   12    6    1      1.46      0.00
  -11    7    1      0.30      0.00
  -10    7    1     -0.64      0.00
   -9    7    1     -1.73      0.00
   -8    7    1      3.86      0.00
   -7    7    1     -3.45      0.00
   -6    7    1      3.76      0.00
   -5    7    1     -4.64      0.00
   -4    7    1      3.46      0.00
   -3    7    1     -3.07      0.00
   -2    7    1      3.29      0.00
   -1    7    1     -0.13      0.00
    0    7    1     -1.33      0.00
    1    7    1     -3.53      0.00
    2    7    1      7.30      0.00
    3    7    1     -6.12      0.00
    4    7    1      4.57      0.00
    5    7    1     -2.74      0.00
    6    7    1      0.35      0.00
    7    7    1     -1.28      0.00
    8    7    1      3.52      0.00
    9    7    1     -2.72      0.00
   10    7    1      1.47      0.00
   11    7    1     -2.06      0.00
  -11    8    1      2.94      0.00
  -10    8    1     -1.86      0.00
   -9    8    1      0.10      0.00
   -8    8    1      3.25      0.00
   -7    8    1     -5.56      0.00
   -6    8    1      5.13      0.00
   -5    8    1     -3.10      0.00
   -4    8    1     -1.13      0.00
   -3    8    1      5.40      0.00
   -2    8    1     -4.15      0.00
   -1    8    1      0.33      0.00
    0    8    1     -0.13      0.00
    1    8    1     -0.05      0.00
    2    8    1      2.90      0.00
    3    8    1     -2.72      0.00
    4    8    1     -1.08      0.00
    5    8    1      3.85      0.00
    6    8    1     -5.51      0.00
    7    8    1      5.71      0.00
    8    8    1     -2.54      0.00
    9    8    1     -0.89      0.00
   10    8    1      1.65      0.00
   11    8    1     -1.93      0.00
  -11    9    1      0.64      0.00
  -10    9    1      0.37      0.00
   -9    9    1     -2.57      0.00
   -8    9    1      2.81      0.00
   -7    9    1      0.18      0.00
   -6    9    1     -2.10      0.00
   -5    9    1      1.27      0.00
   -4    9    1      0.07      0.00
   -3    9    1     -2.29      0.00
   -2    9    1      4.50      0.00
   -1    9    1     -3.78      0.00
    0    9    1      2.83      0.00
    1    9    1     -4.16      0.00
    2    9    1      3.63      0.00
    3    9    1     -0.44      0.00
    4    9    1     -1.17      0.00
    5    9    1      1.18      0.00
    6    9    1     -0.61      0.00
    7    9    1     -1.96      0.00
    8    9    1      4.27      0.00
    9    9    1     -3.06      0.00
   10    9    1      0.35      0.00
   11    9    1      1.16      0.00
  -10   10    1     -1.55      0.00
   -9   10    1      2.50      0.00
   -8   10    1     -1.44      0.00
   -7   10    1     -0.45      0.00
   -6   10    1      2.18      0.00
   -5   10    1     -4.11      0.00
   -4   10    1      3.78      0.00
   -3   10    1     -1.36      0.00
   -2   10    1      1.32      0.00
   -1   10    1     -1.55      0.00
    0   10    1     -2.21      0.00
    1   10    1      4.62      0.00
    2   10    1     -2.06      0.00
    3   10    1      0.29      0.00
    4   10    1     -1.04      0.00
    5   10    1      0.91      0.00
    6   10    1     -0.81      0.00
    7   10    1      1.62      0.00
    8   10    1     -1.44      0.00
    9   10    1      1.02      0.00
   10   10    1     -1.16      0.00
  -10   11    1     -3.11      0.00
   -9   11    1      2.93      0.00
   -8   11    1     -1.86      0.00
   -7   11    1      1.72      0.00
   -6   11    1     -1.25      0.00
   -5   11    1     -0.42      0.00
   -4   11    1      1.41      0.00
   -3   11    1     -0.96      0.00
   -2   11    1     -0.49      0.00
   -1   11    1      2.48      0.00
    0   11    1     -2.94      0.00
    1   11    1      1.12      0.00
    2   11    1      0.67      0.00
    3   11    1     -1.73      0.00
    4   11    1      2.38      0.00
    5   11    1     -1.14      0.00
    6   11    1     -1.42      0.00
    7   11    1      2.63      0.00
    8   11    1     -3.02      0.00
    9   11    1      3.86      0.00
   10   11    1     -3.71      0.00
   -9   12    1     -0.28      0.00
   -8   12    1      0.74      0.00
   -7   12    1     -1.19      0.00
   -6   12    1      0.42      0.00
   -5   12    1     -0.01      0.00
   -4   12    1     -0.15      0.00
   -3   12    1      0.66      0.00
   -2   12    1      0.11      0.00
   -1   12    1     -0.81      0.00
    0   12    1     -0.59      0.00
    1   12    1      0.77      0.00
    2   12    1      1.43      0.00
    3   12    1     -2.15      0.00
    4   12    1      1.56      0.00
    5   12    1     -1.50      0.00
    6   12    1      0.02      0.00
    7   12    1      2.24      0.00
    8   12    1     -2.21      0.00
    9   12    1      1.17      0.00
   -8   13    1     -3.10      0.00
   -7   13    1      3.30      0.00
   -6   13    1     -2.65      0.00
   -5   13    1      0.81      0.00
   -4   13    1      1.09      0.00
   -3   13    1     -1.70      0.00
   -2   13    1      0.02      0.00
   -1   13    1      3.29      0.00
    0   13    1     -4.94      0.00
    1   13    1      2.95      0.00
    2   13    1      0.41      0.00
    3   13    1     -2.02      0.00
    4   13    1      1.20      0.00
    5   13    1      1.06      0.00
    6   13    1     -3.09      0.00
    7   13    1      3.99      0.00
    8   13    1     -4.13      0.00
   -7   14    1     -2.24      0.00
   -6   14    1     -0.60      0.00
   -5   14    1      3.25      0.00
   -4   14    1     -3.87      0.00
   -3   14    1      2.83      0.00
   -2   14    1     -0.35      0.00
   -1   14    1     -1.70      0.00
    0   14    1      1.52      0.00
    1   14    1     -1.10      0.00
    2   14    1      1.63      0.00
    3   14    1     -1.66      0.00
    4   14    1      1.58      0.00
    5   14    1     -1.46      0.00
    6   14    1     -0.26      0.00
    7   14    1      1.82      0.00
   -6   15    1     -3.96      0.00
   -5   15    1      3.71      0.00
   -4   15    1     -1.73      0.00
   -3   15    1     -1.17      0.00
   -2   15    1      3.06      0.00
   -1   15    1     -2.76      0.00
    0   15    1      1.73      0.00
    1   15    1     -1.45      0.00
    2   15    1      0.82      0.00
    3   15    1      1.36      0.00
    4   15    1     -3.50      0.00
    5   15    1      3.37      0.00
    6   15    1     -1.44      0.00
   -5   16    1      2.67      0.00
   -4   16    1      0.21      0.00
   -3   16    1     -2.62      0.00
   -2   16    1      3.20      0.00
   -1   16    1     -1.82      0.00
    0   16    1     -1.06      0.00
    1   16    1      3.25      0.00
    2   16    1     -3.43      0.00
    3   16    1      2.32      0.00
    4   16    1     -0.13      0.00
    5   16    1     -2.19      0.00
   -3   17    1      0.13      0.00
   -2   17    1      0.22      0.00
   -1   17    1      0.34      0.00
    0   17    1     -0.66      0.00
    1   17    1     -0.18      0.00
    2   17    1      1.14      0.00
  -13    0    2      1.50      0.00
  -12    0    2      1.40      0.00
  -11    0    2     -4.22      0.00
  -10    0    2      3.44      0.00
   -9    0    2      1.90      0.00
   -8    0    2     -6.78      0.00
   -7    0    2     10.10      0.00
   -6    0    2    -13.66      0.00
   -5    0    2     11.81      0.00
   -4    0    2     -3.78      0.00
   -3    0    2     -4.99      0.00
   -2    0    2     26.60      0.00
   -1    0    2    -67.84      0.00
    1    0    2    -73.36      0.00
    2    0    2     32.41      0.00
    3    0    2     -5.72      0.00
    4    0    2     -4.21      0.00
    5    0    2      6.82      0.00
    6    0    2     -7.25      0.00
    7    0    2      8.24      0.00
    8    0    2     -7.08      0.00
    9    0    2      3.12      0.00
   10    0    2     -1.76      0.00
   11    0    2      2.61      0.00
   12    0    2     -1.79      0.00
  -13    1    2     -0.95      0.00
  -12    1    2      0.04      0.00
  -11    1    2      0.69      0.00
  -10    1    2     -1.02      0.00
   -9    1    2      0.97      0.00
   -8    1    2     -0.02      0.00
   -7    1    2     -1.54      0.00
   -6    1    2      2.64      0.00
   -5    1    2     -4.37      0.00
   -4    1    2      7.59      0.00
   -3    1    2     -7.10      0.00
   -2    1    2     -2.31      0.00
   -1    1    2     14.01      0.00
    0    1    2    -16.87      0.00
    1    1    2     11.53      0.00
    2    1    2     -6.73      0.00
    3    1    2      4.55      0.00
    4    1    2     -1.23      0.00
    5    1    2     -3.00      0.00
    6    1    2      3.99      0.00
    7    1    2     -0.98      0.00
    8    1    2     -2.15      0.00
    9    1    2      2.65      0.00
   10    1    2     -1.78      0.00
   11    1    2      1.05      0.00
   12    1    2      0.09      0.00
  -13    2    2      0.15      0.00
  -12    2    2     -0.25      0.00
  -11    2    2     -0.71      0.00
  -10    2    2      0.75      0.00
   -9    2    2      2.10      0.00
   -8    2    2     -3.82      0.00
   -7    2    2      3.57      0.00
   -6    2    2     -5.30      0.00
   -5    2    2      5.70      0.00
   -4    2    2     -2.46      0.00
   -3    2    2     -0.45      0.00
   -2    2    2     10.81      0.00
   -1    2    2    -34.73      0.00
    0    2    2     50.28      0.00
    1    2    2    -40.59      0.00
    2    2    2     22.68      0.00
    3    2    2    -11.43      0.00
    4    2    2      2.24      0.00
    5    2    2      4.64      0.00
    6    2    2     -6.05      0.00
    7    2    2      6.30      0.00
    8    2    2     -5.58      0.00
    9    2    2      1.94      0.00
   10    2    2      0.30      0.00
   11    2    2      0.06      0.00
   12    2    2      0.33      0.00
  -12    3    2     -1.04      0.00
  -11    3    2      1.37      0.00
  -10    3    2     -0.14      0.00
   -9    3    2     -1.48      0.00
   -8    3    2      3.32      0.00
   -7    3    2     -5.11      0.00
   -6    3    2      4.62      0.00
   -5    3    2     -2.70      0.00
   -4    3    2      2.95      0.00
   -3    3    2     -1.03      0.00
   -2    3    2     -9.78      0.00
   -1    3    2     21.06      0.00
    0    3    2    -19.73      0.00
    1    3    2     10.36      0.00
    2    3    2     -5.05      0.00
    3    3    2      3.63      0.00
    4    3    2     -0.67      0.00
    5    3    2     -2.50      0.00
    6    3    2      2.23      0.00
    7    3    2      1.04      0.00
    8    3    2     -3.53      0.00
    9    3    2      2.93      0.00
   10    3    2     -1.20      0.00
   11    3    2      0.58      0.00
   12    3    2      0.00      0.00
  -12    4    2     -1.20      0.00
  -11    4    2      1.05      0.00
  -10    4    2      0.40      0.00
   -9    4    2      0.72      0.00
   -8    4    2     -1.94      0.00
   -7    4    2      1.21      0.00
   -6    4    2     -2.19      0.00
   -5    4    2      3.33      0.00
   -4    4    2     -1.66      0.00
   -3    4    2      1.56      0.00
   -2    4    2     -2.58      0.00
   -1    4    2      0.36      0.00
    0    4    2      0.12      0.00
    1    4    2      1.59      0.00
    2    4    2      2.78      0.00
    3    4    2     -7.13      0.00
    4    4    2      1.54      0.00
    5    4    2      4.38      0.00
    6    4    2     -2.46      0.00
    7    4    2      0.55      0.00
    8    4    2     -1.04      0.00
    9    4    2     -0.71      0.00
   10    4    2      1.99      0.00
   11    4    2     -0.28      0.00
   12    4    2     -0.66      0.00
  -12    5    2      0.36      0.00
  -11    5    2     -0.09      0.00
  -10    5    2      0.98      0.00
   -9    5    2     -2.01      0.00
   -8    5    2      2.21      0.00
   -7    5    2     -2.48      0.00
   -6    5    2      1.25      0.00
   -5    5    2      3.09      0.00
   -4    5    2     -6.84      0.00
   -3    5    2      7.89      0.00
   -2    5    2     -8.34      0.00
   -1    5    2      6.21      0.00
    0    5    2     -0.31      0.00
    1    5    2     -2.86      0.00
    2    5    2      1.47      0.00
    3    5    2     -1.28      0.00
    4    5    2      2.01      0.00
    5    5    2     -0.17      0.00
    6    5    2     -1.41      0.00
    7    5    2      0.82      0.00
    8    5    2     -0.70      0.00
    9    5    2      0.92      0.00
   10    5    2     -0.17      0.00
   11    5    2     -0.01      0.00
   12    5    2     -0.87      0.00
  -12    6    2     -0.07      0.00
  -11    6    2     -1.40      0.00
  -10    6    2      2.49      0.00
   -9    6    2      0.13      0.00
   -8    6    2     -3.76      0.00
   -7    6    2      5.56      0.00
   -6    6    2     -7.25      0.00
   -5    6    2      6.91      0.00
   -4    6    2     -2.70      0.00
   -3    6    2     -0.03      0.00
   -2    6    2      0.24      0.00
   -1    6    2     -1.43      0.00
    0    6    2     -0.48      0.00
    1    6    2      6.49      0.00
    2    6    2     -8.31      0.00
    3    6    2      6.27      0.00
    4    6    2     -6.07      0.00
    5    6    2      3.98      0.00
    6    6    2      0.86      0.00
    7    6    2     -1.50      0.00
    8    6    2     -0.87      0.00
    9    6    2      0.82      0.00
   10    6    2     -0.84      0.00
   11    6    2      2.97      0.00
   12    6    2     -3.65      0.00
  -12    7    2      3.55      0.00
  -11    7    2     -2.47      0.00
  -10    7    2      0.68      0.00
   -9    7    2      1.33      0.00
   -8    7    2     -3.68      0.00
   -7    7    2      4.25      0.00
   -6    7    2     -3.05      0.00
   -5    7    2      1.85      0.00
   -4    7    2      0.64      0.00
   -3    7    2     -3.35      0.00
   -2    7    2      2.36      0.00
   -1    7    2     -0.44      0.00
    0    7    2      1.12      0.00
    1    7    2     -0.30      0.00
    2    7    2     -2.10      0.00
    3    7    2      0.52      0.00
    4    7    2      2.80      0.00
    5    7    2     -3.42      0.00
    6    7    2      3.89      0.00
    7    7    2     -4.31      0.00
    8    7    2      1.41      0.00
    9    7    2      1.81      0.00
   10    7    2     -1.80      0.00
   11    7    2      1.11      0.00
  -11    8    2     -0.94      0.00
  -10    8    2      0.56      0.00
   -9    8    2      1.82      0.00
   -8    8    2     -2.79      0.00
   -7    8    2      1.15      0.00
   -6    8    2     -0.87      0.00
   -5    8    2      2.07      0.00
   -4    8    2     -2.39      0.00
   -3    8    2      3.44      0.00
   -2    8    2     -3.95      0.00
   -1    8    2      1.06      0.00
    0    8    2      0.07      0.00
    1    8    2      3.73      0.00
    2    8    2     -5.76      0.00
    3    8    2      3.52      0.00
    4    8    2     -1.39      0.00
    5    8    2      0.06      0.00
    6    8    2      0.18      0.00
    7    8    2      2.55      0.00
    8    8    2     -5.00      0.00
    9    8    2      3.82      0.00
   10    8    2     -1.67      0.00
   11    8    2      0.74      0.00
  -11    9    2     -2.04      0.00
  -10    9    2      2.46      0.00
   -9    9    2     -2.16      0.00
   -8    9    2     -0.08      0.00
   -7    9    2      2.38      0.00
   -6    9    2     -3.74      0.00
   -5    9    2      4.12      0.00
   -4    9    2     -1.24      0.00
   -3    9    2     -2.61      0.00
   -2    9    2      1.68      0.00
   -1    9    2      0.42      0.00
    0    9    2      1.88      0.00
    1    9    2     -3.43      0.00
    2    9    2      0.90      0.00
    3    9    2      0.19      0.00
    4    9    2      1.19      0.00
    5    9    2     -1.92      0.00
    6    9    2      2.85      0.00
    7    9    2     -3.58      0.00
    8    9    2      2.16      0.00
    9    9    2     -0.85      0.00
   10    9    2      0.93      0.00
  -10   10    2      1.19      0.00
   -9   10    2     -0.26      0.00
   -8   10    2      0.02      0.00
   -7   10    2     -1.75      0.00
   -6   10    2      2.44      0.00
   -5   10    2     -0.79      0.00
   -4   10    2     -1.15      0.00
   -3   10    2      2.57      0.00
   -2   10    2     -2.70      0.00
   -1   10    2      1.22      0.00
    0   10    2     -1.02      0.00
    1   10    2      2.48      0.00
    2   10    2     -2.00      0.00
    3   10    2      0.34      0.00
    4   10    2     -0.44      0.00
    5   10    2      0.68      0.00
    6   10    2     -0.09      0.00
    7   10    2      0.40      0.00
    8   10    2     -0.57      0.00
    9   10    2     -0.92      0.00
   10   10    2      2.38      0.00
  -10   11    2      1.08      0.00
   -9   11    2     -2.71      0.00
   -8   11    2      2.27      0.00
   -7   11    2     -0.50      0.00
   -6   11    2     -1.57      0.00
   -5   11    2      3.86      0.00
   -4   11    2     -4.14      0.00
   -3   11    2      2.44      0.00
   -2   11    2     -1.79      0.00
   -1   11    2      0.23      0.00
    0   11    2      3.87      0.00
    1   11    2     -4.75      0.00
    2   11    2      1.02      0.00
    3   11    2      1.32      0.00
    4   11    2     -1.53      0.00
    5   11    2      1.96      0.00
    6   11    2     -0.70      0.00
    7   11    2     -2.03      0.00
    8   11    2      3.14      0.00
    9   11    2     -2.95      0.00
   -9   12    2     -2.58      0.00
   -8   12    2      1.66      0.00
   -7   12    2     -1.31      0.00
   -6   12    2      1.00      0.00
   -5   12    2     -0.14      0.00
   -4   12    2     -0.41      0.00
   -3   12    2     -0.09      0.00
   -2   12    2      2.06      0.00
   -1   12    2     -4.52      0.00
    0   12    2      4.66      0.00
    1   12    2     -1.89      0.00
    2   12    2     -1.18      0.00
    3   12    2      2.90      0.00
    4   12    2     -2.73      0.00
    5   12    2      0.12      0.00
    6   12    2      3.14      0.00
    7   12    2     -4.72      0.00
    8   12    2      4.95      0.00
    9   12    2     -4.46      0.00
   -8   13    2     -2.47      0.00
   -7   13    2      1.68      0.00
   -6   13    2      0.57      0.00
   -5   13    2     -2.54      0.00
   -4   13    2      3.41      0.00
   -3   13    2     -2.65      0.00
   -2   13    2     -0.27      0.00
   -1   13    2      2.48      0.00
    0   13    2     -2.11      0.00
    1   13    2      2.24      0.00
    2   13    2     -3.19      0.00
    3   13    2      2.32      0.00
    4   13    2     -1.22      0.00
    5   13    2      1.07      0.00
    6   13    2      0.52      0.00
    7   13    2     -2.23      0.00
    8   13    2      1.20      0.00
   -7   14    2     -3.74      0.00
   -6   14    2      4.87      0.00
   -5   14    2     -3.40      0.00
   -4   14    2      0.39      0.00
   -3   14    2      2.20      0.00
   -2   14    2     -2.59      0.00
   -1   14    2      0.67      0.00
    0   14    2      1.14      0.00
    1   14    2     -1.00      0.00
    2   14    2      0.28      0.00
    3   14    2     -1.02      0.00
    4   14    2      2.76      0.00
    5   14    2     -3.44      0.00
    6   14    2      2.39      0.00
    7   14    2     -1.22      0.00
   -6   15    2      2.56      0.00
   -5   15    2     -3.94      0.00
   -4   15    2      2.62      0.00
   -3   15    2     -0.15      0.00
   -2   15    2     -2.16      0.00
   -1   15    2      2.58      0.00
    0   15    2     -0.67      0.00
    1   15    2     -0.98      0.00
    2   15    2      1.30      0.00
    3   15    2     -1.12      0.00
    4   15    2     -0.08      0.00
    5   15    2      1.54      0.00
    6   15    2     -1.35      0.00
   -5   16    2     -2.64      0.00
   -4   16    2      0.96      0.00
   -3   16    2      1.16      0.00
   -2   16    2     -2.23      0.00
   -1   16    2      1.70      0.00
    0   16    2     -0.83      0.00
    1   16    2      0.71      0.00
    2   16    2     -0.48      0.00
    3   16    2     -0.95      0.00
    4   16    2      2.32      0.00
    5   16    2     -1.54      0.00
   -3   17    2      2.10      0.00
   -2   17    2     -1.53      0.00
   -1   17    2     -0.65      0.00
    0   17    2      2.93      0.00
    1   17    2     -3.51      0.00
    2   17    2      2.30      0.00
  -13    1    3     -0.52      0.00
  -12    1    3     -1.48      0.00
  -11    1    3      3.90      0.00
  -10    1    3     -2.98      0.00
   -9    1    3     -2.17      0.00
   -8    1    3      5.90      0.00
   -7    1    3     -7.48      0.00
   -6    1    3      9.75      0.00
   -5    1    3     -7.84      0.00
   -4    1    3      1.61      0.00
   -3    1    3      3.17      0.00
   -2    1    3    -17.54      0.00
   -1    1    3     48.95      0.00
    0    1    3    -69.45      0.00
    1    1    3     56.03      0.00
    2    1    3    -27.70      0.00
    3    1    3      8.36      0.00
    4    1    3      0.52      0.00
    5    1    3     -3.28      0.00
    6    1    3      4.37      0.00
    7    1    3     -7.20      0.00
    8    1    3      7.30      0.00
    9    1    3     -3.50      0.00
   10    1    3      2.18      0.00
   11    1    3     -2.91      0.00
   12    1    3      1.36      0.00
  -13    2    3      1.34      0.00
  -12    2    3      0.93      0.00
  -11    2    3     -2.44      0.00
  -10    2    3      2.20      0.00
   -9    2    3     -1.03      0.00
   -8    2    3     -1.26      0.00
   -7    2    3      4.65      0.00
   -6    2    3     -6.80      0.00
   -5    2    3      7.81      0.00
   -4    2    3     -9.76      0.00
   -3    2    3      6.96      0.00
   -2    2    3      8.06      0.00
   -1    2    3    -26.65      0.00
    0    2    3     31.74      0.00
    1    2    3    -22.23      0.00
    2    2    3     11.23      0.00
    3    2    3     -5.27      0.00
    4    2    3      0.92      0.00
    5    2    3      3.72      0.00
    6    2    3     -5.04      0.00
    7    2    3      1.04      0.00
    8    2    3      3.63      0.00
    9    2    3     -4.01      0.00
   10    2    3      1.91      0.00
   11    2    3     -0.77      0.00
   12    2    3     -0.31      0.00
  -12    3    3      1.22      0.00
  -11    3    3     -0.62      0.00
  -10    3    3     -0.44      0.00
   -9    3    3     -0.73      0.00
   -8    3    3      1.18      0.00
   -7    3    3     -0.41      0.00
   -6    3    3      2.12      0.00
   -5    3    3     -3.92      0.00
   -4    3    3      4.03      0.00
   -3    3    3     -5.18      0.00
   -2    3    3      0.91      0.00
   -1    3    3     12.57      0.00
    0    3    3    -20.52      0.00
    1    3    3     16.97      0.00
    2    3    3    -14.54      0.00
    3    3    3     13.03      0.00
    4    3    3     -3.92      0.00
    5    3    3     -4.70      0.00
    6    3    3      5.21      0.00
    7    3    3     -3.81      0.00
    8    3    3      2.59      0.00
    9    3    3      0.68      0.00
   10    3    3     -2.45      0.00
   11    3    3      1.43      0.00
   12    3    3     -0.86      0.00
  -12    4    3      0.42      0.00
  -11    4    3     -0.27      0.00
  -10    4    3     -1.47      0.00
   -9    4    3      3.08      0.00
   -8    4    3     -3.78      0.00
   -7    4    3      4.17      0.00
   -6    4    3     -2.50      0.00
   -5    4    3     -1.35      0.00
   -4    4    3      3.40      0.00
   -3    4    3     -4.81      0.00
   -2    4    3     10.11      0.00
   -1    4    3    -14.64      0.00
    0    4    3     11.97      0.00
    1    4    3     -7.04      0.00
    2    4    3      5.39      0.00
    3    4    3     -4.18      0.00
    4    4    3      1.61      0.00
    5    4    3      0.23      0.00
    6    4    3     -0.80      0.00
    7    4    3      0.10      0.00
    8    4    3      1.38      0.00
    9    4    3     -1.53      0.00
   10    4    3      0.67      0.00
   11    4    3     -0.88      0.00
   12    4    3      1.36      0.00
  -12    5    3     -0.07      0.00
  -11    5    3      1.05      0.00
  -10    5    3     -2.01      0.00
   -9    5    3     -0.21      0.00
   -8    5    3      3.25      0.00
   -7    5    3     -5.03      0.00
   -6    5    3      6.87      0.00
   -5    5    3     -6.15      0.00
   -4    5    3      2.12      0.00
   -3    5    3     -0.16      0.00
   -2    5    3     -0.44      0.00
   -1    5    3      2.23      0.00
    0    5    3      0.42      0.00
    1    5    3     -5.43      0.00
    2    5    3      3.25      0.00
    3    5    3      0.42      0.00
    4    5    3      2.86      0.00
    5    5    3     -4.57      0.00
    6    5    3      0.04      0.00
    7    5    3      2.08      0.00
    8    5    3     -0.60      0.00
    9    5    3      0.79      0.00
   10    5    3     -0.84      0.00
   11    5    3     -1.28      0.00
   12    5    3      2.48      0.00
  -12    6    3     -2.60      0.00
  -11    6    3      2.03      0.00
  -10    6    3     -1.12      0.00
   -9    6    3      0.07      0.00
   -8    6    3      1.03      0.00
   -7    6    3     -1.09      0.00
   -6    6    3      1.48      0.00
   -5    6    3     -3.36      0.00
   -4    6    3      3.79      0.00
   -3    6    3     -2.54      0.00
   -2    6    3      2.14      0.00
   -1    6    3     -0.25      0.00
    0    6    3     -3.09      0.00
    1    6    3      1.79      0.00
    2    6    3      2.12      0.00
    3    6    3     -1.13      0.00
    4    6    3     -1.83      0.00
    5    6    3      1.55      0.00
    6    6    3     -1.22      0.00
    7    6    3      1.90      0.00
    8    6    3     -0.25      0.00
    9    6    3     -1.92      0.00
   10    6    3      1.64      0.00
   11    6    3     -0.85      0.00
  -12    7    3     -0.75      0.00
  -11    7    3      2.43      0.00
  -10    7    3     -2.63      0.00
   -9    7    3     -0.50      0.00
   -8    7    3      3.50      0.00
   -7    7    3     -4.60      0.00
   -6    7    3      5.95      0.00
   -5    7    3     -5.60      0.00
   -4    7    3      2.23      0.00
   -3    7    3     -0.27      0.00
   -2    7    3     -0.64      0.00
   -1    7    3      3.17      0.00
    0    7    3     -1.96      0.00
    1    7    3     -4.37      0.00
    2    7    3      7.66      0.00
    3    7    3     -6.38      0.00
    4    7    3      4.53      0.00
    5    7    3     -1.21      0.00
    6    7    3     -1.72      0.00
    7    7    3     -0.17      0.00
    8    7    3      3.22      0.00
    9    7    3     -2.92      0.00
   10    7    3      2.14      0.00
   11    7    3     -2.67      0.00
  -11    8    3      2.13      0.00
  -10    8    3     -0.97      0.00
   -9    8    3     -0.55      0.00
   -8    8    3      2.37      0.00
   -7    8    3     -2.83      0.00
   -6    8    3      2.41      0.00
   -5    8    3     -1.66      0.00
   -4    8    3     -1.63      0.00
   -3    8    3      4.77      0.00
   -2    8    3     -2.59      0.00
   -1    8    3     -0.53      0.00
    0    8    3     -0.50      0.00
    1    8    3      1.11      0.00
    2    8    3      0.18      0.00
    3    8    3      1.15      0.00
    4    8    3     -3.22      0.00
    5    8    3      3.02      0.00
    6    8    3     -3.26      0.00
    7    8    3      3.39      0.00
    8    8    3     -0.86      0.00
    9    8    3     -1.06      0.00
   10    8    3      0.11      0.00
   11    8    3      0.55      0.00
  -11    9    3      0.65      0.00
  -10    9    3     -1.13      0.00
   -9    9    3      0.13      0.00
   -8    9    3     -0.28      0.00
   -7    9    3      2.17      0.00
   -6    9    3     -1.97      0.00
   -5    9    3     -0.81      0.00
   -4    9    3      3.58      0.00
   -3    9    3     -5.68      0.00
   -2    9    3      5.29      0.00
   -1    9    3     -1.88      0.00
    0    9    3      0.67      0.00
    1    9    3     -2.93      0.00
    2    9    3      3.19      0.00
    3    9    3     -1.19      0.00
    4    9    3      0.66      0.00
    5    9    3     -1.01      0.00
    6    9    3      1.59      0.00
    7    9    3     -3.12      0.00
    8    9    3      3.31      0.00
    9    9    3     -1.07      0.00
   10    9    3     -0.96      0.00
  -10   10    3     -2.78      0.00
   -9   10    3      4.10      0.00
   -8   10    3     -2.69      0.00
   -7   10    3     -0.13      0.00
   -6   10    3      3.19      0.00
   -5   10    3     -5.51      0.00
   -4   10    3      4.16      0.00
   -3   10    3     -0.94      0.00
   -2   10    3      0.43      0.00
   -1   10    3      0.65      0.00
    0   10    3     -5.10      0.00
    1   10    3      6.43      0.00
    2   10    3     -2.53      0.00
    3   10    3     -0.43      0.00
    4   10    3      1.17      0.00
    5   10    3     -1.41      0.00
    6   10    3     -0.34      0.00
    7   10    3      2.94      0.00
    8   10    3     -3.75      0.00
    9   10    3      3.82      0.00
   10   10    3     -3.38      0.00
  -10   11    3     -1.63      0.00
   -9   11    3      0.98      0.00
   -8   11    3     -0.23      0.00
   -7   11    3      0.72      0.00
   -6   11    3     -1.14      0.00
   -5   11    3      0.61      0.00
   -4   11    3      0.09      0.00
   -3   11    3     -0.33      0.00
   -2   11    3     -0.75      0.00
   -1   11    3      2.27      0.00
    0   11    3     -1.26      0.00
    1   11    3     -1.51      0.00
    2   11    3      2.51      0.00
    3   11    3     -2.30      0.00
    4   11    3      2.35      0.00
    5   11    3     -1.02      0.00
    6   11    3     -1.49      0.00
    7   11    3      2.87      0.00
    8   11    3     -3.22      0.00
    9   11    3      3.34      0.00
   -9   12    3      0.08      0.00
   -8   12    3     -0.29      0.00
   -7   12    3      0.13      0.00
   -6   12    3      0.24      0.00
   -5   12    3     -0.92      0.00
   -4   12    3      0.66      0.00
   -3   12    3     -0.39      0.00
   -2   12    3      1.77      0.00
   -1   12    3     -1.56      0.00
    0   12    3     -1.12      0.00
    1   12    3      0.96      0.00
    2   12    3      1.91      0.00
    3   12    3     -2.42      0.00
    4   12    3      1.66      0.00
    5   12    3     -1.66      0.00
    6   12    3      0.07      0.00
    7   12    3      2.37      0.00
    8   12    3     -2.61      0.00
    9   12    3      1.53      0.00
   -8   13    3     -0.15      0.00
   -7   13    3      1.71      0.00
   -6   13    3     -3.14      0.00
   -5   13    3      2.85      0.00
   -4   13    3     -1.38      0.00
   -3   13    3      0.17      0.00
   -2   13    3     -0.53      0.00
   -1   13    3      2.09      0.00
    0   13    3     -2.54      0.00
    1   13    3      1.12      0.00
    2   13    3      0.43      0.00
    3   13    3     -0.60      0.00
    4   13    3     -0.89      0.00
    5   13    3      3.06      0.00
    6   13    3     -4.01      0.00
    7   13    3      3.51      0.00
    8   13    3     -2.85      0.00
   -7   14    3     -0.63      0.00
   -6   14    3     -2.84      0.00
   -5   14    3      4.83      0.00
   -4   14    3     -4.49      0.00
   -3   14    3      1.91      0.00
   -2   14    3      2.23      0.00
   -1   14    3     -4.48      0.00
    0   14    3      3.50      0.00
    1   14    3     -2.28      0.00
    2   14    3      1.35      0.00
    3   14    3      0.32      0.00
    4   14    3     -0.57      0.00
    5   14    3     -0.64      0.00
    6   14    3      0.54      0.00
    7   14    3     -0.18      0.00
   -6   15    3     -5.71      0.00
   -5   15    3      3.98      0.00
   -4   15    3      0.02      0.00
   -3   15    3     -3.30      0.00
   -2   15    3      3.81      0.00
   -1   15    3     -1.89      0.00
    0   15    3     -0.21      0.00
    1   15    3      0.99      0.00
    2   15    3     -1.23      0.00
    3   15    3      2.39      0.00
    4   15    3     -3.71      0.00
    5   15    3      2.84      0.00
    6   15    3      0.07      0.00
   -5   16    3      3.11      0.00
   -4   16    3     -0.99      0.00
   -3   16    3     -1.43      0.00
   -2   16    3      1.98      0.00
   -1   16    3     -0.06      0.00
    0   16    3     -2.70      0.00
    1   16    3      3.55      0.00
    2   16    3     -2.37      0.00
    3   16    3      0.54      0.00
    4   16    3      1.46      0.00
   -3   17    3      0.74      0.00
   -2   17    3     -0.63      0.00
   -1   17    3      0.88      0.00
    0   17    3     -0.62      0.00
    1   17    3     -0.60      0.00
    2   17    3      1.78      0.00
  -13    0    4     -0.30      0.00
  -12    0    4      2.84      0.00
  -11    0    4     -5.43      0.00
  -10    0    4      3.58      0.00
   -9    0    4      3.00      0.00
   -8    0    4     -7.44      0.00
   -7    0    4      8.74      0.00
   -6    0    4     -9.51      0.00
   -5    0    4      5.14      0.00
   -4    0    4      2.60      0.00
   -3    0    4     -6.48      0.00
   -2    0    4     17.68      0.00
   -1    0    4    -44.72      0.00
    0    0    4     62.78      0.00
    1    0    4    -50.93      0.00
    2    0    4     25.07      0.00
    3    0    4     -6.59      0.00
    4    0    4     -0.30      0.00
    5    0    4     -0.26      0.00
    6    0    4     -0.66      0.00
    7    0    4      6.62      0.00
    8    0    4     -8.93      0.00
    9    0    4      5.54      0.00
   10    0    4     -4.53      0.00
   11    0    4      5.20      0.00
   12    0    4     -2.46      0.00
  -13    1    4     -0.97      0.00
  -12    1    4     -1.11      0.00
  -11    1    4      2.75      0.00
  -10    1    4     -2.80      0.00
   -9    1    4      1.67      0.00
   -8    1    4      0.55      0.00
   -7    1    4     -3.76      0.00
   -6    1    4      6.24      0.00
   -5    1    4     -7.33      0.00
   -4    1    4      7.85      0.00
   -3    1    4     -4.92      0.00
   -2    1    4     -5.66      0.00
   -1    1    4     19.10      0.00
    0    1    4    -24.17      0.00
    1    1    4     17.80      0.00
    2    1    4     -8.03      0.00
    3    1    4      2.24      0.00
    4    1    4      0.01      0.00
    5    1    4     -1.95      0.00
    6    1    4      2.91      0.00
    7    1    4     -0.70      0.00
    8    1    4     -2.46      0.00
    9    1    4      2.72      0.00
   10    1    4     -0.85      0.00
   11    1    4     -0.29      0.00
   12    1    4      0.85      0.00
  -13    2    4      0.29      0.00
  -12    2    4      0.17      0.00
  -11    2    4     -2.06      0.00
  -10    2    4      2.34      0.00
   -9    2    4      0.59      0.00
   -8    2    4     -2.35      0.00
   -7    2    4      2.80      0.00
   -6    2    4     -4.89      0.00
   -5    2    4      5.06      0.00
   -4    2    4     -3.49      0.00
   -3    2    4      3.70      0.00
   -2    2    4      4.67      0.00
   -1    2    4    -26.40      0.00
    0    2    4     40.14      0.00
    1    2    4    -33.51      0.00
    2    2    4     21.20      0.00
    3    2    4    -11.89      0.00
    4    2    4      2.61      0.00
    5    2    4      3.14      0.00
    6    2    4     -4.38      0.00
    7    2    4      5.67      0.00
    8    2    4     -4.81      0.00
    9    2    4      0.90      0.00
   10    2    4      0.39      0.00
   11    2    4      0.65      0.00
   12    2    4     -0.03      0.00
  -12    3    4     -1.06      0.00
  -11    3    4      2.03      0.00
  -10    3    4     -0.72      0.00
   -9    3    4     -1.20      0.00
   -8    3    4      3.01      0.00
   -7    3    4     -5.20      0.00
   -6    3    4      5.85      0.00
   -5    3    4     -4.77      0.00
   -4    3    4      4.73      0.00
   -3    3    4     -1.98      0.00
   -2    3    4     -9.99      0.00
   -1    3    4     24.63      0.00
    0    3    4    -28.63      0.00
    1    3    4     21.46      0.00
    2    3    4    -12.55      0.00
    3    3    4      6.86      0.00
    4    3    4     -3.00      0.00
    5    3    4     -1.03      0.00
    6    3    4      3.65      0.00
    7    3    4     -1.81      0.00
    8    3    4     -2.15      0.00
    9    3    4      2.88      0.00
   10    3    4     -1.16      0.00
   11    3    4      0.83      0.00
   12    3    4     -0.89      0.00
  -12    4    4     -0.52      0.00
  -11    4    4     -0.50      0.00
  -10    4    4      1.65      0.00
   -9    4    4     -0.45      0.00
   -8    4    4     -1.02      0.00
   -7    4    4      2.35      0.00
   -6    4    4     -5.09      0.00
   -5    4    4      6.13      0.00
   -4    4    4     -5.31      0.00
   -3    4    4      5.78      0.00
   -2    4    4     -2.11      0.00
   -1    4    4     -6.88      0.00
    0    4    4      9.12      0.00
    1    4    4     -5.08      0.00
    2    4    4      6.89      0.00
    3    4    4     -8.72      0.00
    4    4    4      1.06      0.00
    5    4    4      5.62      0.00
    6    4    4     -3.54      0.00
    7    4    4      0.34      0.00
    8    4    4      0.79      0.00
    9    4    4     -2.49      0.00
   10    4    4      2.98      0.00
   11    4    4     -1.33      0.00
   12    4    4     -0.11      0.00
  -12    5    4      1.78      0.00
  -11    5    4     -2.30      0.00
  -10    5    4      2.89      0.00
   -9    5    4     -2.76      0.00
   -8    5    4      1.79      0.00
   -7    5    4     -0.81      0.00
   -6    5    4     -1.54      0.00
   -5    5    4      4.91      0.00
   -4    5    4     -5.52      0.00
   -3    5    4      4.30      0.00
   -2    5    4     -4.66      0.00
   -1    5    4      3.71      0.00
    0    5    4     -0.89      0.00
    1    5    4      2.38      0.00
    2    5    4     -6.78      0.00
    3    5    4      6.39      0.00
    4    5    4     -2.47      0.00
    5    5    4      0.08      0.00
    6    5    4      1.38      0.00
    7    5    4     -1.96      0.00
    8    5    4      0.21      0.00
    9    5    4      1.58      0.00
   10    5    4     -1.76      0.00
   11    5    4      1.94      0.00
  -12    6    4      1.41      0.00
  -11    6    4     -3.00      0.00
  -10    6    4      2.84      0.00
   -9    6    4      0.77      0.00
   -8    6    4     -4.55      0.00
   -7    6    4      6.92      0.00
   -6    6    4     -8.61      0.00
   -5    6    4      6.45      0.00
   -4    6    4     -0.73      0.00
   -3    6    4     -2.51      0.00
   -2    6    4      3.94      0.00
   -1    6    4     -5.62      0.00
    0    6    4      2.11      0.00
    1    6    4      4.61      0.00
    2    6    4     -5.48      0.00
    3    6    4      3.42      0.00
    4    6    4     -3.87      0.00
    5    6    4      1.91      0.00
    6    6    4      2.35      0.00
    7    6    4     -1.93      0.00
    8    6    4     -1.14      0.00
    9    6    4      1.58      0.00
   10    6    4     -1.36      0.00
   11    6    4      2.37      0.00
  -12    7    4      2.90      0.00
  -11    7    4     -1.98      0.00
  -10    7    4      0.32      0.00
   -9    7    4      1.34      0.00
   -8    7    4     -2.05      0.00
   -7    7    4      1.09      0.00
   -6    7    4     -0.72      0.00
   -5    7    4      1.53      0.00
   -4    7    4     -0.22      0.00
   -3    7    4     -1.65      0.00
   -2    7    4      0.44      0.00
   -1    7    4      0.04      0.00
    0    7    4      1.88      0.00
    1    7    4     -0.70      0.00
    2    7    4     -1.75      0.00
    3    7    4     -0.52      0.00
    4    7    4      3.41      0.00
    5    7    4     -2.48      0.00
    6    7    4      1.64      0.00
    7    7    4     -1.52      0.00
    8    7    4     -0.76      0.00
    9    7    4      2.52      0.00
   10    7    4     -1.17      0.00
   11    7    4     -0.48      0.00
  -11    8    4     -1.85      0.00
  -10    8    4      2.77      0.00
   -9    8    4     -1.06      0.00
   -8    8    4     -0.16      0.00
   -7    8    4      0.09      0.00
   -6    8    4     -1.65      0.00
   -5    8    4      3.68      0.00
   -4    8    4     -4.20      0.00
   -3    8    4      4.53      0.00
   -2    8    4     -3.03      0.00
   -1    8    4     -1.04      0.00
    0    8    4      1.64      0.00
    1    8    4      2.34      0.00
    2    8    4     -4.44      0.00
    3    8    4      3.64      0.00
    4    8    4     -2.65      0.00
    5    8    4      1.04      0.00
    6    8    4     -0.58      0.00
    7    8    4      2.90      0.00
    8    8    4     -3.89      0.00
    9    8    4      1.80      0.00
   10    8    4     -0.23      0.00
   11    8    4      0.22      0.00
  -11    9    4     -0.99      0.00
  -10    9    4      1.76      0.00
   -9    9    4     -1.98      0.00
   -8    9    4      0.65      0.00
   -7    9    4      0.78      0.00
   -6    9    4     -2.30      0.00
   -5    9    4      3.22      0.00
   -4    9    4     -0.71      0.00
   -3    9    4     -2.31      0.00
   -2    9    4      0.94      0.00
   -1    9    4      0.25      0.00
    0    9    4      2.75      0.00
    1    9    4     -4.37      0.00
    2    9    4      2.72      0.00
    3    9    4     -1.90      0.00
    4    9    4      1.28      0.00
    5    9    4     -0.09      0.00
    6    9    4      1.13      0.00
    7    9    4     -2.72      0.00
    8    9    4      2.23      0.00
    9    9    4     -2.13      0.00
   10    9    4      2.95      0.00
  -10   10    4      1.43      0.00
   -9   10    4     -1.15      0.00
   -8   10    4      1.28      0.00
   -7   10    4     -2.31      0.00
   -6   10    4      1.86      0.00
   -5   10    4      0.46      0.00
   -4   10    4     -3.10      0.00
   -3   10    4      4.70      0.00
   -2   10    4     -3.28      0.00
   -1   10    4      0.07      0.00
    0   10    4     -0.06      0.00
    1   10    4      2.73      0.00
    2   10    4     -3.18      0.00
    3   10    4      2.10      0.00
    4   10    4     -2.26      0.00
    5   10    4      2.33      0.00
    6   10    4     -1.51      0.00
    7   10    4      0.68      0.00
    8   10    4      0.67      0.00
    9   10    4     -2.18      0.00
   10   10    4      2.51      0.00
  -10   11    4      1.60      0.00
   -9   11    4     -2.82      0.00
   -8   11    4      2.12      0.00
   -7   11    4     -0.08      0.00
   -6   11    4     -2.52      0.00
   -5   11    4      4.34      0.00
   -4   11    4     -3.05      0.00
   -3   11    4      0.91      0.00
   -2   11    4     -0.97      0.00
   -1   11    4     -0.62      0.00
    0   11    4      4.83      0.00
    1   11    4     -4.86      0.00
    2   11    4      0.43      0.00
    3   11    4      2.09      0.00
    4   11    4     -2.29      0.00
    5   11    4      1.84      0.00
    6   11    4      0.58      0.00
    7   11    4     -3.46      0.00
    8   11    4      4.28      0.00
    9   11    4     -3.91      0.00
   -9   12    4      0.99      0.00
   -8   12    4     -1.77      0.00
   -7   12    4      0.42      0.00
   -6   12    4      1.60      0.00
   -5   12    4     -2.82      0.00
   -4   12    4      2.95      0.00
   -3   12    4     -2.43      0.00
   -2   12    4      2.40      0.00
   -1   12    4     -2.38      0.00
    0   12    4      0.54      0.00
    1   12    4      1.93      0.00
    2   12    4     -2.54      0.00
    3   12    4      1.72      0.00
    4   12    4     -0.31      0.00
    5   12    4     -2.03      0.00
    6   12    4      3.99      0.00
    7   12    4     -4.14      0.00
    8   12    4      3.18      0.00
   -8   13    4     -1.68      0.00
   -7   13    4     -0.81      0.00
   -6   13    4      2.95      0.00
   -5   13    4     -3.32      0.00
   -4   13    4      2.77      0.00
   -3   13    4     -0.64      0.00
   -2   13    4     -3.32      0.00
   -1   13    4      4.89      0.00
    0   13    4     -3.04      0.00
    1   13    4      2.21      0.00
    2   13    4     -2.19      0.00
    3   13    4      0.31      0.00
    4   13    4      0.73      0.00
    5   13    4      0.29      0.00
    6   13    4     -0.37      0.00
    7   13    4     -0.18      0.00
    8   13    4     -0.58      0.00
   -7   14    4     -3.04      0.00
   -6   14    4      5.70      0.00
   -5   14    4     -4.72      0.00
   -4   14    4      0.95      0.00
   -3   14    4      2.17      0.00
   -2   14    4     -2.29      0.00
   -1   14    4      0.26      0.00
    0   14    4      1.46      0.00
    1   14    4     -1.81      0.00
    2   14    4      1.61      0.00
    3   14    4     -2.15      0.00
    4   14    4      3.54      0.00
    5   14    4     -3.95      0.00
    6   14    4      2.12      0.00
    7   14    4     -0.10      0.00
   -6   15    4      3.32      0.00
   -5   15    4     -4.70      0.00
   -4   15    4      3.19      0.00
   -3   15    4     -0.01      0.00
   -2   15    4     -2.81      0.00
   -1   15    4      2.78      0.00
    0   15    4     -0.54      0.00
    1   15    4     -0.74      0.00
    2   15    4      0.95      0.00
    3   15    4     -0.88      0.00
    4   15    4     -0.53      0.00
    5   15    4      2.04      0.00
    6   15    4     -1.74      0.00
   -5   16    4     -2.37      0.00
   -4   16    4     -0.30      0.00
   -3   16    4      2.18      0.00
   -2   16    4     -1.68      0.00
   -1   16    4     -0.20      0.00
    0   16    4      1.36      0.00
    1   16    4     -0.96      0.00
    2   16    4      0.03      0.00
    3   16    4     -0.17      0.00
    4   16    4      1.07      0.00
   -2   17    4      0.04      0.00
   -1   17    4     -2.39      0.00
    0   17    4      4.20      0.00
    1   17    4     -3.38      0.00
    2   17    4      0.93      0.00
  -13    1    5      0.55      0.00
  -12    1    5     -2.27      0.00
  -11    1    5      4.50      0.00
  -10    1    5     -3.20      0.00
   -9    1    5     -2.10      0.00
   -8    1    5      5.35      0.00
   -7    1    5     -5.85      0.00
   -6    1    5      5.87      0.00
   -5    1    5     -2.02      0.00
   -4    1    5     -2.90      0.00
   -3    1    5      3.28      0.00
   -2    1    5    -10.21      0.00
   -1    1    5     30.20      0.00
    0    1    5    -43.11      0.00
    1    1    5     35.59      0.00
    2    1    5    -20.17      0.00
    3    1    5      8.07      0.00
    4    1    5     -1.46      0.00
    5    1    5      1.01      0.00
    6    1    5      0.04      0.00
    7    1    5     -5.83      0.00
    8    1    5      8.03      0.00
    9    1    5     -4.57      0.00
   10    1    5      3.45      0.00
   11    1    5     -4.21      0.00
   12    1    5      1.88      0.00
  -13    2    5      0.75      0.00
  -12    2    5      2.23      0.00
  -11    2    5     -4.32      0.00
  -10    2    5      3.50      0.00
   -9    2    5     -0.91      0.00
   -8    2    5     -2.46      0.00
   -7    2    5      6.47      0.00
   -6    2    5     -9.06      0.00
   -5    2    5      9.24      0.00
   -4    2    5     -8.47      0.00
   -3    2    5      3.80      0.00
   -2    2    5      9.87      0.00
   -1    2    5    -26.94      0.00
    0    2    5     33.73      0.00
    1    2    5    -25.77      0.00
    2    2    5     12.38      0.00
    3    2    5     -4.15      0.00
    4    2    5      1.97      0.00
    5    2    5     -0.03      0.00
    6    2    5     -2.62      0.00
    7    2    5      1.48      0.00
    8    2    5      2.37      0.00
    9    2    5     -2.85      0.00
   10    2    5      0.15      0.00
   11    2    5      1.06      0.00
   12    2    5     -0.83      0.00
  -13    3    5     -0.54      0.00
  -12    3    5      0.24      0.00
  -11    3    5      1.91      0.00
  -10    3    5     -3.28      0.00
   -9    3    5      2.01      0.00
   -8    3    5     -0.57      0.00
   -7    3    5     -1.50      0.00
   -6    3    5      5.37      0.00
   -5    3    5     -7.16      0.00
   -4    3    5      7.76      0.00
   -3    3    5     -9.20      0.00
   -2    3    5      1.88      0.00
   -1    3    5     15.06      0.00
    0    3    5    -23.18      0.00
    1    3    5     18.40      0.00
    2    3    5    -14.58      0.00
    3    3    5     11.16      0.00
    4    3    5     -1.75      0.00
    5    3    5     -5.36      0.00
    6    3    5      4.99      0.00
    7    3    5     -2.72      0.00
    8    3    5      0.09      0.00
    9    3    5      2.95      0.00
   10    3    5     -3.14      0.00
   11    3    5      1.36      0.00
   12    3    5     -0.45      0.00
  -12    4    5     -0.91      0.00
  -11    4    5      1.21      0.00
  -10    4    5     -2.35      0.00
   -9    4    5      2.98      0.00
   -8    4    5     -2.65      0.00
   -7    4    5      2.09      0.00
   -6    4    5     -0.32      0.00
   -5    4    5     -1.71      0.00
   -4    4    5      0.91      0.00
   -3    4    5     -0.47      0.00
   -2    4    5      5.49      0.00
   -1    4    5    -11.75      0.00
    0    4    5     13.60      0.00
    1    4    5    -13.38      0.00
    2    4    5     12.98      0.00
    3    4    5    -10.29      0.00
    4    4    5      5.69      0.00
    5    4    5     -0.75      0.00
    6    4    5     -3.30      0.00
    7    4    5      3.46      0.00
    8    4    5     -0.06      0.00
    9    4    5     -2.00      0.00
   10    4    5      1.86      0.00
   11    4    5     -2.33      0.00
   12    4    5      2.80      0.00
  -12    5    5     -1.27      0.00
  -11    5    5      2.63      0.00
  -10    5    5     -2.45      0.00
   -9    5    5     -0.43      0.00
   -8    5    5      3.25      0.00
   -7    5    5     -5.80      0.00
   -6    5    5      8.42      0.00
   -5    5    5     -7.16      0.00
   -4    5    5      3.16      0.00
   -3    5    5     -1.22      0.00
   -2    5    5     -2.34      0.00
   -1    5    5      7.96      0.00
    0    5    5     -6.42      0.00
    1    5    5      0.72      0.00
    2    5    5     -1.75      0.00
    3    5    5      3.72      0.00
    4    5    5      0.80      0.00
    5    5    5     -3.44      0.00
    6    5    5      0.32      0.00
    7    5    5      1.39      0.00
    8    5    5     -0.60      0.00
    9    5    5      0.75      0.00
   10    5    5     -0.91      0.00
   11    5    5      0.09      0.00
  -12    6    5     -2.85      0.00
  -11    6    5      3.01      0.00
  -10    6    5     -2.21      0.00
   -9    6    5      0.78      0.00
   -8    6    5      0.06      0.00
   -7    6    5      0.02      0.00
   -6    6    5      1.56      0.00
   -5    6    5     -4.23      0.00
   -4    6    5      3.68      0.00
   -3    6    5     -1.46      0.00
   -2    6    5      0.97      0.00
   -1    6    5      0.85      0.00
    0    6    5     -3.12      0.00
    1    6    5     -0.63      0.00
    2    6    5      6.25      0.00
    3    6    5     -4.99      0.00
    4    6    5      0.48      0.00
    5    6    5      1.02      0.00
    6    6    5     -1.32      0.00
    7    6    5      1.21      0.00
    8    6    5      0.92      0.00
    9    6    5     -2.69      0.00
   10    6    5      2.18      0.00
   11    6    5     -1.19      0.00
  -12    7    5     -0.85      0.00
  -11    7    5      2.92      0.00
  -10    7    5     -3.12      0.00
   -9    7    5      0.07      0.00
   -8    7    5      2.59      0.00
   -7    7    5     -3.85      0.00
   -6    7    5      5.29      0.00
   -5    7    5     -4.55      0.00
   -4    7    5      1.43      0.00
   -3    7    5      0.24      0.00
   -2    7    5     -1.75      0.00
   -1    7    5      4.11      0.00
    0    7    5     -2.30      0.00
    1    7    5     -2.41      0.00
    2    7    5      3.54      0.00
    3    7    5     -2.74      0.00
    4    7    5      2.49      0.00
    5    7    5     -0.17      0.00
    6    7    5     -1.57      0.00
    7    7    5     -1.08      0.00
    8    7    5      3.52      0.00
    9    7    5     -2.36      0.00
   10    7    5      1.01      0.00
   11    7    5     -1.10      0.00
  -11    8    5      0.48      0.00
  -10    8    5     -0.01      0.00
   -9    8    5     -0.36      0.00
   -8    8    5      0.32      0.00
   -7    8    5      0.68      0.00
   -6    8    5     -0.46      0.00
   -5    8    5     -0.90      0.00
   -4    8    5     -0.24      0.00
   -3    8    5      1.71      0.00
   -2    8    5      0.29      0.00
   -1    8    5     -1.27      0.00
    0    8    5     -1.20      0.00
    1    8    5      1.94      0.00
    2    8    5     -1.38      0.00
    3    8    5      3.05      0.00
    4    8    5     -3.25      0.00
    5    8    5      0.61      0.00
    6    8    5      0.13      0.00
    7    8    5      0.49      0.00
    8    8    5      0.44      0.00
    9    8    5     -0.39      0.00
   10    8    5     -1.67      0.00
  -11    9    5      1.13      0.00
  -10    9    5     -2.98      0.00
   -9    9    5      2.89      0.00
   -8    9    5     -2.65      0.00
   -7    9    5      2.62      0.00
   -6    9    5     -0.56      0.00
   -5    9    5     -2.90      0.00
   -4    9    5      5.91      0.00
   -3    9    5     -7.42      0.00
   -2    9    5      4.89      0.00
   -1    9    5      0.28      0.00
    0    9    5     -1.50      0.00
    1    9    5     -1.50      0.00
    2    9    5      3.22      0.00
    3    9    5     -3.24      0.00
    4    9    5      3.32      0.00
    5    9    5     -2.81      0.00
    6    9    5      2.57      0.00
    7    9    5     -2.78      0.00
    8    9    5      1.03      0.00
    9    9    5      1.66      0.00
   10    9    5     -2.24      0.00
  -10   10    5     -1.91      0.00
   -9   10    5      2.72      0.00
   -8   10    5     -1.38      0.00
   -7   10    5     -0.96      0.00
   -6   10    5      3.42      0.00
   -5   10    5     -4.28      0.00
   -4   10    5      1.33      0.00
   -3   10    5      1.68      0.00
   -2   10    5     -0.86      0.00
   -1   10    5      1.14      0.00
    0   10    5     -4.74      0.00
    1   10    5      5.38      0.00
    2   10    5     -2.24      0.00
    3   10    5      0.07      0.00
    4   10    5      1.03      0.00
    5   10    5     -1.10      0.00
    6   10    5     -1.51      0.00
    7   10    5      3.99      0.00
    8   10    5     -4.09      0.00
    9   10    5      3.98      0.00
   10   10    5     -3.43      0.00
  -10   11    5     -0.38      0.00
   -9   11    5     -0.92      0.00
   -8   11    5      1.14      0.00
   -7   11    5      0.22      0.00
   -6   11    5     -1.40      0.00
   -5   11    5      1.63      0.00
   -4   11    5     -0.96      0.00
   -3   11    5     -0.01      0.00
   -2   11    5     -0.37      0.00
   -1   11    5      0.97      0.00
    0   11    5      1.24      0.00
    1   11    5     -4.29      0.00
    2   11    5      4.31      0.00
    3   11    5     -2.58      0.00
    4   11    5      1.44      0.00
    5   11    5     -0.20      0.00
    6   11    5     -1.23      0.00
    7   11    5      2.08      0.00
    8   11    5     -2.37      0.00
    9   11    5      1.87      0.00
   -9   12    5     -0.57      0.00
   -8   12    5      0.14      0.00
   -7   12    5      0.76      0.00
   -6   12    5     -0.75      0.00
   -5   12    5     -0.01      0.00
   -4   12    5     -0.42      0.00
   -3   12    5      0.09      0.00
   -2   12    5      2.47      0.00
   -1   12    5     -2.55      0.00
    0   12    5     -0.52      0.00
    1   12    5      0.77      0.00
    2   12    5      1.33      0.00
    3   12    5     -1.14      0.00
    4   12    5      0.09      0.00
    5   12    5      0.08      0.00
    6   12    5     -0.98      0.00
    7   12    5      1.86      0.00
    8   12    5     -1.52      0.00
   -8   13    5      2.65      0.00
   -7   13    5      0.37      0.00
   -6   13    5     -4.18      0.00
   -5   13    5      5.47      0.00
   -4   13    5     -3.86      0.00
   -3   13    5      1.54      0.00
   -2   13    5     -0.64      0.00
   -1   13    5      0.56      0.00
    0   13    5      0.16      0.00
    1   13    5     -0.76      0.00
    2   13    5      0.16      0.00
    3   13    5      1.19      0.00
    4   13    5     -2.93      0.00
    5   13    5      4.34      0.00
    6   13    5     -3.90      0.00
    7   13    5      2.00      0.00
   -7   14    5      1.81      0.00
   -6   14    5     -5.01      0.00
   -5   14    5      5.33      0.00
   -4   14    5     -3.21      0.00
   -3   14    5     -0.61      0.00
   -2   14    5      4.70      0.00
   -1   14    5     -5.42      0.00
    0   14    5      2.99      0.00
    1   14    5     -1.31      0.00
    2   14    5      0.18      0.00
    3   14    5      1.41      0.00
    4   14    5     -0.92      0.00
    5   14    5     -1.26      0.00
    6   14    5      2.08      0.00
    7   14    5     -2.18      0.00
   -6   15    5     -5.16      0.00
   -5   15    5      3.77      0.00
   -4   15    5      0.64      0.00
   -3   15    5     -3.68      0.00
   -2   15    5      2.56      0.00
   -1   15    5      0.81      0.00
    0   15    5     -3.06      0.00
    1   15    5      3.06      0.00
    2   15    5     -1.82      0.00
    3   15    5      1.23      0.00
    4   15    5     -1.86      0.00
    5   15    5      1.74      0.00
   -5   16    5      2.93      0.00
   -4   16    5     -2.37      0.00
   -3   16    5      0.18      0.00
   -2   16    5      0.92      0.00
   -1   16    5      0.79      0.00
    0   16    5     -2.98      0.00
    1   16    5      2.68      0.00
    2   16    5     -0.79      0.00
    3   16    5     -1.28      0.00
    4   16    5      3.20      0.00
   -2   17    5     -1.17      0.00
   -1   17    5      1.31      0.00
    0   17    5     -0.58      0.00
    1   17    5     -0.85      0.00
  -13    0    6     -1.26      0.00
  -12    0    6      2.87      0.00
  -11    0    6     -4.52      0.00
  -10    0    6      2.42      0.00
   -9    0    6      3.28      0.00
   -8    0    6     -6.31      0.00
   -7    0    6      5.66      0.00
   -6    0    6     -3.18      0.00
   -5    0    6     -3.14      0.00
   -4    0    6      8.36      0.00
   -3    0    6     -6.95      0.00
   -2    0    6     10.02      0.00
   -1    0    6    -23.80      0.00
    0    0    6     32.36      0.00
    1    0    6    -26.83      0.00
    2    0    6     16.31      0.00
    3    0    6     -6.89      0.00
    4    0    6      1.94      0.00
    5    0    6     -3.54      0.00
    6    0    6      2.45      0.00
    7    0    6      5.87      0.00
    8    0    6    -10.12      0.00
    9    0    6      6.88      0.00
   10    0    6     -5.17      0.00
   11    0    6      5.41      0.00
   12    0    6     -2.48      0.00
  -13    1    6      0.08      0.00
  -12    1    6     -2.29      0.00
  -11    1    6      3.75      0.00
  -10    1    6     -2.98      0.00
   -9    1    6      0.65      0.00
   -8    1    6      2.22      0.00
   -7    1    6     -5.10      0.00
   -6    1    6      6.77      0.00
   -5    1    6     -6.42      0.00
   -4    1    6      4.68      0.00
   -3    1    6     -0.78      0.00
   -2    1    6     -7.07      0.00
   -1    1    6     16.27      0.00
    0    1    6    -20.01      0.00
    1    1    6     15.02      0.00
    2    1    6     -6.05      0.00
    3    1    6      0.87      0.00
    4    1    6     -1.15      0.00
    5    1    6      1.77      0.00
    6    1    6     -0.19      0.00
    7    1    6     -0.37      0.00
    8    1    6     -1.01      0.00
    9    1    6      0.93      0.00
   10    1    6      1.10      0.00
   11    1    6     -2.08      0.00
   12    1    6      1.49      0.00
  -13    2    6      0.18      0.00
  -12    2    6      1.31      0.00
  -11    2    6     -4.02      0.00
  -10    2    6      4.44      0.00
   -9    2    6     -1.55      0.00
   -8    2    6     -0.93      0.00
   -7    2    6      3.09      0.00
   -6    2    6     -5.45      0.00
   -5    2    6      4.40      0.00
   -4    2    6     -3.07      0.00
   -3    2    6      4.48      0.00
   -2    2    6      2.41      0.00
   -1    2    6    -19.70      0.00
    0    2    6     28.65      0.00
    1    2    6    -23.19      0.00
    2    2    6     15.48      0.00
    3    2    6     -8.50      0.00
    4    2    6      0.92      0.00
    5    2    6      2.04      0.00
    6    2    6     -2.09      0.00
    7    2    6      3.80      0.00
    8    2    6     -3.17      0.00
    9    2    6     -0.07      0.00
   10    2    6      0.18      0.00
   11    2    6      1.49      0.00
   12    2    6     -0.98      0.00
  -12    3    6     -1.03      0.00
  -11    3    6      1.96      0.00
  -10    3    6     -0.80      0.00
   -9    3    6     -1.26      0.00
   -8    3    6      3.11      0.00
   -7    3    6     -4.71      0.00
   -6    3    6      4.93      0.00
   -5    3    6     -4.14      0.00
   -4    3    6      4.19      0.00
   -3    3    6     -1.80      0.00
   -2    3    6     -7.63      0.00
   -1    3    6     19.51      0.00
    0    3    6    -24.83      0.00
    1    3    6     21.47      0.00
    2    3    6    -14.02      0.00
    3    3    6      8.20      0.00
    4    3    6     -5.65      0.00
    5    3    6      2.41      0.00
    6    3    6      2.45      0.00
    7    3    6     -3.35      0.00
    8    3    6     -0.32      0.00
    9    3    6      2.00      0.00
   10    3    6     -0.43      0.00
   11    3    6      0.03      0.00
   12    3    6     -0.93      0.00
  -12    4    6      1.13      0.00
  -11    4    6     -3.50      0.00
  -10    4    6      4.18      0.00
   -9    4    6     -2.26      0.00
   -8    4    6     -0.09      0.00
   -7    4    6      3.85      0.00
   -6    4    6     -8.69      0.00
   -5    4    6      9.73      0.00
   -4    4    6     -8.52      0.00
   -3    4    6      7.84      0.00
   -2    4    6     -0.38      0.00
   -1    4    6    -12.59      0.00
    0    4    6     15.89      0.00
    1    4    6    -10.31      0.00
    2    4    6      8.78      0.00
    3    4    6     -7.67      0.00
    4    4    6      0.28      0.00
    5    4    6      5.03      0.00
    6    4    6     -3.33      0.00
    7    4    6      0.12      0.00
    8    4    6      2.18      0.00
    9    4    6     -3.56      0.00
   10    4    6      2.94      0.00
   11    4    6     -1.59      0.00
  -12    5    6      2.87      0.00
  -11    5    6     -3.72      0.00
  -10    5    6      3.58      0.00
   -9    5    6     -2.27      0.00
   -8    5    6      0.89      0.00
   -7    5    6      0.12      0.00
   -6    5    6     -2.58      0.00
   -5    5    6      4.76      0.00
   -4    5    6     -2.75      0.00
   -3    5    6     -0.16      0.00
   -2    5    6     -0.54      0.00
   -1    5    6      1.52      0.00
    0    5    6     -2.00      0.00
    1    5    6      6.72      0.00
    2    5    6    -12.23      0.00
    3    5    6     10.99      0.00
    4    5    6     -5.06      0.00
    5    5    6     -0.13      0.00
    6    5    6      3.27      0.00
    7    5    6     -2.97      0.00
    8    5    6     -0.45      0.00
    9    5    6      2.89      0.00
   10    5    6     -3.08      0.00
   11    5    6      3.04      0.00
  -12    6    6      1.56      0.00
  -11    6    6     -3.06      0.00
  -10    6    6      2.20      0.00
   -9    6    6      1.41      0.00
   -8    6    6     -4.02      0.00
   -7    6    6      5.47      0.00
   -6    6    6     -6.74      0.00
   -5    6    6      4.75      0.00
   -4    6    6     -0.66      0.00
   -3    6    6     -1.25      0.00
   -2    6    6      3.47      0.00
   -1    6    6     -6.30      0.00
    0    6    6      3.87      0.00
    1    6    6      0.24      0.00
    2    6    6      1.08      0.00
    3    6    6     -2.55      0.00
    4    6    6      0.21      0.00
    5    6    6      0.16      0.00
    6    6    6      1.24      0.00
    7    6    6      0.46      0.00
    8    6    6     -2.62      0.00
    9    6    6      1.94      0.00
   10    6    6     -0.47      0.00
   11    6    6     -0.14      0.00
  -12    7    6      1.52      0.00
  -11    7    6     -1.14      0.00
  -10    7    6      0.59      0.00
   -9    7    6      0.00      0.00
   -8    7    6      0.57      0.00
   -7    7    6     -2.20      0.00
   -6    7    6      1.26      0.00
   -5    7    6      1.84      0.00
   -4    7    6     -2.24      0.00
   -3    7    6      1.16      0.00
   -2    7    6     -1.60      0.00
   -1    7    6      0.18      0.00
    0    7    6      2.39      0.00
    1    7    6     -0.28      0.00
    2    7    6     -2.81      0.00
    3    7    6      0.81      0.00
    4    7    6      1.45      0.00
    5    7    6     -0.04      0.00
    6    7    6     -1.12      0.00
    7    7    6      1.18      0.00
    8    7    6     -2.00      0.00
    9    7    6      1.82      0.00
   10    7    6      0.10      0.00
   11    7    6     -1.50      0.00
  -11    8    6     -1.96      0.00
  -10    8    6      3.76      0.00
   -9    8    6     -2.69      0.00
   -8    8    6      1.21      0.00
   -7    8    6     -0.15      0.00
   -6    8    6     -1.87      0.00
   -5    8    6      3.52      0.00
   -4    8    6     -4.22      0.00
   -3    8    6      4.63      0.00
   -2    8    6     -2.32      0.00
   -1    8    6     -1.86      0.00
    0    8    6      2.25      0.00
    1    8    6      0.48      0.00
    2    8    6     -1.80      0.00
    3    8    6      2.48      0.00
    4    8    6     -2.84      0.00
    5    8    6      1.24      0.00
    6    8    6     -0.77      0.00
    7    8    6      2.69      0.00
    8    8    6     -2.41      0.00
    9    8    6     -0.38      0.00
   10    8    6      1.46      0.00
  -11    9    6      0.31      0.00
  -10    9    6      0.29      0.00
   -9    9    6     -0.90      0.00
   -8    9    6      0.62      0.00
   -7    9    6     -0.12      0.00
   -6    9    6     -1.18      0.00
   -5    9    6      2.01      0.00
   -4    9    6      0.26      0.00
   -3    9    6     -2.13      0.00
   -2    9    6      0.30      0.00
   -1    9    6      0.18      0.00
    0    9    6      2.59      0.00
    1    9    6     -3.46      0.00
    2    9    6      2.61      0.00
    3    9    6     -2.65      0.00
    4    9    6      1.12      0.00
    5    9    6      1.02      0.00
    6    9    6      0.14      0.00
    7    9    6     -2.01      0.00
    8    9    6      1.83      0.00
    9    9    6     -2.21      0.00
   10    9    6      3.20      0.00
  -10   10    6      2.00      0.00
   -9   10    6     -1.63      0.00
   -8   10    6      1.49      0.00
   -7   10    6     -1.64      0.00
   -6   10    6      0.60      0.00
   -5   10    6      1.27      0.00
   -4   10    6     -3.33      0.00
   -3   10    6      4.53      0.00
   -2   10    6     -2.56      0.00
   -1   10    6     -0.62      0.00
    0   10    6     -0.13      0.00
    1   10    6      3.57      0.00
    2   10    6     -4.90      0.00
    3   10    6      4.23      0.00
    4   10    6     -3.34      0.00
    5   10    6      2.22      0.00
    6   10    6     -1.37      0.00
    7   10    6      0.32      0.00
    8   10    6      1.73      0.00
    9   10    6     -2.82      0.00
  -10   11    6      0.58      0.00
   -9   11    6     -0.40      0.00
   -8   11    6     -0.49      0.00
   -7   11    6      1.34      0.00
   -6   11    6     -2.32      0.00
   -5   11    6      2.04      0.00
   -4   11    6      1.04      0.00
   -3   11    6     -2.78      0.00
   -2   11    6      0.57      0.00
   -1   11    6     -0.05      0.00
    0   11    6      2.74      0.00
    1   11    6     -2.72      0.00
    2   11    6      0.13      0.00
    3   11    6      0.67      0.00
    4   11    6     -0.21      0.00
    5   11    6     -0.94      0.00
    6   11    6      3.24      0.00
    7   11    6     -4.09      0.00
    8   11    6      2.99      0.00
    9   11    6     -2.31      0.00
   -9   12    6      3.54      0.00
   -8   12    6     -3.71      0.00
   -7   12    6      0.52      0.00
   -6   12    6      3.28      0.00
   -5   12    6     -5.20      0.00
   -4   12    6      4.57      0.00
   -3   12    6     -2.65      0.00
   -2   12    6      1.29      0.00
   -1   12    6      0.21      0.00
    0   12    6     -2.97      0.00
    1   12    6      4.54      0.00
    2   12    6     -2.89      0.00
    3   12    6      0.06      0.00
    4   12    6      1.95      0.00
    5   12    6     -3.02      0.00
    6   12    6      2.87      0.00
    7   12    6     -1.76      0.00
    8   12    6      0.47      0.00
   -8   13    6     -0.82      0.00
   -7   13    6     -2.56      0.00
   -6   13    6      4.77      0.00
   -5   13    6     -3.91      0.00
   -4   13    6      1.85      0.00
   -3   13    6      1.31      0.00
   -2   13    6     -5.05      0.00
   -1   13    6      5.18      0.00
    0   13    6     -2.07      0.00
    1   13    6      0.67      0.00
    2   13    6     -0.40      0.00
    3   13    6     -1.09      0.00
    4   13    6      1.43      0.00
    5   13    6     -0.01      0.00
    6   13    6     -0.91      0.00
    7   13    6      1.46      0.00
   -7   14    6     -1.34      0.00
   -6   14    6      5.08      0.00
   -5   14    6     -5.41      0.00
   -4   14    6      1.72      0.00
   -3   14    6      1.64      0.00
   -2   14    6     -1.29      0.00
   -1   14    6     -1.04      0.00
    0   14    6      2.35      0.00
    1   14    6     -2.39      0.00
    2   14    6      1.95      0.00
    3   14    6     -1.70      0.00
    4   14    6      2.36      0.00
    5   14    6     -2.87      0.00
    6   14    6      1.64      0.00
   -6   15    6      3.38      0.00
   -5   15    6     -4.21      0.00
   -4   15    6      2.58      0.00
   -3   15    6      0.80      0.00
   -2   15    6     -3.35      0.00
   -1   15    6      2.30      0.00
    0   15    6      0.34      0.00
    1   15    6     -1.02      0.00
    2   15    6      0.61      0.00
    3   15    6      0.01      0.00
    4   15    6     -1.93      0.00
    5   15    6      3.26      0.00
   -5   16    6     -1.52      0.00
   -4   16    6     -0.64      0.00
   -3   16    6      1.88      0.00
   -2   16    6     -0.23      0.00
   -1   16    6     -2.48      0.00
    0   16    6      3.37      0.00
    1   16    6     -1.94      0.00
    2   16    6     -0.28      0.00
    3   16    6      1.25      0.00
    4   16    6     -0.52      0.00
   -2   17    6      0.60      0.00
   -1   17    6     -1.85      0.00
    0   17    6      2.99      0.00
    1   17    6     -1.82      0.00
  -13    1    7      0.66      0.00
  -12    1    7     -2.19      0.00
  -11    1    7      4.07      0.00
  -10    1    7     -2.98      0.00
   -9    1    7     -1.01      0.00
   -8    1    7      3.36      0.00
   -7    1    7     -3.58      0.00
   -6    1    7      2.00      0.00
   -5    1    7      3.05      0.00
   -4    1    7     -5.82      0.00
   -3    1    7      2.86      0.00
   -2    1    7     -5.57      0.00
   -1    1    7     16.99      0.00
    0    1    7    -22.52      0.00
    1    1    7     18.50      0.00
    2    1    7    -13.11      0.00
    3    1    7      6.78      0.00
    4    1    7     -1.31      0.00
    5    1    7      1.62      0.00
    6    1    7     -1.05      0.00
    7    1    7     -5.04      0.00
    8    1    7      7.68      0.00
    9    1    7     -4.46      0.00
   10    1    7      3.09      0.00
   11    1    7     -3.73      0.00
   12    1    7      2.01      0.00
  -13    2    7     -0.66      0.00
  -12    2    7      2.93      0.00
  -11    2    7     -4.09      0.00
  -10    2    7      2.49      0.00
   -9    2    7      0.85      0.00
   -8    2    7     -4.21      0.00
   -7    2    7      6.67      0.00
   -6    2    7     -7.20      0.00
   -5    2    7      5.82      0.00
   -4    2    7     -3.60      0.00
   -3    2    7     -0.87      0.00
   -2    2    7      9.50      0.00
   -1    2    7    -19.01      0.00
    0    2    7     22.90      0.00
    1    2    7    -18.24      0.00
    2    2    7      9.02      0.00
    3    2    7     -3.58      0.00
    4    2    7      4.62      0.00
    5    2    7     -5.19      0.00
    6    2    7      1.15      0.00
    7    2    7      1.80      0.00
    8    2    7     -0.47      0.00
    9    2    7     -0.11      0.00
   10    2    7     -2.08      0.00
   11    2    7      3.01      0.00
  -12    3    7     -2.01      0.00
  -11    3    7      5.49      0.00
  -10    3    7     -6.54      0.00
   -9    3    7      4.40      0.00
   -8    3    7     -1.31      0.00
   -7    3    7     -3.70      0.00
   -6    3    7      9.19      0.00
   -5    3    7    -10.01      0.00
   -4    3    7      9.03      0.00
   -3    3    7     -8.61      0.00
   -2    3    7     -0.48      0.00
   -1    3    7     16.56      0.00
    0    3    7    -22.11      0.00
    1    3    7     15.92      0.00
    2    3    7    -10.73      0.00
    3    3    7      6.21      0.00
    4    3    7      0.78      0.00
    5    3    7     -4.11      0.00
    6    3    7      2.82      0.00
    7    3    7     -0.93      0.00
    8    3    7     -1.83      0.00
    9    3    7      3.83      0.00
   10    3    7     -2.34      0.00
   11    3    7      0.19      0.00
  -12    4    7     -1.71      0.00
  -11    4    7      1.98      0.00
  -10    4    7     -2.03      0.00
   -9    4    7      1.61      0.00
   -8    4    7     -1.29      0.00
   -7    4    7      1.10      0.00
   -6    4    7      0.32      0.00
   -5    4    7     -1.18      0.00
   -4    4    7     -1.14      0.00
   -3    4    7      2.44      0.00
   -2    4    7      1.84      0.00
   -1    4    7     -7.75      0.00
    0    4    7     11.31      0.00
    1    4    7    -13.79      0.00
    2    4    7     14.33      0.00
    3    4    7    -11.34      0.00
    4    4    7      6.75      0.00
    5    4    7     -1.40      0.00
    6    4    7     -3.68      0.00
    7    4    7      4.03      0.00
    8    4    7      0.25      0.00
    9    4    7     -2.94      0.00
   10    4    7      2.47      0.00
   11    4    7     -2.19      0.00
  -12    5    7     -2.02      0.00
  -11    5    7      3.94      0.00
  -10    5    7     -3.23      0.00
   -9    5    7      0.09      0.00
   -8    5    7      2.27      0.00
   -7    5    7     -4.94      0.00
   -6    5    7      8.17      0.00
   -5    5    7     -7.79      0.00
   -4    5    7      5.27      0.00
   -3    5    7     -3.59      0.00
   -2    5    7     -2.00      0.00
   -1    5    7      9.77      0.00
    0    5    7     -9.82      0.00
    1    5    7      5.62      0.00
    2    5    7     -6.26      0.00
    3    5    7      6.46      0.00
    4    5    7     -1.53      0.00
    5    5    7     -1.76      0.00
    6    5    7      1.23      0.00
    7    5    7     -0.79      0.00
    8    5    7      0.37      0.00
    9    5    7      0.61      0.00
   10    5    7     -1.20      0.00
   11    5    7      1.71      0.00
  -12    6    7     -2.22      0.00
  -11    6    7      2.80      0.00
  -10    6    7     -2.39      0.00
   -9    6    7      1.07      0.00
   -8    6    7     -0.79      0.00
   -7    6    7      1.52      0.00
   -6    6    7      0.29      0.00
   -5    6    7     -3.41      0.00
   -4    6    7      2.85      0.00
   -3    6    7     -0.65      0.00
   -2    6    7      0.35      0.00
   -1    6    7      0.91      0.00
    0    6    7     -1.73      0.00
    1    6    7     -3.27      0.00
    2    6    7      8.94      0.00
    3    6    7     -7.42      0.00
    4    6    7      2.45      0.00
    5    6    7      0.18      0.00
    6    6    7     -0.77      0.00
    7    6    7     -0.30      0.00
    8    6    7      2.39      0.00
    9    6    7     -2.90      0.00
   10    6    7      1.88      0.00
   11    6    7     -1.10      0.00
  -12    7    7     -0.04      0.00
  -11    7    7      2.03      0.00
  -10    7    7     -2.46      0.00
   -9    7    7      0.16      0.00
   -8    7    7      1.64      0.00
   -7    7    7     -2.33      0.00
   -6    7    7      2.99      0.00
   -5    7    7     -2.25      0.00
   -4    7    7      1.06      0.00
   -3    7    7     -1.10      0.00
   -2    7    7     -0.43      0.00
   -1    7    7      2.90      0.00
    0    7    7     -1.98      0.00
    1    7    7      0.63      0.00
    2    7    7     -2.26      0.00
    3    7    7      2.35      0.00
    4    7    7     -0.41      0.00
    5    7    7      0.67      0.00
    6    7    7     -0.51      0.00
    7    7    7     -2.55      0.00
    8    7    7      3.78      0.00
    9    7    7     -1.44      0.00
   10    7    7     -0.72      0.00
  -11    8    7     -0.78      0.00
  -10    8    7      0.30      0.00
   -9    8    7      0.56      0.00
   -8    8    7     -1.65      0.00
   -7    8    7      2.78      0.00
   -6    8    7     -1.49      0.00
   -5    8    7     -1.25      0.00
   -4    8    7      1.48      0.00
   -3    8    7     -0.98      0.00
   -2    8    7      1.90      0.00
   -1    8    7     -0.49      0.00
    0    8    7     -2.35      0.00
    1    8    7      1.56      0.00
    2    8    7     -0.16      0.00
    3    8    7      1.48      0.00
    4    8    7     -0.86      0.00
    5    8    7     -2.14      0.00
    6    8    7      2.49      0.00
    7    8    7     -1.06      0.00
    8    8    7      0.47      0.00
    9    8    7      0.78      0.00
   10    8    7     -2.54      0.00
  -11    9    7      1.71      0.00
  -10    9    7     -3.85      0.00
   -9    9    7      3.61      0.00
   -8    9    7     -2.40      0.00
   -7    9    7      0.87      0.00
   -6    9    7      1.28      0.00
   -5    9    7     -3.05      0.00
   -4    9    7      4.50      0.00
   -3    9    7     -5.23      0.00
   -2    9    7      2.62      0.00
   -1    9    7      1.38      0.00
    0    9    7     -1.40      0.00
    1    9    7     -1.58      0.00
    2    9    7      3.63      0.00
    3    9    7     -4.57      0.00
    4    9    7      4.02      0.00
    5    9    7     -1.81      0.00
    6    9    7      0.91      0.00
    7    9    7     -1.06      0.00
    8    9    7     -0.90      0.00
    9    9    7      3.07      0.00
   10    9    7     -2.29      0.00
  -10   10    7      0.14      0.00
   -9   10    7     -0.36      0.00
   -8   10    7      1.21      0.00
   -7   10    7     -2.08      0.00
   -6   10    7      2.87      0.00
   -5   10    7     -1.68      0.00
   -4   10    7     -2.63      0.00
   -3   10    7      4.81      0.00
   -2   10    7     -2.14      0.00
   -1   10    7      0.65      0.00
    0   10    7     -2.26      0.00
    1   10    7      2.29      0.00
    2   10    7     -1.26      0.00
    3   10    7      1.36      0.00
    4   10    7     -0.78      0.00
    5   10    7      0.82      0.00
    6   10    7     -3.22      0.00
    7   10    7      4.16      0.00
    8   10    7     -2.52      0.00
    9   10    7      1.81      0.00
  -10   11    7      0.16      0.00
   -9   11    7     -2.09      0.00
   -8   11    7      1.93      0.00
   -7   11    7      0.29      0.00
   -6   11    7     -2.16      0.00
   -5   11    7      2.62      0.00
   -4   11    7     -1.56      0.00
   -3   11    7      0.05      0.00
   -2   11    7      0.14      0.00
   -1   11    7     -0.52      0.00
    0   11    7      3.39      0.00
    1   11    7     -6.05      0.00
    2   11    7      5.30      0.00
    3   11    7     -2.59      0.00
    4   11    7      0.31      0.00
    5   11    7      0.72      0.00
    6   11    7     -0.46      0.00
    7   11    7      0.33      0.00
    8   11    7     -0.85      0.00
    9   11    7      0.48      0.00
   -9   12    7     -1.71      0.00
   -8   12    7      1.61      0.00
   -7   12    7      0.36      0.00
   -6   12    7     -1.75      0.00
   -5   12    7      1.92      0.00
   -4   12    7     -2.46      0.00
   -3   12    7      1.32      0.00
   -2   12    7      2.12      0.00
   -1   12    7     -2.74      0.00
    0   12    7      0.14      0.00
    1   12    7      0.58      0.00
    2   12    7      0.04      0.00
    3   12    7      0.77      0.00
    4   12    7     -1.63      0.00
    5   12    7      2.04      0.00
    6   12    7     -2.39      0.00
    7   12    7      1.21      0.00
    8   12    7      0.27      0.00
   -8   13    7      3.44      0.00
   -7   13    7      0.21      0.00
   -6   13    7     -5.10      0.00
   -5   13    7      6.77      0.00
   -4   13    7     -4.15      0.00
   -3   13    7      0.76      0.00
   -2   13    7      0.29      0.00
   -1   13    7     -0.33      0.00
    0   13    7      1.09      0.00
    1   13    7     -1.11      0.00
    2   13    7     -0.39      0.00
    3   13    7      1.96      0.00
    4   13    7     -2.88      0.00
    5   13    7      2.94      0.00
    6   13    7     -1.69      0.00
    7   13    7     -0.12      0.00
   -7   14    7      3.05      0.00
   -6   14    7     -5.29      0.00
   -5   14    7      4.42      0.00
   -4   14    7     -1.25      0.00
   -3   14    7     -2.85      0.00
   -2   14    7      5.55      0.00
   -1   14    7     -3.94      0.00
    0   14    7      0.39      0.00
    1   14    7      0.80      0.00
    2   14    7     -0.79      0.00
    3   14    7      0.88      0.00
    4   14    7      0.63      0.00
    5   14    7     -2.57      0.00
    6   14    7      2.89      0.00
   -6   15    7     -2.54      0.00
   -5   15    7      2.86      0.00
   -4   15    7      0.12      0.00
   -3   15    7     -2.48      0.00
   -2   15    7      0.60      0.00
   -1   15    7      3.26      0.00
    0   15    7     -4.99      0.00
    1   15    7      3.77      0.00
    2   15    7     -1.07      0.00
    3   15    7     -0.86      0.00
    4   15    7      0.66      0.00
    5   15    7      0.34      0.00
   -4   16    7     -3.15      0.00
   -3   16    7      1.26      0.00
   -2   16    7      0.79      0.00
   -1   16    7      0.06      0.00
    0   16    7     -1.64      0.00
    1   16    7      1.09      0.00
    2   16    7      0.27      0.00
    3   16    7     -1.66      0.00
  -13    0    8     -0.45      0.00
  -12    0    8      1.56      0.00
  -11    0    8     -2.85      0.00
  -10    0    8      1.55      0.00
   -9    0    8      1.70      0.00
   -8    0    8     -2.98      0.00
   -7    0    8      1.89      0.00
   -6    0    8      1.80      0.00
   -5    0    8     -8.10      0.00
   -4    0    8      9.60      0.00
   -3    0    8     -4.37      0.00
   -2    0    8      4.53      0.00
   -1    0    8    -12.02      0.00
    0    0    8     14.84      0.00
    1    0    8    -12.89      0.00
    2    0    8     11.66      0.00
    3    0    8     -7.14      0.00
    4    0    8      1.55      0.00
    5    0    8     -1.66      0.00
    6    0    8      0.68      0.00
    7    0    8      6.22      0.00
    8    0    8     -9.43      0.00
    9    0    8      5.90      0.00
   10    0    8     -3.34      0.00
   11    0    8      3.17      0.00
  -13    1    8      1.14      0.00
  -12    1    8     -2.42      0.00
  -11    1    8      2.63      0.00
  -10    1    8     -1.07      0.00
   -9    1    8     -1.48      0.00
   -8    1    8      3.64      0.00
   -7    1    8     -4.58      0.00
   -6    1    8      4.02      0.00
   -5    1    8     -2.34      0.00
   -4    1    8      0.12      0.00
   -3    1    8      2.89      0.00
   -2    1    8     -6.68      0.00
   -1    1    8      9.80      0.00
    0    1    8    -10.51      0.00
    1    1    8      7.86      0.00
    2    1    8     -3.32      0.00
    3    1    8      1.28      0.00
    4    1    8     -3.48      0.00
    5    1    8      5.14      0.00
    6    1    8     -2.55      0.00
    7    1    8     -0.85      0.00
    8    1    8      1.57      0.00
    9    1    8     -1.55      0.00
   10    1    8      2.63      0.00
   11    1    8     -3.06      0.00
  -13    2    8     -0.02      0.00
  -12    2    8      2.64      0.00
  -11    2    8     -5.77      0.00
  -10    2    8      5.96      0.00
   -9    2    8     -3.20      0.00
   -8    2    8      0.15      0.00
   -7    2    8      3.57      0.00
   -6    2    8     -6.03      0.00
   -5    2    8      3.78      0.00
   -4    2    8     -2.06      0.00
   -3    2    8      3.15      0.00
   -2    2    8      3.02      0.00
   -1    2    8    -15.45      0.00
    0    2    8     19.24      0.00
    1    2    8    -14.17      0.00
    2    2    8      9.65      0.00
    3    2    8     -4.56      0.00
    4    2    8     -0.86      0.00
    5    2    8      1.31      0.00
    6    2    8     -0.57      0.00
    7    2    8      2.36      0.00
    8    2    8     -1.93      0.00
    9    2    8     -0.40      0.00
   10    2    8     -0.20      0.00
   11    2    8      1.91      0.00
  -12    3    8     -0.69      0.00
  -11    3    8      0.77      0.00
  -10    3    8      0.11      0.00
   -9    3    8     -1.54      0.00
   -8    3    8      3.10      0.00
   -7    3    8     -3.94      0.00
   -6    3    8      2.95      0.00
   -5    3    8     -1.64      0.00
   -4    3    8      1.68      0.00
   -3    3    8      0.02      0.00
   -2    3    8     -5.88      0.00
   -1    3    8     12.21      0.00
    0    3    8    -15.22      0.00
    1    3    8     14.47      0.00
    2    3    8    -10.71      0.00
    3    3    8      7.31      0.00
    4    3    8     -6.80      0.00
    5    3    8      5.05      0.00
    6    3    8      0.37      0.00
    7    3    8     -3.34      0.00
    8    3    8      0.98      0.00
    9    3    8      0.93      0.00
   10    3    8      0.40      0.00
   11    3    8     -1.29      0.00
  -12    4    8      3.13      0.00
  -11    4    8     -6.38      0.00
  -10    4    8      6.44      0.00
   -9    4    8     -3.56      0.00
   -8    4    8      0.26      0.00
   -7    4    8      4.94      0.00
   -6    4    8    -10.71      0.00
   -5    4    8     11.68      0.00
   -4    4    8     -9.81      0.00
   -3    4    8      7.32      0.00
   -2    4    8      1.83      0.00
   -1    4    8    -14.10      0.00
    0    4    8     16.22      0.00
    1    4    8    -10.53      0.00
    2    4    8      7.55      0.00
    3    4    8     -5.05      0.00
    4    4    8      0.05      0.00
    5    4    8      2.53      0.00
    6    4    8     -1.92      0.00
    7    4    8      0.44      0.00
    8    4    8      2.00      0.00
    9    4    8     -3.18      0.00
   10    4    8      1.90      0.00
   11    4    8     -1.07      0.00
  -12    5    8      2.59      0.00
  -11    5    8     -3.19      0.00
  -10    5    8      2.35      0.00
   -9    5    8     -0.41      0.00
   -8    5    8     -0.22      0.00
   -7    5    8     -0.50      0.00
   -6    5    8     -0.58      0.00
   -5    5    8      1.97      0.00
   -4    5    8      0.18      0.00
   -3    5    8     -2.42      0.00
   -2    5    8      0.76      0.00
   -1    5    8      1.48      0.00
    0    5    8     -3.52      0.00
    1    5    8      8.48      0.00
    2    5    8    -12.52      0.00
    3    5    8     10.32      0.00
    4    5    8     -4.55      0.00
    5    5    8     -0.62      0.00
    6    5    8      3.29      0.00
    7    5    8     -1.47      0.00
    8    5    8     -2.69      0.00
    9    5    8      4.24      0.00
   10    5    8     -3.24      0.00
   11    5    8      2.43      0.00
  -12    6    8      0.77      0.00
  -11    6    8     -2.32      0.00
  -10    6    8      1.83      0.00
   -9    6    8      0.83      0.00
   -8    6    8     -2.31      0.00
   -7    6    8      2.98      0.00
   -6    6    8     -3.89      0.00
   -5    6    8      3.26      0.00
   -4    6    8     -2.45      0.00
   -3    6    8      2.41      0.00
   -2    6    8      0.70      0.00
   -1    6    8     -4.86      0.00
    0    6    8      4.44      0.00
    1    6    8     -3.79      0.00
    2    6    8      6.86      0.00
    3    6    8     -7.13      0.00
    4    6    8      3.07      0.00
    5    6    8     -0.55      0.00
    6    6    8     -0.79      0.00
    7    6    8      3.14      0.00
    8    6    8     -3.58      0.00
    9    6    8      1.42      0.00
   10    6    8      0.98      0.00
  -11    7    8     -0.12      0.00
  -10    7    8      0.82      0.00
   -9    7    8     -1.26      0.00
   -8    7    8      2.31      0.00
   -7    7    8     -3.66      0.00
   -6    7    8      1.90      0.00
   -5    7    8      1.93      0.00
   -4    7    8     -3.08      0.00
   -3    7    8      2.51      0.00
   -2    7    8     -2.05      0.00
   -1    7    8     -0.71      0.00
    0    7    8      2.75      0.00
    1    7    8      0.98      0.00
    2    7    8     -5.02      0.00
    3    7    8      3.71      0.00
    4    7    8     -1.72      0.00
    5    7    8      2.21      0.00
    6    7    8     -2.54      0.00
    7    7    8      2.31      0.00
    8    7    8     -1.93      0.00
    9    7    8      0.36      0.00
   10    7    8      1.15      0.00
  -11    8    8     -1.62      0.00
  -10    8    8      3.46      0.00
   -9    8    8     -2.55      0.00
   -8    8    8      0.65      0.00
   -7    8    8      1.03      0.00
   -6    8    8     -2.07      0.00
   -5    8    8      1.83      0.00
   -4    8    8     -1.96      0.00
   -3    8    8      2.73      0.00
   -2    8    8     -1.09      0.00
   -1    8    8     -1.50      0.00
    0    8    8      1.20      0.00
    1    8    8     -0.28      0.00
    2    8    8      0.51      0.00
    3    8    8      0.67      0.00
    4    8    8     -1.50      0.00
    5    8    8     -0.33      0.00
    6    8    8      0.73      0.00
    7    8    8      1.30      0.00
    8    8    8     -1.03      0.00
    9    8    8     -1.37      0.00
   10    8    8      1.98      0.00
  -11    9    8      1.04      0.00
  -10    9    8     -1.00      0.00
   -9    9    8      0.38      0.00
   -8    9    8      0.11      0.00
   -7    9    8     -0.15      0.00
   -6    9    8     -1.00      0.00
   -5    9    8      1.26      0.00
   -4    9    8      1.28      0.00
   -3    9    8     -2.51      0.00
   -2    9    8      0.65      0.00
   -1    9    8     -0.60      0.00
    0    9    8      2.12      0.00
    1    9    8     -1.19      0.00
    2    9    8      0.50      0.00
    3    9    8     -1.60      0.00
    4    9    8      0.46      0.00
    5    9    8      1.38      0.00
    6    9    8      0.00      0.00
    7    9    8     -1.60      0.00
    8    9    8      1.21      0.00
    9    9    8     -1.38      0.00
  -10   10    8      2.11      0.00
   -9   10    8     -0.85      0.00
   -8   10    8      0.01      0.00
   -7   10    8      0.15      0.00
   -6   10    8     -0.40      0.00
   -5   10    8      0.53      0.00
   -4   10    8     -1.04      0.00
   -3   10    8      1.58      0.00
   -2   10    8     -0.46      0.00
   -1   10    8     -0.43      0.00
    0   10    8     -1.90      0.00
    1   10    8      5.19      0.00
    2   10    8     -6.26      0.00
    3   10    8      5.21      0.00
    4   10    8     -2.58      0.00
    5   10    8     -0.01      0.00
    6   10    8      0.32      0.00
    7   10    8     -0.16      0.00
    8   10    8      1.65      0.00
    9   10    8     -2.29      0.00
  -10   11    8     -1.13      0.00
   -9   11    8      2.63      0.00
   -8   11    8     -3.24      0.00
   -7   11    8      2.27      0.00
   -6   11    8     -1.03      0.00
   -5   11    8     -1.11      0.00
   -4   11    8      4.74      0.00
   -3   11    8     -5.32      0.00
   -2   11    8      1.42      0.00
   -1   11    8      0.83      0.00
    0   11    8      0.15      0.00
    1   11    8     -0.46      0.00
    2   11    8      0.64      0.00
    3   11    8     -1.89      0.00
    4   11    8      2.45      0.00
    5   11    8     -3.37      0.00
    6   11    8      4.79      0.00
    7   11    8     -3.29      0.00
    8   11    8      0.23      0.00
   -9   12    8      3.93      0.00
   -8   12    8     -3.48      0.00
   -7   12    8     -0.69      0.00
   -6   12    8      5.02      0.00
   -5   12    8     -6.10      0.00
   -4   12    8      3.62      0.00
   -3   12    8     -0.58      0.00
   -2   12    8     -0.63      0.00
   -1   12    8      1.67      0.00
    0   12    8     -3.84      0.00
    1   12    8      4.51      0.00
    2   12    8     -2.27      0.00
    3   12    8     -0.65      0.00
    4   12    8      2.18      0.00
    5   12    8     -1.65      0.00
    6   12    8     -0.22      0.00
    7   12    8      1.45      0.00
    8   12    8     -1.63      0.00
   -8   13    8     -0.41      0.00
   -7   13    8     -2.30      0.00
   -6   13    8      4.42      0.00
   -5   13    8     -3.61      0.00
   -4   13    8      1.14      0.00
   -3   13    8      2.27      0.00
   -2   13    8     -4.80      0.00
   -1   13    8      3.13      0.00
    0   13    8      0.50      0.00
    1   13    8     -1.51      0.00
    2   13    8      1.10      0.00
    3   13    8     -1.09      0.00
    4   13    8      0.32      0.00
    5   13    8      0.46      0.00
    6   13    8     -0.66      0.00
    7   13    8      1.56      0.00
   -7   14    8      0.09      0.00
   -6   14    8      3.45      0.00
   -5   14    8     -4.85      0.00
   -4   14    8      1.83      0.00
   -3   14    8      1.48      0.00
   -2   14    8     -0.80      0.00
   -1   14    8     -1.95      0.00
    0   14    8      3.20      0.00
    1   14    8     -2.75      0.00
    2   14    8      1.56      0.00
    3   14    8     -0.37      0.00
    4   14    8      0.11      0.00
    5   14    8     -0.46      0.00
    6   14    8      0.39      0.00
   -6   15    8      2.30      0.00
   -5   15    8     -2.74      0.00
   -4   15    8      1.67      0.00
   -3   15    8      1.24      0.00
   -2   15    8     -3.23      0.00
   -1   15    8      1.46      0.00
    0   15    8      1.16      0.00
    1   15    8     -1.19      0.00
    2   15    8      0.25      0.00
    3   15    8      0.81      0.00
    4   15    8     -2.82      0.00
   -4   16    8      0.01      0.00
   -3   16    8      0.64      0.00
   -2   16    8      0.88      0.00
   -1   16    8     -3.24      0.00
    0   16    8      3.68      0.00
    1   16    8     -1.75      0.00
    2   16    8     -0.86      0.00
    3   16    8      1.97      0.00
  -13    1    9     -0.26      0.00
  -12    1    9     -1.56      0.00
  -11    1    9      3.69      0.00
  -10    1    9     -3.30      0.00
   -9    1    9      1.09      0.00
   -8    1    9      0.43      0.00
   -7    1    9     -1.35      0.00
   -6    1    9     -0.20      0.00
   -5    1    9      4.90      0.00
   -4    1    9     -5.29      0.00
   -3    1    9      0.73      0.00
   -2    1    9     -2.83      0.00
   -1    1    9     10.79      0.00
    0    1    9    -12.76      0.00
    1    1    9     10.71      0.00
    2    1    9    -10.06      0.00
    3    1    9      5.87      0.00
    4    1    9     -0.03      0.00
    5    1    9     -0.52      0.00
    6    1    9      0.91      0.00
    7    1    9     -5.11      0.00
    8    1    9      6.26      0.00
    9    1    9     -3.11      0.00
   10    1    9      1.43      0.00
   11    1    9     -1.72      0.00
  -12    2    9      2.04      0.00
  -11    2    9     -1.32      0.00
  -10    2    9     -0.75      0.00
   -9    2    9      3.23      0.00
   -8    2    9     -4.97      0.00
   -7    2    9      4.81      0.00
   -6    2    9     -2.56      0.00
   -5    2    9      0.05      0.00
   -4    2    9      1.62      0.00
   -3    2    9     -4.17      0.00
   -2    2    9      7.87      0.00
   -1    2    9    -10.20      0.00
    0    2    9     10.31      0.00
    1    2    9     -8.69      0.00
    2    2    9      5.70      0.00
    3    2    9     -4.48      0.00
    4    2    9      7.07      0.00
    5    2    9     -7.99      0.00
    6    2    9      2.94      0.00
    7    2    9      2.65      0.00
    8    2    9     -3.42      0.00
    9    2    9      2.40      0.00
   10    2    9     -3.12      0.00
   11    2    9      3.66      0.00
  -12    3    9     -4.28      0.00
  -11    3    9      8.00      0.00
  -10    3    9     -7.99      0.00
   -9    3    9      4.85      0.00
   -8    3    9     -0.80      0.00
   -7    3    9     -5.26      0.00
   -6    3    9     10.62      0.00
   -5    3    9    -10.28      0.00
   -4    3    9      7.79      0.00
   -3    3    9     -5.28      0.00
   -2    3    9     -3.75      0.00
   -1    3    9     15.29      0.00
    0    3    9    -16.66      0.00
    1    3    9     10.48      0.00
    2    3    9     -6.03      0.00
    3    3    9      2.23      0.00
    4    3    9      1.20      0.00
    5    3    9     -1.04      0.00
    6    3    9      0.26      0.00
    7    3    9     -0.37      0.00
    8    3    9     -1.42      0.00
    9    3    9      2.61      0.00
   10    3    9     -0.63      0.00
   11    3    9     -1.04      0.00
  -12    4    9     -1.53      0.00
  -11    4    9      1.90      0.00
  -10    4    9     -1.23      0.00
   -9    4    9     -0.03      0.00
   -8    4    9     -0.18      0.00
   -7    4    9      1.49      0.00
   -6    4    9     -1.09      0.00
   -5    4    9      0.32      0.00
   -4    4    9     -1.79      0.00
   -3    4    9      2.06      0.00
   -2    4    9      1.73      0.00
   -1    4    9     -5.86      0.00
    0    4    9      8.38      0.00
    1    4    9    -10.62      0.00
    2    4    9     10.87      0.00
    3    4    9     -8.25      0.00
    4    4    9      5.13      0.00
    5    4    9     -1.40      0.00
    6    4    9     -2.49      0.00
    7    4    9      2.21      0.00
    8    4    9      1.86      0.00
    9    4    9     -3.76      0.00
   10    4    9      2.20      0.00
   11    4    9     -0.69      0.00
  -12    5    9     -2.17      0.00
  -11    5    9      4.45      0.00
  -10    5    9     -4.03      0.00
   -9    5    9      1.33      0.00
   -8    5    9      0.82      0.00
   -7    5    9     -3.55      0.00
   -6    5    9      6.91      0.00
   -5    5    9     -7.83      0.00
   -4    5    9      7.39      0.00
   -3    5    9     -5.77      0.00
   -2    5    9     -1.12      0.00
   -1    5    9      8.90      0.00
    0    5    9     -9.40      0.00
    1    5    9      7.13      0.00
    2    5    9     -7.84      0.00
    3    5    9      6.74      0.00
    4    5    9     -2.49      0.00
    5    5    9     -0.35      0.00
    6    5    9      1.93      0.00
    7    5    9     -2.84      0.00
    8    5    9      1.34      0.00
    9    5    9      0.63      0.00
   10    5    9     -1.45      0.00
   11    5    9      2.49      0.00
  -12    6    9     -0.68      0.00
  -11    6    9      1.21      0.00
  -10    6    9     -1.24      0.00
   -9    6    9      0.32      0.00
   -8    6    9     -0.67      0.00
   -7    6    9      2.40      0.00
   -6    6    9     -1.71      0.00
   -5    6    9     -0.79      0.00
   -4    6    9      0.90      0.00
   -3    6    9     -0.07      0.00
   -2    6    9      0.43      0.00
   -1    6    9      0.32      0.00
    0    6    9     -0.03      0.00
    1    6    9     -4.99      0.00
    2    6    9      9.33      0.00
    3    6    9     -7.51      0.00
    4    6    9      3.12      0.00
    5    6    9     -0.23      0.00
    6    6    9     -0.39      0.00
    7    6    9     -1.58      0.00
    8    6    9      3.51      0.00
    9    6    9     -2.60      0.00
   10    6    9      1.00      0.00
  -11    7    9      0.98      0.00
  -10    7    9     -1.97      0.00
   -9    7    9      0.74      0.00
   -8    7    9      0.71      0.00
   -7    7    9     -1.55      0.00
   -6    7    9      1.55      0.00
   -5    7    9     -0.68      0.00
   -4    7    9      1.25      0.00
   -3    7    9     -2.65      0.00
   -2    7    9      0.94      0.00
   -1    7    9      1.72      0.00
    0    7    9     -1.80      0.00
    1    7    9      3.09      0.00
    2    7    9     -6.14      0.00
    3    7    9      5.24      0.00
    4    7    9     -1.93      0.00
    5    7    9      1.05      0.00
    6    7    9     -0.02      0.00
    7    7    9     -2.60      0.00
    8    7    9      2.82      0.00
    9    7    9     -0.31      0.00
   10    7    9     -1.80      0.00
  -11    8    9     -1.34      0.00
  -10    8    9      0.42      0.00
   -9    8    9      0.93      0.00
   -8    8    9     -2.13      0.00
   -7    8    9      2.48      0.00
   -6    8    9     -0.46      0.00
   -5    8    9     -1.84      0.00
   -4    8    9      1.49      0.00
   -3    8    9     -0.91      0.00
   -2    8    9      0.87      0.00
   -1    8    9      1.62      0.00
    0    8    9     -3.18      0.00
    1    8    9     -0.28      0.00
    2    8    9      3.17      0.00
    3    8    9     -2.13      0.00
    4    8    9      2.05      0.00
    5    8    9     -3.41      0.00
    6    8    9      2.61      0.00
    7    8    9     -0.88      0.00
    8    8    9     -0.29      0.00
    9    8    9      1.67      0.00
   10    8    9     -2.18      0.00
  -11    9    9      2.08      0.00
  -10    9    9     -3.32      0.00
   -9    9    9      2.08      0.00
   -8    9    9      0.13      0.00
   -7    9    9     -2.07      0.00
   -6    9    9      2.58      0.00
   -5    9    9     -1.20      0.00
   -4    9    9      0.18      0.00
   -3    9    9     -0.20      0.00
   -2    9    9     -0.66      0.00
   -1    9    9      0.98      0.00
    0    9    9      1.22      0.00
    1    9    9     -3.35      0.00
    2    9    9      4.06      0.00
    3    9    9     -4.30      0.00
    4    9    9      2.22      0.00
    5    9    9      1.60      0.00
    6    9    9     -2.48      0.00
    7    9    9      1.04      0.00
    8    9    9     -1.42      0.00
    9    9    9      2.37      0.00
  -10   10    9      2.17      0.00
   -9   10    9     -3.16      0.00
   -8   10    9      2.99      0.00
   -7   10    9     -2.08      0.00
   -6   10    9      1.48      0.00
   -5   10    9      0.65      0.00
   -4   10    9     -4.88      0.00
   -3   10    9      5.86      0.00
   -2   10    9     -2.32      0.00
   -1   10    9      0.15      0.00
    0   10    9     -0.19      0.00
    1   10    9     -0.33      0.00
    2   10    9     -0.56      0.00
    3   10    9      2.66      0.00
    4   10    9     -2.40      0.00
    5   10    9      1.93      0.00
    6   10    9     -3.28      0.00
    7   10    9      2.62      0.00
    8   10    9      0.12      0.00
    9   10    9     -0.92      0.00
   -9   11    9     -2.47      0.00
   -8   11    9      2.37      0.00
   -7   11    9      0.32      0.00
   -6   11    9     -2.88      0.00
   -5   11    9      3.39      0.00
   -4   11    9     -1.80      0.00
   -3   11    9      0.14      0.00
   -2   11    9      0.20      0.00
   -1   11    9     -1.33      0.00
    0   11    9      4.33      0.00
    1   11    9     -6.23      0.00
    2   11    9      5.27      0.00
    3   11    9     -2.63      0.00
    4   11    9     -0.17      0.00
    5   11    9      0.99      0.00
    6   11    9      0.71      0.00
    7   11    9     -1.72      0.00
    8   11    9      0.71      0.00
   -9   12    9     -2.35      0.00
   -8   12    9      2.64      0.00
   -7   12    9     -0.39      0.00
   -6   12    9     -2.04      0.00
   -5   12    9      3.16      0.00
   -4   12    9     -3.44      0.00
   -3   12    9      1.43      0.00
   -2   12    9      1.80      0.00
   -1   12    9     -1.80      0.00
    0   12    9     -0.49      0.00
    1   12    9      1.35      0.00
    2   12    9     -1.73      0.00
    3   12    9      2.28      0.00
    4   12    9     -1.91      0.00
    5   12    9      2.21      0.00
    6   12    9     -2.69      0.00
    7   12    9      0.55      0.00
   -8   13    9      2.29      0.00
   -7   13    9      0.84      0.00
   -6   13    9     -5.13      0.00
   -5   13    9      6.08      0.00
   -4   13    9     -2.38      0.00
   -3   13    9     -1.51      0.00
   -2   13    9      1.74      0.00
   -1   13    9     -0.36      0.00
    0   13    9      0.04      0.00
    1   13    9      0.13      0.00
    2   13    9     -0.85      0.00
    3   13    9      1.24      0.00
    4   13    9     -0.86      0.00
    5   13    9     -0.36      0.00
    6   13    9      1.68      0.00
   -7   14    9      1.96      0.00
   -6   14    9     -2.94      0.00
   -5   14    9      2.38      0.00
   -4   14    9     -0.07      0.00
   -3   14    9     -3.21      0.00
   -2   14    9      4.37      0.00
   -1   14    9     -1.15      0.00
    0   14    9     -2.45      0.00
    1   14    9      2.46      0.00
    2   14    9     -0.94      0.00
    3   14    9     -0.58      0.00
    4   14    9      2.56      0.00
    5   14    9     -3.12      0.00
   -6   15    9      0.15      0.00
   -5   15    9      1.83      0.00
   -4   15    9     -0.99      0.00
   -3   15    9     -0.78      0.00
   -2   15    9     -0.35      0.00
   -1   15    9      3.28      0.00
    0   15    9     -4.46      0.00
    1   15    9      2.88      0.00
    2   15    9      0.02      0.00
    3   15    9     -1.96      0.00
    4   15    9      1.72      0.00
   -4   16    9     -3.15      0.00
   -3   16    9      1.60      0.00
   -2   16    9      1.25      0.00
   -1   16    9     -1.56      0.00
    0   16    9      0.54      0.00
    1   16    9     -0.47      0.00
    2   16    9      0.33      0.00
  -12    0   10      0.26      0.00
  -11    0   10     -2.57      0.00
  -10    0   10      2.80      0.00
   -9    0   10     -1.74      0.00
   -8    0   10      1.08      0.00
   -7    0   10     -0.74      0.00
   -6    0   10      3.19      0.00
   -5    0   10     -7.79      0.00
   -4    0   10      6.17      0.00
   -3    0   10      0.37      0.00
   -2    0   10      0.82      0.00
   -1    0   10     -8.02      0.00
    0    0   10     10.20      0.00
    1    0   10    -10.16      0.00
    2    0   10     11.25      0.00
    3    0   10     -6.85      0.00
    4    0   10     -0.40      0.00
    5    0   10      2.42      0.00
    6    0   10     -3.28      0.00
    7    0   10      6.60      0.00
    8    0   10     -6.84      0.00
    9    0   10      3.14      0.00
   10    0   10     -0.43      0.00
   11    0   10     -0.01      0.00
  -12    1   10     -1.09      0.00
  -11    1   10     -0.10      0.00
  -10    1   10      1.89      0.00
   -9    1   10     -3.38      0.00
   -8    1   10      3.74      0.00
   -7    1   10     -2.37      0.00
   -6    1   10     -0.19      0.00
   -5    1   10      2.18      0.00
   -4    1   10     -2.98      0.00
   -3    1   10      3.84      0.00
   -2    1   10     -4.71      0.00
   -1    1   10      4.32      0.00
    0    1   10     -3.35      0.00
    1    1   10      2.96      0.00
    2    1   10     -2.80      0.00
    3    1   10      3.40      0.00
    4    1   10     -5.42      0.00
    5    1   10      5.92      0.00
    6    1   10     -2.39      0.00
    7    1   10     -2.18      0.00
    8    1   10      3.78      0.00
    9    1   10     -3.11      0.00
   10    1   10      2.69      0.00
   11    1   10     -2.52      0.00
  -12    2   10      3.55      0.00
  -11    2   10     -6.71      0.00
  -10    2   10      6.38      0.00
   -9    2   10     -3.71      0.00
   -8    2   10      0.63      0.00
   -7    2   10      3.45      0.00
   -6    2   10     -5.48      0.00
   -5    2   10      2.89      0.00
   -4    2   10     -1.44      0.00
   -3    2   10      1.89      0.00
   -2    2   10      3.82      0.00
   -1    2   10    -12.10      0.00
    0    2   10     12.49      0.00
    1    2   10     -8.66      0.00
    2    2   10      6.55      0.00
    3    2   10     -2.84      0.00
    4    2   10     -0.76      0.00
    5    2   10      0.20      0.00
    6    2   10     -0.21      0.00
    7    2   10      2.46      0.00
    8    2   10     -2.06      0.00
    9    2   10      0.21      0.00
   10    2   10     -0.55      0.00
   11    2   10      1.46      0.00
  -12    3   10      0.10      0.00
  -11    3   10     -1.29      0.00
  -10    3   10      2.12      0.00
   -9    3   10     -2.25      0.00
   -8    3   10      2.70      0.00
   -7    3   10     -2.77      0.00
   -6    3   10      0.89      0.00
   -5    3   10      1.01      0.00
   -4    3   10     -1.09      0.00
   -3    3   10      2.15      0.00
   -2    3   10     -5.34      0.00
   -1    3   10      7.39      0.00
    0    3   10     -7.73      0.00
    1    3   10      7.98      0.00
    2    3   10     -7.30      0.00
    3    3   10      6.35      0.00
    4    3   10     -6.83      0.00
    5    3   10      5.57      0.00
    6    3   10     -0.62      0.00
    7    3   10     -2.78      0.00
    8    3   10      1.51      0.00
    9    3   10      0.21      0.00
   10    3   10      0.70      0.00
   11    3   10     -2.05      0.00
  -12    4   10      4.25      0.00
  -11    4   10     -7.23      0.00
  -10    4   10      6.60      0.00
   -9    4   10     -3.36      0.00
   -8    4   10     -0.10      0.00
   -7    4   10      5.00      0.00
   -6    4   10     -9.86      0.00
   -5    4   10     10.75      0.00
   -4    4   10     -9.14      0.00
   -3    4   10      5.43      0.00
   -2    4   10      3.66      0.00
   -1    4   10    -12.15      0.00
    0    4   10     11.61      0.00
    1    4   10     -7.12      0.00
    2    4   10      5.14      0.00
    3    4   10     -3.09      0.00
    4    4   10      1.03      0.00
    5    4   10     -0.80      0.00
    6    4   10     -0.37      0.00
    7    4   10      1.61      0.00
    8    4   10      0.14      0.00
    9    4   10     -1.57      0.00
   10    4   10      0.58      0.00
  -12    5   10      0.93      0.00
  -11    5   10     -1.27      0.00
  -10    5   10      0.49      0.00
   -9    5   10      1.34      0.00
   -8    5   10     -1.02      0.00
   -7    5   10     -1.76      0.00
   -6    5   10      2.80      0.00
   -5    5   10     -1.88      0.00
   -4    5   10      2.02      0.00
   -3    5   10     -1.60      0.00
   -2    5   10     -0.97      0.00
   -1    5   10      2.87      0.00
    0    5   10     -4.46      0.00
    1    5   10      7.73      0.00
    2    5   10     -9.28      0.00
    3    5   10      6.71      0.00
    4    5   10     -2.75      0.00
    5    5   10     -0.77      0.00
    6    5   10      2.19      0.00
    7    5   10      0.71      0.00
    8    5   10     -4.63      0.00
    9    5   10      4.63      0.00
   10    5   10     -2.23      0.00
  -12    6   10     -0.22      0.00
  -11    6   10     -1.52      0.00
  -10    6   10      2.23      0.00
   -9    6   10     -1.13      0.00
   -8    6   10     -0.11      0.00
   -7    6   10      1.45      0.00
   -6    6   10     -2.63      0.00
   -5    6   10      3.26      0.00
   -4    6   10     -4.97      0.00
   -3    6   10      5.60      0.00
   -2    6   10     -1.04      0.00
   -1    6   10     -4.22      0.00
    0    6   10      5.11      0.00
    1    6   10     -6.27      0.00
    2    6   10      9.02      0.00
    3    6   10     -7.47      0.00
    4    6   10      2.80      0.00
    5    6   10      0.02      0.00
    6    6   10     -2.14      0.00
    7    6   10      3.83      0.00
    8    6   10     -2.62      0.00
    9    6   10     -0.09      0.00
   10    6   10      2.10      0.00
  -11    7   10      0.92      0.00
  -10    7   10      0.21      0.00
   -9    7   10     -0.96      0.00
   -8    7   10      1.76      0.00
   -7    7   10     -2.53      0.00
   -6    7   10      1.19      0.00
   -5    7   10      1.00      0.00
   -4    7   10     -1.18      0.00
   -3    7   10      0.90      0.00
   -2    7   10     -0.46      0.00
   -1    7   10     -2.06      0.00
    0    7   10      2.34      0.00
    1    7   10      3.08      0.00
    2    7   10     -7.50      0.00
    3    7   10      6.31      0.00
    4    7   10     -3.80      0.00
    5    7   10      2.43      0.00
    6    7   10     -1.51      0.00
    7    7   10      1.51      0.00
    8    7   10     -1.08      0.00
    9    7   10     -0.79      0.00
   10    7   10      1.39      0.00
  -11    8   10     -1.39      0.00
  -10    8   10      2.64      0.00
   -9    8   10     -1.62      0.00
   -8    8   10     -0.73      0.00
   -7    8   10      2.79      0.00
   -6    8   10     -2.50      0.00
   -5    8   10      0.06      0.00
   -4    8   10      0.90      0.00
   -3    8   10     -0.12      0.00
   -2    8   10      0.56      0.00
   -1    8   10     -0.76      0.00
    0    8   10     -0.58      0.00
    1    8   10      0.09      0.00
    2    8   10      1.46      0.00
    3    8   10     -0.55      0.00
    4    8   10      0.18      0.00
    5    8   10     -2.49      0.00
    6    8   10      2.95      0.00
    7    8   10     -0.73      0.00
    8    8   10      0.03      0.00
    9    8   10     -1.04      0.00
  -10    9   10     -2.12      0.00
   -9    9   10      1.85      0.00
   -8    9   10     -0.75      0.00
   -7    9   10      0.19      0.00
   -6    9   10     -1.13      0.00
   -5    9   10      0.71      0.00
   -4    9   10      2.29      0.00
   -3    9   10     -3.28      0.00
   -2    9   10      1.66      0.00
   -1    9   10     -1.73      0.00
    0    9   10      1.61      0.00
    1    9   10      1.27      0.00
    2    9   10     -2.14      0.00
    3    9   10      0.10      0.00
    4    9   10     -0.14      0.00
    5    9   10      1.15      0.00
    6    9   10     -0.07      0.00
    7    9   10     -0.65      0.00
    8    9   10      0.06      0.00
    9    9   10     -0.16      0.00
  -10   10   10      1.49      0.00
   -9   10   10      0.80      0.00
   -8   10   10     -2.29      0.00
   -7   10   10      2.08      0.00
   -6   10   10     -0.61      0.00
   -5   10   10     -1.29      0.00
   -4   10   10      2.18      0.00
   -3   10   10     -2.15      0.00
   -2   10   10      1.81      0.00
   -1   10   10      0.45      0.00
    0   10   10     -4.39      0.00
    1   10   10      6.64      0.00
    2   10   10     -6.49      0.00
    3   10   10      4.72      0.00
    4   10   10     -0.79      0.00
    5   10   10     -2.63      0.00
    6   10   10      2.04      0.00
    7   10   10     -0.12      0.00
    8   10   10      0.37      0.00
   -9   11   10      4.33      0.00
   -8   11   10     -4.07      0.00
   -7   11   10      1.59      0.00
   -6   11   10      0.80      0.00
   -5   11   10     -3.04      0.00
   -4   11   10      5.26      0.00
   -3   11   10     -4.16      0.00
   -2   11   10      0.31      0.00
   -1   11   10      1.13      0.00
    0   11   10     -0.28      0.00
    1   11   10     -0.44      0.00
    2   11   10      2.36      0.00
    3   11   10     -4.19      0.00
    4   11   10      3.44      0.00
    5   11   10     -2.95      0.00
    6   11   10      3.33      0.00
    7   11   10     -0.86      0.00
    8   11   10     -2.50      0.00
   -9   12   10      2.64      0.00
   -8   12   10     -2.18      0.00
   -7   12   10     -1.46      0.00
   -6   12   10      5.18      0.00
   -5   12   10     -5.15      0.00
   -4   12   10      1.36      0.00
   -3   12   10      1.79      0.00
   -2   12   10     -1.77      0.00
   -1   12   10      1.31      0.00
    0   12   10     -2.16      0.00
    1   12   10      2.49      0.00
    2   12   10     -1.55      0.00
    3   12   10      0.30      0.00
    4   12   10      0.26      0.00
    5   12   10      1.12      0.00
    6   12   10     -3.45      0.00
    7   12   10      3.74      0.00
   -8   13   10     -0.39      0.00
   -7   13   10     -0.40      0.00
   -6   13   10      1.91      0.00
   -5   13   10     -2.20      0.00
   -4   13   10      0.69      0.00
   -3   13   10      2.27      0.00
   -2   13   10     -3.46      0.00
   -1   13   10      0.30      0.00
    0   13   10      3.23      0.00
    1   13   10     -3.34      0.00
    2   13   10      1.98      0.00
    3   13   10     -0.33      0.00
    4   13   10     -1.51      0.00
    5   13   10      1.21      0.00
    6   13   10      0.24      0.00
   -7   14   10      0.68      0.00
   -6   14   10      1.79      0.00
   -5   14   10     -3.53      0.00
   -4   14   10      1.50      0.00
   -3   14   10      1.47      0.00
   -2   14   10     -1.11      0.00
   -1   14   10     -1.47      0.00
    0   14   10      2.96      0.00
    1   14   10     -2.49      0.00
    2   14   10      0.85      0.00
    3   14   10      0.68      0.00
    4   14   10     -1.34      0.00
    5   14   10      1.42      0.00
   -5   15   10     -0.94      0.00
   -4   15   10      1.21      0.00
   -3   15   10      0.65      0.00
   -2   15   10     -2.26      0.00
   -1   15   10      0.73      0.00
    0   15   10      1.17      0.00
    1   15   10     -0.81      0.00
    2   15   10     -0.01      0.00
    3   15   10      0.87      0.00
    4   15   10     -2.29      0.00
   -3   16   10     -0.49      0.00
   -2   16   10      0.60      0.00
   -1   16   10     -1.61      0.00
    0   16   10      1.91      0.00
    1   16   10     -0.70      0.00
  -12    1   11     -1.26      0.00
  -11    1   11      4.51      0.00
  -10    1   11     -5.11      0.00
   -9    1   11      3.88      0.00
   -8    1   11     -2.11      0.00
   -7    1   11     -0.22      0.00
   -6    1   11     -0.21      0.00
   -5    1   11      3.49      0.00
   -4    1   11     -2.14      0.00
   -3    1   11     -2.20      0.00
   -2    1   11     -0.96      0.00
   -1    1   11      8.34      0.00
    0    1   11    -10.15      0.00
    1    1   11      9.65      0.00
    2    1   11     -9.61      0.00
    3    1   11      4.97      0.00
    4    1   11      1.09      0.00
    5    1   11     -2.56      0.00
    6    1   11      3.28      0.00
    7    1   11     -5.21      0.00
    8    1   11      4.31      0.00
    9    1   11     -1.39      0.00
   10    1   11     -0.25      0.00
   11    1   11      0.49      0.00
  -12    2   11     -0.12      0.00
  -11    2   11      2.36      0.00
  -10    2   11     -4.30      0.00
   -9    2   11      4.84      0.00
   -8    2   11     -4.11      0.00
   -7    2   11      1.71      0.00
   -6    2   11      2.15      0.00
   -5    2   11     -4.58      0.00
   -4    2   11      4.31      0.00
   -3    2   11     -4.21      0.00
   -2    2   11      5.20      0.00
   -1    2   11     -4.92      0.00
    0    2   11      4.01      0.00
    1    2   11     -4.63      0.00
    2    2   11      5.81      0.00
    3    2   11     -6.92      0.00
    4    2   11      8.32      0.00
    5    2   11     -7.20      0.00
    6    2   11      1.68      0.00
    7    2   11      3.87      0.00
    8    2   11     -4.97      0.00
    9    2   11      3.26      0.00
   10    2   11     -2.36      0.00
   11    2   11      2.53      0.00
  -12    3   11     -5.13      0.00
  -11    3   11      7.96      0.00
  -10    3   11     -6.72      0.00
   -9    3   11      3.18      0.00
   -8    3   11      0.44      0.00
   -7    3   11     -5.05      0.00
   -6    3   11      8.42      0.00
   -5    3   11     -7.66      0.00
   -4    3   11      5.67      0.00
   -3    3   11     -2.52      0.00
   -2    3   11     -5.23      0.00
   -1    3   11     11.47      0.00
    0    3   11     -9.48      0.00
    1    3   11      5.29      0.00
    2    3   11     -3.70      0.00
    3    3   11      1.87      0.00
    4    3   11     -1.27      0.00
    5    3   11      2.72      0.00
    6    3   11     -1.26      0.00
    7    3   11     -1.74      0.00
    8    3   11      1.27      0.00
    9    3   11     -0.01      0.00
   10    3   11      0.89      0.00
  -12    4   11     -0.52      0.00
  -11    4   11      1.43      0.00
  -10    4   11     -1.28      0.00
   -9    4   11     -0.21      0.00
   -8    4   11      0.01      0.00
   -7    4   11      2.19      0.00
   -6    4   11     -2.79      0.00
   -5    4   11      1.60      0.00
   -4    4   11     -0.87      0.00
   -3    4   11     -0.79      0.00
   -2    4   11      3.94      0.00
   -1    4   11     -5.66      0.00
    0    4   11      6.15      0.00
    1    4   11     -7.09      0.00
    2    4   11      6.82      0.00
    3    4   11     -5.19      0.00
    4    4   11      3.91      0.00
    5    4   11     -1.75      0.00
    6    4   11     -0.93      0.00
    7    4   11      0.29      0.00
    8    4   11      2.82      0.00
    9    4   11     -3.49      0.00
   10    4   11      1.22      0.00
  -12    5   11     -1.62      0.00
  -11    5   11      3.64      0.00
  -10    5   11     -3.83      0.00
   -9    5   11      2.25      0.00
   -8    5   11     -0.26      0.00
   -7    5   11     -2.67      0.00
   -6    5   11      5.67      0.00
   -5    5   11     -7.37      0.00
   -4    5   11      8.53      0.00
   -3    5   11     -6.54      0.00
   -2    5   11     -1.25      0.00
   -1    5   11      7.88      0.00
    0    5   11     -7.76      0.00
    1    5   11      6.65      0.00
    2    5   11     -7.17      0.00
    3    5   11      5.22      0.00
    4    5   11     -2.18      0.00
    5    5   11      0.52      0.00
    6    5   11      1.97      0.00
    7    5   11     -3.60      0.00
    8    5   11      1.52      0.00
    9    5   11      0.96      0.00
   10    5   11     -1.60      0.00
  -12    6   11      1.10      0.00
  -11    6   11     -0.77      0.00
  -10    6   11      0.30      0.00
   -9    6   11     -0.83      0.00
   -8    6   11      0.36      0.00
   -7    6   11      1.92      0.00
   -6    6   11     -3.01      0.00
   -5    6   11      2.31      0.00
   -4    6   11     -1.72      0.00
   -3    6   11      0.53      0.00
   -2    6   11      0.75      0.00
   -1    6   11     -0.22      0.00
    0    6   11      1.14      0.00
    1    6   11     -5.68      0.00
    2    6   11      8.44      0.00
    3    6   11     -6.49      0.00
    4    6   11      3.04      0.00
    5    6   11     -0.07      0.00
    6    6   11     -0.92      0.00
    7    6   11     -1.40      0.00
    8    6   11      3.34      0.00
    9    6   11     -1.81      0.00
   10    6   11      0.09      0.00
  -11    7   11      0.55      0.00
  -10    7   11     -2.06      0.00
   -9    7   11      1.93      0.00
   -8    7   11     -0.24      0.00
   -7    7   11     -1.85      0.00
   -6    7   11      2.06      0.00
   -5    7   11     -0.93      0.00
   -4    7   11      1.87      0.00
   -3    7   11     -3.11      0.00
   -2    7   11      0.75      0.00
   -1    7   11      2.00      0.00
    0    7   11     -2.53      0.00
    1    7   11      4.53      0.00
    2    7   11     -6.78      0.00
    3    7   11      4.62      0.00
    4    7   11     -1.28      0.00
    5    7   11      0.73      0.00
    6    7   11     -0.24      0.00
    7    7   11     -1.04      0.00
    8    7   11      0.68      0.00
    9    7   11      0.81      0.00
  -11    8   11     -1.50      0.00
  -10    8   11      1.28      0.00
   -9    8   11     -0.52      0.00
   -8    8   11     -0.38      0.00
   -7    8   11      0.36      0.00
   -6    8   11      1.15      0.00
   -5    8   11     -1.31      0.00
   -4    8   11     -1.04      0.00
   -3    8   11      2.13      0.00
   -2    8   11     -1.95      0.00
   -1    8   11      3.33      0.00
    0    8   11     -2.31      0.00
    1    8   11     -3.41      0.00
    2    8   11      6.87      0.00
    3    8   11     -5.14      0.00
    4    8   11      3.18      0.00
    5    8   11     -2.18      0.00
    6    8   11      0.79      0.00
    7    8   11     -0.08      0.00
    8    8   11     -0.48      0.00
    9    8   11      1.50      0.00
  -10    9   11     -1.98      0.00
   -9    9   11     -0.15      0.00
   -8    9   11      2.65      0.00
   -7    9   11     -3.99      0.00
   -6    9   11      2.51      0.00
   -5    9   11      1.21      0.00
   -4    9   11     -3.71      0.00
   -3    9   11      3.94      0.00
   -2    9   11     -2.84      0.00
   -1    9   11     -0.45      0.00
    0    9   11      4.30      0.00
    1    9   11     -4.96      0.00
    2    9   11      3.75      0.00
    3    9   11     -2.78      0.00
    4    9   11     -0.33      0.00
    5    9   11      4.51      0.00
    6    9   11     -4.74      0.00
    7    9   11      1.90      0.00
    8    9   11     -0.41      0.00
    9    9   11      0.33      0.00
  -10   10   11      3.61      0.00
   -9   10   11     -4.72      0.00
   -8   10   11      3.25      0.00
   -7   10   11     -0.79      0.00
   -6   10   11     -0.36      0.00
   -5   10   11      1.86      0.00
   -4   10   11     -4.41      0.00
   -3   10   11      4.03      0.00
   -2   10   11     -1.07      0.00
   -1   10   11      0.14      0.00
    0   10   11     -0.11      0.00
    1   10   11     -0.69      0.00
    2   10   11     -0.91      0.00
    3   10   11      3.46      0.00
    4   10   11     -2.69      0.00
    5   10   11      1.08      0.00
    6   10   11     -0.88      0.00
    7   10   11     -0.64      0.00
    8   10   11      2.84      0.00
   -9   11   11     -2.14      0.00
   -8   11   11      2.64      0.00
   -7   11   11     -0.36      0.00
   -6   11   11     -2.56      0.00
   -5   11   11      3.28      0.00
   -4   11   11     -1.60      0.00
   -3   11   11      0.40      0.00
   -2   11   11     -0.43      0.00
   -1   11   11     -0.99      0.00
    0   11   11      3.74      0.00
    1   11   11     -4.99      0.00
    2   11   11      4.58      0.00
    3   11   11     -3.09      0.00
    4   11   11      0.56      0.00
    5   11   11      0.29      0.00
    6   11   11      1.77      0.00
    7   11   11     -2.99      0.00
   -8   12   11      2.38      0.00
   -7   12   11     -0.71      0.00
   -6   12   11     -1.51      0.00
   -5   12   11      2.82      0.00
   -4   12   11     -2.45      0.00
   -3   12   11     -0.35      0.00
   -2   12   11      2.44      0.00
   -1   12   11     -0.44      0.00
    0   12   11     -2.49      0.00
    1   12   11      3.35      0.00
    2   12   11     -3.76      0.00
    3   12   11      3.09      0.00
    4   12   11     -0.81      0.00
    5   12   11      0.49      0.00
    6   12   11     -1.51      0.00
    7   12   11     -0.09      0.00
   -8   13   11      0.81      0.00
   -7   13   11      0.83      0.00
   -6   13   11     -3.57      0.00
   -5   13   11      3.87      0.00
   -4   13   11     -0.34      0.00
   -3   13   11     -2.83      0.00
   -2   13   11      2.17      0.00
   -1   13   11      0.23      0.00
    0   13   11     -1.54      0.00
    1   13   11      1.49      0.00
    2   13   11     -0.56      0.00
    3   13   11     -0.52      0.00
    4   13   11      1.52      0.00
    5   13   11     -3.02      0.00
    6   13   11      3.83      0.00
   -6   14   11      0.71      0.00
   -5   14   11      0.14      0.00
   -4   14   11     -0.14      0.00
   -3   14   11     -1.76      0.00
   -2   14   11      2.28      0.00
   -1   14   11      0.89      0.00
    0   14   11     -3.52      0.00
    1   14   11      2.62      0.00
    2   14   11     -0.60      0.00
    3   14   11     -1.45      0.00
    4   14   11      3.08      0.00
    5   14   11     -2.03      0.00
   -5   15   11      1.53      0.00
   -4   15   11     -2.07      0.00
   -3   15   11      0.47      0.00
   -2   15   11      0.26      0.00
   -1   15   11      0.68      0.00
    0   15   11     -1.59      0.00
    1   15   11      1.01      0.00
    2   15   11      0.61      0.00
    3   15   11     -1.31      0.00
   -2   16   11      1.57      0.00
   -1   16   11     -2.61      0.00
    0   16   11      2.05      0.00
  -12    0   12      0.27      0.00
  -11    0   12     -4.66      0.00
  -10    0   12      6.63      0.00
   -9    0   12     -6.16      0.00
   -8    0   12      3.98      0.00
   -7    0   12     -0.88      0.00
   -6    0   12      1.04      0.00
   -5    0   12     -3.66      0.00
   -4    0   12      0.99      0.00
   -3    0   12      4.16      0.00
   -2    0   12     -0.99      0.00
   -1    0   12     -7.02      0.00
    0    0   12     10.47      0.00
    1    0   12    -11.33      0.00
    2    0   12     10.66      0.00
    3    0   12     -4.44      0.00
    4    0   12     -2.70      0.00
    5    0   12      4.96      0.00
    6    0   12     -5.46      0.00
    7    0   12      5.65      0.00
    8    0   12     -3.37      0.00
    9    0   12      0.32      0.00
   10    0   12      1.52      0.00
  -12    1   12      0.86      0.00
  -11    1   12     -2.58      0.00
  -10    1   12      3.80      0.00
   -9    1   12     -3.74      0.00
   -8    1   12      2.41      0.00
   -7    1   12      0.21      0.00
   -6    1   12     -3.35      0.00
   -5    1   12      4.64      0.00
   -4    1   12     -3.38      0.00
   -3    1   12      2.03      0.00
   -2    1   12     -1.91      0.00
   -1    1   12      1.81      0.00
    0    1   12     -1.78      0.00
    1    1   12      2.97      0.00
    2    1   12     -4.66      0.00
    3    1   12      5.69      0.00
    4    1   12     -5.77      0.00
    5    1   12      4.03      0.00
    6    1   12     -0.22      0.00
    7    1   12     -3.38      0.00
    8    1   12      4.31      0.00
    9    1   12     -2.91      0.00
   10    1   12      1.39      0.00
  -12    2   12      3.64      0.00
  -11    2   12     -6.73      0.00
  -10    2   12      6.22      0.00
   -9    2   12     -3.60      0.00
   -8    2   12      0.67      0.00
   -7    2   12      2.65      0.00
   -6    2   12     -3.70      0.00
   -5    2   12      1.89      0.00
   -4    2   12     -1.92      0.00
   -3    2   12      2.14      0.00
   -2    2   12      3.08      0.00
   -1    2   12     -8.39      0.00
    0    2   12      7.70      0.00
    1    2   12     -6.23      0.00
    2    2   12      6.01      0.00
    3    2   12     -3.29      0.00
    4    2   12      1.07      0.00
    5    2   12     -1.40      0.00
    6    2   12     -0.47      0.00
    7    2   12      3.55      0.00
    8    2   12     -3.18      0.00
    9    2   12      1.35      0.00
   10    2   12     -0.74      0.00
  -12    3   12      0.84      0.00
  -11    3   12     -2.99      0.00
  -10    3   12      4.17      0.00
   -9    3   12     -3.23      0.00
   -8    3   12      2.13      0.00
   -7    3   12     -1.31      0.00
   -6    3   12     -0.76      0.00
   -5    3   12      2.74      0.00
   -4    3   12     -2.87      0.00
   -3    3   12      3.31      0.00
   -2    3   12     -4.91      0.00
   -1    3   12      5.30      0.00
    0    3   12     -4.93      0.00
    1    3   12      5.72      0.00
    2    3   12     -6.57      0.00
    3    3   12      6.93      0.00
    4    3   12     -7.07      0.00
    5    3   12      4.87      0.00
    6    3   12     -0.26      0.00
    7    3   12     -2.50      0.00
    8    3   12      1.66      0.00
    9    3   12     -0.22      0.00
   10    3   12      0.49      0.00
  -12    4   12      3.69      0.00
  -11    4   12     -5.38      0.00
  -10    4   12      4.23      0.00
   -9    4   12     -1.59      0.00
   -8    4   12     -0.92      0.00
   -7    4   12      4.01      0.00
   -6    4   12     -6.69      0.00
   -5    4   12      7.70      0.00
   -4    4   12     -7.73      0.00
   -3    4   12      4.15      0.00
   -2    4   12      4.13      0.00
   -1    4   12     -9.01      0.00
    0    4   12      6.57      0.00
    1    4   12     -4.19      0.00
    2    4   12      4.35      0.00
    3    4   12     -3.49      0.00
    4    4   12      3.30      0.00
    5    4   12     -3.70      0.00
    6    4   12      0.47      0.00
    7    4   12      3.15      0.00
    8    4   12     -2.25      0.00
    9    4   12      0.23      0.00
   10    4   12     -0.14      0.00
  -12    5   12     -1.22      0.00
  -11    5   12      0.57      0.00
  -10    5   12     -0.09      0.00
   -9    5   12      1.12      0.00
   -8    5   12     -0.81      0.00
   -7    5   12     -2.31      0.00
   -6    5   12      4.70      0.00
   -5    5   12     -4.30      0.00
   -4    5   12      2.23      0.00
   -3    5   12      0.99      0.00
   -2    5   12     -3.59      0.00
   -1    5   12      3.61      0.00
    0    5   12     -3.74      0.00
    1    5   12      5.63      0.00
    2    5   12     -6.04      0.00
    3    5   12      4.42      0.00
    4    5   12     -2.76      0.00
    5    5   12      0.50      0.00
    6    5   12      0.94      0.00
    7    5   12      1.34      0.00
    8    5   12     -4.21      0.00
    9    5   12      3.27      0.00
   10    5   12     -0.58      0.00
  -11    6   12     -0.82      0.00
  -10    6   12      2.39      0.00
   -9    6   12     -2.76      0.00
   -8    6   12      1.26      0.00
   -7    6   12      1.65      0.00
   -6    6   12     -3.54      0.00
   -5    6   12      4.45      0.00
   -4    6   12     -6.47      0.00
   -3    6   12      6.11      0.00
   -2    6   12     -0.20      0.00
   -1    6   12     -5.28      0.00
    0    6   12      6.37      0.00
    1    6   12     -7.33      0.00
    2    6   12      7.99      0.00
    3    6   12     -4.73      0.00
    4    6   12      0.83      0.00
    5    6   12      0.73      0.00
    6    6   12     -2.05      0.00
    7    6   12      2.40      0.00
    8    6   12     -0.27      0.00
    9    6   12     -1.78      0.00
  -11    7   12      1.63      0.00
  -10    7   12     -1.10      0.00
   -9    7   12      0.95      0.00
   -8    7   12     -0.73      0.00
   -7    7   12      0.15      0.00
   -6    7   12      0.10      0.00
   -5    7   12     -1.10      0.00
   -4    7   12      2.89      0.00
   -3    7   12     -2.80      0.00
   -2    7   12      1.95      0.00
   -1    7   12     -2.55      0.00
    0    7   12      0.41      0.00
    1    7   12      6.00      0.00
    2    7   12     -9.65      0.00
    3    7   12      7.61      0.00
    4    7   12     -3.87      0.00
    5    7   12      0.53      0.00
    6    7   12      1.21      0.00
    7    7   12     -0.27      0.00
    8    7   12     -0.36      0.00
    9    7   12     -0.89      0.00
  -11    8   12     -1.36      0.00
  -10    8   12      1.78      0.00
   -9    8   12     -0.82      0.00
   -8    8   12     -1.40      0.00
   -7    8   12      3.53      0.00
   -6    8   12     -2.61      0.00
   -5    8   12     -0.77      0.00
   -4    8   12      2.32      0.00
   -3    8   12     -1.87      0.00
   -2    8   12      1.54      0.00
   -1    8   12     -0.11      0.00
    0    8   12     -1.57      0.00
    1    8   12      0.20      0.00
    2    8   12      1.67      0.00
    3    8   12     -0.94      0.00
    4    8   12      1.11      0.00
    5    8   12     -3.39      0.00
    6    8   12      3.71      0.00
    7    8   12     -1.71      0.00
    8    8   12      0.26      0.00
    9    8   12      0.06      0.00
  -10    9   12     -3.39      0.00
   -9    9   12      3.82      0.00
   -8    9   12     -2.18      0.00
   -7    9   12      0.67      0.00
   -6    9   12     -0.88      0.00
   -5    9   12     -0.18      0.00
   -4    9   12      3.33      0.00
   -3    9   12     -4.11      0.00
   -2    9   12      2.61      0.00
   -1    9   12     -2.33      0.00
    0    9   12      0.77      0.00
    1    9   12      3.18      0.00
    2    9   12     -3.95      0.00
    3    9   12      1.25      0.00
    4    9   12     -0.13      0.00
    5    9   12      0.45      0.00
    6    9   12     -0.51      0.00
    7    9   12      1.29      0.00
    8    9   12     -1.81      0.00
  -10   10   12      0.67      0.00
   -9   10   12      1.93      0.00
   -8   10   12     -3.64      0.00
   -7   10   12      2.95      0.00
   -6   10   12     -0.16      0.00
   -5   10   12     -2.63      0.00
   -4   10   12      3.69      0.00
   -3   10   12     -3.78      0.00
   -2   10   12      2.66      0.00
   -1   10   12      1.31      0.00
    0   10   12     -5.52      0.00
    1   10   12      6.28      0.00
    2   10   12     -5.15      0.00
    3   10   12      3.43      0.00
    4   10   12      0.27      0.00
    5   10   12     -3.31      0.00
    6   10   12      2.08      0.00
    7   10   12      0.69      0.00
    8   10   12     -1.27      0.00
   -9   11   12      4.22      0.00
   -8   11   12     -2.98      0.00
   -7   11   12      0.00      0.00
   -6   11   12      2.04      0.00
   -5   11   12     -2.92      0.00
   -4   11   12      2.74      0.00
   -3   11   12     -0.17      0.00
   -2   11   12     -2.09      0.00
   -1   11   12      0.54      0.00
    0   11   12      1.87      0.00
    1   11   12     -2.94      0.00
    2   11   12      4.69      0.00
    3   11   12     -5.22      0.00
    4   11   12      2.40      0.00
    5   11   12     -0.19      0.00
    6   11   12     -0.22      0.00
    7   11   12      2.08      0.00
   -8   12   12     -1.21      0.00
   -7   12   12     -0.40      0.00
   -6   12   12      2.84      0.00
   -5   12   12     -2.63      0.00
   -4   12   12     -0.53      0.00
   -3   12   12      2.28      0.00
   -2   12   12     -0.90      0.00
   -1   12   12     -0.48      0.00
    0   12   12      0.35      0.00
    1   12   12      0.38      0.00
    2   12   12     -1.61      0.00
    3   12   12      2.51      0.00
    4   12   12     -2.47      0.00
    5   12   12      3.28      0.00
    6   12   12     -4.63      0.00
   -7   13   12      1.56      0.00
   -6   13   12     -1.04      0.00
   -5   13   12     -0.47      0.00
   -4   13   12      0.54      0.00
   -3   13   12      1.82      0.00
   -2   13   12     -2.46      0.00
   -1   13   12     -1.18      0.00
    0   13   12      4.37      0.00
    1   13   12     -4.06      0.00
    2   13   12      2.48      0.00
    3   13   12     -0.10      0.00
    4   13   12     -2.21      0.00
    5   13   12      1.15      0.00
   -6   14   12      0.64      0.00
   -5   14   12     -2.26      0.00
   -4   14   12      1.34      0.00
   -3   14   12      0.85      0.00
   -2   14   12     -1.37      0.00
   -1   14   12      0.07      0.00
    0   14   12      1.36      0.00
    1   14   12     -1.43      0.00
    2   14   12      0.06      0.00
    3   14   12      0.95      0.00
    4   14   12     -1.12      0.00
   -4   15   12      1.21      0.00
   -3   15   12     -0.40      0.00
   -2   15   12     -1.13      0.00
   -1   15   12      0.57      0.00
    0   15   12      0.27      0.00
    1   15   12     -0.06      0.00
    2   15   12      0.16      0.00
  -12    1   13     -1.66      0.00
  -11    1   13      6.39      0.00
  -10    1   13     -8.17      0.00
   -9    1   13      6.84      0.00
   -8    1   13     -3.42      0.00
   -7    1   13     -0.63      0.00
   -6    1   13      1.33      0.00
   -5    1   13      0.40      0.00
   -4    1   13      1.56      0.00
   -3    1   13     -4.24      0.00
   -2    1   13      0.12      0.00
   -1    1   13      6.41      0.00
    0    1   13     -8.75      0.00
    1    1   13      9.37      0.00
    2    1   13     -8.17      0.00
    3    1   13      2.72      0.00
    4    1   13      1.90      0.00
    5    1   13     -2.77      0.00
    6    1   13      3.71      0.00
    7    1   13     -4.35      0.00
    8    1   13      2.40      0.00
    9    1   13     -0.22      0.00
   10    1   13     -0.92      0.00
  -12    2   13     -2.07      0.00
  -11    2   13      4.36      0.00
  -10    2   13     -5.52      0.00
   -9    2   13      4.46      0.00
   -8    2   13     -2.14      0.00
   -7    2   13     -0.95      0.00
   -6    2   13      4.58      0.00
   -5    2   13     -6.08      0.00
   -4    2   13      4.10      0.00
   -3    2   13     -2.02      0.00
   -2    2   13      2.27      0.00
   -1    2   13     -3.26      0.00
    0    2   13      4.31      0.00
    1    2   13     -6.20      0.00
    2    2   13      8.10      0.00
    3    2   13     -8.82      0.00
    4    2   13      7.82      0.00
    5    2   13     -4.22      0.00
    6    2   13     -0.97      0.00
    7    2   13      4.46      0.00
    8    2   13     -4.48      0.00
    9    2   13      2.38      0.00
   10    2   13     -0.66      0.00
  -12    3   13     -4.01      0.00
  -11    3   13      5.63      0.00
  -10    3   13     -4.00      0.00
   -9    3   13      1.03      0.00
   -8    3   13      1.31      0.00
   -7    3   13     -3.23      0.00
   -6    3   13      3.98      0.00
   -5    3   13     -4.01      0.00
   -4    3   13      4.81      0.00
   -3    3   13     -2.76      0.00
   -2    3   13     -3.74      0.00
   -1    3   13      6.92      0.00
    0    3   13     -4.27      0.00
    1    3   13      3.27      0.00
    2    3   13     -4.66      0.00
    3    3   13      4.43      0.00
    4    3   13     -4.83      0.00
    5    3   13      5.34      0.00
    6    3   13     -1.21      0.00
    7    3   13     -3.90      0.00
    8    3   13      4.21      0.00
    9    3   13     -2.27      0.00
   10    3   13      1.28      0.00
  -12    4   13      0.79      0.00
  -11    4   13      0.90      0.00
  -10    4   13     -2.37      0.00
   -9    4   13      1.56      0.00
   -8    4   13     -0.88      0.00
   -7    4   13      2.12      0.00
   -6    4   13     -2.82      0.00
   -5    4   13      1.50      0.00
   -4    4   13      0.91      0.00
   -3    4   13     -3.88      0.00
   -2    4   13      5.71      0.00
   -1    4   13     -4.91      0.00
    0    4   13      3.97      0.00
    1    4   13     -4.59      0.00
    2    4   13      4.97      0.00
    3    4   13     -5.09      0.00
    4    4   13      5.36      0.00
    5    4   13     -3.49      0.00
    6    4   13      0.39      0.00
    7    4   13     -0.07      0.00
    8    4   13      1.73      0.00
    9    4   13     -1.67      0.00
   10    4   13     -0.12      0.00
  -12    5   13     -0.70      0.00
  -11    5   13      1.70      0.00
  -10    5   13     -2.02      0.00
   -9    5   13      1.65      0.00
   -8    5   13     -0.11      0.00
   -7    5   13     -2.67      0.00
   -6    5   13      4.84      0.00
   -5    5   13     -6.46      0.00
   -4    5   13      8.19      0.00
   -3    5   13     -5.67      0.00
   -2    5   13     -2.30      0.00
   -1    5   13      7.51      0.00
    0    5   13     -6.80      0.00
    1    5   13      6.20      0.00
    2    5   13     -6.22      0.00
    3    5   13      3.94      0.00
    4    5   13     -2.23      0.00
    5    5   13      1.54      0.00
    6    5   13      1.15      0.00
    7    5   13     -2.96      0.00
    8    5   13      0.95      0.00
    9    5   13      1.32      0.00
  -11    6   13     -1.85      0.00
  -10    6   13      0.88      0.00
   -9    6   13     -1.17      0.00
   -8    6   13      1.31      0.00
   -7    6   13      0.45      0.00
   -6    6   13     -2.88      0.00
   -5    6   13      4.47      0.00
   -4    6   13     -4.09      0.00
   -3    6   13      1.21      0.00
   -2    6   13      0.94      0.00
   -1    6   13     -0.43      0.00
    0    6   13      1.70      0.00
    1    6   13     -6.03      0.00
    2    6   13      8.04      0.00
    3    6   13     -6.37      0.00
    4    6   13      3.63      0.00
    5    6   13     -0.21      0.00
    6    6   13     -1.84      0.00
    7    6   13      0.12      0.00
    8    6   13      1.79      0.00
    9    6   13     -0.70      0.00
  -11    7   13      0.59      0.00
  -10    7   13     -1.82      0.00
   -9    7   13      2.34      0.00
   -8    7   13     -0.61      0.00
   -7    7   13     -2.60      0.00
   -6    7   13      3.50      0.00
   -5    7   13     -2.17      0.00
   -4    7   13      2.18      0.00
   -3    7   13     -2.07      0.00
   -2    7   13     -0.70      0.00
   -1    7   13      2.99      0.00
    0    7   13     -3.62      0.00
    1    7   13      5.13      0.00
    2    7   13     -5.39      0.00
    3    7   13      2.35      0.00
    4    7   13     -0.13      0.00
    5    7   13      0.46      0.00
    6    7   13     -0.58      0.00
    7    7   13      0.51      0.00
    8    7   13     -1.09      0.00
    9    7   13      1.23      0.00
  -11    8   13     -1.51      0.00
  -10    8   13      2.84      0.00
   -9    8   13     -3.46      0.00
   -8    8   13      2.77      0.00
   -7    8   13     -1.99      0.00
   -6    8   13      1.69      0.00
   -5    8   13      0.73      0.00
   -4    8   13     -4.86      0.00
   -3    8   13      5.99      0.00
   -2    8   13     -4.45      0.00
   -1    8   13      3.18      0.00
    0    8   13      0.61      0.00
    1    8   13     -7.10      0.00
    2    8   13      9.47      0.00
    3    8   13     -6.24      0.00
    4    8   13      2.20      0.00
    5    8   13      0.59      0.00
    6    8   13     -1.39      0.00
    7    8   13     -0.03      0.00
    8    8   13      0.70      0.00
  -10    9   13     -0.71      0.00
   -9    9   13     -1.38      0.00
   -8    9   13      3.18      0.00
   -7    9   13     -3.47      0.00
   -6    9   13      1.05      0.00
   -5    9   13      2.56      0.00
   -4    9   13     -4.34      0.00
   -3    9   13      4.19      0.00
   -2    9   13     -2.31      0.00
   -1    9   13     -1.96      0.00
    0    9   13      5.15      0.00
    1    9   13     -4.01      0.00
    2    9   13      1.84      0.00
    3    9   13     -0.81      0.00
    4    9   13     -1.69      0.00
    5    9   13      4.49      0.00
    6    9   13     -3.73      0.00
    7    9   13      0.62      0.00
    8    9   13      1.43      0.00
   -9   10   13     -5.14      0.00
   -8   10   13      2.87      0.00
   -7   10   13      0.34      0.00
   -6   10   13     -1.40      0.00
   -5   10   13      1.68      0.00
   -4   10   13     -2.28      0.00
   -3   10   13      1.05      0.00
   -2   10   13      0.39      0.00
   -1   10   13      0.83      0.00
    0   10   13     -1.68      0.00
    1   10   13      0.85      0.00
    2   10   13     -1.86      0.00
    3   10   13      3.28      0.00
    4   10   13     -1.66      0.00
    5   10   13     -0.80      0.00
    6   10   13      2.30      0.00
    7   10   13     -3.98      0.00
   -9   11   13     -1.07      0.00
   -8   11   13      2.47      0.00
   -7   11   13     -1.62      0.00
   -6   11   13     -0.87      0.00
   -5   11   13      1.82      0.00
   -4   11   13     -0.68      0.00
   -3   11   13      0.55      0.00
   -2   11   13     -1.39      0.00
   -1   11   13      0.22      0.00
    0   11   13      1.94      0.00
    1   11   13     -2.85      0.00
    2   11   13      3.58      0.00
    3   11   13     -3.85      0.00
    4   11   13      2.22      0.00
    5   11   13     -1.11      0.00
    6   11   13      2.23      0.00
    7   11   13     -2.75      0.00
   -8   12   13      1.33      0.00
   -7   12   13     -0.68      0.00
   -6   12   13     -0.40      0.00
   -5   12   13      1.34      0.00
   -4   12   13     -0.50      0.00
   -3   12   13     -2.67      0.00
   -2   12   13      3.59      0.00
   -1   12   13      0.43      0.00
    0   12   13     -4.47      0.00
    1   12   13      5.49      0.00
    2   12   13     -5.38      0.00
    3   12   13      3.35      0.00
    4   12   13      0.30      0.00
    5   12   13     -1.21      0.00
    6   12   13     -0.12      0.00
   -7   13   13     -0.52      0.00
   -6   13   13     -0.69      0.00
   -5   13   13      1.16      0.00
   -4   13   13      0.51      0.00
   -3   13   13     -1.72      0.00
   -2   13   13      0.70      0.00
   -1   13   13      1.03      0.00
    0   13   13     -2.05      0.00
    1   13   13      1.54      0.00
    2   13   13      0.62      0.00
    3   13   13     -2.39      0.00
    4   13   13      2.80      0.00
    5   13   13     -3.34      0.00
   -6   14   13      3.13      0.00
   -5   14   13     -0.97      0.00
   -4   14   13     -1.05      0.00
   -3   14   13      0.02      0.00
   -2   14   13      1.03      0.00
   -1   14   13      0.70      0.00
    0   14   13     -2.09      0.00
    1   14   13      1.41      0.00
    2   14   13     -0.51      0.00
    3   14   13     -0.70      0.00
    4   14   13      1.54      0.00
   -4   15   13     -2.53      0.00
   -3   15   13      0.83      0.00
   -2   15   13      1.53      0.00
   -1   15   13     -2.54      0.00
    0   15   13      1.63      0.00
    1   15   13     -0.57      0.00
    2   15   13      0.41      0.00
  -12    0   14      1.54      0.00
  -11    0   14     -7.71      0.00
  -10    0   14     11.03      0.00
   -9    0   14     -9.84      0.00
   -8    0   14      4.79      0.00
   -7    0   14      1.07      0.00
   -6    0   14     -2.62      0.00
   -5    0   14      1.21      0.00
   -4    0   14     -2.96      0.00
   -3    0   14      5.01      0.00
   -2    0   14     -0.86      0.00
   -1    0   14     -5.60      0.00
    0    0   14      8.88      0.00
    1    0   14     -9.74      0.00
    2    0   14      6.70      0.00
    3    0   14      0.27      0.00
    4    0   14     -4.53      0.00
    5    0   14      4.43      0.00
    6    0   14     -4.19      0.00
    7    0   14      3.15      0.00
    8    0   14     -0.42      0.00
    9    0   14     -1.14      0.00
   10    0   14      1.59      0.00
  -12    1   14      2.13      0.00
  -11    1   14     -3.08      0.00
  -10    1   14      3.14      0.00
   -9    1   14     -2.10      0.00
   -8    1   14      0.47      0.00
   -7    1   14      1.64      0.00
   -6    1   14     -3.90      0.00
   -5    1   14      4.34      0.00
   -4    1   14     -2.05      0.00
   -3    1   14     -0.32      0.00
   -2    1   14      0.21      0.00
   -1    1   14      1.71      0.00
    0    1   14     -3.84      0.00
    1    1   14      5.47      0.00
    2    1   14     -6.27      0.00
    3    1   14      5.90      0.00
    4    1   14     -4.10      0.00
    5    1   14      1.03      0.00
    6    1   14      1.97      0.00
    7    1   14     -3.38      0.00
    8    1   14      2.96      0.00
    9    1   14     -1.38      0.00
   10    1   14     -0.16      0.00
  -12    2   14      2.80      0.00
  -11    2   14     -6.00      0.00
  -10    2   14      6.24      0.00
   -9    2   14     -3.98      0.00
   -8    2   14      0.90      0.00
   -7    2   14      1.57      0.00
   -6    2   14     -1.67      0.00
   -5    2   14      1.41      0.00
   -4    2   14     -3.74      0.00
   -3    2   14      4.12      0.00
   -2    2   14      0.82      0.00
   -1    2   14     -4.68      0.00
    0    2   14      4.66      0.00
    1    2   14     -5.55      0.00
    2    2   14      6.19      0.00
    3    2   14     -3.86      0.00
    4    2   14      2.60      0.00
    5    2   14     -2.45      0.00
    6    2   14     -0.83      0.00
    7    2   14      4.30      0.00
    8    2   14     -3.93      0.00
    9    2   14      2.04      0.00
   10    2   14     -0.55      0.00
  -12    3   14      0.96      0.00
  -11    3   14     -3.01      0.00
  -10    3   14      4.52      0.00
   -9    3   14     -3.56      0.00
   -8    3   14      1.57      0.00
   -7    3   14     -0.01      0.00
   -6    3   14     -1.81      0.00
   -5    3   14      3.33      0.00
   -4    3   14     -3.45      0.00
   -3    3   14      3.41      0.00
   -2    3   14     -3.91      0.00
   -1    3   14      4.12      0.00
    0    3   14     -4.70      0.00
    1    3   14      6.13      0.00
    2    3   14     -7.30      0.00
    3    3   14      7.98      0.00
    4    3   14     -7.53      0.00
    5    3   14      4.22      0.00
    6    3   14      0.38      0.00
    7    3   14     -2.46      0.00
    8    3   14      1.78      0.00
    9    3   14     -0.64      0.00
  -12    4   14      1.80      0.00
  -11    4   14     -2.09      0.00
  -10    4   14      0.93      0.00
   -9    4   14      0.49      0.00
   -8    4   14     -1.61      0.00
   -7    4   14      2.53      0.00
   -6    4   14     -2.94      0.00
   -5    4   14      4.43      0.00
   -4    4   14     -6.91      0.00
   -3    4   14      4.58      0.00
   -2    4   14      2.86      0.00
   -1    4   14     -6.30      0.00
    0    4   14      4.29      0.00
    1    4   14     -4.18      0.00
    2    4   14      5.80      0.00
    3    4   14     -5.58      0.00
    4    4   14      5.73      0.00
    5    4   14     -5.21      0.00
    6    4   14      0.49      0.00
    7    4   14      4.02      0.00
    8    4   14     -3.56      0.00
    9    4   14      1.14      0.00
  -11    5   14      1.25      0.00
  -10    5   14      1.05      0.00
   -9    5   14     -1.15      0.00
   -8    5   14      0.39      0.00
   -7    5   14     -1.55      0.00
   -6    5   14      3.72      0.00
   -5    5   14     -4.24      0.00
   -4    5   14      1.56      0.00
   -3    5   14      3.02      0.00
   -2    5   14     -4.83      0.00
   -1    5   14      2.60      0.00
    0    5   14     -1.55      0.00
    1    5   14      3.62      0.00
    2    5   14     -5.17      0.00
    3    5   14      5.60      0.00
    4    5   14     -5.64      0.00
    5    5   14      3.31      0.00
    6    5   14     -0.15      0.00
    7    5   14      0.09      0.00
    8    5   14     -1.39      0.00
    9    5   14      0.63      0.00
  -11    6   14     -0.22      0.00
  -10    6   14      1.17      0.00
   -9    6   14     -2.04      0.00
   -8    6   14      0.56      0.00
   -7    6   14      3.04      0.00
   -6    6   14     -5.06      0.00
   -5    6   14      5.27      0.00
   -4    6   14     -5.73      0.00
   -3    6   14      3.64      0.00
   -2    6   14      2.23      0.00
   -1    6   14     -6.37      0.00
    0    6   14      6.90      0.00
    1    6   14     -7.03      0.00
    2    6   14      5.68      0.00
    3    6   14     -2.07      0.00
    4    6   14      0.21      0.00
    5    6   14     -0.22      0.00
    6    6   14     -0.53      0.00
    7    6   14      0.34      0.00
    8    6   14      1.57      0.00
    9    6   14     -2.38      0.00
  -11    7   14      1.64      0.00
  -10    7   14     -2.17      0.00
   -9    7   14      3.04      0.00
   -8    7   14     -3.31      0.00
   -7    7   14      2.34      0.00
   -6    7   14     -0.12      0.00
   -5    7   14     -3.75      0.00
   -4    7   14      6.95      0.00
   -3    7   14     -6.03      0.00
   -2    7   14      3.28      0.00
   -1    7   14     -1.47      0.00
    0    7   14     -2.67      0.00
    1    7   14      9.00      0.00
    2    7   14    -11.16      0.00
    3    7   14      7.92      0.00
    4    7   14     -3.05      0.00
    5    7   14     -1.50      0.00
    6    7   14      3.33      0.00
    7    7   14     -1.30      0.00
    8    7   14     -0.52      0.00
  -10    8   14      0.76      0.00
   -9    8   14     -0.12      0.00
   -8    8   14     -1.16      0.00
   -7    8   14      2.69      0.00
   -6    8   14     -1.94      0.00
   -5    8   14     -0.56      0.00
   -4    8   14      1.69      0.00
   -3    8   14     -1.56      0.00
   -2    8   14      1.08      0.00
   -1    8   14      0.50      0.00
    0    8   14     -0.99      0.00
    1    8   14     -1.22      0.00
    2    8   14      2.37      0.00
    3    8   14     -1.22      0.00
    4    8   14      1.43      0.00
    5    8   14     -2.73      0.00
    6    8   14      2.21      0.00
    7    8   14     -0.61      0.00
    8    8   14     -0.63      0.00
  -10    9   14     -4.39      0.00
   -9    9   14      5.68      0.00
   -8    9   14     -3.89      0.00
   -7    9   14      1.33      0.00
   -6    9   14     -0.39      0.00
   -5    9   14     -1.15      0.00
   -4    9   14      3.97      0.00
   -3    9   14     -4.51      0.00
   -2    9   14      3.13      0.00
   -1    9   14     -2.23      0.00
    0    9   14     -0.34      0.00
    1    9   14      4.26      0.00
    2    9   14     -4.61      0.00
    3    9   14      1.79      0.00
    4    9   14      0.05      0.00
    5    9   14     -0.26      0.00
    6    9   14     -1.08      0.00
    7    9   14      3.40      0.00
    8    9   14     -3.66      0.00
   -9   10   14      1.51      0.00
   -8   10   14     -2.95      0.00
   -7   10   14      2.31      0.00
   -6   10   14      0.34      0.00
   -5   10   14     -2.25      0.00
   -4   10   14      2.20      0.00
   -3   10   14     -2.13      0.00
   -2   10   14      1.47      0.00
   -1   10   14      1.56      0.00
    0   10   14     -3.93      0.00
    1   10   14      3.20      0.00
    2   10   14     -2.30      0.00
    3   10   14      2.05      0.00
    4   10   14     -0.22      0.00
    5   10   14     -1.41      0.00
    6   10   14      0.23      0.00
    7   10   14      1.79      0.00
   -9   11   14      3.04      0.00
   -8   11   14     -1.61      0.00
   -7   11   14     -0.62      0.00
   -6   11   14      1.44      0.00
   -5   11   14     -1.05      0.00
   -4   11   14     -0.48      0.00
   -3   11   14      3.29      0.00
   -2   11   14     -3.53      0.00
   -1   11   14     -0.81      0.00
    0   11   14      4.81      0.00
    1   11   14     -5.88      0.00
    2   11   14      6.16      0.00
    3   11   14     -4.55      0.00
    4   11   14      0.42      0.00
    5   11   14      2.34      0.00
    6   11   14     -2.90      0.00
   -8   12   14     -0.94      0.00
   -7   12   14      1.92      0.00
   -6   12   14     -0.93      0.00
   -5   12   14      0.39      0.00
   -4   12   14     -1.21      0.00
   -3   12   14      0.62      0.00
   -2   12   14      1.47      0.00
   -1   12   14     -2.32      0.00
    0   12   14      1.77      0.00
    1   12   14     -0.35      0.00
    2   12   14     -2.43      0.00
    3   12   14      4.55      0.00
    4   12   14     -4.28      0.00
    5   12   14      3.61      0.00
   -7   13   14      2.34      0.00
   -6   13   14     -2.48      0.00
   -5   13   14      0.33      0.00
   -4   13   14      0.84      0.00
   -3   13   14      1.31      0.00
   -2   13   14     -2.49      0.00
   -1   13   14     -0.37      0.00
    0   13   14      3.17      0.00
    1   13   14     -3.48      0.00
    2   13   14      2.90      0.00
    3   13   14     -1.09      0.00
    4   13   14     -0.90      0.00
   -5   14   14     -1.37      0.00
   -4   14   14      1.38      0.00
   -3   14   14     -0.33      0.00
   -2   14   14     -0.91      0.00
   -1   14   14      1.44      0.00
    0   14   14     -0.62      0.00
    1   14   14     -0.10      0.00
    2   14   14     -0.48      0.00
    3   14   14      0.64      0.00
   -3   15   14     -0.82      0.00
   -2   15   14     -0.79      0.00
   -1   15   14      1.13      0.00
    0   15   14     -1.03      0.00
    1   15   14      0.54      0.00
  -12    1   15     -2.27      0.00
  -11    1   15      7.79      0.00
  -10    1   15    -10.62      0.00
   -9    1   15      8.87      0.00
   -8    1   15     -3.47      0.00
   -7    1   15     -1.85      0.00
   -6    1   15      3.08      0.00
   -5    1   15     -2.49      0.00
   -4    1   15      4.31      0.00
   -3    1   15     -4.85      0.00
   -2    1   15      0.56      0.00
   -1    1   15      3.87      0.00
    0    1   15     -5.82      0.00
    1    1   15      6.87      0.00
    2    1   15     -4.55      0.00
    3    1   15     -0.69      0.00
    4    1   15      2.52      0.00
    5    1   15     -1.45      0.00
    6    1   15      2.11      0.00
    7    1   15     -2.54      0.00
    8    1   15      0.95      0.00
    9    1   15      0.09      0.00
  -12    2   15     -2.57      0.00
  -11    2   15      3.35      0.00
  -10    2   15     -3.29      0.00
   -9    2   15      1.91      0.00
   -8    2   15     -0.07      0.00
   -7    2   15     -1.85      0.00
   -6    2   15      4.05      0.00
   -5    2   15     -4.81      0.00
   -4    2   15      2.74      0.00
   -3    2   15     -0.29      0.00
   -2    2   15      0.54      0.00
   -1    2   15     -3.36      0.00
    0    2   15      6.68      0.00
    1    2   15     -8.62      0.00
    2    2   15      8.71      0.00
    3    2   15     -7.68      0.00
    4    2   15      5.33      0.00
    5    2   15     -1.18      0.00
    6    2   15     -2.60      0.00
    7    2   15      3.61      0.00
    8    2   15     -2.47      0.00
    9    2   15      0.77      0.00
  -12    3   15     -1.58      0.00
  -11    3   15      2.65      0.00
  -10    3   15     -2.08      0.00
   -9    3   15      0.50      0.00
   -8    3   15      0.85      0.00
   -7    3   15     -0.90      0.00
   -6    3   15     -0.04      0.00
   -5    3   15     -1.63      0.00
   -4    3   15      6.03      0.00
   -3    3   15     -5.85      0.00
   -2    3   15     -0.20      0.00
   -1    3   15      3.57      0.00
    0    3   15     -3.07      0.00
    1    3   15      4.75      0.00
    2    3   15     -7.05      0.00
    3    3   15      6.75      0.00
    4    3   15     -6.51      0.00
    5    3   15      5.25      0.00
    6    3   15      0.11      0.00
    7    3   15     -5.08      0.00
    8    3   15      5.17      0.00
    9    3   15     -2.71      0.00
  -11    4   15      0.39      0.00
  -10    4   15     -3.29      0.00
   -9    4   15      3.62      0.00
   -8    4   15     -1.92      0.00
   -7    4   15      0.89      0.00
   -6    4   15     -0.78      0.00
   -5    4   15      0.14      0.00
   -4    4   15      2.10      0.00
   -3    4   15     -5.00      0.00
   -2    4   15      5.34      0.00
   -1    4   15     -2.74      0.00
    0    4   15      1.52      0.00
    1    4   15     -3.18      0.00
    2    4   15      5.27      0.00
    3    4   15     -7.26      0.00
    4    4   15      8.35      0.00
    5    4   15     -5.83      0.00
    6    4   15      1.26      0.00
    7    4   15      0.94      0.00
    8    4   15     -0.83      0.00
    9    4   15      0.83      0.00
  -11    5   15     -0.24      0.00
  -10    5   15      0.57      0.00
   -9    5   15     -0.44      0.00
   -8    5   15      1.30      0.00
   -7    5   15     -3.13      0.00
   -6    5   15      4.00      0.00
   -5    5   15     -4.98      0.00
   -4    5   15      6.50      0.00
   -3    5   15     -3.79      0.00
   -2    5   15     -3.15      0.00
   -1    5   15      6.85      0.00
    0    5   15     -6.22      0.00
    1    5   15      6.06      0.00
    2    5   15     -5.60      0.00
    3    5   15      3.77      0.00
    4    5   15     -3.47      0.00
    5    5   15      3.22      0.00
    6    5   15     -0.35      0.00
    7    5   15     -1.56      0.00
    8    5   15      0.23      0.00
    9    5   15      1.26      0.00
  -11    6   15     -1.55      0.00
  -10    6   15      0.15      0.00
   -9    6   15     -0.32      0.00
   -8    6   15      1.42      0.00
   -7    6   15     -0.97      0.00
   -6    6   15     -1.83      0.00
   -5    6   15      5.31      0.00
   -4    6   15     -5.68      0.00
   -3    6   15      1.88      0.00
   -2    6   15      0.98      0.00
   -1    6   15     -0.56      0.00
    0    6   15      1.98      0.00
    1    6   15     -6.45      0.00
    2    6   15      8.81      0.00
    3    6   15     -7.87      0.00
    4    6   15      5.40      0.00
    5    6   15     -1.33      0.00
    6    6   15     -1.92      0.00
    7    6   15      1.49      0.00
    8    6   15      0.02      0.00
  -11    7   15      0.65      0.00
  -10    7   15     -0.39      0.00
   -9    7   15      0.68      0.00
   -8    7   15      0.40      0.00
   -7    7   15     -3.17      0.00
   -6    7   15      4.21      0.00
   -5    7   15     -2.93      0.00
   -4    7   15      1.67      0.00
   -3    7   15     -0.04      0.00
   -2    7   15     -2.15      0.00
   -1    7   15      3.07      0.00
    0    7   15     -3.77      0.00
    1    7   15      5.04      0.00
    2    7   15     -3.86      0.00
    3    7   15      0.98      0.00
    4    7   15     -0.59      0.00
    5    7   15      1.47      0.00
    6    7   15     -0.99      0.00
    7    7   15      0.76      0.00
    8    7   15     -1.09      0.00
  -10    8   15      3.99      0.00
   -9    8   15     -5.86      0.00
   -8    8   15      5.20      0.00
   -7    8   15     -3.00      0.00
   -6    8   15      0.61      0.00
   -5    8   15      3.29      0.00
   -4    8   15     -7.45      0.00
   -3    8   15      7.75      0.00
   -2    8   15     -4.89      0.00
   -1    8   15      1.42      0.00
    0    8   15      3.96      0.00
    1    8   15     -9.62      0.00
    2    8   15     10.19      0.00
    3    8   15     -5.91      0.00
    4    8   15      0.94      0.00
    5    8   15      2.42      0.00
    6    8   15     -2.10      0.00
    7    8   15     -1.18      0.00
    8    8   15      2.66      0.00
  -10    9   15     -0.02      0.00
   -9    9   15     -1.13      0.00
   -8    9   15      1.71      0.00
   -7    9   15     -1.25      0.00
   -6    9   15     -0.55      0.00
   -5    9   15      1.89      0.00
   -4    9   15     -1.51      0.00
   -3    9   15      0.83      0.00
   -2    9   15      0.35      0.00
   -1    9   15     -2.61      0.00
    0    9   15      2.70      0.00
    1    9   15      0.17      0.00
    2    9   15     -1.58      0.00
    3    9   15      0.95      0.00
    4    9   15     -1.41      0.00
    5    9   15      1.90      0.00
    6    9   15     -0.29      0.00
    7    9   15     -1.83      0.00
   -9   10   15     -4.62      0.00
   -8   10   15      2.78      0.00
   -7   10   15     -0.11      0.00
   -6   10   15     -0.53      0.00
   -5   10   15      0.21      0.00
   -4   10   15     -0.07      0.00
   -3   10   15     -0.76      0.00
   -2   10   15      0.41      0.00
   -1   10   15      2.21      0.00
    0   10   15     -3.45      0.00
    1   10   15      2.47      0.00
    2   10   15     -2.20      0.00
    3   10   15      1.79      0.00
    4   10   15      0.25      0.00
    5   10   15     -2.21      0.00
    6   10   15      3.84      0.00
   -8   11   15      1.58      0.00
   -7   11   15     -2.57      0.00
   -6   11   15      1.34      0.00
   -5   11   15     -0.48      0.00
   -4   11   15      0.76      0.00
   -3   11   15      0.31      0.00
   -2   11   15     -1.89      0.00
   -1   11   15      1.33      0.00
    0   11   15     -0.11      0.00
    1   11   15     -0.55      0.00
    2   11   15      2.36      0.00
    3   11   15     -4.16      0.00
    4   11   15      3.59      0.00
    5   11   15     -2.31      0.00
    6   11   15      1.92      0.00
   -7   12   15     -0.90      0.00
   -6   12   15      0.92      0.00
   -5   12   15     -0.22      0.00
   -4   12   15      0.75      0.00
   -3   12   15     -3.53      0.00
   -2   12   15      3.93      0.00
   -1   12   15      0.53      0.00
    0   12   15     -4.92      0.00
    1   12   15      6.25      0.00
    2   12   15     -5.83      0.00
    3   12   15      3.22      0.00
    4   12   15      0.38      0.00
    5   12   15     -1.18      0.00
   -6   13   15      1.95      0.00
   -5   13   15     -0.81      0.00
   -4   13   15      0.09      0.00
   -3   13   15      0.89      0.00
   -2   13   15     -1.64      0.00
   -1   13   15      1.35      0.00
    0   13   15     -0.98      0.00
    1   13   15      0.16      0.00
    2   13   15      1.96      0.00
    3   13   15     -3.21      0.00
    4   13   15      2.51      0.00
   -5   14   15     -0.28      0.00
   -4   14   15     -2.04      0.00
   -3   14   15      0.76      0.00
   -2   14   15      1.46      0.00
   -1   14   15     -1.44      0.00
    0   14   15      0.73      0.00
    1   14   15     -0.11      0.00
    2   14   15     -1.08      0.00
  -12    0   16      2.86      0.00
  -11    0   16     -9.05      0.00
  -10    0   16     12.73      0.00
   -9    0   16    -10.79      0.00
   -8    0   16      3.72      0.00
   -7    0   16      3.29      0.00
   -6    0   16     -5.18      0.00
   -5    0   16      4.30      0.00
   -4    0   16     -4.71      0.00
   -3    0   16      3.87      0.00
   -2    0   16     -0.07      0.00
   -1    0   16     -2.85      0.00
    0    0   16      4.25      0.00
    1    0   16     -4.74      0.00
    2    0   16      0.97      0.00
    3    0   16      4.61      0.00
    4    0   16     -4.80      0.00
    5    0   16      1.71      0.00
    6    0   16     -0.85      0.00
    7    0   16      0.39      0.00
    8    0   16      0.94      0.00
    9    0   16     -0.92      0.00
  -12    1   16      1.99      0.00
  -11    1   16     -1.48      0.00
  -10    1   16      0.41      0.00
   -9    1   16      0.60      0.00
   -8    1   16     -1.00      0.00
   -7    1   16      1.28      0.00
   -6    1   16     -2.12      0.00
   -5    1   16      2.43      0.00
   -4    1   16     -0.96      0.00
   -3    1   16     -0.89      0.00
   -2    1   16      0.50      0.00
   -1    1   16      2.48      0.00
    0    1   16     -5.68      0.00
    1    1   16      6.61      0.00
    2    1   16     -5.25      0.00
    3    1   16      3.24      0.00
    4    1   16     -1.11      0.00
    5    1   16     -1.22      0.00
    6    1   16      2.53      0.00
    7    1   16     -1.99      0.00
    8    1   16      0.71      0.00
    9    1   16      0.27      0.00
  -11    2   16     -4.72      0.00
  -10    2   16      6.50      0.00
   -9    2   16     -5.17      0.00
   -8    2   16      1.67      0.00
   -7    2   16      0.66      0.00
   -6    2   16     -0.45      0.00
   -5    2   16      1.89      0.00
   -4    2   16     -6.28      0.00
   -3    2   16      6.90      0.00
   -2    2   16     -1.90      0.00
   -1    2   16     -2.01      0.00
    0    2   16      3.56      0.00
    1    2   16     -5.70      0.00
    2    2   16      5.71      0.00
    3    2   16     -3.05      0.00
    4    2   16      2.27      0.00
    5    2   16     -1.96      0.00
    6    2   16     -1.26      0.00
    7    2   16      3.91      0.00
    8    2   16     -3.35      0.00
    9    2   16      1.69      0.00
  -11    3   16     -1.36      0.00
  -10    3   16      2.57      0.00
   -9    3   16     -2.37      0.00
   -8    3   16      0.83      0.00
   -7    3   16      0.85      0.00
   -6    3   16     -2.29      0.00
   -5    3   16      3.13      0.00
   -4    3   16     -3.14      0.00
   -3    3   16      2.88      0.00
   -2    3   16     -2.58      0.00
   -1    3   16      2.78      0.00
    0    3   16     -4.39      0.00
    1    3   16      6.27      0.00
    2    3   16     -7.03      0.00
    3    3   16      7.45      0.00
    4    3   16     -6.98      0.00
    5    3   16      3.71      0.00
    6    3   16      0.47      0.00
    7    3   16     -2.20      0.00
    8    3   16      1.81      0.00
    9    3   16     -1.05      0.00
  -11    4   16      0.50      0.00
  -10    4   16     -0.93      0.00
   -9    4   16      1.19      0.00
   -8    4   16     -1.53      0.00
   -7    4   16      1.15      0.00
   -6    4   16     -0.20      0.00
   -5    4   16      2.33      0.00
   -4    4   16     -6.88      0.00
   -3    4   16      6.14      0.00
   -2    4   16      0.46      0.00
   -1    4   16     -4.53      0.00
    0    4   16      4.85      0.00
    1    4   16     -6.20      0.00
    2    4   16      7.38      0.00
    3    4   16     -6.74      0.00
    4    4   16      6.45      0.00
    5    4   16     -4.76      0.00
    6    4   16     -0.09      0.00
    7    4   16      3.63      0.00
    8    4   16     -3.03      0.00
    9    4   16      0.82      0.00
  -11    5   16      0.69      0.00
  -10    5   16      2.59      0.00
   -9    5   16     -3.42      0.00
   -8    5   16      1.37      0.00
   -7    5   16      0.27      0.00
   -6    5   16      0.74      0.00
   -5    5   16     -2.72      0.00
   -4    5   16      1.58      0.00
   -3    5   16      2.58      0.00
   -2    5   16     -3.84      0.00
   -1    5   16      0.71      0.00
    0    5   16      0.45      0.00
    1    5   16      2.86      0.00
    2    5   16     -6.61      0.00
    3    5   16      8.89      0.00
    4    5   16     -9.22      0.00
    5    5   16      5.86      0.00
    6    5   16     -0.85      0.00
    7    5   16     -1.63      0.00
    8    5   16      1.76      0.00
  -11    6   16      0.14      0.00
  -10    6   16     -1.17      0.00
   -9    6   16      1.12      0.00
   -8    6   16     -1.99      0.00
   -7    6   16      4.25      0.00
   -6    6   16     -5.18      0.00
   -5    6   16      4.45      0.00
   -4    6   16     -3.16      0.00
   -3    6   16     -0.06      0.00
   -2    6   16      4.11      0.00
   -1    6   16     -5.49      0.00
    0    6   16      5.34      0.00
    1    6   16     -5.36      0.00
    2    6   16      3.50      0.00
    3    6   16     -1.26      0.00
    4    6   16      2.09      0.00
    5    6   16     -3.15      0.00
    6    6   16      1.75      0.00
    7    6   16     -0.93      0.00
    8    6   16      1.58      0.00
  -10    7   16     -2.21      0.00
   -9    7   16      3.69      0.00
   -8    7   16     -4.12      0.00
   -7    7   16      2.61      0.00
   -6    7   16      0.94      0.00
   -5    7   16     -5.95      0.00
   -4    7   16      8.85      0.00
   -3    7   16     -6.60      0.00
   -2    7   16      2.46      0.00
   -1    7   16      0.62      0.00
    0    7   16     -5.14      0.00
    1    7   16     10.37      0.00
    2    7   16    -11.34      0.00
    3    7   16      7.85      0.00
    4    7   16     -2.93      0.00
    5    7   16     -1.61      0.00
    6    7   16      2.94      0.00
    7    7   16     -0.48      0.00
    8    7   16     -1.52      0.00
  -10    8   16     -0.44      0.00
   -9    8   16      0.86      0.00
   -8    8   16     -0.86      0.00
   -7    8   16      1.24      0.00
   -6    8   16     -1.05      0.00
   -5    8   16      0.52      0.00
   -4    8   16     -0.38      0.00
   -3    8   16      0.07      0.00
   -2    8   16     -0.28      0.00
   -1    8   16      0.97      0.00
    0    8   16      0.81      0.00
    1    8   16     -4.06      0.00
    2    8   16      3.99      0.00
    3    8   16     -1.88      0.00
    4    8   16      1.72      0.00
    5    8   16     -1.73      0.00
    6    8   16     -0.06      0.00
    7    8   16      1.50      0.00
   -9    9   16      6.07      0.00
   -8    9   16     -4.78      0.00
   -7    9   16      1.93      0.00
   -6    9   16     -0.18      0.00
   -5    9   16     -1.44      0.00
   -4    9   16      3.47      0.00
   -3    9   16     -3.90      0.00
   -2    9   16      3.13      0.00
   -1    9   16     -2.00      0.00
    0    9   16     -1.02      0.00
    1    9   16      4.31      0.00
    2    9   16     -4.37      0.00
    3    9   16      2.35      0.00
    4    9   16     -0.68      0.00
    5    9   16     -0.05      0.00
    6    9   16     -1.60      0.00
    7    9   16      4.43      0.00
   -9   10   16     -0.19      0.00
   -8   10   16     -0.81      0.00
   -7   10   16      0.95      0.00
   -6   10   16      0.14      0.00
   -5   10   16     -0.11      0.00
   -4   10   16     -1.24      0.00
   -3   10   16      1.30      0.00
   -2   10   16     -0.71      0.00
   -1   10   16      1.06      0.00
    0   10   16     -0.26      0.00
    1   10   16     -1.62      0.00
    2   10   16      1.14      0.00
    3   10   16      0.91      0.00
    4   10   16     -1.44      0.00
    5   10   16      1.37      0.00
    6   10   16     -1.95      0.00
   -8   11   16     -1.20      0.00
   -7   11   16      0.63      0.00
   -6   11   16     -0.97      0.00
   -5   11   16      1.44      0.00
   -4   11   16     -2.24      0.00
   -3   11   16      3.64      0.00
   -2   11   16     -2.42      0.00
   -1   11   16     -2.39      0.00
    0   11   16      6.16      0.00
    1   11   16     -6.74      0.00
    2   11   16      5.61      0.00
    3   11   16     -2.55      0.00
    4   11   16     -1.25      0.00
    5   11   16      2.78      0.00
   -7   12   16      3.56      0.00
   -6   12   16     -3.62      0.00
   -5   12   16      2.27      0.00
   -4   12   16     -0.75      0.00
   -3   12   16     -1.64      0.00
   -2   12   16      3.36      0.00
   -1   12   16     -2.66      0.00
    0   12   16      1.20      0.00
    1   12   16      0.44      0.00
    2   12   16     -3.12      0.00
    3   12   16      4.83      0.00
    4   12   16     -3.94      0.00
   -6   13   16     -1.85      0.00
   -5   13   16     -0.24      0.00
   -4   13   16      1.46      0.00
   -3   13   16      0.90      0.00
   -2   13   16     -3.12      0.00
   -1   13   16      1.78      0.00
    0   13   16      0.61      0.00
    1   13   16     -2.22      0.00
    2   13   16      3.28      0.00
    3   13   16     -2.69      0.00
   -4   14   16      1.20      0.00
   -3   14   16     -1.16      0.00
   -2   14   16     -0.10      0.00
   -1   14   16      1.84      0.00
    0   14   16     -1.75      0.00
    1   14   16      0.65      0.00
  -11    1   17      7.19      0.00
  -10    1   17    -10.39      0.00
   -9    1   17      8.76      0.00
   -8    1   17     -2.63      0.00
   -7    1   17     -2.76      0.00
   -6    1   17      3.84      0.00
   -5    1   17     -4.10      0.00
   -4    1   17      5.81      0.00
   -3    1   17     -4.93      0.00
   -2    1   17      1.13      0.00
   -1    1   17      1.06      0.00
    0    1   17     -2.18      0.00
    1    1   17      3.28      0.00
    2    1   17     -0.77      0.00
    3    1   17     -3.12      0.00
    4    1   17      2.36      0.00
    5    1   17      0.27      0.00
    6    1   17     -0.01      0.00
    7    1   17     -0.72      0.00
    8    1   17      0.27      0.00
    9    1   17     -0.20      0.00
  -11    2   17      0.47      0.00
  -10    2   17      0.69      0.00
   -9    2   17     -1.30      0.00
   -8    2   17      1.14      0.00
   -7    2   17     -0.95      0.00
   -6    2   17      1.75      0.00
   -5    2   17     -2.68      0.00
   -4    2   17      2.13      0.00
   -3    2   17     -0.68      0.00
   -2    2   17      0.67      0.00
   -1    2   17     -3.43      0.00
    0    2   17      7.11      0.00
    1    2   17     -8.08      0.00
    2    2   17      5.88      0.00
    3    2   17     -3.48      0.00
    4    2   17      1.76      0.00
    5    2   17      0.47      0.00
    6    2   17     -2.11      0.00
    7    2   17      1.63      0.00
    8    2   17     -0.32      0.00
  -11    3   17      0.70      0.00
  -10    3   17     -2.22      0.00
   -9    3   17      2.23      0.00
   -8    3   17     -0.82      0.00
   -7    3   17      0.73      0.00
   -6    3   17     -1.77      0.00
   -5    3   17     -1.38      0.00
   -4    3   17      8.14      0.00
   -3    3   17     -9.36      0.00
   -2    3   17      3.28      0.00
   -1    3   17      2.24      0.00
    0    3   17     -5.04      0.00
    1    3   17      7.59      0.00
    2    3   17     -8.01      0.00
    3    3   17      6.10      0.00
    4    3   17     -4.78      0.00
    5    3   17      2.50      0.00
    6    3   17      1.93      0.00
    7    3   17     -4.53      0.00
    8    3   17      3.61      0.00
  -11    4   17      0.10      0.00
  -10    4   17     -2.90      0.00
   -9    4   17      3.83      0.00
   -8    4   17     -1.69      0.00
   -7    4   17     -1.17      0.00
   -6    4   17      2.12      0.00
   -5    4   17     -1.31      0.00
   -4    4   17      1.52      0.00
   -3    4   17     -3.21      0.00
   -2    4   17      2.94      0.00
   -1    4   17     -0.33      0.00
    0    4   17     -0.09      0.00
    1    4   17     -2.92      0.00
    2    4   17      6.43      0.00
    3    4   17     -9.13      0.00
    4    4   17      9.84      0.00
    5    4   17     -6.57      0.00
    6    4   17      1.25      0.00
    7    4   17      2.16      0.00
    8    4   17     -2.98      0.00
  -11    5   17     -1.09      0.00
  -10    5   17      2.26      0.00
   -9    5   17     -2.51      0.00
   -8    5   17      2.87      0.00
   -7    5   17     -3.12      0.00
   -6    5   17      2.45      0.00
   -5    5   17     -2.88      0.00
   -4    5   17      4.20      0.00
   -3    5   17     -2.07      0.00
   -2    5   17     -2.72      0.00
   -1    5   17      4.98      0.00
    0    5   17     -5.12      0.00
    1    5   17      5.48      0.00
    2    5   17     -4.63      0.00
    3    5   17      3.69      0.00
    4    5   17     -4.84      0.00
    5    5   17      4.75      0.00
    6    5   17     -1.69      0.00
    7    5   17     -0.34      0.00
    8    5   17     -0.07      0.00
  -10    6   17     -0.95      0.00
   -9    6   17      0.75      0.00
   -8    6   17      0.97      0.00
   -7    6   17     -1.73      0.00
   -6    6   17     -0.76      0.00
   -5    6   17      5.28      0.00
   -4    6   17     -6.53      0.00
   -3    6   17      2.53      0.00
   -2    6   17      1.01      0.00
   -1    6   17     -0.99      0.00
    0    6   17      2.25      0.00
    1    6   17     -6.60      0.00
    2    6   17      9.74      0.00
    3    6   17     -9.72      0.00
    4    6   17      7.20      0.00
    5    6   17     -2.75      0.00
    6    6   17     -0.86      0.00
    7    6   17      1.44      0.00
    8    6   17     -0.70      0.00
  -10    7   17      1.76      0.00
   -9    7   17     -2.47      0.00
   -8    7   17      2.47      0.00
   -7    7   17     -3.12      0.00
   -6    7   17      3.40      0.00
   -5    7   17     -2.67      0.00
   -4    7   17      0.90      0.00
   -3    7   17      1.59      0.00
   -2    7   17     -2.49      0.00
   -1    7   17      1.62      0.00
    0    7   17     -2.62      0.00
    1    7   17      4.56      0.00
    2    7   17     -3.24      0.00
    3    7   17      1.32      0.00
    4    7   17     -2.63      0.00
    5    7   17      3.58      0.00
    6    7   17     -1.63      0.00
    7    7   17     -0.02      0.00
  -10    8   17      3.70      0.00
   -9    8   17     -5.78      0.00
   -8    8   17      5.13      0.00
   -7    8   17     -2.17      0.00
   -6    8   17     -1.25      0.00
   -5    8   17      4.79      0.00
   -4    8   17     -7.08      0.00
   -3    8   17      6.01      0.00
   -2    8   17     -3.00      0.00
   -1    8   17     -0.49      0.00
    0    8   17      5.31      0.00
    1    8   17     -9.23      0.00
    2    8   17      8.72      0.00
    3    8   17     -5.14      0.00
    4    8   17      1.20      0.00
    5    8   17      1.50      0.00
    6    8   17     -0.56      0.00
    7    8   17     -2.93      0.00
   -9    9   17     -0.09      0.00
   -8    9   17     -0.20      0.00
   -7    9   17      0.58      0.00
   -6    9   17     -0.69      0.00
   -5    9   17     -0.73      0.00
   -4    9   17      2.77      0.00
   -3    9   17     -3.19      0.00
   -2    9   17      2.81      0.00
   -1    9   17     -1.94      0.00
    0    9   17     -1.67      0.00
    1    9   17      5.66      0.00
    2    9   17     -5.08      0.00
    3    9   17      1.92      0.00
    4    9   17     -0.30      0.00
    5    9   17     -0.88      0.00
    6    9   17      2.58      0.00
   -8   10   17      2.86      0.00
   -7   10   17     -1.84      0.00
   -6   10   17      1.75      0.00
   -5   10   17     -1.76      0.00
   -4   10   17      1.20      0.00
   -3   10   17     -0.54      0.00
   -2   10   17     -1.24      0.00
   -1   10   17      3.70      0.00
    0   10   17     -4.00      0.00
    1   10   17      2.54      0.00
    2   10   17     -1.30      0.00
    3   10   17     -0.47      0.00
    4   10   17      2.27      0.00
    5   10   17     -2.61      0.00
   -7   11   17     -2.55      0.00
   -6   11   17      2.73      0.00
   -5   11   17     -2.29      0.00
   -4   11   17      1.85      0.00
   -3   11   17     -0.11      0.00
   -2   11   17     -1.47      0.00
   -1   11   17      1.37      0.00
    0   11   17     -1.28      0.00
    1   11   17      1.08      0.00
    2   11   17      1.05      0.00
    3   11   17     -3.26      0.00
    4   11   17      3.32      0.00
    5   11   17     -2.29      0.00
   -6   12   17      1.90      0.00
   -5   12   17     -0.97      0.00
   -4   12   17      0.56      0.00
   -3   12   17     -2.30      0.00
   -2   12   17      2.82      0.00
   -1   12   17      0.12      0.00
    0   12   17     -3.43      0.00
    1   12   17      5.01      0.00
    2   12   17     -4.94      0.00
    3   12   17      2.77      0.00
    4   12   17     -0.41      0.00
   -5   13   17     -1.10      0.00
   -4   13   17     -0.85      0.00
   -3   13   17      2.87      0.00
   -2   13   17     -2.87      0.00
   -1   13   17      0.65      0.00
    0   13   17      0.98      0.00
    1   13   17     -1.63      0.00
    2   13   17      2.48      0.00
   -2   14   17      2.84      0.00
   -1   14   17     -3.64      0.00
  -11    0   18     -7.32      0.00
  -10    0   18     10.13      0.00
   -9    0   18     -8.24      0.00
   -8    0   18      1.62      0.00
   -7    0   18      4.15      0.00
   -6    0   18     -5.29      0.00
   -5    0   18      5.01      0.00
   -4    0   18     -5.17      0.00
   -3    0   18      3.12      0.00
   -2    0   18     -0.44      0.00
   -1    0   18      0.56      0.00
    0    0   18     -0.79      0.00
    1    0   18      0.16      0.00
    2    0   18     -2.60      0.00
    3    0   18      5.33      0.00
    4    0   18     -2.69      0.00
    5    0   18     -1.47      0.00
    6    0   18      2.05      0.00
    7    0   18     -1.18      0.00
    8    0   18      0.61      0.00
  -11    1   18      0.72      0.00
  -10    1   18     -2.18      0.00
   -9    1   18      2.42      0.00
   -8    1   18     -1.15      0.00
   -7    1   18     -0.30      0.00
   -6    1   18      0.32      0.00
   -5    1   18      0.78      0.00
   -4    1   18     -1.29      0.00
   -3    1   18      0.75      0.00
   -2    1   18     -0.74      0.00
   -1    1   18      2.66      0.00
    0    1   18     -5.03      0.00
    1    1   18      4.81      0.00
    2    1   18     -1.95      0.00
    3    1   18     -0.59      0.00
    4    1   18      1.45      0.00
    5    1   18     -1.61      0.00
    6    1   18      1.21      0.00
    7    1   18     -0.01      0.00
    8    1   18     -0.96      0.00
  -11    2   18     -3.20      0.00
  -10    2   18      6.40      0.00
   -9    2   18     -6.24      0.00
   -8    2   18      2.47      0.00
   -7    2   18      0.28      0.00
   -6    2   18     -0.45      0.00
   -5    2   18      3.02      0.00
   -4    2   18     -8.24      0.00
   -3    2   18      8.90      0.00
   -2    2   18     -3.94      0.00
   -1    2   18     -0.76      0.00
    0    2   18      3.95      0.00
    1    2   18     -5.97      0.00
    2    2   18      4.29      0.00
    3    2   18     -1.06      0.00
    4    2   18      0.51      0.00
    5    2   18     -0.31      0.00
    6    2   18     -1.69      0.00
    7    2   18      2.59      0.00
    8    2   18     -1.71      0.00
  -11    3   18      0.51      0.00
  -10    3   18     -0.25      0.00
   -9    3   18     -0.18      0.00
   -8    3   18     -0.13      0.00
   -7    3   18      1.21      0.00
   -6    3   18     -2.31      0.00
   -5    3   18      2.64      0.00
   -4    3   18     -2.43      0.00
   -3    3   18      2.05      0.00
   -2    3   18     -1.33      0.00
   -1    3   18      1.37      0.00
    0    3   18     -3.29      0.00
    1    3   18      5.17      0.00
    2    3   18     -5.31      0.00
    3    3   18      5.16      0.00
    4    3   18     -4.94      0.00
    5    3   18      2.87      0.00
    6    3   18      0.09      0.00
    7    3   18     -1.59      0.00
    8    3   18      1.67      0.00
  -11    4   18      1.14      0.00
  -10    4   18     -0.30      0.00
   -9    4   18     -0.07      0.00
   -8    4   18     -0.60      0.00
   -7    4   18      0.20      0.00
   -6    4   18      1.08      0.00
   -5    4   18      1.35      0.00
   -4    4   18     -6.69      0.00
   -3    4   18      7.27      0.00
   -2    4   18     -1.86      0.00
   -1    4   18     -3.38      0.00
    0    4   18      6.38      0.00
    1    4   18     -7.85      0.00
    2    4   18      6.76      0.00
    3    4   18     -4.99      0.00
    4    4   18      4.50      0.00
    5    4   18     -2.61      0.00
    6    4   18     -0.99      0.00
    7    4   18      2.41      0.00
    8    4   18     -1.30      0.00
  -10    5   18      2.90      0.00
   -9    5   18     -3.45      0.00
   -8    5   18      0.78      0.00
   -7    5   18      2.46      0.00
   -6    5   18     -2.23      0.00
   -5    5   18     -1.40      0.00
   -4    5   18      3.06      0.00
   -3    5   18     -0.40      0.00
   -2    5   18     -1.40      0.00
   -1    5   18     -0.34      0.00
    0    5   18      0.54      0.00
    1    5   18      3.62      0.00
    2    5   18     -8.61      0.00
    3    5   18     11.28      0.00
    4    5   18    -10.37      0.00
    5    5   18      5.88      0.00
    6    5   18     -0.60      0.00
    7    5   18     -2.48      0.00
  -10    6   18     -3.17      0.00
   -9    6   18      4.50      0.00
   -8    6   18     -4.47      0.00
   -7    6   18      3.93      0.00
   -6    6   18     -2.93      0.00
   -5    6   18      2.08      0.00
   -4    6   18     -0.60      0.00
   -3    6   18     -2.27      0.00
   -2    6   18      3.69      0.00
   -1    6   18     -2.49      0.00
    0    6   18      2.33      0.00
    1    6   18     -3.27      0.00
    2    6   18      2.19      0.00
    3    6   18     -1.83      0.00
    4    6   18      4.69      0.00
    5    6   18     -5.98      0.00
    6    6   18      3.37      0.00
    7    6   18     -0.88      0.00
  -10    7   18     -1.38      0.00
   -9    7   18      2.62      0.00
   -8    7   18     -2.91      0.00
   -7    7   18      1.26      0.00
   -6    7   18      2.33      0.00
   -5    7   18     -6.63      0.00
   -4    7   18      7.92      0.00
   -3    7   18     -4.41      0.00
   -2    7   18      0.06      0.00
   -1    7   18      2.41      0.00
    0    7   18     -5.34      0.00
    1    7   18      8.74      0.00
    2    7   18     -9.49      0.00
    3    7   18      7.37      0.00
    4    7   18     -3.80      0.00
    5    7   18      0.33      0.00
    6    7   18      0.34      0.00
    7    7   18      1.60      0.00
   -9    8   18      1.85      0.00
   -8    8   18     -1.04      0.00
   -7    8   18      0.37      0.00
   -6    8   18     -0.79      0.00
   -5    8   18      2.32      0.00
   -4    8   18     -2.92      0.00
   -3    8   18      1.74      0.00
   -2    8   18     -1.30      0.00
   -1    8   18      0.97      0.00
    0    8   18      2.81      0.00
    1    8   18     -6.89      0.00
    2    8   18      5.71      0.00
    3    8   18     -2.51      0.00
    4    8   18      1.89      0.00
    5    8   18     -1.28      0.00
    6    8   18     -1.08      0.00
   -9    9   18      4.32      0.00
   -8    9   18     -3.93      0.00
   -7    9   18      2.01      0.00
   -6    9   18     -0.39      0.00
   -5    9   18     -0.83      0.00
   -4    9   18      1.85      0.00
   -3    9   18     -2.30      0.00
   -2    9   18      2.63      0.00
   -1    9   18     -2.03      0.00
    0    9   18     -0.80      0.00
    1    9   18      3.38      0.00
    2    9   18     -3.51      0.00
    3    9   18      2.96      0.00
    4    9   18     -2.34      0.00
    5    9   18      1.37      0.00
    6    9   18     -2.13      0.00
   -8   10   18      1.08      0.00
   -7   10   18      0.13      0.00
   -6   10   18     -1.03      0.00
   -5   10   18      2.70      0.00
   -4   10   18     -4.27      0.00
   -3   10   18      3.70      0.00
   -2   10   18     -2.11      0.00
   -1   10   18      0.20      0.00
    0   10   18      3.24      0.00
    1   10   18     -5.62      0.00
    2   10   18      3.58      0.00
    3   10   18      0.13      0.00
    4   10   18     -2.00      0.00
    5   10   18      2.64      0.00
   -7   11   18      2.63      0.00
   -6   11   18     -3.43      0.00
   -5   11   18      2.92      0.00
   -4   11   18     -1.79      0.00
   -3   11   18      1.16      0.00
   -2   11   18      0.46      0.00
   -1   11   18     -3.25      0.00
    0   11   18      4.77      0.00
    1   11   18     -4.61      0.00
    2   11   18      3.30      0.00
    3   11   18     -0.42      0.00
    4   11   18     -1.83      0.00
   -6   12   18     -3.49      0.00
   -5   12   18      1.98      0.00
   -4   12   18      0.34      0.00
   -3   12   18     -2.84      0.00
   -2   12   18      3.19      0.00
   -1   12   18     -1.04      0.00
    0   12   18     -0.79      0.00
    1   12   18      1.78      0.00
    2   12   18     -2.92      0.00
    3   12   18      2.94      0.00
   -4   13   18      1.85      0.00
   -3   13   18      0.76      0.00
   -2   13   18     -3.51      0.00
   -1   13   18      3.44      0.00
    0   13   18     -1.44      0.00
    1   13   18     -1.28      0.00
  -11    1   19      4.67      0.00
  -10    1   19     -7.30      0.00
   -9    1   19      6.34      0.00
   -8    1   19     -1.33      0.00
   -7    1   19     -2.72      0.00
   -6    1   19      3.38      0.00
   -5    1   19     -4.49      0.00
   -4    1   19      6.53      0.00
   -3    1   19     -5.40      0.00
   -2    1   19      2.42      0.00
   -1    1   19     -1.32      0.00
    0    1   19      0.32      0.00
    1    1   19      0.89      0.00
    2    1   19      0.88      0.00
    3    1   19     -2.85      0.00
    4    1   19      0.86      0.00
    5    1   19      1.59      0.00
    6    1   19     -1.25      0.00
    7    1   19      0.29      0.00
    8    1   19      0.23      0.00
  -11    2   19     -1.91      0.00
  -10    2   19      3.25      0.00
   -9    2   19     -2.82      0.00
   -8    2   19      0.84      0.00
   -7    2   19      0.82      0.00
   -6    2   19     -0.47      0.00
   -5    2   19     -1.43      0.00
   -4    2   19      2.88      0.00
   -3    2   19     -2.64      0.00
   -2    2   19      1.74      0.00
   -1    2   19     -2.50      0.00
    0    2   19      4.65      0.00
    1    2   19     -4.64      0.00
    2    2   19      1.61      0.00
    3    2   19      0.79      0.00
    4    2   19     -0.78      0.00
    5    2   19      0.22      0.00
    6    2   19     -0.02      0.00
    7    2   19     -0.43      0.00
    8    2   19      0.73      0.00
  -11    3   19      0.33      0.00
  -10    3   19     -3.71      0.00
   -9    3   19      4.69      0.00
   -8    3   19     -2.39      0.00
   -7    3   19      0.95      0.00
   -6    3   19     -1.15      0.00
   -5    3   19     -2.28      0.00
   -4    3   19      8.91      0.00
   -3    3   19    -10.53      0.00
   -2    3   19      4.96      0.00
   -1    3   19      2.25      0.00
    0    3   19     -7.52      0.00
    1    3   19      9.09      0.00
    2    3   19     -6.09      0.00
    3    3   19      2.38      0.00
    4    3   19     -0.85      0.00
    5    3   19     -0.99      0.00
    6    3   19      3.16      0.00
    7    3   19     -2.77      0.00
  -10    4   19     -1.34      0.00
   -9    4   19      1.72      0.00
   -8    4   19      0.11      0.00
   -7    4   19     -3.10      0.00
   -6    4   19      4.04      0.00
   -5    4   19     -1.72      0.00
   -4    4   19     -0.60      0.00
   -3    4   19      0.44      0.00
   -2    4   19     -0.06      0.00
   -1    4   19      0.74      0.00
    0    4   19      0.28      0.00
    1    4   19     -3.80      0.00
    2    4   19      7.30      0.00
    3    4   19     -9.08      0.00
    4    4   19      8.26      0.00
    5    4   19     -4.58      0.00
    6    4   19      0.15      0.00
    7    4   19      2.70      0.00
  -10    5   19      2.18      0.00
   -9    5   19     -3.05      0.00
   -8    5   19      3.30      0.00
   -7    5   19     -1.95      0.00
   -6    5   19     -0.09      0.00
   -5    5   19     -0.30      0.00
   -4    5   19      2.13      0.00
   -3    5   19     -1.52      0.00
   -2    5   19     -0.68      0.00
   -1    5   19      2.07      0.00
    0    5   19     -3.60      0.00
    1    5   19      4.51      0.00
    2    5   19     -3.10      0.00
    3    5   19      2.66      0.00
    4    5   19     -4.72      0.00
    5    5   19      4.76      0.00
    6    5   19     -1.84      0.00
    7    5   19     -0.04      0.00
  -10    6   19     -1.27      0.00
   -9    6   19      0.83      0.00
   -8    6   19      0.86      0.00
   -7    6   19     -1.98      0.00
   -6    6   19     -0.02      0.00
   -5    6   19      4.65      0.00
   -4    6   19     -6.61      0.00
   -3    6   19      3.07      0.00
   -2    6   19      1.02      0.00
   -1    6   19     -1.79      0.00
    0    6   19      2.54      0.00
    1    6   19     -5.86      0.00
    2    6   19      9.28      0.00
    3    6   19    -10.05      0.00
    4    6   19      7.43      0.00
    5    6   19     -3.09      0.00
    6    6   19      0.27      0.00
    7    6   19      0.30      0.00
   -9    7   19     -4.87      0.00
   -8    7   19      3.94      0.00
   -7    7   19     -2.09      0.00
   -6    7   19      1.33      0.00
   -5    7   19     -1.86      0.00
   -4    7   19      1.01      0.00
   -3    7   19      1.41      0.00
   -2    7   19     -1.33      0.00
   -1    7   19     -0.48      0.00
    0    7   19     -1.19      0.00
    1    7   19      4.28      0.00
    2    7   19     -3.65      0.00
    3    7   19      2.45      0.00
    4    7   19     -4.27      0.00
    5    7   19      4.93      0.00
    6    7   19     -2.05      0.00
   -9    8   19     -3.25      0.00
   -8    8   19      2.75      0.00
   -7    8   19     -0.42      0.00
   -6    8   19     -2.35      0.00
   -5    8   19      4.32      0.00
   -4    8   19     -4.21      0.00
   -3    8   19      2.08      0.00
   -2    8   19     -0.19      0.00
   -1    8   19     -1.22      0.00
    0    8   19      3.75      0.00
    1    8   19     -5.85      0.00
    2    8   19      5.58      0.00
    3    8   19     -4.31      0.00
    4    8   19      2.82      0.00
    5    8   19     -1.43      0.00
    6    8   19      2.15      0.00
   -8    9   19     -1.08      0.00
   -7    9   19      0.69      0.00
   -6    9   19      1.00      0.00
   -5    9   19     -4.13      0.00
   -4    9   19      6.02      0.00
   -3    9   19     -4.96      0.00
   -2    9   19      3.11      0.00
   -1    9   19     -0.33      0.00
    0    9   19     -5.23      0.00
    1    9   19      9.18      0.00
    2    9   19     -6.71      0.00
    3    9   19      1.78      0.00
    4    9   19      0.71      0.00
    5    9   19     -1.87      0.00
   -7   10   19     -3.26      0.00
   -6   10   19      3.54      0.00
   -5   10   19     -2.73      0.00
   -4   10   19      1.04      0.00
   -3   10   19      0.92      0.00
   -2   10   19     -3.19      0.00
   -1   10   19      4.23      0.00
    0   10   19     -2.72      0.00
    1   10   19      0.79      0.00
    2   10   19      0.36      0.00
    3   10   19     -2.14      0.00
    4   10   19      3.26      0.00
   -6   11   19      2.68      0.00
   -5   11   19     -2.71      0.00
   -4   11   19      1.91      0.00
   -3   11   19     -0.25      0.00
   -2   11   19     -0.43      0.00
   -1   11   19      0.24      0.00
    0   11   19     -1.10      0.00
    1   11   19      1.54      0.00
    2   11   19      0.05      0.00
    3   11   19     -1.41      0.00
   -5   12   19     -0.54      0.00
   -4   12   19     -0.58      0.00
   -3   12   19     -0.18      0.00
   -2   12   19      1.08      0.00
   -1   12   19     -0.46      0.00
    0   12   19     -0.93      0.00
    1   12   19      2.56      0.00
    2   12   19     -3.35      0.00
   -2   13   19     -2.08      0.00
   -1   13   19     -0.75      0.00
  -10    0   20      4.97      0.00
   -9    0   20     -3.84      0.00
   -8    0   20     -0.23      0.00
   -7    0   20      3.17      0.00
   -6    0   20     -3.52      0.00
   -5    0   20      4.53      0.00
   -4    0   20     -5.79      0.00
   -3    0   20      4.21      0.00
   -2    0   20     -2.45      0.00
   -1    0   20      3.28      0.00
    0    0   20     -3.39      0.00
    1    0   20      2.01      0.00
    2    0   20     -2.28      0.00
    3    0   20      2.18      0.00
    4    0   20      0.99      0.00
    5    0   20     -3.53      0.00
    6    0   20      2.91      0.00
    7    0   20     -1.19      0.00
  -10    1   20     -2.66      0.00
   -9    1   20      1.99      0.00
   -8    1   20      0.11      0.00
   -7    1   20     -2.01      0.00
   -6    1   20      1.84      0.00
   -5    1   20      0.40      0.00
   -4    1   20     -2.69      0.00
   -3    1   20      3.11      0.00
   -2    1   20     -2.06      0.00
   -1    1   20      1.60      0.00
    0    1   20     -2.10      0.00
    1    1   20      1.35      0.00
    2    1   20      1.16      0.00
    3    1   20     -2.78      0.00
    4    1   20      1.95      0.00
    5    1   20     -0.15      0.00
    6    1   20     -1.06      0.00
    7    1   20      1.49      0.00
  -10    2   20      5.47      0.00
   -9    2   20     -6.01      0.00
   -8    2   20      2.43      0.00
   -7    2   20      0.58      0.00
   -6    2   20     -1.32      0.00
   -5    2   20      4.04      0.00
   -4    2   20     -8.51      0.00
   -3    2   20      8.95      0.00
   -2    2   20     -4.69      0.00
   -1    2   20     -0.43      0.00
    0    2   20      4.60      0.00
    1    2   20     -5.63      0.00
    2    2   20      2.26      0.00
    3    2   20      0.97      0.00
    4    2   20     -1.07      0.00
    5    2   20      1.05      0.00
    6    2   20     -1.72      0.00
    7    2   20      1.02      0.00
  -10    3   20     -1.82      0.00
   -9    3   20      1.38      0.00
   -8    3   20     -0.72      0.00
   -7    3   20      0.94      0.00
   -6    3   20     -1.78      0.00
   -5    3   20      2.06      0.00
   -4    3   20     -1.71      0.00
   -3    3   20      1.18      0.00
   -2    3   20     -0.38      0.00
   -1    3   20      0.31      0.00
    0    3   20     -1.99      0.00
    1    3   20      3.63      0.00
    2    3   20     -3.51      0.00
    3    3   20      2.88      0.00
    4    3   20     -2.64      0.00
    5    3   20      1.83      0.00
    6    3   20     -0.40      0.00
    7    3   20     -0.81      0.00
  -10    4   20      1.64      0.00
   -9    4   20     -2.00      0.00
   -8    4   20      0.39      0.00
   -7    4   20     -0.17      0.00
   -6    4   20      1.39      0.00
   -5    4   20      0.54      0.00
   -4    4   20     -5.25      0.00
   -3    4   20      6.77      0.00
   -2    4   20     -3.35      0.00
   -1    4   20     -2.19      0.00
    0    4   20      7.02      0.00
    1    4   20     -7.68      0.00
    2    4   20      3.86      0.00
    3    4   20     -1.00      0.00
    4    4   20      1.03      0.00
    5    4   20     -0.08      0.00
    6    4   20     -1.68      0.00
    7    4   20      1.20      0.00
  -10    5   20      1.60      0.00
   -9    5   20     -1.01      0.00
   -8    5   20     -1.30      0.00
   -7    5   20      3.98      0.00
   -6    5   20     -3.53      0.00
   -5    5   20     -1.12      0.00
   -4    5   20      5.04      0.00
   -3    5   20     -3.94      0.00
   -2    5   20      0.85      0.00
   -1    5   20      0.34      0.00
    0    5   20     -1.46      0.00
    1    5   20      4.98      0.00
    2    5   20     -9.20      0.00
    3    5   20     10.78      0.00
    4    5   20     -8.09      0.00
    5    5   20      3.05      0.00
    6    5   20      0.73      0.00
   -9    6   20      5.66      0.00
   -8    6   20     -4.85      0.00
   -7    6   20      1.66      0.00
   -6    6   20      0.93      0.00
   -5    6   20     -0.76      0.00
   -4    6   20      0.35      0.00
   -3    6   20     -1.37      0.00
   -2    6   20      0.78      0.00
   -1    6   20      1.08      0.00
    0    6   20      0.01      0.00
    1    6   20     -2.36      0.00
    2    6   20      2.21      0.00
    3    6   20     -2.62      0.00
    4    6   20      5.50      0.00
    5    6   20     -6.19      0.00
    6    6   20      3.02      0.00
   -9    7   20      0.84      0.00
   -8    7   20     -0.95      0.00
   -7    7   20     -0.09      0.00
   -6    7   20      2.53      0.00
   -5    7   20     -5.21      0.00
   -4    7   20      5.06      0.00
   -3    7   20     -1.31      0.00
   -2    7   20     -2.11      0.00
   -1    7   20      2.87      0.00
    0    7   20     -3.28      0.00
    1    7   20      4.69      0.00
    2    7   20     -5.99      0.00
    3    7   20      6.19      0.00
    4    7   20     -4.66      0.00
    5    7   20      2.53      0.00
    6    7   20     -2.26      0.00
   -8    8   20     -1.25      0.00
   -7    8   20      0.20      0.00
   -6    8   20     -1.20      0.00
   -5    8   20      4.15      0.00
   -4    8   20     -4.95      0.00
   -3    8   20      2.65      0.00
   -2    8   20     -1.33      0.00
   -1    8   20      0.42      0.00
    0    8   20      3.97      0.00
    1    8   20     -8.05      0.00
    2    8   20      6.30      0.00
    3    8   20     -2.49      0.00
    4    8   20      1.45      0.00
    5    8   20     -1.09      0.00
   -8    9   20     -1.85      0.00
   -7    9   20      1.56      0.00
   -6    9   20     -0.84      0.00
   -5    9   20      0.09      0.00
   -4    9   20      0.26      0.00
   -3    9   20     -0.68      0.00
   -2    9   20      1.90      0.00
   -1    9   20     -2.13      0.00
    0    9   20     -0.08      0.00
    1    9   20      2.12      0.00
    2    9   20     -2.49      0.00
    3    9   20      3.08      0.00
    4    9   20     -3.60      0.00
   -7   10   20      0.38      0.00
   -6   10   20     -2.54      0.00
   -5   10   20      4.70      0.00
   -4   10   20     -5.18      0.00
   -3   10   20      3.50      0.00
   -2   10   20     -1.80      0.00
   -1   10   20     -0.43      0.00
    0   10   20      4.51      0.00
    1   10   20     -6.61      0.00
    2   10   20      3.83      0.00
    3   10   20     -0.09      0.00
    4   10   20     -1.39      0.00
   -6   11   20     -3.92      0.00
   -5   11   20      2.24      0.00
   -4   11   20      0.24      0.00
   -3   11   20     -1.89      0.00
   -2   11   20      2.77      0.00
   -1   11   20     -2.59      0.00
    0   11   20      1.34      0.00
    1   11   20     -0.76      0.00
    2   11   20      0.67      0.00
   -4   12   20      1.22      0.00
   -3   12   20     -2.37      0.00
   -2   12   20      1.16      0.00
   -1   12   20      1.40      0.00
    0   12   20     -2.49      0.00
    1   12   20      2.38      0.00
  -10    1   21     -3.33      0.00
   -9    1   21      3.12      0.00
   -8    1   21     -0.28      0.00
   -7    1   21     -1.74      0.00
   -6    1   21      2.29      0.00
   -5    1   21     -4.47      0.00
   -4    1   21      7.06      0.00
   -3    1   21     -6.38      0.00
   -2    1   21      4.05      0.00
   -1    1   21     -2.57      0.00
    0    1   21      0.78      0.00
    1    1   21      0.52      0.00
    2    1   21      0.38      0.00
    3    1   21     -0.62      0.00
    4    1   21     -1.27      0.00
    5    1   21      2.09      0.00
    6    1   21     -1.18      0.00
    7    1   21      0.43      0.00
  -10    2   21      2.72      0.00
   -9    2   21     -1.56      0.00
   -8    2   21     -0.80      0.00
   -7    2   21      2.43      0.00
   -6    2   21     -1.58      0.00
   -5    2   21     -1.32      0.00
   -4    2   21      4.02      0.00
   -3    2   21     -4.32      0.00
   -2    2   21      2.30      0.00
   -1    2   21     -0.63      0.00
    0    2   21      0.83      0.00
    1    2   21     -0.76      0.00
    2    2   21     -0.99      0.00
    3    2   21      2.09      0.00
    4    2   21     -0.73      0.00
    5    2   21     -1.46      0.00
    6    2   21      2.35      0.00
    7    2   21     -1.69      0.00
  -10    3   21     -4.73      0.00
   -9    3   21      5.58      0.00
   -8    3   21     -2.39      0.00
   -7    3   21     -0.16      0.00
   -6    3   21      0.50      0.00
   -5    3   21     -2.74      0.00
   -4    3   21      7.06      0.00
   -3    3   21     -8.40      0.00
   -2    3   21      4.62      0.00
   -1    3   21      2.17      0.00
    0    3   21     -8.03      0.00
    1    3   21      7.92      0.00
    2    3   21     -2.19      0.00
    3    3   21     -2.10      0.00
    4    3   21      2.50      0.00
    5    3   21     -2.78      0.00
    6    3   21      2.87      0.00
  -10    4   21      0.33      0.00
   -9    4   21     -1.10      0.00
   -8    4   21      2.17      0.00
   -7    4   21     -3.64      0.00
   -6    4   21      3.71      0.00
   -5    4   21     -0.78      0.00
   -4    4   21     -2.77      0.00
   -3    4   21      3.49      0.00
   -2    4   21     -1.85      0.00
   -1    4   21     -0.04      0.00
    0    4   21      2.25      0.00
    1    4   21     -4.99      0.00
    2    4   21      7.11      0.00
    3    4   21     -7.21      0.00
    4    4   21      4.76      0.00
    5    4   21     -1.16      0.00
    6    4   21     -1.31      0.00
   -9    5   21     -2.08      0.00
   -8    5   21      2.36      0.00
   -7    5   21      0.01      0.00
   -6    5   21     -2.88      0.00
   -5    5   21      2.24      0.00
   -4    5   21      0.64      0.00
   -3    5   21     -2.20      0.00
   -2    5   21      2.32      0.00
   -1    5   21     -0.89      0.00
    0    5   21     -2.47      0.00
    1    5   21      3.99      0.00
    2    5   21     -1.91      0.00
    3    5   21      1.09      0.00
    4    5   21     -2.94      0.00
    5    5   21      2.96      0.00
    6    5   21     -0.67      0.00
   -9    6   21     -0.22      0.00
   -8    6   21      1.37      0.00
   -7    6   21     -2.05      0.00
   -6    6   21      0.52      0.00
   -5    6   21      3.37      0.00
   -4    6   21     -5.66      0.00
   -3    6   21      3.21      0.00
   -2    6   21      0.91      0.00
   -1    6   21     -2.56      0.00
    0    6   21      2.71      0.00
    1    6   21     -4.18      0.00
    2    6   21      6.93      0.00
    3    6   21     -8.15      0.00
    4    6   21      5.75      0.00
    5    6   21     -1.92      0.00
   -8    7   21      3.41      0.00
   -7    7   21     -0.13      0.00
   -6    7   21     -1.08      0.00
   -5    7   21     -1.06      0.00
   -4    7   21      2.13      0.00
   -3    7   21     -0.64      0.00
   -2    7   21      0.79      0.00
   -1    7   21     -1.92      0.00
    0    7   21     -0.70      0.00
    1    7   21      4.51      0.00
    2    7   21     -4.49      0.00
    3    7   21      3.23      0.00
    4    7   21     -3.93      0.00
    5    7   21      3.92      0.00
   -8    8   21     -0.02      0.00
   -7    8   21      0.60      0.00
   -6    8   21     -1.58      0.00
   -5    8   21      2.10      0.00
   -4    8   21     -0.92      0.00
   -3    8   21     -1.11      0.00
   -2    8   21      1.46      0.00
   -1    8   21     -0.52      0.00
    0    8   21      0.65      0.00
    1    8   21     -1.59      0.00
    2    8   21      2.41      0.00
    3    8   21     -3.51      0.00
    4    8   21      4.14      0.00
   -7    9   21     -0.42      0.00
   -6    9   21      3.08      0.00
   -5    9   21     -6.36      0.00
   -4    9   21      6.71      0.00
   -3    9   21     -3.79      0.00
   -2    9   21      1.32      0.00
   -1    9   21      1.15      0.00
    0    9   21     -5.89      0.00
    1    9   21      8.67      0.00
    2    9   21     -5.51      0.00
    3    9   21      0.72      0.00
    4    9   21      1.14      0.00
   -6   10   21      3.46      0.00
   -5   10   21     -1.85      0.00
   -4   10   21     -0.41      0.00
   -3   10   21      2.41      0.00
   -2   10   21     -3.86      0.00
   -1   10   21      3.15      0.00
    0   10   21     -0.19      0.00
    1   10   21     -1.78      0.00
    2   10   21      1.83      0.00
    3   10   21     -2.19      0.00
   -5   11   21     -1.96      0.00
   -4   11   21      1.19      0.00
   -3   11   21     -0.09      0.00
   -2   11   21      0.64      0.00
   -1   11   21     -1.25      0.00
    0   11   21     -0.12      0.00
    1   11   21      1.10      0.00
  -10    0   22      0.67      0.00
   -9    0   22     -0.55      0.00
   -8    0   22     -0.57      0.00
   -7    0   22      0.86      0.00
   -6    0   22     -1.31      0.00
   -5    0   22      4.30      0.00
   -4    0   22     -7.21      0.00
   -3    0   22      6.65      0.00
   -2    0   22     -4.91      0.00
   -1    0   22      4.09      0.00
    0    0   22     -2.60      0.00
    1    0   22      0.75      0.00
    2    0   22      0.20      0.00
    3    0   22     -1.84      0.00
    4    0   22      3.82      0.00
    5    0   22     -3.47      0.00
    6    0   22      1.64      0.00
  -10    1   22     -1.04      0.00
   -9    1   22     -0.21      0.00
   -8    1   22      1.88      0.00
   -7    1   22     -2.88      0.00
   -6    1   22      1.93      0.00
   -5    1   22      0.89      0.00
   -4    1   22     -3.71      0.00
   -3    1   22      4.27      0.00
   -2    1   22     -2.21      0.00
   -1    1   22     -0.25      0.00
    0    1   22      1.21      0.00
    1    1   22     -1.46      0.00
    2    1   22      2.08      0.00
    3    1   22     -2.05      0.00
    4    1   22      0.31      0.00
    5    1   22      1.96      0.00
    6    1   22     -2.85      0.00
  -10    2   22      3.89      0.00
   -9    2   22     -4.29      0.00
   -8    2   22      1.34      0.00
   -7    2   22      1.20      0.00
   -6    2   22     -2.14      0.00
   -5    2   22      4.27      0.00
   -4    2   22     -7.02      0.00
   -3    2   22      7.14      0.00
   -2    2   22     -4.31      0.00
   -1    2   22     -0.21      0.00
    0    2   22      4.38      0.00
    1    2   22     -4.28      0.00
    2    2   22      0.15      0.00
    3    2   22      2.20      0.00
    4    2   22     -1.44      0.00
    5    2   22      1.13      0.00
    6    2   22     -1.08      0.00
   -9    3   22      1.30      0.00
   -8    3   22     -0.43      0.00
   -7    3   22     -0.01      0.00
   -6    3   22     -0.54      0.00
   -5    3   22      1.10      0.00
   -4    3   22     -1.02      0.00
   -3    3   22      0.56      0.00
   -2    3   22      0.03      0.00
   -1    3   22     -0.05      0.00
    0    3   22     -1.13      0.00
    1    3   22      2.45      0.00
    2    3   22     -2.60      0.00
    3    3   22      2.00      0.00
    4    3   22     -1.48      0.00
    5    3   22      1.22      0.00
    6    3   22     -0.88      0.00
   -9    4   22     -2.66      0.00
   -8    4   22      0.35      0.00
   -7    4   22      0.13      0.00
   -6    4   22      1.34      0.00
   -5    4   22     -0.72      0.00
   -4    4   22     -2.40      0.00
   -3    4   22      4.70      0.00
   -2    4   22     -3.95      0.00
   -1    4   22     -0.55      0.00
    0    4   22      5.96      0.00
    1    4   22     -5.97      0.00
    2    4   22      0.63      0.00
    3    4   22      2.57      0.00
    4    4   22     -1.67      0.00
    5    4   22      1.23      0.00
    6    4   22     -1.54      0.00
   -9    5   22      1.99      0.00
   -8    5   22     -3.23      0.00
   -7    5   22      3.90      0.00
   -6    5   22     -2.64      0.00
   -5    5   22     -1.60      0.00
   -4    5   22      5.79      0.00
   -3    5   22     -5.55      0.00
   -2    5   22      1.52      0.00
   -1    5   22      2.18      0.00
    0    5   22     -4.01      0.00
    1    5   22      5.52      0.00
    2    5   22     -7.42      0.00
    3    5   22      7.56      0.00
    4    5   22     -4.04      0.00
    5    5   22     -0.52      0.00
   -8    6   22     -2.88      0.00
   -7    6   22     -1.38      0.00
   -6    6   22      4.36      0.00
   -5    6   22     -2.76      0.00
   -4    6   22     -0.24      0.00
   -3    6   22      1.66      0.00
   -2    6   22     -3.01      0.00
   -1    6   22      3.33      0.00
    0    6   22     -0.11      0.00
    1    6   22     -3.27      0.00
    2    6   22      3.32      0.00
    3    6   22     -2.98      0.00
    4    6   22      3.97      0.00
    5    6   22     -3.45      0.00
   -8    7   22      0.30      0.00
   -7    7   22     -0.21      0.00
   -6    7   22      0.89      0.00
   -5    7   22     -2.11      0.00
   -4    7   22      1.87      0.00
   -3    7   22      0.53      0.00
   -2    7   22     -2.40      0.00
   -1    7   22      1.86      0.00
    0    7   22     -0.54      0.00
    1    7   22      0.62      0.00
    2    7   22     -2.53      0.00
    3    7   22      4.62      0.00
    4    7   22     -4.59      0.00
   -7    8   22      0.10      0.00
   -6    8   22     -1.47      0.00
   -5    8   22      4.83      0.00
   -4    8   22     -5.47      0.00
   -3    8   22      2.55      0.00
   -2    8   22     -0.66      0.00
   -1    8   22     -0.29      0.00
    0    8   22      3.75      0.00
    1    8   22     -6.76      0.00
    2    8   22      5.12      0.00
    3    8   22     -1.72      0.00
    4    8   22      0.47      0.00
   -6    9   22     -1.39      0.00
   -5    9   22      0.69      0.00
   -4    9   22     -0.20      0.00
   -3    9   22     -0.21      0.00
   -2    9   22      1.43      0.00
   -1    9   22     -1.94      0.00
    0    9   22      0.31      0.00
    1    9   22      1.41      0.00
    2    9   22     -1.93      0.00
    3    9   22      2.55      0.00
   -5   10   22      4.82      0.00
   -4   10   22     -3.89      0.00
   -3   10   22      1.43      0.00
   -2   10   22     -0.49      0.00
   -1   10   22     -0.36      0.00
    0   10   22      3.17      0.00
    1   10   22     -4.46      0.00
    2   10   22      2.09      0.00
   -3   11   22     -3.43      0.00
   -2   11   22      2.90      0.00
   -1   11   22     -0.64      0.00
   -9    1   23      1.04      0.00
   -8    1   23     -0.20      0.00
   -7    1   23     -0.16      0.00
   -6    1   23      1.12      0.00
   -5    1   23     -4.45      0.00
   -4    1   23      7.48      0.00
   -3    1   23     -7.30      0.00
   -2    1   23      5.16      0.00
   -1    1   23     -2.44      0.00
    0    1   23     -0.40      0.00
    1    1   23      1.36      0.00
    2    1   23     -0.66      0.00
    3    1   23      1.30      0.00
    4    1   23     -2.46      0.00
    5    1   23      1.53      0.00
   -9    2   23      1.11      0.00
   -8    2   23     -2.50      0.00
   -7    2   23      3.07      0.00
   -6    2   23     -1.68      0.00
   -5    2   23     -1.32      0.00
   -4    2   23      4.00      0.00
   -3    2   23     -4.26      0.00
   -2    2   23      1.75      0.00
   -1    2   23      1.17      0.00
    0    2   23     -2.08      0.00
    1    2   23      1.40      0.00
    2    2   23     -0.81      0.00
    3    2   23      0.23      0.00
    4    2   23      1.27      0.00
    5    2   23     -3.16      0.00
   -9    3   23      3.91      0.00
   -8    3   23     -0.55      0.00
   -7    3   23     -1.75      0.00
   -6    3   23      1.65      0.00
   -5    3   23     -1.88      0.00
   -4    3   23      3.31      0.00
   -3    3   23     -4.40      0.00
   -2    3   23      3.41      0.00
   -1    3   23      1.02      0.00
    0    3   23     -5.89      0.00
    1    3   23      4.78      0.00
    2    3   23      1.40      0.00
    3    3   23     -4.67      0.00
    4    3   23      3.37      0.00
    5    3   23     -2.01      0.00
   -9    4   23     -2.73      0.00
   -8    4   23      2.89      0.00
   -7    4   23     -2.28      0.00
   -6    4   23      1.22      0.00
   -5    4   23      1.05      0.00
   -4    4   23     -3.69      0.00
   -3    4   23      4.07      0.00
   -2    4   23     -1.50      0.00
   -1    4   23     -1.91      0.00
    0    4   23      4.19      0.00
    1    4   23     -5.17      0.00
    2    4   23      5.41      0.00
    3    4   23     -4.39      0.00
    4    4   23      1.53      0.00
    5    4   23      1.29      0.00
   -8    5   23      1.06      0.00
   -7    5   23      1.48      0.00
   -6    5   23     -4.48      0.00
   -5    5   23      3.83      0.00
   -4    5   23     -0.33      0.00
   -3    5   23     -3.09      0.00
   -2    5   23      4.82      0.00
   -1    5   23     -2.76      0.00
    0    5   23     -2.23      0.00
    1    5   23      4.25      0.00
    2    5   23     -1.76      0.00
    3    5   23      0.07      0.00
    4    5   23     -0.80      0.00
   -8    6   23      1.82      0.00
   -7    6   23     -1.86      0.00
   -6    6   23      0.91      0.00
   -5    6   23      1.58      0.00
   -4    6   23     -3.71      0.00
   -3    6   23      2.70      0.00
   -2    6   23      0.59      0.00
   -1    6   23     -2.75      0.00
    0    6   23      2.60      0.00
    1    6   23     -2.28      0.00
    2    6   23      3.70      0.00
    3    6   23     -5.00      0.00
    4    6   23      3.27      0.00
   -7    7   23      1.85      0.00
   -6    7   23     -2.64      0.00
   -5    7   23     -0.51      0.00
   -4    7   23      3.16      0.00
   -3    7   23     -2.90      0.00
   -2    7   23      2.55      0.00
   -1    7   23     -1.95      0.00
    0    7   23     -1.37      0.00
    1    7   23      4.76      0.00
    2    7   23     -4.75      0.00
    3    7   23      3.09      0.00
   -6    8   23      0.75      0.00
   -5    8   23     -0.73      0.00
   -4    8   23      0.98      0.00
   -3    8   23     -1.57      0.00
   -2    8   23      0.88      0.00
   -1    8   23      0.88      0.00
    0    8   23     -1.68      0.00
    1    8   23      0.90      0.00
    2    8   23      0.94      0.00
    3    8   23     -3.01      0.00
   -5    9   23     -5.95      0.00
   -4    9   23      4.78      0.00
   -3    9   23     -1.09      0.00
   -2    9   23     -0.77      0.00
   -1    9   23      1.45      0.00
    0    9   23     -3.64      0.00
    1    9   23      4.74      0.00
    2    9   23     -2.34      0.00
   -4   10   23     -2.12      0.00
   -3   10   23      3.02      0.00
   -2   10   23     -2.85      0.00
   -1   10   23      0.97      0.00
    0   10   23      2.11      0.00
   -9    0   24     -0.02      0.00
   -8    0   24      0.80      0.00
   -7    0   24     -1.76      0.00
   -6    0   24      0.36      0.00
   -5    0   24      4.48      0.00
   -4    0   24     -8.61      0.00
   -3    0   24      8.74      0.00
   -2    0   24     -6.24      0.00
   -1    0   24      2.86      0.00
    0    0   24      0.30      0.00
    1    0   24     -1.61      0.00
    2    0   24      2.07      0.00
    3    0   24     -3.57      0.00
    4    0   24      3.96      0.00
    5    0   24     -1.50      0.00
   -9    1   24     -2.21      0.00
   -8    1   24      2.71      0.00
   -7    1   24     -2.43      0.00
   -6    1   24      1.09      0.00
   -5    1   24      1.16      0.00
   -4    1   24     -3.18      0.00
   -3    1   24      3.34      0.00
   -2    1   24     -1.15      0.00
   -1    1   24     -1.72      0.00
    0    1   24      2.96      0.00
    1    1   24     -2.23      0.00
    2    1   24      0.85      0.00
    3    1   24      0.44      0.00
    4    1   24     -1.82      0.00
    5    1   24      3.08      0.00
   -8    2   24     -0.10      0.00
   -7    2   24      1.43      0.00
   -6    2   24     -2.05      0.00
   -5    2   24      3.38      0.00
   -4    2   24     -4.60      0.00
   -3    2   24      4.73      0.00
   -2    2   24     -3.61      0.00
   -1    2   24      0.39      0.00
    0    2   24      3.06      0.00
    1    2   24     -2.32      0.00
    2    2   24     -1.36      0.00
    3    2   24      2.38      0.00
    4    2   24     -0.83      0.00
    5    2   24      0.27      0.00
   -8    3   24      0.32      0.00
   -7    3   24     -1.12      0.00
   -6    3   24      1.13      0.00
   -5    3   24     -0.45      0.00
   -4    3   24     -0.08      0.00
   -3    3   24      0.22      0.00
   -2    3   24     -0.19      0.00
   -1    3   24      0.34      0.00
    0    3   24     -0.90      0.00
    1    3   24      1.70      0.00
    2    3   24     -2.24      0.00
    3    3   24      2.11      0.00
    4    3   24     -1.43      0.00
   -8    4   24     -0.86      0.00
   -7    4   24      0.93      0.00
   -6    4   24      1.13      0.00
   -5    4   24     -2.10      0.00
   -4    4   24      0.72      0.00
   -3    4   24      2.15      0.00
   -2    4   24     -3.96      0.00
   -1    4   24      1.29      0.00
    0    4   24      3.69      0.00
    1    4   24     -3.81      0.00
    2    4   24     -1.05      0.00
    3    4   24      3.65      0.00
    4    4   24     -2.21      0.00
   -8    5   24     -3.38      0.00
   -7    5   24      2.11      0.00
   -6    5   24     -0.38      0.00
   -5    5   24     -2.14      0.00
   -4    5   24      4.64      0.00
   -3    5   24     -4.35      0.00
   -2    5   24      0.51      0.00
   -1    5   24      3.77      0.00
    0    5   24     -5.26      0.00
    1    5   24      4.48      0.00
    2    5   24     -3.95      0.00
    3    5   24      3.35      0.00
    4    5   24     -0.69      0.00
   -7    6   24     -3.22      0.00
   -6    6   24      5.34      0.00
   -5    6   24     -3.04      0.00
   -4    6   24     -1.17      0.00
   -3    6   24      4.11      0.00
   -2    6   24     -5.23      0.00
   -1    6   24      3.22      0.00
    0    6   24      1.64      0.00
    1    6   24     -4.85      0.00
    2    6   24      4.27      0.00
    3    6   24     -2.66      0.00
   -6    7   24     -1.59      0.00
   -5    7   24      1.17      0.00
   -4    7   24     -0.29      0.00
   -3    7   24      0.34      0.00
   -2    7   24     -0.75      0.00
   -1    7   24      0.17      0.00
    0    7   24      1.08      0.00
    1    7   24     -1.20      0.00
    2    7   24     -0.89      0.00
   -5    8   24      3.79      0.00
   -4    8   24     -4.07      0.00
   -3    8   24      1.55      0.00
   -2    8   24      0.06      0.00
   -1    8   24     -0.66      0.00
    0    8   24      2.40      0.00
    1    8   24     -3.69      0.00
    2    8   24      2.60      0.00
   -4    9   24      0.36      0.00
   -3    9   24     -0.93      0.00
   -2    9   24      1.34      0.00
   -1    9   24     -1.30      0.00
    0    9   24      0.04      0.00
   -8    1   25     -0.99      0.00
   -7    1   25      1.45      0.00
   -6    1   25      0.02      0.00
   -5    1   25     -4.01      0.00
   -4    1   25      7.18      0.00
   -3    1   25     -7.40      0.00
   -2    1   25      5.25      0.00
   -1    1   25     -1.45      0.00
    0    1   25     -1.89      0.00
    1    1   25      2.06      0.00
    2    1   25     -0.91      0.00
    3    1   25      1.53      0.00
    4    1   25     -1.97      0.00
   -8    2   25     -2.72      0.00
   -7    2   25      2.31      0.00
   -6    2   25     -1.25      0.00
   -5    2   25     -0.52      0.00
   -4    2   25      2.14      0.00
   -3    2   25     -2.30      0.00
   -2    2   25      0.55      0.00
   -1    2   25      1.81      0.00
    0    2   25     -2.67      0.00
    1    2   25      1.33      0.00
    2    2   25      0.89      0.00
    3    2   25     -2.38      0.00
    4    2   25      3.00      0.00
   -8    3   25      1.80      0.00
   -7    3   25     -2.66      0.00
   -6    3   25      1.46      0.00
   -5    3   25     -0.05      0.00
   -4    3   25     -0.37      0.00
   -3    3   25     -1.01      0.00
   -2    3   25      2.65      0.00
   -1    3   25     -0.99      0.00
    0    3   25     -2.38      0.00
    1    3   25      1.50      0.00
    2    3   25      2.88      0.00
    3    3   25     -4.32      0.00
   -7    4   25      0.07      0.00
   -6    4   25     -1.79      0.00
   -5    4   25      2.74      0.00
   -4    4   25     -3.21      0.00
   -3    4   25      2.42      0.00
   -2    4   25      0.29      0.00
   -1    4   25     -3.42      0.00
    0    4   25      4.62      0.00
    1    4   25     -3.77      0.00
    2    4   25      2.62      0.00
    3    4   25     -1.56      0.00
   -7    5   25      1.53      0.00
   -6    5   25     -3.92      0.00
   -5    5   25      3.74      0.00
   -4    5   25     -0.86      0.00
   -3    5   25     -3.10      0.00
   -2    5   25      5.41      0.00
   -1    5   25     -2.85      0.00
    0    5   25     -2.63      0.00
    1    5   25      4.61      0.00
    2    5   25     -2.11      0.00
    3    5   25     -0.12      0.00
   -6    6   25      0.98      0.00
   -5    6   25     -0.08      0.00
   -4    6   25     -1.50      0.00
   -3    6   25      1.80      0.00
   -2    6   25      0.09      0.00
   -1    6   25     -2.15      0.00
    0    6   25      2.14      0.00
    1    6   25     -0.99      0.00
    2    6   25      1.21      0.00
   -5    7   25     -0.37      0.00
   -4    7   25      2.98      0.00
   -3    7   25     -3.45      0.00
   -2    7   25      2.73      0.00
   -1    7   25     -0.69      0.00
    0    7   25     -2.47      0.00
    1    7   25      4.22      0.00
   -4    8   25      1.05      0.00
   -3    8   25      0.19      0.00
   -2    8   25     -1.00      0.00
   -1    8   25      1.79      0.00
    0    8   25     -1.92      0.00
   -7    0   26     -3.45      0.00
   -6    0   26      1.23      0.00
   -5    0   26      4.14      0.00
   -4    0   26     -8.41      0.00
   -3    0   26      8.82      0.00
   -2    0   26     -5.77      0.00
   -1    0   26      0.78      0.00
    0    0   26      2.87      0.00
    1    0   26     -2.90      0.00
    2    0   26      1.95      0.00
    3    0   26     -2.46      0.00
   -7    1   26     -0.92      0.00
   -6    1   26      0.10      0.00
   -5    1   26      0.63      0.00
   -4    1   26     -1.17      0.00
   -3    1   26      1.00      0.00
   -2    1   26      0.27      0.00
   -1    1   26     -1.96      0.00
    0    1   26      2.51      0.00
    1    1   26     -1.16      0.00
    2    1   26     -1.04      0.00
    3    1   26      2.45      0.00
   -7    2   26      0.93      0.00
   -6    2   26     -0.86      0.00
   -5    2   26      1.54      0.00
   -4    2   26     -2.19      0.00
   -3    2   26      2.93      0.00
   -2    2   26     -3.25      0.00
   -1    2   26      1.30      0.00
    0    2   26      1.23      0.00
    1    2   26     -0.56      0.00
    2    2   26     -1.78      0.00
    3    2   26      1.66      0.00
   -7    3   26     -1.52      0.00
   -6    3   26      2.25      0.00
   -5    3   26     -1.99      0.00
   -4    3   26      1.10      0.00
   -3    3   26     -0.14      0.00
   -2    3   26     -0.62      0.00
   -1    3   26      1.00      0.00
    0    3   26     -0.99      0.00
    1    3   26      1.15      0.00
    2    3   26     -1.74      0.00
   -6    4   26      0.83      0.00
   -5    4   26     -2.81      0.00
   -4    4   26      2.66      0.00
   -3    4   26      0.39      0.00
   -2    4   26     -3.61      0.00
   -1    4   26      2.49      0.00
    0    4   26      1.49      0.00
    1    4   26     -2.11      0.00
    2    4   26     -0.91      0.00
   -6    5   26      1.63      0.00
   -5    5   26     -2.10      0.00
   -4    5   26      2.39      0.00
   -3    5   26     -1.73      0.00
   -2    5   26     -0.89      0.00
   -1    5   26      3.87      0.00
    0    5   26     -4.37      0.00
    1    5   26      2.35      0.00
   -5    6   26     -1.65      0.00
   -4    6   26     -1.43      0.00
   -3    6   26      4.08      0.00
   -2    6   26     -4.48      0.00
   -1    6   26      1.11      0.00
    0    6   26      3.68      0.00
    1    6   26     -5.34      0.00
   -4    7   26     -0.84      0.00
   -3    7   26     -1.06      0.00
   -2    7   26      1.39      0.00
   -1    7   26     -1.01      0.00
   -6    1   27     -0.83      0.00
   -5    1   27     -2.68      0.00
   -4    1   27      5.50      0.00
   -3    1   27     -6.15      0.00
   -2    1   27      4.33      0.00
   -1    1   27     -0.44      0.00
    0    1   27     -2.40      0.00
    1    1   27      1.76      0.00
    2    1   27     -0.27      0.00
   -6    2   27     -0.59      0.00
   -5    2   27      0.77      0.00
   -4    2   27     -0.60      0.00
   -3    2   27      0.34      0.00
   -2    2   27     -0.53      0.00
   -1    2   27      1.22      0.00
    0    2   27     -1.37      0.00
    1    2   27      0.00      0.00
   -6    3   27      0.24      0.00
   -5    3   27      1.73      0.00
   -4    3   27     -2.36      0.00
   -3    3   27      0.25      0.00
   -2    3   27      2.76      0.00
   -1    3   27     -2.71      0.00
    0    3   27      0.48      0.00
    1    3   27     -0.39      0.00
   -5    4   27      3.13      0.00
   -4    4   27     -2.00      0.00
   -3    4   27      0.38      0.00
   -2    4   27      1.69      0.00
   -1    4   27     -3.33      0.00
    0    4   27      3.17      0.00
    1    4   27     -1.46      0.00
   -4    5   27     -0.96      0.00
   -3    5   27     -2.03      0.00
   -2    5   27      3.90      0.00
   -1    5   27     -1.36      0.00
    0    5   27     -3.10      0.00
   -2    6   27     -0.47      0.00
   -5    0   28      2.74      0.00
   -4    0   28     -5.93      0.00
   -3    0   28      6.49      0.00
   -2    0   28     -3.81      0.00
   -1    0   28     -0.81      0.00
    0    0   28      3.39      0.00
   -5    1   28     -0.30      0.00
   -4    1   28      0.98      0.00
   -3    1   28     -1.13      0.00
   -2    1   28      1.08      0.00
   -1    1   28     -1.13      0.00
    0    1   28      0.83      0.00
   -4    2   28     -0.38      0.00
   -3    2   28      2.02      0.00
   -2    2   28     -3.14      0.00
   -1    2   28      1.94      0.00
    0    2   28     -0.22      0.00
   -4    3   28      1.87      0.00
   -3    3   28     -0.58      0.00
   -2    3   28     -0.66      0.00
   -1    3   28      1.11      0.00
   13    0    0      2.30      0.00
   13    1    0     -0.24      0.00
   13    2    0     -0.25      0.00
   12    7    0     -3.04      0.00
    8   14    0      1.76      0.00
   13    1    1     -1.18      0.00
  -13    2    1      0.38      0.00
  -13    3    1      1.08      0.00
  -12    7    1      0.51      0.00
   -8   14    1      2.68      0.00
   -7   15    1      2.49      0.00
    3   17    1     -0.83      0.00
    0    0    2     93.45      0.00
  -13    3    2     -0.44      0.00
   11    9    2     -0.13      0.00
   10   11    2      2.38      0.00
   -9   13    2      2.24      0.00
   -8   14    2      1.33      0.00
   -7   15    2      0.40      0.00
    3   17    2     -0.56      0.00
  -13    3    3      0.15      0.00
   12    6    3      1.13      0.00
  -11   10    3      0.85      0.00
   -9   13    3      0.23      0.00
   -8   14    3      2.88      0.00
   -7   15    3      3.94      0.00
    5   16    3     -2.41      0.00
    3   17    3     -1.61      0.00
  -13    3    4     -0.85      0.00
   12    5    4     -2.30      0.00
  -11   10    4     -0.60      0.00
    9   12    4     -1.92      0.00
   -9   13    4      2.66      0.00
   -8   14    4     -0.08      0.00
   -7   15    4     -0.15      0.00
    5   16    4     -0.64      0.00
   -3   17    4      0.37      0.00
  -13    4    5      0.75      0.00
   11    8    5      2.61      0.00
  -11   10    5      0.46      0.00
   -9   13    5     -2.21      0.00
    8   13    5     -0.52      0.00
   -8   14    5      1.48      0.00
   -7   15    5      3.03      0.00
    6   15    5      0.16      0.00
   -3   17    5      0.88      0.00
    2   17    5      1.93      0.00
  -13    3    6     -0.45      0.00
   12    4    6      0.48      0.00
   10   10    6      1.76      0.00
    8   13    6     -1.79      0.00
   -8   14    6     -1.27      0.00
    7   14    6      0.16      0.00
    2   17    6     -0.24      0.00
   12    2    7     -1.49      0.00
  -13    3    7     -0.34      0.00
   11    7    7      1.14      0.00
   -5   16    7      2.30      0.00
    4   16    7      3.31      0.00
   -2   17    7     -1.17      0.00
   -1   17    7      1.33      0.00
    0   17    7     -0.52      0.00
    1   17    7     -0.79      0.00
  -13    3    8      0.13      0.00
   11    6    8     -2.56      0.00
  -12    7    8     -0.03      0.00
   10    9    8      1.91      0.00
    5   15    8      3.57      0.00
   -1   17    8      0.65      0.00
    0   17    8      0.08      0.00
  -13    2    9     -1.42      0.00
  -13    3    9      0.58      0.00
  -12    7    9      0.82      0.00
  -10   11    9      0.21      0.00
    8   12    9      1.64      0.00
    7   13    9     -2.01      0.00
    6   14    9      1.98      0.00
    3   16    9     -0.41      0.00
  -13    0   10      1.33      0.00
  -13    1   10      1.23      0.00
  -13    2   10     -0.21      0.00
   11    4   10     -0.32      0.00
  -12    7   10     -1.20      0.00
  -11    9   10      1.30      0.00
    9   10   10     -0.91      0.00
  -10   11   10     -2.54      0.00
   -6   15   10      0.25      0.00
   -4   16   10      1.04      0.00
    2   16   10     -1.01      0.00
  -13    1   11     -1.36      0.00
   11    3   11     -1.34      0.00
   10    7   11     -1.82      0.00
  -11    9   11      2.10      0.00
    8   11   11      1.54      0.00
   -9   12   11     -2.02      0.00
   -7   14   11     -0.56      0.00
    4   15   11      0.63      0.00
   -3   16   11      1.28      0.00
    1   16   11     -1.11      0.00
  -12    6   12     -0.75      0.00
   10    6   12      2.39      0.00
    7   12   12      3.67      0.00
   -8   13   12     -0.47      0.00
    6   13   12      1.45      0.00
   -5   15   12      0.42      0.00
    3   15   12      0.04      0.00
   -2   16   12     -0.83      0.00
   -1   16   12      1.35      0.00
    0   16   12     -0.75      0.00
   10    5   13     -1.61      0.00
    9    8   13      0.16      0.00
  -10   10   13      4.20      0.00
    8   10   13      4.52      0.00
   10    3   14      0.31      0.00
  -12    5   14     -2.64      0.00
    9    7   14      0.00      0.00
  -11    8   14     -1.26      0.00
    6   12   14     -3.21      0.00
    5   13   14     -0.23      0.00
   -6   14   14      0.09      0.00
   -4   15   14      1.29      0.00
  -12    4   15      1.62      0.00
    9    6   15      0.18      0.00
    7   10   15     -5.19      0.00
   -8   12   15      0.65      0.00
   -7   13   15     -2.20      0.00
    3   14   15      1.32      0.00
   -2   15   15      2.30      0.00
   -1   15   15     -4.01      0.00
    0   15   15      2.92      0.00
  -12    2   16      1.39      0.00
  -12    3   16      0.51      0.00
    9    5   16     -1.62      0.00
  -10    9   16     -4.27      0.00
    6   11   16     -2.72      0.00
    5   12   16      2.23      0.00
    2   14   16     -0.46      0.00
  -12    1   17     -2.40      0.00
    9    2   17     -0.36      0.00
    9    3   17     -1.33      0.00
  -11    6   17     -0.41      0.00
   -9   10   17     -3.26      0.00
    6   10   17      3.06      0.00
   -8   11   17      0.32      0.00
   -7   12   17     -1.52      0.00
    3   13   17     -2.38      0.00
   -3   14   17      0.14      0.00
    0   14   17      2.83      0.00
    1   14   17     -0.73      0.00
  -11    5   18     -0.41      0.00
    8    5   18      3.15      0.00
   -5   13   18     -1.42      0.00
    2   13   18      3.52      0.00
    8    3   19      0.87      0.00
  -11    4   19      0.21      0.00
  -10    7   19      3.25      0.00
   -8   10   19      2.54      0.00
    5   10   19     -2.19      0.00
   -7   11   19     -1.73      0.00
    4   11   19      1.27      0.00
   -3   13   19      2.92      0.00
    0   13   19      2.49      0.00
  -11    0   20     -3.64      0.00
  -11    1   20      1.90      0.00
  -11    2   20     -1.91      0.00
    7    5   20     -2.30      0.00
  -10    6   20     -3.68      0.00
   -9    8   20      2.10      0.00
    5    9   20      2.89      0.00
    3   11   20      0.53      0.00
   -5   12   20      0.26      0.00
    7    3   21     -0.78      0.00
  -10    5   21      1.01      0.00
    6    6   21      0.37      0.00
   -9    7   21     -4.79      0.00
    5    8   21     -3.83      0.00
    2   11   21     -0.32      0.00
   -3   12   21      1.20      0.00
   -2   12   21     -0.01      0.00
   -1   12   21     -1.03      0.00
    0   12   21      1.17      0.00
  -10    3   22     -1.45      0.00
   -9    6   22      4.14      0.00
    5    7   22      3.22      0.00
   -8    8   22     -0.90      0.00
   -7    9   22      1.16      0.00
   -6   10   22     -3.15      0.00
   -4   11   22      2.44      0.00
    0   11   22     -2.05      0.00
    6    1   23     -0.17      0.00
    6    2   23      3.62      0.00
   -9    5   23     -0.77      0.00
    5    5   23      0.60      0.00
   -8    7   23      1.20      0.00
    4    7   23     -2.03      0.00
   -7    8   23      0.06      0.00
   -6    9   23      3.66      0.00
    1   10   23     -3.50      0.00
   -9    2   24     -1.95      0.00
   -9    3   24      0.23      0.00
    5    3   24      1.10      0.00
   -7    7   24      0.70      0.00
    3    7   24      3.39      0.00
   -6    8   24     -1.06      0.00
   -5    9   24      0.91      0.00
    1    9   24      1.47      0.00
    4    3   25      2.00      0.00
   -8    4   25      1.93      0.00
   -7    6   25     -1.16      0.00
   -6    7   25     -2.51      0.00
    2    7   25     -3.60      0.00
   -5    8   25     -2.66      0.00
    1    8   25      0.68      0.00
   -2    9   25     -1.48      0.00
   -8    0   26      2.52      0.00
    3    3   26      2.02      0.00
   -7    4   26      1.56      0.00
    2    5   26     -0.61      0.00
    0    7   26      0.93      0.00
   -7    1   27      2.27      0.00
    2    2   27      2.25      0.00
    2    3   27      2.10      0.00
   -6    4   27     -3.25      0.00
   -5    5   27      2.21      0.00
   -4    6   27     -0.05      0.00
   -3    6   27      1.10      0.00
   -1    6   27     -1.05      0.00
    1    0   28     -2.16      0.00
    1    1   28      0.41      0.00
   -5    2   28     -0.43      0.00
   -5    3   28     -2.48      0.00
    0    3   28     -0.78      0.00
   -4    4   28      2.81      0.00
   -3    4   28     -0.07      0.00
   -2    4   28     -3.00      0.00
   -1    4   28      2.44      0.00
   -2    1   29      2.71      0.00
    0    0    0      0.00      0.00
# SQUEEZE RESULTS (Version = 270519)
# Note: Data are Listed for all Voids in the P1 Unit Cell
# i.e. Centre of Gravity, Solvent Accessible Volume,
# Recovered number of Electrons in the Void and
# Details about the Squeezed Material
loop_
  _platon_squeeze_void_nr
  _platon_squeeze_void_average_x
  _platon_squeeze_void_average_y
  _platon_squeeze_void_average_z
  _platon_squeeze_void_volume
  _platon_squeeze_void_count_electrons
  _platon_squeeze_void_content
   1  0.222  0.000  0.487         7         1 ' '
   2  0.222  0.500  0.987         7         1 ' '
   3  0.502  0.500  0.000       184        45 ' '
   4  0.502 -0.000  0.500       184        45 ' '
   5  0.791  0.501  0.015         5         1 ' '
   6  0.791 -0.001  0.515         5         1 ' '
# Missing Reflections Below sin(th)/lambda = 0.25
loop_
  _platon_missing_refln_index_h
  _platon_missing_refln_index_k
  _platon_missing_refln_index_l
  _platon_missing_refln_theta
    0    0    2     1.286
_platon_squeeze_void_probe_radius                  1.20
_platon_squeeze_details
)
TITL dcp1428          P 1 21/c 1   R = 0.09
CELL   14.7806   19.6110   32.1800     90.00    100.28     90.00
SPGR P21/c
# Solvent Accessible Volume =       393
# Electrons Found in S.A.V. =        93
# Note: Atoms in Void are Labelled as Cxxx and Qxxx for all Others
Q101 0.380 0.826 0.419 !       5.23 eA-3
Q102 0.599 0.186 0.113 !       4.62 eA-3
C103 0.579 0.020 0.492 !       2.27 eA-3
C104 0.438 0.041 0.521 !       2.06 eA-3
C105 0.562 0.553 0.974 !       2.06 eA-3
C106 0.531 0.436 0.013 !       2.01 eA-3
C107 0.406 0.091 0.555 !       1.23 eA-3
Q108 0.310 0.013 0.496 !       0.99 eA-3
Q109 0.657 0.963 0.544 !       0.98 eA-3
Q110 0.626 0.264 0.116 !       0.97 eA-3
Q111 0.393 0.278 0.324 !       0.93 eA-3
Q112 0.237 0.077 0.114 !       0.90 eA-3
Q113 0.688 0.860 0.479 !       0.87 eA-3
Q114 0.186 0.607 0.383 !       0.86 eA-3
Q115 0.467 0.741 0.209 !       0.85 eA-3
Q116 0.454 0.037 0.834 !       0.83 eA-3
Q117 0.019 0.580 0.284 !       0.83 eA-3
Q118 0.486 0.682 0.705 !       0.83 eA-3
Q119 0.687 0.379 0.055 !       0.81 eA-3
Q120 0.766 0.190 0.231 !       0.80 eA-3
Q121 0.441 0.457 0.128 !       0.79 eA-3
Q122 0.934 0.709 0.918 !       0.77 eA-3
Q123 0.317 0.659 0.295 !       0.76 eA-3
Q124 0.081 0.197 0.076 !       0.76 eA-3
Q125 0.404 0.703 0.013 !       0.74 eA-3
Q126 1.001 0.654 0.492 !       0.73 eA-3
Q127 0.947 0.822 0.828 !       0.72 eA-3
Q128 0.924 0.028 0.237 !       0.72 eA-3
Q129 0.702 0.049 0.045 !       0.71 eA-3
Q130 0.250 0.644 0.700 !       0.71 eA-3
Q131 0.750 0.168 0.794 !       0.71 eA-3
Q132 0.596 0.158 0.153 !       0.71 eA-3
Q133 0.299 0.639 0.594 !       0.70 eA-3
Q134 0.531 0.395 0.076 !       0.70 eA-3
Q135 0.203 0.011 0.469 !       0.69 eA-3
Q136 0.457 0.763 0.253 !       0.68 eA-3
Q137 0.630 0.012 0.290 !       0.68 eA-3
Q138 0.296 0.762 0.121 !       0.68 eA-3
Q139 0.575 0.327 0.024 !       0.67 eA-3
Q140 0.542 0.438 0.130 !       0.67 eA-3
Q141 0.667 0.240 0.089 !       0.67 eA-3
Q142 0.955 0.083 0.459 !       0.67 eA-3
Q143 0.449 0.652 0.989 !       0.66 eA-3
Q144 0.059 0.418 0.578 !       0.66 eA-3
Q145 0.442 0.051 0.468 !       0.66 eA-3
Q146 0.560 0.457 0.083 !       0.65 eA-3
Q147 0.717 0.246 0.241 !       0.65 eA-3
Q148 0.201 0.434 0.140 !       0.65 eA-3
Q149 0.229 0.677 0.311 !       0.65 eA-3
Q150 0.484 0.403 0.343 !       0.65 eA-3
Q151 0.558 0.252 0.081 !       0.64 eA-3
Q152 0.474 0.043 0.021 !       0.64 eA-3
Q153 0.344 0.884 0.402 !       0.64 eA-3
Q154 0.265 0.891 0.378 !       0.64 eA-3
Q155 0.282 0.684 0.942 !       0.64 eA-3
Q156 0.999 0.456 0.446 !       0.63 eA-3
Q157 0.889 0.622 0.440 !       0.63 eA-3
Q158 0.749 0.867 0.482 !       0.63 eA-3
Q159 0.316 0.966 0.326 !       0.63 eA-3
Q160 0.515 0.681 0.741 !       0.62 eA-3
Q161 0.502 0.967 0.426 !       0.62 eA-3
Q162 0.594 0.551 0.298 !       0.62 eA-3
Q163 0.214 0.092 0.471 !       0.62 eA-3
Q164 0.077 0.111 0.575 !       0.61 eA-3
Q165 0.027 0.719 0.169 !       0.61 eA-3
Q166 0.933 0.801 0.264 !       0.61 eA-3
Q167 0.372 0.936 0.236 !       0.61 eA-3
Q168 0.621 0.595 0.007 !       0.61 eA-3
Q169 0.701 0.127 0.105 !       0.61 eA-3
Q170 0.762 0.052 0.464 !       0.61 eA-3
Q171 0.354 0.742 0.355 !       0.61 eA-3
Q172 0.449 0.645 0.411 !       0.61 eA-3
Q173 0.936 0.535 0.290 !       0.61 eA-3
Q174 0.371 0.594 0.377 !       0.60 eA-3
Q175 0.663 0.079 0.261 !       0.60 eA-3
Q176 0.967 0.161 0.623 !       0.60 eA-3
Q177 0.690 0.312 0.222 !       0.59 eA-3
Q178 0.734 0.658 0.485 !       0.59 eA-3
Q179 0.294 0.908 0.360 !       0.59 eA-3
Q180 0.767 0.045 0.111 !       0.59 eA-3
Q181 0.876 0.675 0.934 !       0.59 eA-3
Q182 0.827 0.175 0.052 !       0.59 eA-3
Q183 0.074 0.383 0.605 !       0.59 eA-3
Q184 0.326 0.685 0.336 !       0.59 eA-3
Q185 0.908 0.631 0.333 !       0.59 eA-3
Q186 0.452 0.731 0.361 !       0.59 eA-3
Q187 0.827 0.715 0.381 !       0.59 eA-3
Q188 0.471 0.499 0.801 !       0.58 eA-3
Q189 0.362 0.577 0.433 !       0.58 eA-3
Q190 0.767 0.671 0.662 !       0.58 eA-3
Q191 0.458 0.323 0.297 !       0.58 eA-3
Q192 0.376 0.213 0.159 !       0.57 eA-3
Q193 0.463 0.251 0.317 !       0.57 eA-3
Q194 0.607 0.499 0.227 !       0.57 eA-3
Q195 0.478 0.116 0.882 !       0.57 eA-3
Q196 0.300 0.824 0.256 !       0.57 eA-3
Q197 0.636 0.469 0.131 !       0.57 eA-3
Q198 0.190 0.298 0.880 !       0.57 eA-3
Q199 0.259 0.842 0.126 !       0.57 eA-3
)
;
_shelx_fab_checksum              8151
_platon_squeeze_void_probe_radius 1.20
_olex2_submission_special_instructions 'No special instructions were received'
loop_
_space_group_symop_operation_xyz
'x, y, z'
'-x, y+1/2, -z+1/2'
'-x, -y, -z'
'x, -y-1/2, z-1/2'
loop_
_atom_site_label
_atom_site_type_symbol
_atom_site_fract_x
_atom_site_fract_y
_atom_site_fract_z
_atom_site_U_iso_or_equiv
_atom_site_adp_type
_atom_site_occupancy
_atom_site_site_symmetry_order
_atom_site_calc_flag
_atom_site_refinement_flags_posn
_atom_site_refinement_flags_adp
_atom_site_refinement_flags_occupancy
_atom_site_disorder_assembly
_atom_site_disorder_group
Sb2 Sb 0.47375(7) 0.32625(6) 0.27910(3) 0.0174(5) Uani 1 1 d . . . . .
Sb1 Sb 0.45070(8) 0.18640(6) 0.31827(3) 0.0191(5) Uani 1 1 d . . . . .
F15 F 0.1281(6) 0.3138(5) 0.2728(3) 0.040(3) Uani 1 1 d . . . . .
F11 F 0.1657(7) 0.4591(5) 0.1602(3) 0.045(3) Uani 1 1 d . . . . .
F20 F 0.7715(7) 0.2965(5) 0.3928(3) 0.047(3) Uani 1 1 d . . . . .
F6 F 0.0849(7) 0.0688(5) 0.3158(3) 0.045(3) Uani 1 1 d . . . . .
F16 F 0.8430(6) 0.4336(5) 0.2836(3) 0.042(3) Uani 1 1 d . . . . .
F10 F 0.1452(7) 0.2115(5) 0.2064(3) 0.045(3) Uani 1 1 d . . . . .
F12 F -0.0153(7) 0.4572(6) 0.1327(4) 0.059(3) Uani 1 1 d . . . . .
O1 O 0.4160(7) 0.2374(5) 0.2642(3) 0.024(3) Uani 1 1 d . . . . .
F5 F 0.8110(8) 0.1925(6) 0.3301(4) 0.059(3) Uani 1 1 d . U . . .
O3 O 0.3219(9) 0.3382(6) 0.5906(4) 0.039(3) Uani 1 1 d . U . . .
N8 N 0.5906(9) 0.3272(6) 0.2537(4) 0.0190(12) Uani 1 1 d . U . . .
F17 F 1.0210(7) 0.4255(6) 0.3161(4) 0.065(3) Uani 1 1 d . . . . .
N5 N 0.5460(9) 0.4018(6) 0.3171(4) 0.0190(12) Uani 1 1 d . U . . .
O2 O 0.5090(8) 0.2759(6) 0.3317(3) 0.030(3) Uani 1 1 d . . . . .
F9 F -0.0329(8) 0.2069(7) 0.1715(4) 0.073(4) Uani 1 1 d . . . . .
F14 F -0.0521(7) 0.3136(6) 0.2462(4) 0.063(3) Uani 1 1 d . . . . .
F13 F -0.1273(7) 0.3853(7) 0.1758(4) 0.070(4) Uani 1 1 d . . . . .
N6 N 0.3779(9) 0.3931(6) 0.2930(4) 0.0190(12) Uani 1 1 d . U . . .
F7 F -0.0919(7) 0.0638(6) 0.2802(4) 0.069(4) Uani 1 1 d . . . . .
F1 F 0.7391(8) 0.0378(6) 0.4310(4) 0.063(3) Uani 1 1 d . U . . .
N1 N 0.3788(9) 0.1110(7) 0.2806(4) 0.0253(13) Uani 1 1 d . U . . .
N2 N 0.5461(9) 0.1186(7) 0.3039(4) 0.0253(13) Uani 1 1 d . U . . .
O6 O 0.5827(10) 0.0420(7) 0.0565(4) 0.056(4) Uani 1 1 d . U . . .
F19 F 0.9513(8) 0.2852(7) 0.4246(4) 0.078(4) Uani 1 1 d . . . . .
N7 N 0.4077(9) 0.3470(6) 0.2174(4) 0.0190(12) Uani 1 1 d . U . . .
N4 N 0.3336(9) 0.1887(7) 0.3437(4) 0.0253(13) Uani 1 1 d . U . . .
O4 O 0.3092(9) 0.4364(7) 0.5569(4) 0.051(4) Uani 1 1 d . U . . .
F18 F 1.0780(8) 0.3499(7) 0.3866(4) 0.084(4) Uani 1 1 d . . . . .
F8 F -0.1536(8) 0.1350(7) 0.2085(4) 0.084(4) Uani 1 1 d . . . . .
O5 O 0.5963(9) 0.1345(7) 0.0174(4) 0.048(3) Uani 1 1 d . U . . .
N3 N 0.5208(9) 0.1685(7) 0.3803(4) 0.0253(13) Uani 1 1 d . U . . .
C43 C 0.4970(11) 0.4340(8) 0.3445(5) 0.0187(15) Uani 1 1 d . U . . .
F4 F 0.9882(8) 0.1724(7) 0.3590(5) 0.091(4) Uani 1 1 d . U . . .
C19 C 0.2215(12) 0.1439(9) 0.2832(5) 0.025(2) Uani 1 1 d . U . . .
C58 C 0.7033(11) 0.3655(8) 0.3169(5) 0.020(2) Uani 1 1 d . U . . .
F3 F 1.0446(8) 0.0811(8) 0.4227(5) 0.102(5) Uani 1 1 d . U . . .
C47 C 0.2882(11) 0.4037(8) 0.2750(5) 0.019(2) Uani 1 1 d . U . . .
C4 C 0.4280(12) 0.0758(8) 0.2552(5) 0.023(2) Uani 1 1 d . U . . .
C48 C 0.2549(11) 0.3811(8) 0.2337(5) 0.019(2) Uani 1 1 d . U . . .
C54 C 0.5971(11) 0.2921(8) 0.2169(5) 0.020(2) Uani 1 1 d . U . . .
C18 C 0.2447(12) 0.1822(9) 0.3202(5) 0.026(2) Uani 1 1 d . U . . .
C57 C 0.6816(11) 0.3315(8) 0.2790(5) 0.020(2) Uani 1 1 d . U . . .
C41 C 0.6458(12) 0.4375(8) 0.3739(5) 0.021(2) Uani 1 1 d . U . . .
H41 H 0.701182 0.447678 0.392773 0.025 Uiso 1 1 calc R U . . .
C35 C 0.0563(14) 0.1043(10) 0.2797(6) 0.040(5) Uani 1 1 d . . . . .
C59 C 0.1565(12) 0.3858(8) 0.2176(6) 0.026(4) Uani 1 1 d . . . . .
F2 F 0.9182(9) 0.0140(9) 0.4581(4) 0.104(5) Uani 1 1 d . U . . .
C64 C 0.0932(12) 0.3515(9) 0.2388(6) 0.034(4) Uani 1 1 d . . . . .
C69 C 0.5591(8) 0.1271(4) 0.1235(3) 0.036(3) Uani 1 1 d G U . . .
H69 H 0.562053 0.079177 0.128004 0.043 Uiso 1 1 calc R U . . .
C68 C 0.5720(8) 0.1538(5) 0.0850(3) 0.035(3) Uani 1 1 d G U . . .
C67 C 0.5678(8) 0.2239(6) 0.0783(3) 0.031(3) Uani 1 1 d G U . . .
H67 H 0.576581 0.242136 0.052008 0.037 Uiso 1 1 calc R U . . .
C66 C 0.5506(8) 0.2672(4) 0.1102(3) 0.028(3) Uani 1 1 d G U . . .
H66 H 0.547680 0.315051 0.105699 0.033 Uiso 1 1 calc R U . . .
C65 C 0.5377(8) 0.2404(5) 0.1487(3) 0.026(3) Uani 1 1 d G U . . .
C70 C 0.5420(8) 0.1704(5) 0.1554(3) 0.028(3) Uani 1 1 d G U . . .
H70 H 0.533153 0.152094 0.181696 0.034 Uiso 1 1 calc R U . . .
C55 C 0.6887(11) 0.2725(8) 0.2186(5) 0.022(2) Uani 1 1 d . U . . .
H55 H 0.712302 0.246593 0.197988 0.026 Uiso 1 1 calc R U . . .
C2 C 0.2746(12) 0.0700(8) 0.2265(5) 0.025(2) Uani 1 1 d . U . . .
H2 H 0.218750 0.058758 0.208207 0.030 Uiso 1 1 calc R U . . .
C56 C 0.7379(12) 0.2973(8) 0.2554(5) 0.021(2) Uani 1 1 d . U . . .
H56 H 0.802473 0.292010 0.263801 0.025 Uiso 1 1 calc R U . . .
C40 C 0.6383(11) 0.3993(8) 0.3367(5) 0.020(2) Uani 1 1 d . U . . .
C13 C 0.4934(12) 0.2058(9) 0.4125(5) 0.027(2) Uani 1 1 d . U . . .
C7 C 0.6680(12) 0.0600(9) 0.2943(5) 0.028(2) Uani 1 1 d . U . . .
H7 H 0.729067 0.043126 0.297340 0.033 Uiso 1 1 calc R U . . .
C5 C 0.5196(12) 0.0782(9) 0.2680(5) 0.024(2) Uani 1 1 d . U . . .
C15 C 0.3312(12) 0.2234(9) 0.3815(5) 0.026(2) Uani 1 1 d . U . . .
C53 C 0.5215(11) 0.2836(8) 0.1850(5) 0.020(2) Uani 1 1 d . U . . .
C71 C 0.5848(14) 0.1025(12) 0.0522(7) 0.043(3) Uani 1 1 d . U . . .
C44 C 0.4017(11) 0.4314(8) 0.3292(5) 0.0187(15) Uani 1 1 d . U . . .
C52 C 0.4358(11) 0.3110(8) 0.1842(5) 0.021(2) Uani 1 1 d . U . . .
C63 C 0.0026(13) 0.3511(10) 0.2248(6) 0.037(4) Uani 1 1 d . . . . .
C10 C 0.6160(12) 0.1574(9) 0.3903(5) 0.026(2) Uani 1 1 d . U . . .
C1 C 0.2849(12) 0.1112(9) 0.2640(5) 0.025(2) Uani 1 1 d . U . . .
C49 C 0.3128(11) 0.3562(8) 0.2074(5) 0.020(2) Uani 1 1 d . U . . .
C42 C 0.5599(11) 0.4576(8) 0.3782(5) 0.021(2) Uani 1 1 d . U . . .
H42 H 0.545573 0.483786 0.400992 0.025 Uiso 1 1 calc R U . . .
C46 C 0.2517(11) 0.4466(8) 0.3035(5) 0.020(2) Uani 1 1 d . U . . .
H46 H 0.189303 0.460494 0.300636 0.025 Uiso 1 1 calc R U . . .
C14 C 0.4045(12) 0.2313(9) 0.4127(5) 0.026(2) Uani 1 1 d . U . . .
C74 C 0.8658(12) 0.3965(9) 0.3184(6) 0.031(4) Uani 1 1 d . . . . .
C16 C 0.2362(12) 0.2401(9) 0.3800(5) 0.029(2) Uani 1 1 d . U . . .
H16 H 0.212538 0.265300 0.400844 0.035 Uiso 1 1 calc R U . . .
C60 C 0.1144(13) 0.4215(10) 0.1809(6) 0.035(4) Uani 1 1 d . . . . .
C50 C 0.2826(12) 0.3300(8) 0.1656(5) 0.021(2) Uani 1 1 d . U . . .
H50 H 0.221801 0.331606 0.149911 0.026 Uiso 1 1 calc R U . . .
C8 C 0.6360(12) 0.1066(9) 0.3222(5) 0.027(2) Uani 1 1 d . U . . .
C37 C -0.0624(15) 0.1356(11) 0.2259(7) 0.054(6) Uani 1 1 d . . . . .
C45 C 0.3209(11) 0.4647(8) 0.3357(5) 0.021(2) Uani 1 1 d . U . . .
H45 H 0.315551 0.494475 0.358452 0.025 Uiso 1 1 calc R U . . .
C3 C 0.3609(12) 0.0502(9) 0.2223(5) 0.025(2) Uani 1 1 d . U . . .
H3 H 0.374113 0.022465 0.199943 0.030 Uiso 1 1 calc R U . . .
C11 C 0.6438(13) 0.1849(9) 0.4308(5) 0.029(2) Uani 1 1 d . U . . .
H11 H 0.704910 0.183879 0.446287 0.035 Uiso 1 1 calc R U . . .
C51 C 0.3572(11) 0.3024(8) 0.1527(5) 0.022(2) Uani 1 1 d . U . . .
H51 H 0.356531 0.280476 0.126352 0.026 Uiso 1 1 calc R U . . .
C32 C 0.3251(12) 0.3775(10) 0.5578(6) 0.030(4) Uani 1 1 d . U . . .
C6 C 0.5986(11) 0.0434(9) 0.2630(5) 0.026(2) Uani 1 1 d . U . . .
H6 H 0.603019 0.012496 0.240680 0.032 Uiso 1 1 calc R U . . .
C34 C 0.1238(12) 0.1416(9) 0.2620(6) 0.033(5) Uani 1 1 d . . . . .
C17 C 0.1858(12) 0.2146(9) 0.3446(5) 0.028(2) Uani 1 1 d . U . . .
H17 H 0.120774 0.217756 0.336981 0.034 Uiso 1 1 calc R U . . .
C29 C 0.3478(13) 0.3378(9) 0.5219(6) 0.035(4) Uani 1 1 d . U . . .
C9 C 0.6687(12) 0.1271(9) 0.3640(5) 0.027(2) Uani 1 1 d . U . . .
C62 C -0.0373(14) 0.3850(10) 0.1892(7) 0.048(5) Uani 1 1 d . . . . .
C39 C 0.0883(13) 0.1736(9) 0.2247(6) 0.031(4) Uani 1 1 d . . . . .
C36 C -0.0327(14) 0.1017(10) 0.2624(7) 0.047(5) Uani 1 1 d . . . . .
C73 C 0.7983(12) 0.3651(9) 0.3370(6) 0.031(4) Uani 1 1 d . . . . .
C75 C 0.9589(14) 0.3936(11) 0.3359(7) 0.050(5) Uani 1 1 d . . . . .
C78 C 0.8306(13) 0.3290(10) 0.3731(6) 0.036(4) Uani 1 1 d . . . . .
C23 C 0.9553(15) 0.0943(13) 0.4094(7) 0.061(5) Uani 1 1 d . U . . .
C27 C 0.3760(13) 0.2347(10) 0.4860(5) 0.037(5) Uani 1 1 d . U . . .
H27 H 0.381916 0.186420 0.486859 0.045 Uiso 1 1 calc R U . . .
C28 C 0.3566(13) 0.2690(9) 0.5215(6) 0.040(5) Uani 1 1 d . U . . .
H28 H 0.349341 0.243618 0.545802 0.048 Uiso 1 1 calc R U . . .
C38 C -0.0004(15) 0.1736(10) 0.2068(6) 0.045(5) Uani 1 1 d . . . . .
C26 C 0.3867(13) 0.2689(10) 0.4503(6) 0.037(5) Uani 1 1 d . U . . .
C61 C 0.0192(13) 0.4207(10) 0.1671(6) 0.039(4) Uani 1 1 d . . . . .
C24 C 0.9276(14) 0.1392(12) 0.3765(8) 0.057(5) Uani 1 1 d . U . . .
C76 C 0.9854(14) 0.3534(11) 0.3712(8) 0.056(5) Uani 1 1 d . . . . .
C25 C 0.8378(14) 0.1483(11) 0.3630(7) 0.045(5) Uani 1 1 d . U . . .
C21 C 0.8015(14) 0.0734(11) 0.4134(7) 0.050(5) Uani 1 1 d . U . . .
C12 C 0.5724(12) 0.2127(9) 0.4444(5) 0.030(2) Uani 1 1 d . U . . .
H12 H 0.573999 0.233700 0.471165 0.036 Uiso 1 1 calc R U . . .
C20 C 0.7692(12) 0.1187(9) 0.3794(6) 0.031(4) Uani 1 1 d . U . . .
C30 C 0.3602(13) 0.3731(10) 0.4850(6) 0.041(5) Uani 1 1 d . U . . .
H30 H 0.354173 0.421318 0.484076 0.049 Uiso 1 1 calc R U . . .
C31 C 0.3811(13) 0.3387(10) 0.4501(6) 0.042(5) Uani 1 1 d . U . . .
H31 H 0.391460 0.363614 0.426066 0.050 Uiso 1 1 calc R U . . .
C77 C 0.9211(15) 0.3248(12) 0.3903(8) 0.060(6) Uani 1 1 d . . . . .
C33 C 0.2997(15) 0.3700(11) 0.6281(6) 0.054(6) Uani 1 1 d . U . . .
H33A H 0.233282 0.378221 0.624076 0.081 Uiso 1 1 calc R U . . .
H33B H 0.332493 0.413490 0.633085 0.081 Uiso 1 1 calc R U . . .
H33C H 0.318157 0.339886 0.652385 0.081 Uiso 1 1 calc R U . . .
C72 C 0.6052(15) 0.0892(12) -0.0187(6) 0.064(6) Uani 1 1 d . U . . .
H72A H 0.617166 0.116890 -0.042497 0.095 Uiso 1 1 calc R U . . .
H72B H 0.548020 0.063545 -0.027191 0.095 Uiso 1 1 calc R U . . .
H72C H 0.656258 0.057425 -0.010176 0.095 Uiso 1 1 calc R U . . .
C22 C 0.8919(15) 0.0607(13) 0.4265(7) 0.063(5) Uani 1 1 d . U . . .
C79 C 0.3340(12) 0.0194(9) 0.3852(5) 0.091(7) Uani 1 1 d G U . . .
C80 C 0.4293(13) 0.0210(9) 0.3962(5) 0.108(8) Uani 1 1 d G U . . .
H80 H 0.457526 0.042356 0.421782 0.129 Uiso 1 1 calc R U . . .
C81 C 0.4833(10) -0.0086(9) 0.3699(6) 0.103(8) Uani 1 1 d G U . . .
H81 H 0.548448 -0.007498 0.377502 0.124 Uiso 1 1 calc R U . . .
C82 C 0.4421(13) -0.0398(8) 0.3326(6) 0.101(8) Uani 1 1 d G U . . .
H82 H 0.478977 -0.060075 0.314579 0.121 Uiso 1 1 calc R U . . .
C83 C 0.3468(13) -0.0415(8) 0.3215(4) 0.092(7) Uani 1 1 d G U . . .
H83 H 0.318583 -0.062799 0.295936 0.110 Uiso 1 1 calc R U . . .
C84 C 0.2928(10) -0.0118(9) 0.3478(6) 0.094(7) Uani 1 1 d G U . . .
H84 H 0.227659 -0.012945 0.340216 0.113 Uiso 1 1 calc R U . . .
C91 C 0.791(2) 0.255(2) 0.5621(11) 0.133(9) Uani 1 1 d . U . . .
H91 H 0.766434 0.294606 0.572747 0.160 Uiso 1 1 calc R U . . .
C86 C 0.8343(18) 0.2566(18) 0.5267(9) 0.098(7) Uani 1 1 d . U . . .
C85 C 0.274(2) 0.0578(13) 0.4107(9) 0.106(9) Uani 1 1 d . U . . .
H85A H 0.259045 0.102970 0.398158 0.158 Uiso 1 1 calc R U . . .
H85B H 0.306071 0.063029 0.439813 0.158 Uiso 1 1 calc R U . . .
H85C H 0.216449 0.032349 0.410491 0.158 Uiso 1 1 calc R U . . .
C87 C 0.8670(19) 0.1975(17) 0.5121(9) 0.097(8) Uani 1 1 d . U . . .
H87 H 0.894209 0.197642 0.487480 0.117 Uiso 1 1 calc R U . . .
C90 C 0.786(3) 0.191(2) 0.5805(12) 0.143(10) Uani 1 1 d . U . . .
H90 H 0.761735 0.189091 0.605926 0.171 Uiso 1 1 calc R U . . .
C92 C 0.845(2) 0.3251(16) 0.5068(10) 0.120(10) Uani 1 1 d . U . . .
H92A H 0.806970 0.326311 0.478444 0.180 Uiso 1 1 calc R U . . .
H92B H 0.909368 0.332346 0.504668 0.180 Uiso 1 1 calc R U . . .
H92C H 0.824616 0.361080 0.524169 0.180 Uiso 1 1 calc R U . . .
C88 C 0.860(2) 0.1366(18) 0.5343(9) 0.113(8) Uani 1 1 d . U . . .
H88 H 0.890077 0.097138 0.526659 0.136 Uiso 1 1 calc R U . . .
C96 C 0.1432(15) 0.3022(14) -0.0145(5) 0.139(10) Uani 1 1 d G U . . .
H96 H 0.160447 0.315000 -0.040423 0.167 Uiso 1 1 calc R U . . .
C97 C 0.1359(14) 0.3513(9) 0.0159(7) 0.131(9) Uani 1 1 d G U . . .
H97 H 0.148130 0.397813 0.010623 0.157 Uiso 1 1 calc R U . . .
C98 C 0.1107(14) 0.3325(12) 0.0539(6) 0.121(9) Uani 1 1 d G U . . .
H98 H 0.105669 0.366165 0.074579 0.145 Uiso 1 1 calc R U . . .
C93 C 0.0928(13) 0.2646(14) 0.0615(6) 0.133(9) Uani 1 1 d DG U . . .
C94 C 0.1001(13) 0.2154(10) 0.0312(9) 0.130(9) Uani 1 1 d G U . . .
H94 H 0.087843 0.168891 0.036443 0.156 Uiso 1 1 calc R U . . .
C95 C 0.1253(14) 0.2342(12) -0.0068(7) 0.146(10) Uani 1 1 d G U . . .
H95 H 0.130303 0.200537 -0.027513 0.175 Uiso 1 1 calc R U . . .
C89 C 0.813(3) 0.132(2) 0.5645(12) 0.141(10) Uani 1 1 d . U . . .
H89 H 0.798380 0.088890 0.575091 0.169 Uiso 1 1 calc R U . . .
C99 C 0.060(2) 0.245(2) 0.0997(9) 0.185(15) Uani 1 1 d D U . . .
H99A H 0.111662 0.230661 0.121331 0.277 Uiso 1 1 calc R U . . .
H99B H 0.016494 0.206469 0.093385 0.277 Uiso 1 1 calc R U . . .
H99C H 0.028167 0.283341 0.110176 0.277 Uiso 1 1 calc R U . . .
C106 C -0.117(4) 0.444(4) 0.4705(19) 0.19(2) Uani 0.47 1 d D U P A 1
H10A H -0.091468 0.451304 0.500386 0.280 Uiso 0.47 1 calc R U P A 1
H10B H -0.122731 0.394969 0.464734 0.280 Uiso 0.47 1 calc R U P A 1
H10C H -0.178415 0.465080 0.463959 0.280 Uiso 0.47 1 calc R U P A 1
C100 C -0.056(3) 0.476(2) 0.4436(13) 0.132(12) Uani 0.47 1 d DG U P A 1
C105 C 0.039(3) 0.465(2) 0.4534(13) 0.128(11) Uani 0.47 1 d DG U P A 1
H105 H 0.063911 0.437195 0.476801 0.154 Uiso 0.47 1 calc R U P A 1
C104 C 0.096(2) 0.495(3) 0.4289(16) 0.130(11) Uani 0.47 1 d G U P A 1
H104 H 0.160970 0.487540 0.435539 0.155 Uiso 0.47 1 calc R U P A 1
C103 C 0.060(3) 0.535(2) 0.3946(15) 0.128(11) Uani 0.47 1 d G U P A 1
H103 H 0.099163 0.555932 0.377840 0.154 Uiso 0.47 1 calc R U P A 1
C102 C -0.035(4) 0.546(2) 0.3848(13) 0.125(12) Uani 0.47 1 d G U P A 1
H102 H -0.059702 0.573979 0.361404 0.150 Uiso 0.47 1 calc R U P A 1
C101 C -0.092(3) 0.516(3) 0.4093(15) 0.124(13) Uani 0.47 1 d DG U P A 1
H101 H -0.156762 0.523635 0.402667 0.149 Uiso 0.47 1 calc R U P A 1
C107 C -0.099(2) 0.505(4) 0.423(2) 0.137(15) Uani 0.53 1 d D U P B 2
H10D H -0.113136 0.524669 0.449429 0.206 Uiso 0.53 1 calc R U P B 2
H10E H -0.117176 0.457124 0.421250 0.206 Uiso 0.53 1 calc R U P B 2
H10F H -0.131801 0.530264 0.399007 0.206 Uiso 0.53 1 calc R U P B 2
C1A C 0.043(3) 0.547(2) 0.3949(12) 0.126(11) Uani 0.53 1 d G U P B 2
H1A H 0.005773 0.572703 0.373551 0.152 Uiso 0.53 1 calc R U P B 2
C1B C 0.003(2) 0.510(3) 0.4240(15) 0.128(10) Uani 0.53 1 d DG U P B 2
C1C C 0.058(3) 0.472(2) 0.4552(13) 0.128(11) Uani 0.53 1 d G U P B 2
H1C H 0.030126 0.447431 0.475115 0.154 Uiso 0.53 1 calc R U P B 2
C1D C 0.152(3) 0.470(2) 0.4574(12) 0.127(12) Uani 0.53 1 d G U P B 2
H1D H 0.189617 0.444352 0.478778 0.153 Uiso 0.53 1 calc R U P B 2
C1E C 0.192(2) 0.507(2) 0.4283(14) 0.122(12) Uani 0.53 1 d G U P B 2
H1E H 0.257187 0.505447 0.429828 0.147 Uiso 0.53 1 calc R U P B 2
C1F C 0.138(3) 0.545(2) 0.3971(12) 0.126(11) Uani 0.53 1 d G U P B 2
H1F H 0.165266 0.569624 0.377214 0.151 Uiso 0.53 1 calc R U P B 2
loop_
_atom_site_aniso_label
_atom_site_aniso_U_11
_atom_site_aniso_U_22
_atom_site_aniso_U_33
_atom_site_aniso_U_23
_atom_site_aniso_U_13
_atom_site_aniso_U_12
Sb2 0.0222(8) 0.0217(8) 0.0119(8) -0.0039(6) 0.0133(6) -0.0019(6)
Sb1 0.0259(8) 0.0260(8) 0.0089(8) -0.0023(6) 0.0125(6) -0.0004(6)
F15 0.031(6) 0.054(7) 0.039(7) 0.001(5) 0.021(5) -0.001(5)
F11 0.041(7) 0.051(7) 0.046(7) 0.005(6) 0.018(5) 0.001(5)
F20 0.050(7) 0.062(8) 0.029(7) 0.003(5) 0.006(5) -0.005(6)
F6 0.041(7) 0.049(7) 0.050(7) 0.016(5) 0.021(5) -0.011(5)
F16 0.030(6) 0.043(7) 0.060(7) 0.016(5) 0.023(5) 0.000(5)
F10 0.064(7) 0.049(7) 0.018(6) 0.010(5) 0.002(5) -0.018(6)
F12 0.034(7) 0.080(9) 0.059(8) 0.009(6) -0.006(6) 0.011(6)
O1 0.037(8) 0.024(7) 0.015(7) 0.003(6) 0.013(6) -0.002(6)
F5 0.063(8) 0.061(8) 0.064(8) 0.005(6) 0.047(6) -0.003(6)
O3 0.063(9) 0.043(8) 0.014(6) -0.011(5) 0.014(6) 0.003(7)
N8 0.020(2) 0.027(3) 0.014(2) -0.003(2) 0.013(2) -0.003(2)
F17 0.026(6) 0.082(9) 0.090(9) -0.018(7) 0.023(6) -0.009(6)
N5 0.020(2) 0.027(3) 0.014(2) -0.003(2) 0.013(2) -0.003(2)
O2 0.039(8) 0.039(8) 0.012(7) 0.001(6) 0.002(6) 0.001(6)
F9 0.073(9) 0.098(10) 0.038(7) 0.025(7) -0.015(6) 0.000(7)
F14 0.032(7) 0.094(9) 0.071(9) -0.010(7) 0.028(6) -0.017(6)
F13 0.024(6) 0.100(10) 0.084(9) -0.018(8) 0.008(6) 0.007(6)
N6 0.020(2) 0.027(3) 0.014(2) -0.003(2) 0.013(2) -0.003(2)
F7 0.041(7) 0.068(8) 0.100(10) 0.010(7) 0.020(7) -0.019(6)
F1 0.051(7) 0.085(9) 0.055(8) 0.023(7) 0.013(6) 0.011(6)
N1 0.031(3) 0.038(3) 0.010(3) -0.001(2) 0.011(2) 0.000(2)
N2 0.031(3) 0.038(3) 0.010(3) -0.001(2) 0.011(2) 0.000(2)
O6 0.080(10) 0.060(7) 0.031(8) -0.018(7) 0.017(7) 0.010(8)
F19 0.054(8) 0.097(10) 0.071(9) 0.011(7) -0.021(7) 0.016(7)
N7 0.020(2) 0.027(3) 0.014(2) -0.003(2) 0.013(2) -0.003(2)
N4 0.031(3) 0.038(3) 0.010(3) -0.001(2) 0.011(2) 0.000(2)
O4 0.077(10) 0.038(7) 0.037(9) -0.013(6) 0.010(8) 0.008(7)
F18 0.028(6) 0.106(11) 0.105(11) -0.027(9) -0.021(6) 0.014(7)
F8 0.053(7) 0.103(10) 0.084(10) 0.002(8) -0.019(7) -0.015(7)
O5 0.057(7) 0.066(7) 0.024(6) -0.019(5) 0.018(6) 0.004(6)
N3 0.031(3) 0.038(3) 0.010(3) -0.001(2) 0.011(2) 0.000(2)
C43 0.021(3) 0.026(3) 0.013(3) -0.003(3) 0.014(3) -0.001(3)
F4 0.046(8) 0.120(11) 0.121(12) -0.041(8) 0.053(8) -0.030(8)
C19 0.030(5) 0.037(5) 0.010(4) 0.001(4) 0.010(4) -0.002(4)
C58 0.020(4) 0.027(5) 0.016(4) -0.002(4) 0.010(4) -0.005(4)
F3 0.030(6) 0.164(14) 0.102(11) -0.060(10) -0.010(7) 0.020(8)
C47 0.019(4) 0.027(4) 0.016(4) -0.002(4) 0.014(3) -0.001(4)
C4 0.033(4) 0.033(4) 0.007(4) 0.001(4) 0.013(3) -0.001(4)
C48 0.018(4) 0.027(5) 0.016(4) -0.001(4) 0.013(4) -0.003(4)
C54 0.022(4) 0.026(4) 0.016(4) -0.004(3) 0.013(3) -0.004(4)
C18 0.030(4) 0.040(4) 0.010(4) -0.001(4) 0.010(3) -0.001(4)
C57 0.020(4) 0.027(4) 0.017(4) -0.003(3) 0.012(3) -0.003(4)
C41 0.024(4) 0.028(5) 0.014(4) -0.002(4) 0.010(4) -0.004(4)
C35 0.040(8) 0.039(12) 0.045(11) 0.007(8) 0.015(7) -0.009(8)
C59 0.029(9) 0.020(10) 0.032(10) -0.010(7) 0.012(7) 0.001(7)
F2 0.077(10) 0.153(14) 0.070(10) 0.015(8) -0.015(8) 0.051(9)
C64 0.023(7) 0.036(11) 0.043(11) -0.004(7) 0.010(7) -0.004(8)
C69 0.033(7) 0.055(7) 0.023(6) -0.005(6) 0.014(6) 0.030(7)
C68 0.031(7) 0.049(6) 0.030(6) 0.003(5) 0.019(6) 0.023(6)
C67 0.025(7) 0.046(6) 0.027(7) 0.001(6) 0.016(6) 0.022(7)
C66 0.031(7) 0.032(7) 0.024(7) 0.006(5) 0.016(6) 0.016(7)
C65 0.025(7) 0.034(6) 0.021(7) 0.000(6) 0.013(6) 0.011(7)
C70 0.033(7) 0.037(6) 0.021(7) 0.002(6) 0.021(6) 0.013(7)
C55 0.021(4) 0.028(5) 0.019(5) -0.005(4) 0.013(4) -0.004(4)
C2 0.032(5) 0.034(5) 0.009(5) 0.002(4) 0.008(4) -0.004(5)
C56 0.019(4) 0.028(5) 0.018(5) -0.003(4) 0.013(4) -0.005(4)
C40 0.021(4) 0.027(4) 0.014(4) -0.002(3) 0.011(3) -0.004(4)
C13 0.031(4) 0.042(4) 0.011(4) -0.003(4) 0.011(3) 0.000(4)
C7 0.032(5) 0.040(5) 0.015(5) 0.001(4) 0.014(4) 0.004(4)
C5 0.033(4) 0.035(4) 0.008(4) 0.001(4) 0.014(4) 0.001(4)
C15 0.030(4) 0.043(4) 0.009(4) -0.003(4) 0.013(4) 0.000(4)
C53 0.022(4) 0.025(5) 0.017(4) -0.003(4) 0.012(4) -0.003(4)
C71 0.047(7) 0.060(7) 0.027(6) -0.012(6) 0.017(6) 0.013(7)
C44 0.021(3) 0.026(3) 0.013(3) -0.003(3) 0.014(3) -0.001(3)
C52 0.022(4) 0.027(4) 0.016(4) -0.003(4) 0.012(3) -0.004(4)
C63 0.022(7) 0.041(12) 0.051(11) -0.013(8) 0.013(7) -0.002(8)
C10 0.031(4) 0.039(4) 0.013(4) -0.001(4) 0.010(4) -0.001(4)
C1 0.031(4) 0.036(4) 0.010(4) 0.002(4) 0.010(4) -0.001(4)
C49 0.019(4) 0.027(4) 0.015(4) -0.003(4) 0.011(3) -0.003(4)
C42 0.025(4) 0.026(5) 0.014(4) -0.002(4) 0.012(4) -0.002(4)
C46 0.021(4) 0.026(5) 0.019(5) -0.001(4) 0.015(4) 0.001(4)
C14 0.030(4) 0.042(5) 0.009(5) -0.003(4) 0.012(4) 0.001(4)
C74 0.024(7) 0.022(10) 0.048(11) -0.005(7) 0.009(7) -0.001(8)
C16 0.031(5) 0.047(5) 0.011(5) -0.003(4) 0.011(4) 0.001(5)
C60 0.032(7) 0.041(11) 0.035(10) -0.001(8) 0.015(7) 0.010(8)
C50 0.021(4) 0.028(5) 0.017(4) -0.002(4) 0.010(4) -0.005(4)
C8 0.032(4) 0.039(4) 0.012(4) 0.001(4) 0.012(4) 0.001(4)
C37 0.042(8) 0.060(14) 0.056(12) 0.002(9) -0.003(8) -0.012(10)
C45 0.023(4) 0.026(4) 0.018(4) -0.003(4) 0.014(4) 0.002(4)
C3 0.035(5) 0.033(5) 0.009(5) 0.002(4) 0.010(4) -0.002(4)
C11 0.031(5) 0.042(5) 0.016(5) -0.004(4) 0.008(4) -0.002(5)
C51 0.023(5) 0.028(5) 0.016(5) -0.001(4) 0.011(4) -0.005(4)
C32 0.034(11) 0.038(8) 0.020(8) -0.007(6) 0.010(8) 0.004(8)
C6 0.033(5) 0.037(5) 0.012(5) 0.000(4) 0.015(4) 0.003(4)
C34 0.035(9) 0.034(11) 0.031(10) 0.010(8) 0.009(7) -0.003(8)
C17 0.030(5) 0.046(5) 0.011(5) -0.002(4) 0.011(4) -0.001(4)
C29 0.051(11) 0.039(7) 0.016(8) -0.005(6) 0.010(8) 0.005(9)
C9 0.031(5) 0.039(5) 0.013(4) 0.000(4) 0.011(4) -0.001(4)
C62 0.025(7) 0.054(13) 0.065(12) -0.002(9) 0.012(7) 0.008(9)
C39 0.041(8) 0.025(10) 0.026(10) 0.003(7) 0.004(7) -0.001(8)
C36 0.042(8) 0.051(13) 0.048(12) -0.004(9) 0.012(7) -0.012(9)
C73 0.024(9) 0.027(11) 0.044(11) -0.001(8) 0.010(7) 0.004(8)
C75 0.020(7) 0.063(14) 0.068(13) -0.012(9) 0.009(7) 0.004(9)
C78 0.034(7) 0.039(12) 0.035(11) -0.004(8) 0.009(7) 0.009(8)
C23 0.026(7) 0.099(15) 0.056(13) -0.041(8) -0.002(8) 0.005(9)
C27 0.055(12) 0.038(9) 0.023(9) -0.008(7) 0.020(9) 0.001(9)
C28 0.066(13) 0.037(7) 0.022(9) -0.006(7) 0.024(9) 0.003(9)
C38 0.051(8) 0.050(13) 0.029(10) 0.003(8) -0.008(7) -0.005(9)
C26 0.036(11) 0.051(9) 0.027(9) -0.001(8) 0.016(9) 0.000(9)
C61 0.033(7) 0.048(12) 0.038(11) -0.009(8) 0.015(7) 0.016(8)
C24 0.024(8) 0.085(14) 0.069(13) -0.031(8) 0.023(8) -0.007(9)
C76 0.025(7) 0.066(15) 0.073(14) -0.011(9) -0.007(8) 0.008(9)
C25 0.030(7) 0.062(12) 0.049(11) -0.010(8) 0.020(8) -0.010(8)
C21 0.029(8) 0.072(13) 0.044(12) 0.003(8) -0.003(8) 0.002(8)
C12 0.032(5) 0.044(5) 0.015(5) -0.004(4) 0.009(4) 0.000(5)
C20 0.026(9) 0.048(11) 0.022(10) -0.015(7) 0.014(8) 0.002(8)
C30 0.055(12) 0.046(10) 0.025(9) 0.005(7) 0.014(9) 0.006(10)
C31 0.043(12) 0.056(9) 0.035(10) 0.010(8) 0.029(10) 0.004(10)
C77 0.039(7) 0.066(15) 0.069(14) 0.000(10) -0.005(8) 0.011(10)
C33 0.088(17) 0.060(14) 0.019(9) -0.014(9) 0.020(11) 0.021(13)
C72 0.074(13) 0.093(14) 0.028(10) -0.030(9) 0.022(10) 0.004(12)
C22 0.033(8) 0.102(15) 0.049(13) -0.013(9) -0.004(9) 0.022(9)
C79 0.113(13) 0.070(15) 0.105(16) -0.032(12) 0.057(12) -0.029(13)
C80 0.113(13) 0.094(17) 0.130(18) -0.049(15) 0.060(13) -0.044(14)
C81 0.115(15) 0.084(17) 0.126(19) -0.035(14) 0.064(13) -0.039(14)
C82 0.138(16) 0.043(14) 0.125(18) -0.021(13) 0.033(15) 0.004(15)
C83 0.138(16) 0.046(14) 0.096(16) -0.017(12) 0.032(13) -0.001(14)
C84 0.130(16) 0.059(16) 0.098(16) -0.016(12) 0.033(12) -0.007(13)
C91 0.11(2) 0.17(2) 0.13(2) 0.048(17) 0.066(15) 0.016(19)
C86 0.052(16) 0.156(17) 0.087(18) 0.035(14) 0.013(12) 0.013(15)
C85 0.15(2) 0.081(19) 0.11(2) -0.008(15) 0.072(18) 0.007(17)
C87 0.078(18) 0.143(18) 0.066(17) 0.017(14) 0.003(13) -0.011(15)
C90 0.14(2) 0.18(2) 0.12(2) 0.053(18) 0.064(17) 0.01(2)
C92 0.10(2) 0.16(2) 0.11(2) 0.040(19) 0.050(19) 0.026(19)
C88 0.12(2) 0.144(17) 0.08(2) 0.014(15) 0.009(14) -0.022(17)
C96 0.15(2) 0.17(2) 0.089(18) -0.012(16) -0.016(17) 0.01(2)
C97 0.15(2) 0.17(2) 0.056(16) -0.001(14) -0.023(16) 0.024(19)
C98 0.102(19) 0.171(19) 0.072(15) 0.004(16) -0.032(15) -0.012(18)
C93 0.088(18) 0.18(2) 0.115(19) 0.010(15) -0.030(16) -0.024(19)
C94 0.067(17) 0.18(2) 0.12(2) 0.001(16) -0.045(17) -0.012(17)
C95 0.11(2) 0.17(2) 0.14(2) 0.000(18) -0.022(18) 0.00(2)
C89 0.14(2) 0.17(2) 0.12(2) 0.044(19) 0.048(16) 0.00(2)
C99 0.12(3) 0.28(4) 0.15(3) 0.05(2) 0.01(2) -0.02(3)
C106 0.18(4) 0.23(5) 0.15(4) -0.03(4) 0.03(3) 0.01(4)
C100 0.14(2) 0.14(3) 0.11(3) -0.057(19) 0.01(2) 0.03(2)
C105 0.14(2) 0.13(2) 0.10(2) -0.056(19) 0.000(19) 0.04(2)
C104 0.13(2) 0.14(2) 0.11(2) -0.058(17) 0.004(18) 0.04(2)
C103 0.12(2) 0.13(2) 0.12(2) -0.048(19) 0.01(2) 0.04(2)
C102 0.12(2) 0.13(3) 0.12(3) -0.06(2) 0.01(2) 0.04(2)
C101 0.12(2) 0.13(3) 0.12(3) -0.06(2) 0.01(2) 0.04(2)
C107 0.12(2) 0.17(4) 0.12(3) -0.07(3) 0.01(2) 0.04(3)
C1A 0.13(2) 0.13(2) 0.11(2) -0.052(18) 0.008(19) 0.04(2)
C1B 0.12(2) 0.14(2) 0.12(2) -0.052(17) 0.004(18) 0.04(2)
C1C 0.13(2) 0.14(2) 0.10(2) -0.055(18) 0.002(19) 0.04(2)
C1D 0.13(2) 0.14(3) 0.10(3) -0.059(19) 0.00(2) 0.05(2)
C1E 0.12(2) 0.14(3) 0.10(3) -0.07(2) 0.00(2) 0.04(2)
C1F 0.13(2) 0.14(3) 0.11(2) -0.057(19) 0.01(2) 0.05(2)
loop_
_atom_type_symbol
_atom_type_description
_atom_type_scat_dispersion_real
_atom_type_scat_dispersion_imag
_atom_type_scat_source
C C 0.0033 0.0016 'International Tables Vol C Tables 4.2.6.8 and 6.1.1.4'
H H 0.0000 0.0000 'International Tables Vol C Tables 4.2.6.8 and 6.1.1.4'
F F 0.0171 0.0103 'International Tables Vol C Tables 4.2.6.8 and 6.1.1.4'
N N 0.0061 0.0033 'International Tables Vol C Tables 4.2.6.8 and 6.1.1.4'
O O 0.0106 0.0060 'International Tables Vol C Tables 4.2.6.8 and 6.1.1.4'
Sb Sb -0.5866 1.5461 'International Tables Vol C Tables 4.2.6.8 and 6.1.1.4'
loop_
_geom_angle_atom_site_label_1
_geom_angle_atom_site_label_2
_geom_angle_atom_site_label_3
_geom_angle
_geom_angle_site_symmetry_1
_geom_angle_site_symmetry_3
_geom_angle_publ_flag
O1 Sb2 Sb1 39.6(3) . . ?
O1 Sb2 N8 105.8(5) . . ?
O1 Sb2 N5 158.1(5) . . ?
O1 Sb2 N6 109.6(5) . . ?
O1 Sb2 N7 80.3(5) . . ?
N8 Sb2 Sb1 109.7(4) . . ?
N8 Sb2 N5 81.2(5) . . ?
N8 Sb2 N7 84.4(5) . . ?
N5 Sb2 Sb1 118.5(4) . . ?
N5 Sb2 N7 121.4(5) . . ?
O2 Sb2 Sb1 38.8(3) . . ?
O2 Sb2 O1 78.4(4) . . ?
O2 Sb2 N8 103.8(5) . . ?
O2 Sb2 N5 79.8(5) . . ?
O2 Sb2 N6 102.9(5) . . ?
O2 Sb2 N7 158.6(5) . . ?
N6 Sb2 Sb1 110.7(4) . . ?
N6 Sb2 N8 139.0(5) . . ?
N6 Sb2 N5 73.6(5) . . ?
N6 Sb2 N7 81.8(5) . . ?
N7 Sb2 Sb1 119.9(3) . . ?
O1 Sb1 Sb2 38.9(3) . . ?
O1 Sb1 N1 79.8(5) . . ?
O1 Sb1 N2 102.1(5) . . ?
O1 Sb1 N4 103.5(5) . . ?
O1 Sb1 N3 156.5(5) . . ?
O2 Sb1 Sb2 38.3(3) . . ?
O2 Sb1 O1 77.2(4) . . ?
O2 Sb1 N1 156.8(5) . . ?
O2 Sb1 N2 109.6(5) . . ?
O2 Sb1 N4 105.1(5) . . ?
O2 Sb1 N3 79.6(5) . . ?
N1 Sb1 Sb2 118.6(4) . . ?
N1 Sb1 N3 123.2(5) . . ?
N2 Sb1 Sb2 110.9(4) . . ?
N2 Sb1 N1 73.0(5) . . ?
N2 Sb1 N3 82.1(5) . . ?
N4 Sb1 Sb2 108.0(4) . . ?
N4 Sb1 N1 82.5(5) . . ?
N4 Sb1 N2 140.4(5) . . ?
N4 Sb1 N3 86.1(5) . . ?
N3 Sb1 Sb2 117.8(4) . . ?
Sb2 O1 Sb1 101.5(5) . . ?
C32 O3 C33 117.5(14) . . ?
C54 N8 Sb2 122.1(10) . . ?
C54 N8 C57 108.1(12) . . ?
C57 N8 Sb2 122.9(10) . . ?
C43 N5 Sb2 115.1(10) . . ?
C43 N5 C40 107.8(13) . . ?
C40 N5 Sb2 126.5(10) . . ?
Sb2 O2 Sb1 102.9(5) . . ?
C47 N6 Sb2 131.7(11) . . ?
C47 N6 C44 111.0(13) . . ?
C44 N6 Sb2 117.0(10) . . ?
C4 N1 Sb1 115.7(11) . . ?
C4 N1 C1 111.8(14) . . ?
C1 N1 Sb1 126.2(11) . . ?
C5 N2 Sb1 116.8(11) . . ?
C8 N2 Sb1 131.7(11) . . ?
C8 N2 C5 111.4(14) . . ?
C52 N7 Sb2 118.2(10) . . ?
C49 N7 Sb2 121.7(10) . . ?
C49 N7 C52 108.2(13) . . ?
C18 N4 Sb1 124.1(10) . . ?
C15 N4 Sb1 120.9(11) . . ?
C15 N4 C18 110.4(14) . . ?
C71 O5 C72 114.9(16) . . ?
C13 N3 Sb1 117.3(11) . . ?
C13 N3 C10 108.9(13) . . ?
C10 N3 Sb1 123.2(10) . . ?
N5 C43 C44 111.2(14) . . ?
C42 C43 N5 107.3(14) . . ?
C42 C43 C44 141.4(15) . . ?
C18 C19 C34 118.5(15) . . ?
C1 C19 C18 123.5(16) . . ?
C1 C19 C34 117.9(16) . . ?
C57 C58 C40 123.9(15) . . ?
C57 C58 C73 116.7(15) . . ?
C40 C58 C73 119.4(15) . . ?
N6 C47 C48 120.3(14) . . ?
N6 C47 C46 105.5(14) . . ?
C48 C47 C46 133.5(15) . . ?
N1 C4 C3 104.4(15) . . ?
C5 C4 N1 114.3(15) . . ?
C5 C4 C3 141.2(16) . . ?
C47 C48 C59 118.6(14) . . ?
C49 C48 C47 122.3(15) . . ?
C49 C48 C59 119.1(15) . . ?
N8 C54 C55 108.4(14) . . ?
C53 C54 N8 121.4(15) . . ?
C53 C54 C55 130.1(15) . . ?
N4 C18 C17 105.6(14) . . ?
C19 C18 N4 124.9(15) . . ?
C19 C18 C17 129.0(16) . . ?
C58 C57 N8 125.0(14) . . ?
C58 C57 C56 130.5(16) . . ?
C56 C57 N8 104.4(13) . . ?
C40 C41 H41 126.0 . . ?
C42 C41 H41 126.0 . . ?
C42 C41 C40 108.0(15) . . ?
F6 C35 C34 118.0(17) . . ?
C36 C35 F6 118.1(17) . . ?
C36 C35 C34 124(2) . . ?
C64 C59 C48 119.9(16) . . ?
C60 C59 C48 126.2(16) . . ?
C60 C59 C64 113.9(16) . . ?
F15 C64 C59 117.4(15) . . ?
C63 C64 F15 119.2(17) . . ?
C63 C64 C59 123.2(19) . . ?
C68 C69 H69 120.0 . . ?
C68 C69 C70 120.0 . . ?
C70 C69 H69 120.0 . . ?
C69 C68 C71 115.4(11) . . ?
C67 C68 C69 120.0 . . ?
C67 C68 C71 124.5(11) . . ?
C68 C67 H67 120.0 . . ?
C66 C67 C68 120.0 . . ?
C66 C67 H67 120.0 . . ?
C67 C66 H66 120.0 . . ?
C65 C66 C67 120.0 . . ?
C65 C66 H66 120.0 . . ?
C66 C65 C70 120.0 . . ?
C66 C65 C53 123.2(9) . . ?
C70 C65 C53 116.7(9) . . ?
C69 C70 H70 120.0 . . ?
C65 C70 C69 120.0 . . ?
C65 C70 H70 120.0 . . ?
C54 C55 H55 126.3 . . ?
C56 C55 C54 107.5(15) . . ?
C56 C55 H55 126.3 . . ?
C1 C2 H2 126.8 . . ?
C3 C2 H2 126.8 . . ?
C3 C2 C1 106.4(15) . . ?
C57 C56 H56 124.2 . . ?
C55 C56 C57 111.5(15) . . ?
C55 C56 H56 124.2 . . ?
N5 C40 C58 120.1(14) . . ?
N5 C40 C41 106.9(14) . . ?
C41 C40 C58 132.9(16) . . ?
N3 C13 C14 126.1(15) . . ?
N3 C13 C12 106.2(15) . . ?
C14 C13 C12 127.7(16) . . ?
C8 C7 H7 125.2 . . ?
C6 C7 H7 125.2 . . ?
C6 C7 C8 109.6(16) . . ?
C4 C5 N2 113.1(15) . . ?
C4 C5 C6 140.4(17) . . ?
C6 C5 N2 104.9(15) . . ?
N4 C15 C16 104.9(14) . . ?
C14 C15 N4 124.2(16) . . ?
C14 C15 C16 130.6(16) . . ?
C54 C53 C65 115.1(14) . . ?
C52 C53 C54 125.9(15) . . ?
C52 C53 C65 119.0(14) . . ?
O6 C71 O5 125.4(19) . . ?
O6 C71 C68 125.4(19) . . ?
O5 C71 C68 109.2(17) . . ?
N6 C44 C43 113.9(13) . . ?
N6 C44 C45 106.5(14) . . ?
C43 C44 C45 138.7(15) . . ?
N7 C52 C51 106.8(14) . . ?
C53 C52 N7 125.6(15) . . ?
C53 C52 C51 127.3(15) . . ?
C64 C63 F14 118.8(18) . . ?
C64 C63 C62 122(2) . . ?
C62 C63 F14 118.7(17) . . ?
C11 C10 N3 105.8(14) . . ?
C9 C10 N3 125.2(15) . . ?
C9 C10 C11 129.1(16) . . ?
N1 C1 C2 105.5(14) . . ?
C19 C1 N1 122.9(15) . . ?
C19 C1 C2 131.5(16) . . ?
N7 C49 C48 127.3(15) . . ?
N7 C49 C50 107.6(13) . . ?
C48 C49 C50 124.9(15) . . ?
C43 C42 H42 125.2 . . ?
C41 C42 C43 109.5(15) . . ?
C41 C42 H42 125.2 . . ?
C47 C46 H46 125.5 . . ?
C45 C46 C47 108.9(15) . . ?
C45 C46 H46 125.5 . . ?
C13 C14 C26 118.9(15) . . ?
C15 C14 C13 125.6(16) . . ?
C15 C14 C26 115.5(16) . . ?
F16 C74 C73 120.7(16) . . ?
F16 C74 C75 116.6(17) . . ?
C75 C74 C73 122.6(19) . . ?
C15 C16 H16 125.2 . . ?
C17 C16 C15 109.7(16) . . ?
C17 C16 H16 125.2 . . ?
F11 C60 C59 119.3(16) . . ?
F11 C60 C61 118.9(17) . . ?
C61 C60 C59 121.7(18) . . ?
C49 C50 H50 126.4 . . ?
C51 C50 C49 107.1(15) . . ?
C51 C50 H50 126.4 . . ?
N2 C8 C7 104.1(15) . . ?
N2 C8 C9 120.2(15) . . ?
C9 C8 C7 133.9(17) . . ?
F8 C37 C38 120(2) . . ?
C36 C37 F8 120(2) . . ?
C36 C37 C38 120(2) . . ?
C44 C45 H45 126.1 . . ?
C46 C45 C44 107.8(15) . . ?
C46 C45 H45 126.1 . . ?
C4 C3 H3 124.1 . . ?
C2 C3 C4 111.8(15) . . ?
C2 C3 H3 124.1 . . ?
C10 C11 H11 124.9 . . ?
C12 C11 C10 110.2(16) . . ?
C12 C11 H11 124.9 . . ?
C52 C51 H51 125.0 . . ?
C50 C51 C52 110.0(15) . . ?
C50 C51 H51 125.0 . . ?
O3 C32 C29 111.3(16) . . ?
O4 C32 O3 124.0(18) . . ?
O4 C32 C29 124.6(19) . . ?
C7 C6 C5 109.8(16) . . ?
C7 C6 H6 125.1 . . ?
C5 C6 H6 125.1 . . ?
C35 C34 C19 121.5(16) . . ?
C39 C34 C19 125.2(16) . . ?
C39 C34 C35 113.3(17) . . ?
C18 C17 H17 125.3 . . ?
C16 C17 C18 109.4(16) . . ?
C16 C17 H17 125.3 . . ?
C28 C29 C32 124.5(17) . . ?
C28 C29 C30 117.0(17) . . ?
C30 C29 C32 118.5(17) . . ?
C10 C9 C8 125.1(16) . . ?
C10 C9 C20 118.8(15) . . ?
C8 C9 C20 116.1(15) . . ?
F13 C62 C63 122.3(19) . . ?
F13 C62 C61 119.8(19) . . ?
C63 C62 C61 118.0(19) . . ?
F10 C39 C34 117.9(16) . . ?
C38 C39 F10 117.1(17) . . ?
C38 C39 C34 124.7(19) . . ?
F7 C36 C37 120.2(19) . . ?
C35 C36 F7 120.7(19) . . ?
C35 C36 C37 119(2) . . ?
C74 C73 C58 121.4(17) . . ?
C78 C73 C58 123.2(17) . . ?
C78 C73 C74 115.1(17) . . ?
F17 C75 C74 119(2) . . ?
F17 C75 C76 122.2(19) . . ?
C76 C75 C74 118(2) . . ?
F20 C78 C73 119.5(17) . . ?
F20 C78 C77 117.5(19) . . ?
C77 C78 C73 123(2) . . ?
F3 C23 C24 121(2) . . ?
F3 C23 C22 120(2) . . ?
C22 C23 C24 120(2) . . ?
C28 C27 H27 119.3 . . ?
C26 C27 H27 119.3 . . ?
C26 C27 C28 121.5(18) . . ?
C29 C28 C27 121.4(18) . . ?
C29 C28 H28 119.3 . . ?
C27 C28 H28 119.3 . . ?
F9 C38 C37 118.1(18) . . ?
F9 C38 C39 123.3(19) . . ?
C39 C38 C37 118.6(19) . . ?
C27 C26 C14 120.5(17) . . ?
C27 C26 C31 118.6(18) . . ?
C31 C26 C14 120.9(17) . . ?
F12 C61 C60 117.9(18) . . ?
F12 C61 C62 121.3(18) . . ?
C62 C61 C60 120.7(19) . . ?
F4 C24 C23 121(2) . . ?
F4 C24 C25 121(2) . . ?
C25 C24 C23 119(2) . . ?
F18 C76 C75 116(2) . . ?
C77 C76 F18 124(2) . . ?
C77 C76 C75 120(2) . . ?
C24 C25 F5 118.1(19) . . ?
C24 C25 C20 126(2) . . ?
C20 C25 F5 116.1(18) . . ?
F1 C21 C20 118.7(17) . . ?
C22 C21 F1 119(2) . . ?
C22 C21 C20 122(2) . . ?
C13 C12 H12 125.6 . . ?
C11 C12 C13 108.7(16) . . ?
C11 C12 H12 125.6 . . ?
C25 C20 C9 126.4(18) . . ?
C25 C20 C21 113.3(18) . . ?
C21 C20 C9 120.3(17) . . ?
C29 C30 H30 119.3 . . ?
C31 C30 C29 121.4(18) . . ?
C31 C30 H30 119.3 . . ?
C26 C31 C30 120.2(18) . . ?
C26 C31 H31 119.9 . . ?
C30 C31 H31 119.9 . . ?
C78 C77 F19 122(2) . . ?
C76 C77 F19 117(2) . . ?
C76 C77 C78 121(2) . . ?
O3 C33 H33A 109.5 . . ?
O3 C33 H33B 109.5 . . ?
O3 C33 H33C 109.5 . . ?
H33A C33 H33B 109.5 . . ?
H33A C33 H33C 109.5 . . ?
H33B C33 H33C 109.5 . . ?
O5 C72 H72A 109.5 . . ?
O5 C72 H72B 109.5 . . ?
O5 C72 H72C 109.5 . . ?
H72A C72 H72B 109.5 . . ?
H72A C72 H72C 109.5 . . ?
H72B C72 H72C 109.5 . . ?
C23 C22 F2 120(2) . . ?
C23 C22 C21 120(2) . . ?
C21 C22 F2 119(2) . . ?
C80 C79 C84 120.0 . . ?
C80 C79 C85 121.2(17) . . ?
C84 C79 C85 118.5(17) . . ?
C79 C80 H80 120.0 . . ?
C81 C80 C79 120.0 . . ?
C81 C80 H80 120.0 . . ?
C80 C81 H81 120.0 . . ?
C80 C81 C82 120.0 . . ?
C82 C81 H81 120.0 . . ?
C81 C82 H82 120.0 . . ?
C83 C82 C81 120.0 . . ?
C83 C82 H82 120.0 . . ?
C82 C83 H83 120.0 . . ?
C82 C83 C84 120.0 . . ?
C84 C83 H83 120.0 . . ?
C79 C84 H84 120.0 . . ?
C83 C84 C79 120.0 . . ?
C83 C84 H84 120.0 . . ?
C86 C91 H91 122.0 . . ?
C90 C91 H91 122.0 . . ?
C90 C91 C86 116(4) . . ?
C91 C86 C92 118(3) . . ?
C87 C86 C91 120(3) . . ?
C87 C86 C92 123(3) . . ?
C79 C85 H85A 109.5 . . ?
C79 C85 H85B 109.5 . . ?
C79 C85 H85C 109.5 . . ?
H85A C85 H85B 109.5 . . ?
H85A C85 H85C 109.5 . . ?
H85B C85 H85C 109.5 . . ?
C86 C87 H87 120.7 . . ?
C86 C87 C88 119(3) . . ?
C88 C87 H87 120.7 . . ?
C91 C90 H90 117.9 . . ?
C89 C90 C91 124(4) . . ?
C89 C90 H90 117.9 . . ?
C86 C92 H92A 109.5 . . ?
C86 C92 H92B 109.5 . . ?
C86 C92 H92C 109.5 . . ?
H92A C92 H92B 109.5 . . ?
H92A C92 H92C 109.5 . . ?
H92B C92 H92C 109.5 . . ?
C87 C88 H88 118.5 . . ?
C89 C88 C87 123(4) . . ?
C89 C88 H88 118.5 . . ?
C97 C96 H96 120.0 . . ?
C97 C96 C95 120.0 . . ?
C95 C96 H96 120.0 . . ?
C96 C97 H97 120.0 . . ?
C96 C97 C98 120.0 . . ?
C98 C97 H97 120.0 . . ?
C97 C98 H98 120.0 . . ?
C93 C98 C97 120.0 . . ?
C93 C98 H98 120.0 . . ?
C98 C93 C99 121(3) . . ?
C94 C93 C98 120.0 . . ?
C94 C93 C99 119(3) . . ?
C93 C94 H94 120.0 . . ?
C93 C94 C95 120.0 . . ?
C95 C94 H94 120.0 . . ?
C96 C95 H95 120.0 . . ?
C94 C95 C96 120.0 . . ?
C94 C95 H95 120.0 . . ?
C90 C89 H89 121.4 . . ?
C88 C89 C90 117(4) . . ?
C88 C89 H89 121.4 . . ?
C93 C99 H99A 109.5 . . ?
C93 C99 H99B 109.5 . . ?
C93 C99 H99C 109.5 . . ?
H99A C99 H99B 109.5 . . ?
H99A C99 H99C 109.5 . . ?
H99B C99 H99C 109.5 . . ?
H10A C106 H10B 109.5 . . ?
H10A C106 H10C 109.5 . . ?
H10B C106 H10C 109.5 . . ?
C100 C106 H10A 109.5 . . ?
C100 C106 H10B 109.5 . . ?
C100 C106 H10C 109.5 . . ?
C105 C100 C106 119.8(9) . . ?
C105 C100 C101 120.0 . . ?
C101 C100 C106 120.2(9) . . ?
C100 C105 H105 120.0 . . ?
C100 C105 C104 120.0 . . ?
C104 C105 H105 120.0 . . ?
C105 C104 H104 120.0 . . ?
C103 C104 C105 120.0 . . ?
C103 C104 H104 120.0 . . ?
C104 C103 H103 120.0 . . ?
C104 C103 C102 120.0 . . ?
C102 C103 H103 120.0 . . ?
C103 C102 H102 120.0 . . ?
C101 C102 C103 120.0 . . ?
C101 C102 H102 120.0 . . ?
C100 C101 H101 120.0 . . ?
C102 C101 C100 120.0 . . ?
C102 C101 H101 120.0 . . ?
H10D C107 H10E 109.5 . . ?
H10D C107 H10F 109.5 . . ?
H10E C107 H10F 109.5 . . ?
C1B C107 H10D 109.5 . . ?
C1B C107 H10E 109.5 . . ?
C1B C107 H10F 109.5 . . ?
C1B C1A H1A 120.0 . . ?
C1B C1A C1F 120.0 . . ?
C1F C1A H1A 120.0 . . ?
C1A C1B C107 125(4) . . ?
C1C C1B C107 115(4) . . ?
C1C C1B C1A 120.0 . . ?
C1B C1C H1C 120.0 . . ?
C1B C1C C1D 120.0 . . ?
C1D C1C H1C 120.0 . . ?
C1C C1D H1D 120.0 . . ?
C1C C1D C1E 120.0 . . ?
C1E C1D H1D 120.0 . . ?
C1D C1E H1E 120.0 . . ?
C1D C1E C1F 120.0 . . ?
C1F C1E H1E 120.0 . . ?
C1A C1F H1F 120.0 . . ?
C1E C1F C1A 120.0 . . ?
C1E C1F H1F 120.0 . . ?
loop_
_geom_bond_atom_site_label_1
_geom_bond_atom_site_label_2
_geom_bond_distance
_geom_bond_site_symmetry_2
_geom_bond_publ_flag
Sb2 Sb1 3.0627(16) . ?
Sb2 O1 1.962(10) . ?
Sb2 N8 2.039(12) . ?
Sb2 N5 2.089(13) . ?
Sb2 O2 1.947(11) . ?
Sb2 N6 2.038(13) . ?
Sb2 N7 2.091(13) . ?
Sb1 O1 1.992(10) . ?
Sb1 O2 1.969(11) . ?
Sb1 N1 2.081(13) . ?
Sb1 N2 2.050(13) . ?
Sb1 N4 2.044(13) . ?
Sb1 N3 2.107(13) . ?
F15 C64 1.34(2) . ?
F11 C60 1.32(2) . ?
F20 C78 1.33(2) . ?
F6 C35 1.36(2) . ?
F16 C74 1.33(2) . ?
F10 C39 1.34(2) . ?
F12 C61 1.34(2) . ?
F5 C25 1.37(2) . ?
O3 C32 1.32(2) . ?
O3 C33 1.45(2) . ?
N8 C54 1.388(19) . ?
N8 C57 1.45(2) . ?
F17 C75 1.36(2) . ?
N5 C43 1.389(19) . ?
N5 C40 1.398(19) . ?
F9 C38 1.32(2) . ?
F14 C63 1.37(2) . ?
F13 C62 1.32(2) . ?
N6 C47 1.365(19) . ?
N6 C44 1.377(19) . ?
F7 C36 1.35(2) . ?
F1 C21 1.36(2) . ?
N1 C4 1.37(2) . ?
N1 C1 1.39(2) . ?
N2 C5 1.40(2) . ?
N2 C8 1.37(2) . ?
O6 C71 1.19(2) . ?
F19 C77 1.36(2) . ?
N7 C52 1.40(2) . ?
N7 C49 1.392(19) . ?
N4 C18 1.40(2) . ?
N4 C15 1.40(2) . ?
O4 C32 1.18(2) . ?
F18 C76 1.37(2) . ?
F8 C37 1.36(2) . ?
O5 C71 1.32(2) . ?
O5 C72 1.49(2) . ?
N3 C13 1.39(2) . ?
N3 C10 1.40(2) . ?
C43 C44 1.41(2) . ?
C43 C42 1.38(2) . ?
F4 C24 1.31(2) . ?
C19 C18 1.40(2) . ?
C19 C1 1.37(2) . ?
C19 C34 1.48(2) . ?
C58 C57 1.38(2) . ?
C58 C40 1.41(2) . ?
C58 C73 1.44(2) . ?
F3 C23 1.34(2) . ?
C47 C48 1.40(2) . ?
C47 C46 1.42(2) . ?
C4 C5 1.34(2) . ?
C4 C3 1.41(2) . ?
C48 C59 1.46(2) . ?
C48 C49 1.40(2) . ?
C54 C55 1.40(2) . ?
C54 C53 1.39(2) . ?
C18 C17 1.42(2) . ?
C57 C56 1.40(2) . ?
C41 H41 0.9500 . ?
C41 C40 1.40(2) . ?
C41 C42 1.36(2) . ?
C35 C34 1.43(3) . ?
C35 C36 1.33(3) . ?
C59 C64 1.42(2) . ?
C59 C60 1.42(2) . ?
F2 C22 1.37(3) . ?
C64 C63 1.34(2) . ?
C69 H69 0.9500 . ?
C69 C68 1.3900 . ?
C69 C70 1.3900 . ?
C68 C67 1.3900 . ?
C68 C71 1.49(2) . ?
C67 H67 0.9500 . ?
C67 C66 1.3900 . ?
C66 H66 0.9500 . ?
C66 C65 1.3900 . ?
C65 C70 1.3900 . ?
C65 C53 1.495(18) . ?
C70 H70 0.9500 . ?
C55 H55 0.9500 . ?
C55 C56 1.36(2) . ?
C2 H2 0.9500 . ?
C2 C1 1.44(2) . ?
C2 C3 1.36(2) . ?
C56 H56 0.9500 . ?
C13 C14 1.41(2) . ?
C13 C12 1.42(2) . ?
C7 H7 0.9500 . ?
C7 C8 1.42(2) . ?
C7 C6 1.34(2) . ?
C5 C6 1.39(2) . ?
C15 C14 1.35(2) . ?
C15 C16 1.43(2) . ?
C53 C52 1.37(2) . ?
C44 C45 1.41(2) . ?
C52 C51 1.41(2) . ?
C63 C62 1.37(3) . ?
C10 C11 1.40(2) . ?
C10 C9 1.38(2) . ?
C49 C50 1.43(2) . ?
C42 H42 0.9500 . ?
C46 H46 0.9500 . ?
C46 C45 1.37(2) . ?
C14 C26 1.48(2) . ?
C74 C73 1.40(2) . ?
C74 C75 1.39(3) . ?
C16 H16 0.9500 . ?
C16 C17 1.34(2) . ?
C60 C61 1.40(3) . ?
C50 H50 0.9500 . ?
C50 C51 1.36(2) . ?
C8 C9 1.40(2) . ?
C37 C36 1.35(3) . ?
C37 C38 1.40(3) . ?
C45 H45 0.9500 . ?
C3 H3 0.9500 . ?
C11 H11 0.9500 . ?
C11 C12 1.33(2) . ?
C51 H51 0.9500 . ?
C32 C29 1.48(3) . ?
C6 H6 0.9500 . ?
C34 C39 1.37(2) . ?
C17 H17 0.9500 . ?
C29 C28 1.35(2) . ?
C29 C30 1.41(2) . ?
C9 C20 1.49(2) . ?
C62 C61 1.38(3) . ?
C39 C38 1.33(3) . ?
C73 C78 1.37(2) . ?
C75 C76 1.38(3) . ?
C78 C77 1.36(3) . ?
C23 C24 1.38(3) . ?
C23 C22 1.34(3) . ?
C27 H27 0.9500 . ?
C27 C28 1.40(2) . ?
C27 C26 1.37(2) . ?
C28 H28 0.9500 . ?
C26 C31 1.37(3) . ?
C24 C25 1.33(3) . ?
C76 C77 1.34(3) . ?
C25 C20 1.36(3) . ?
C21 C20 1.42(3) . ?
C21 C22 1.35(3) . ?
C12 H12 0.9500 . ?
C30 H30 0.9500 . ?
C30 C31 1.39(3) . ?
C31 H31 0.9500 . ?
C33 H33A 0.9800 . ?
C33 H33B 0.9800 . ?
C33 H33C 0.9800 . ?
C72 H72A 0.9800 . ?
C72 H72B 0.9800 . ?
C72 H72C 0.9800 . ?
C79 C80 1.3900 . ?
C79 C84 1.3900 . ?
C79 C85 1.52(3) . ?
C80 H80 0.9500 . ?
C80 C81 1.3900 . ?
C81 H81 0.9500 . ?
C81 C82 1.3900 . ?
C82 H82 0.9500 . ?
C82 C83 1.3900 . ?
C83 H83 0.9500 . ?
C83 C84 1.3900 . ?
C84 H84 0.9500 . ?
C91 H91 0.9500 . ?
C91 C86 1.40(4) . ?
C91 C90 1.39(4) . ?
C86 C87 1.37(4) . ?
C86 C92 1.51(4) . ?
C85 H85A 0.9800 . ?
C85 H85B 0.9800 . ?
C85 H85C 0.9800 . ?
C87 H87 0.9500 . ?
C87 C88 1.40(4) . ?
C90 H90 0.9500 . ?
C90 C89 1.36(5) . ?
C92 H92A 0.9800 . ?
C92 H92B 0.9800 . ?
C92 H92C 0.9800 . ?
C88 H88 0.9500 . ?
C88 C89 1.29(4) . ?
C96 H96 0.9500 . ?
C96 C97 1.3900 . ?
C96 C95 1.3900 . ?
C97 H97 0.9500 . ?
C97 C98 1.3900 . ?
C98 H98 0.9500 . ?
C98 C93 1.3900 . ?
C93 C94 1.3900 . ?
C93 C99 1.456(19) . ?
C94 H94 0.9500 . ?
C94 C95 1.3900 . ?
C95 H95 0.9500 . ?
C89 H89 0.9500 . ?
C99 H99A 0.9800 . ?
C99 H99B 0.9800 . ?
C99 H99C 0.9800 . ?
C106 H10A 0.9800 . ?
C106 H10B 0.9800 . ?
C106 H10C 0.9800 . ?
C106 C100 1.50(2) . ?
C100 C105 1.3900 . ?
C100 C101 1.3900 . ?
C105 H105 0.9500 . ?
C105 C104 1.3900 . ?
C104 H104 0.9500 . ?
C104 C103 1.3900 . ?
C103 H103 0.9500 . ?
C103 C102 1.3900 . ?
C102 H102 0.9500 . ?
C102 C101 1.3900 . ?
C101 H101 0.9500 . ?
C107 H10D 0.9800 . ?
C107 H10E 0.9800 . ?
C107 H10F 0.9800 . ?
C107 C1B 1.50(2) . ?
C1A H1A 0.9500 . ?
C1A C1B 1.3900 . ?
C1A C1F 1.3900 . ?
C1B C1C 1.3900 . ?
C1C H1C 0.9500 . ?
C1C C1D 1.3900 . ?
C1D H1D 0.9500 . ?
C1D C1E 1.3900 . ?
C1E H1E 0.9500 . ?
C1E C1F 1.3900 . ?
C1F H1F 0.9500 . ?
loop_
_geom_torsion_atom_site_label_1
_geom_torsion_atom_site_label_2
_geom_torsion_atom_site_label_3
_geom_torsion_atom_site_label_4
_geom_torsion
_geom_torsion_site_symmetry_1
_geom_torsion_site_symmetry_2
_geom_torsion_site_symmetry_3
_geom_torsion_site_symmetry_4
_geom_torsion_publ_flag
Sb2 N8 C54 C55 -150.0(11) . . . . ?
Sb2 N8 C54 C53 33(2) . . . . ?
Sb2 N8 C57 C58 -32(2) . . . . ?
Sb2 N8 C57 C56 150.7(11) . . . . ?
Sb2 N5 C43 C44 -25.7(16) . . . . ?
Sb2 N5 C43 C42 153.8(11) . . . . ?
Sb2 N5 C40 C58 34(2) . . . . ?
Sb2 N5 C40 C41 -149.4(11) . . . . ?
Sb2 N6 C47 C48 -20(2) . . . . ?
Sb2 N6 C47 C46 168.1(11) . . . . ?
Sb2 N6 C44 C43 18.1(17) . . . . ?
Sb2 N6 C44 C45 -170.6(10) . . . . ?
Sb2 N7 C52 C53 -27(2) . . . . ?
Sb2 N7 C52 C51 147.2(10) . . . . ?
Sb2 N7 C49 C48 29(2) . . . . ?
Sb2 N7 C49 C50 -146.5(11) . . . . ?
Sb1 N1 C4 C5 21.4(18) . . . . ?
Sb1 N1 C4 C3 -156.8(10) . . . . ?
Sb1 N1 C1 C19 -28(2) . . . . ?
Sb1 N1 C1 C2 153.7(11) . . . . ?
Sb1 N2 C5 C4 -18.0(18) . . . . ?
Sb1 N2 C5 C6 173.4(10) . . . . ?
Sb1 N2 C8 C7 -172.3(11) . . . . ?
Sb1 N2 C8 C9 21(2) . . . . ?
Sb1 N4 C18 C19 31(2) . . . . ?
Sb1 N4 C18 C17 -155.7(11) . . . . ?
Sb1 N4 C15 C14 -30(2) . . . . ?
Sb1 N4 C15 C16 155.3(11) . . . . ?
Sb1 N3 C13 C14 29(2) . . . . ?
Sb1 N3 C13 C12 -150.8(11) . . . . ?
Sb1 N3 C10 C11 147.6(11) . . . . ?
Sb1 N3 C10 C9 -31(2) . . . . ?
F15 C64 C63 F14 1(3) . . . . ?
F15 C64 C63 C62 -176.3(17) . . . . ?
F11 C60 C61 F12 2(3) . . . . ?
F11 C60 C61 C62 -176.4(17) . . . . ?
F20 C78 C77 F19 5(3) . . . . ?
F20 C78 C77 C76 176.8(19) . . . . ?
F6 C35 C34 C19 -2(3) . . . . ?
F6 C35 C34 C39 177.8(16) . . . . ?
F6 C35 C36 F7 -1(3) . . . . ?
F6 C35 C36 C37 -178.7(18) . . . . ?
F16 C74 C73 C58 7(3) . . . . ?
F16 C74 C73 C78 -179.2(15) . . . . ?
F16 C74 C75 F17 -3(3) . . . . ?
F16 C74 C75 C76 -177.7(17) . . . . ?
F10 C39 C38 F9 2(3) . . . . ?
F10 C39 C38 C37 -178.4(17) . . . . ?
F5 C25 C20 C9 3(3) . . . . ?
F5 C25 C20 C21 179.9(16) . . . . ?
O3 C32 C29 C28 5(3) . . . . ?
O3 C32 C29 C30 -175.7(16) . . . . ?
N8 C54 C55 C56 -2.0(18) . . . . ?
N8 C54 C53 C65 -175.8(13) . . . . ?
N8 C54 C53 C52 4(3) . . . . ?
N8 C57 C56 C55 -0.7(18) . . . . ?
F17 C75 C76 F18 3(3) . . . . ?
F17 C75 C76 C77 178.0(19) . . . . ?
N5 C43 C44 N6 5.3(19) . . . . ?
N5 C43 C44 C45 -162.0(19) . . . . ?
N5 C43 C42 C41 -3.6(18) . . . . ?
F14 C63 C62 F13 3(3) . . . . ?
F14 C63 C62 C61 -177.7(16) . . . . ?
F13 C62 C61 F12 2(3) . . . . ?
F13 C62 C61 C60 179.5(17) . . . . ?
N6 C47 C48 C59 172.4(14) . . . . ?
N6 C47 C48 C49 -9(2) . . . . ?
N6 C47 C46 C45 4.7(17) . . . . ?
N6 C44 C45 C46 -0.8(17) . . . . ?
F1 C21 C20 C9 1(3) . . . . ?
F1 C21 C20 C25 -176.5(17) . . . . ?
F1 C21 C22 F2 -2(3) . . . . ?
F1 C21 C22 C23 179.1(19) . . . . ?
N1 C4 C5 N2 -2(2) . . . . ?
N1 C4 C5 C6 160(2) . . . . ?
N1 C4 C3 C2 1.6(19) . . . . ?
N2 C5 C6 C7 1.6(19) . . . . ?
N2 C8 C9 C10 3(3) . . . . ?
N2 C8 C9 C20 -173.7(15) . . . . ?
N7 C52 C51 C50 -1.4(18) . . . . ?
N7 C49 C50 C51 3.7(18) . . . . ?
N4 C18 C17 C16 1.2(19) . . . . ?
N4 C15 C14 C13 -1(3) . . . . ?
N4 C15 C14 C26 -179.2(15) . . . . ?
N4 C15 C16 C17 2.3(19) . . . . ?
O4 C32 C29 C28 -173(2) . . . . ?
O4 C32 C29 C30 6(3) . . . . ?
F18 C76 C77 F19 -6(3) . . . . ?
F18 C76 C77 C78 -178.8(19) . . . . ?
F8 C37 C36 F7 4(3) . . . . ?
F8 C37 C36 C35 -178.1(19) . . . . ?
F8 C37 C38 F9 -1(3) . . . . ?
F8 C37 C38 C39 179.4(18) . . . . ?
N3 C13 C14 C15 0(3) . . . . ?
N3 C13 C14 C26 178.6(16) . . . . ?
N3 C13 C12 C11 4(2) . . . . ?
N3 C10 C11 C12 -2(2) . . . . ?
N3 C10 C9 C8 4(3) . . . . ?
N3 C10 C9 C20 -179.7(16) . . . . ?
C43 N5 C40 C58 176.3(14) . . . . ?
C43 N5 C40 C41 -7.0(17) . . . . ?
C43 C44 C45 C46 167.1(19) . . . . ?
F4 C24 C25 F5 1(3) . . . . ?
F4 C24 C25 C20 -177.8(19) . . . . ?
C19 C18 C17 C16 173.7(17) . . . . ?
C19 C34 C39 F10 -2(3) . . . . ?
C19 C34 C39 C38 -177.2(19) . . . . ?
C58 C57 C56 C55 -177.8(17) . . . . ?
C58 C73 C78 F20 -5(3) . . . . ?
C58 C73 C78 C77 175.2(19) . . . . ?
F3 C23 C24 F4 -3(3) . . . . ?
F3 C23 C24 C25 176.9(19) . . . . ?
F3 C23 C22 F2 1(3) . . . . ?
F3 C23 C22 C21 179.9(19) . . . . ?
C47 N6 C44 C43 -167.4(14) . . . . ?
C47 N6 C44 C45 3.8(17) . . . . ?
C47 C48 C59 C64 -59(2) . . . . ?
C47 C48 C59 C60 122.1(19) . . . . ?
C47 C48 C49 N7 3(3) . . . . ?
C47 C48 C49 C50 177.5(16) . . . . ?
C47 C46 C45 C44 -2.4(18) . . . . ?
C4 N1 C1 C19 -179.0(15) . . . . ?
C4 N1 C1 C2 3.1(18) . . . . ?
C4 C5 C6 C7 -162(2) . . . . ?
C48 C47 C46 C45 -165.9(17) . . . . ?
C48 C59 C64 F15 -2(2) . . . . ?
C48 C59 C64 C63 -177.2(17) . . . . ?
C48 C59 C60 F11 -6(3) . . . . ?
C48 C59 C60 C61 177.6(16) . . . . ?
C48 C49 C50 C51 -171.8(16) . . . . ?
C54 N8 C57 C58 176.8(15) . . . . ?
C54 N8 C57 C56 -0.5(17) . . . . ?
C54 C55 C56 C57 1.7(19) . . . . ?
C54 C53 C52 N7 -6(3) . . . . ?
C54 C53 C52 C51 -178.7(16) . . . . ?
C18 N4 C15 C14 172.8(17) . . . . ?
C18 N4 C15 C16 -1.6(18) . . . . ?
C18 C19 C1 N1 3(3) . . . . ?
C18 C19 C1 C2 179.9(17) . . . . ?
C18 C19 C34 C35 -72(2) . . . . ?
C18 C19 C34 C39 108(2) . . . . ?
C57 N8 C54 C55 1.5(17) . . . . ?
C57 N8 C54 C53 -175.8(15) . . . . ?
C57 C58 C40 N5 -3(2) . . . . ?
C57 C58 C40 C41 -178.1(17) . . . . ?
C57 C58 C73 C74 64(2) . . . . ?
C57 C58 C73 C78 -109(2) . . . . ?
C35 C34 C39 F10 178.0(15) . . . . ?
C35 C34 C39 C38 3(3) . . . . ?
C59 C48 C49 N7 -178.9(15) . . . . ?
C59 C48 C49 C50 -4(2) . . . . ?
C59 C64 C63 F14 176.5(16) . . . . ?
C59 C64 C63 C62 -1(3) . . . . ?
C59 C60 C61 F12 178.4(15) . . . . ?
C59 C60 C61 C62 0(3) . . . . ?
C64 C59 C60 F11 175.3(15) . . . . ?
C64 C59 C60 C61 -1(2) . . . . ?
C64 C63 C62 F13 -179.1(18) . . . . ?
C64 C63 C62 C61 0(3) . . . . ?
C69 C68 C67 C66 0.0 . . . . ?
C69 C68 C71 O6 2(3) . . . . ?
C69 C68 C71 O5 -180.0(11) . . . . ?
C68 C69 C70 C65 0.0 . . . . ?
C68 C67 C66 C65 0.0 . . . . ?
C67 C68 C71 O6 -174.9(16) . . . . ?
C67 C68 C71 O5 3(2) . . . . ?
C67 C66 C65 C70 0.0 . . . . ?
C67 C66 C65 C53 178.3(12) . . . . ?
C66 C65 C70 C69 0.0 . . . . ?
C66 C65 C53 C54 -102.3(14) . . . . ?
C66 C65 C53 C52 77.8(16) . . . . ?
C65 C53 C52 N7 173.7(13) . . . . ?
C65 C53 C52 C51 1(2) . . . . ?
C70 C69 C68 C67 0.0 . . . . ?
C70 C69 C68 C71 -176.7(12) . . . . ?
C70 C65 C53 C54 76.0(15) . . . . ?
C70 C65 C53 C52 -103.9(14) . . . . ?
C55 C54 C53 C65 7(3) . . . . ?
C55 C54 C53 C52 -172.6(17) . . . . ?
C40 N5 C43 C44 -172.9(13) . . . . ?
C40 N5 C43 C42 6.6(17) . . . . ?
C40 C58 C57 N8 2(3) . . . . ?
C40 C58 C57 C56 178.5(16) . . . . ?
C40 C58 C73 C74 -116.2(19) . . . . ?
C40 C58 C73 C78 70(2) . . . . ?
C40 C41 C42 C43 -0.8(19) . . . . ?
C13 N3 C10 C11 4.1(18) . . . . ?
C13 N3 C10 C9 -174.2(17) . . . . ?
C13 C14 C26 C27 -77(2) . . . . ?
C13 C14 C26 C31 102(2) . . . . ?
C7 C8 C9 C10 -159.6(19) . . . . ?
C7 C8 C9 C20 24(3) . . . . ?
C5 N2 C8 C7 4.2(18) . . . . ?
C5 N2 C8 C9 -162.6(15) . . . . ?
C5 C4 C3 C2 -176(2) . . . . ?
C15 N4 C18 C19 -172.6(16) . . . . ?
C15 N4 C18 C17 0.3(18) . . . . ?
C15 C14 C26 C27 101(2) . . . . ?
C15 C14 C26 C31 -79(2) . . . . ?
C15 C16 C17 C18 -2(2) . . . . ?
C53 C54 C55 C56 175.1(17) . . . . ?
C53 C65 C70 C69 -178.4(11) . . . . ?
C53 C52 C51 C50 172.2(16) . . . . ?
C71 C68 C67 C66 176.4(14) . . . . ?
C44 N6 C47 C48 166.9(14) . . . . ?
C44 N6 C47 C46 -5.2(17) . . . . ?
C44 C43 C42 C41 176(2) . . . . ?
C52 N7 C49 C48 170.7(16) . . . . ?
C52 N7 C49 C50 -4.6(17) . . . . ?
C63 C62 C61 F12 -177.5(17) . . . . ?
C63 C62 C61 C60 0(3) . . . . ?
C10 N3 C13 C14 175.2(17) . . . . ?
C10 N3 C13 C12 -4.9(18) . . . . ?
C10 C11 C12 C13 -1(2) . . . . ?
C10 C9 C20 C25 -116(2) . . . . ?
C10 C9 C20 C21 67(2) . . . . ?
C1 N1 C4 C5 175.3(14) . . . . ?
C1 N1 C4 C3 -2.9(18) . . . . ?
C1 C19 C18 N4 -4(3) . . . . ?
C1 C19 C18 C17 -175.5(17) . . . . ?
C1 C19 C34 C35 111(2) . . . . ?
C1 C19 C34 C39 -69(2) . . . . ?
C1 C2 C3 C4 0.3(19) . . . . ?
C49 N7 C52 C53 -170.0(16) . . . . ?
C49 N7 C52 C51 3.7(17) . . . . ?
C49 C48 C59 C64 122.8(18) . . . . ?
C49 C48 C59 C60 -56(2) . . . . ?
C49 C50 C51 C52 -1.4(18) . . . . ?
C42 C43 C44 N6 -174(2) . . . . ?
C42 C43 C44 C45 19(4) . . . . ?
C42 C41 C40 N5 4.8(18) . . . . ?
C42 C41 C40 C58 -179.1(17) . . . . ?
C46 C47 C48 C59 -18(3) . . . . ?
C46 C47 C48 C49 160.1(17) . . . . ?
C14 C13 C12 C11 -176.2(18) . . . . ?
C14 C15 C16 C17 -171.6(19) . . . . ?
C14 C26 C31 C30 177.1(17) . . . . ?
C74 C73 C78 F20 -179.1(15) . . . . ?
C74 C73 C78 C77 1(3) . . . . ?
C74 C75 C76 F18 177.7(17) . . . . ?
C74 C75 C76 C77 -7(3) . . . . ?
C16 C15 C14 C13 172.2(18) . . . . ?
C16 C15 C14 C26 -6(3) . . . . ?
C60 C59 C64 F15 177.0(15) . . . . ?
C60 C59 C64 C63 2(3) . . . . ?
C8 N2 C5 C4 164.9(15) . . . . ?
C8 N2 C5 C6 -3.7(18) . . . . ?
C8 C7 C6 C5 1(2) . . . . ?
C8 C9 C20 C25 60(2) . . . . ?
C8 C9 C20 C21 -116.5(19) . . . . ?
C3 C4 C5 N2 175(2) . . . . ?
C3 C4 C5 C6 -23(4) . . . . ?
C3 C2 C1 N1 -2.0(17) . . . . ?
C3 C2 C1 C19 -179.7(18) . . . . ?
C11 C10 C9 C8 -173.7(18) . . . . ?
C11 C10 C9 C20 2(3) . . . . ?
C32 C29 C28 C27 178.4(18) . . . . ?
C32 C29 C30 C31 -179.6(17) . . . . ?
C6 C7 C8 N2 -3.1(19) . . . . ?
C6 C7 C8 C9 161.0(19) . . . . ?
C34 C19 C18 N4 179.5(15) . . . . ?
C34 C19 C18 C17 8(3) . . . . ?
C34 C19 C1 N1 178.8(15) . . . . ?
C34 C19 C1 C2 -4(3) . . . . ?
C34 C35 C36 F7 178.1(17) . . . . ?
C34 C35 C36 C37 0(3) . . . . ?
C34 C39 C38 F9 177.6(18) . . . . ?
C34 C39 C38 C37 -3(3) . . . . ?
C29 C30 C31 C26 2(3) . . . . ?
C9 C10 C11 C12 176.5(18) . . . . ?
C36 C35 C34 C19 178.7(19) . . . . ?
C36 C35 C34 C39 -1(3) . . . . ?
C36 C37 C38 F9 -178.8(19) . . . . ?
C36 C37 C38 C39 2(3) . . . . ?
C73 C58 C57 N8 -178.8(15) . . . . ?
C73 C58 C57 C56 -2(3) . . . . ?
C73 C58 C40 N5 178.2(15) . . . . ?
C73 C58 C40 C41 3(3) . . . . ?
C73 C74 C75 F17 -179.9(16) . . . . ?
C73 C74 C75 C76 5(3) . . . . ?
C73 C78 C77 F19 -175.8(18) . . . . ?
C73 C78 C77 C76 -4(3) . . . . ?
C75 C74 C73 C58 -176.2(17) . . . . ?
C75 C74 C73 C78 -2(3) . . . . ?
C75 C76 C77 F19 179.2(19) . . . . ?
C75 C76 C77 C78 7(3) . . . . ?
C23 C24 C25 F5 -179.3(18) . . . . ?
C23 C24 C25 C20 2(3) . . . . ?
C27 C26 C31 C30 -3(3) . . . . ?
C28 C29 C30 C31 0(3) . . . . ?
C28 C27 C26 C14 -178.1(17) . . . . ?
C28 C27 C26 C31 2(3) . . . . ?
C38 C37 C36 F7 -178.3(18) . . . . ?
C38 C37 C36 C35 -1(3) . . . . ?
C26 C27 C28 C29 0(3) . . . . ?
C24 C23 C22 F2 177.7(19) . . . . ?
C24 C23 C22 C21 -4(3) . . . . ?
C24 C25 C20 C9 -178.5(19) . . . . ?
C24 C25 C20 C21 -1(3) . . . . ?
C12 C13 C14 C15 -179.9(18) . . . . ?
C12 C13 C14 C26 -1(3) . . . . ?
C20 C21 C22 F2 -177.0(18) . . . . ?
C20 C21 C22 C23 4(3) . . . . ?
C30 C29 C28 C27 -1(3) . . . . ?
C33 O3 C32 O4 -1(3) . . . . ?
C33 O3 C32 C29 -179.5(16) . . . . ?
C72 O5 C71 O6 1(3) . . . . ?
C72 O5 C71 C68 -177.1(14) . . . . ?
C22 C23 C24 F4 -179(2) . . . . ?
C22 C23 C24 C25 1(3) . . . . ?
C22 C21 C20 C9 175.4(19) . . . . ?
C22 C21 C20 C25 -2(3) . . . . ?
C79 C80 C81 C82 0.0 . . . . ?
C80 C79 C84 C83 0.0 . . . . ?
C80 C81 C82 C83 0.0 . . . . ?
C81 C82 C83 C84 0.0 . . . . ?
C82 C83 C84 C79 0.0 . . . . ?
C84 C79 C80 C81 0.0 . . . . ?
C91 C86 C87 C88 -3(5) . . . . ?
C91 C90 C89 C88 11(7) . . . . ?
C86 C91 C90 C89 -6(6) . . . . ?
C86 C87 C88 C89 9(5) . . . . ?
C85 C79 C80 C81 -173.2(19) . . . . ?
C85 C79 C84 C83 173.4(18) . . . . ?
C87 C88 C89 C90 -13(6) . . . . ?
C90 C91 C86 C87 1(5) . . . . ?
C90 C91 C86 C92 -178(3) . . . . ?
C92 C86 C87 C88 176(3) . . . . ?
C96 C97 C98 C93 0.0 . . . . ?
C97 C96 C95 C94 0.0 . . . . ?
C97 C98 C93 C94 0.0 . . . . ?
C97 C98 C93 C99 -175(2) . . . . ?
C98 C93 C94 C95 0.0 . . . . ?
C93 C94 C95 C96 0.0 . . . . ?
C95 C96 C97 C98 0.0 . . . . ?
C99 C93 C94 C95 175(2) . . . . ?
C106 C100 C105 C104 -179(3) . . . . ?
C106 C100 C101 C102 179(3) . . . . ?
C100 C105 C104 C103 0.0 . . . . ?
C105 C100 C101 C102 0.0 . . . . ?
C105 C104 C103 C102 0.0 . . . . ?
C104 C103 C102 C101 0.0 . . . . ?
C103 C102 C101 C100 0.0 . . . . ?
C101 C100 C105 C104 0.0 . . . . ?
C107 C1B C1C C1D 177(4) . . . . ?
C1A C1B C1C C1D 0.0 . . . . ?
C1B C1A C1F C1E 0.0 . . . . ?
C1B C1C C1D C1E 0.0 . . . . ?
C1C C1D C1E C1F 0.0 . . . . ?
C1D C1E C1F C1A 0.0 . . . . ?
C1F C1A C1B C107 -176(5) . . . . ?
C1F C1A C1B C1C 0.0 . . . . ?
loop_
_platon_squeeze_void_nr
_platon_squeeze_void_average_x
_platon_squeeze_void_average_y
_platon_squeeze_void_average_z
_platon_squeeze_void_volume
_platon_squeeze_void_count_electrons
_platon_squeeze_void_content
1 0.222 0.000 0.487 7 1 ' '
2 0.222 0.500 0.987 7 1 ' '
3 0.502 0.500 0.000 184 45 ' '
4 0.502 -0.000 0.500 184 45 ' '
5 0.791 0.501 0.015 5 1 ' '
6 0.791 -0.001 0.515 5 1 ' '
