#------------------------------------------------------------------------------
#$Date: 2022-05-17 00:55:14 +0300 (Tue, 17 May 2022) $
#$Revision: 275455 $
#$URL: file:///home/coder/svn-repositories/cod/cif/7/13/00/7130095.cif $
#------------------------------------------------------------------------------
#
# This file is available in the Crystallography Open Database (COD),
# http://www.crystallography.net/
#
# All data on this site have been placed in the public domain by the
# contributors.
#
data_7130095
loop_
_publ_author_name
'Li, Sha'
'Sun, Yahan'
'Li, Xiaofang'
'Smaga, Oskar'
'Koniarz, Sebastian'
'St\;epie\'n, Marcin'
'Chmielewski, Piotr J.'
_publ_section_title
;
 1,3-Dipolar cycloaddition of polycyclic azomethine ylide to norcorroles:
 towards dibenzoullazine-fused derivatives
;
_journal_name_full               'Chemical Communications'
_journal_paper_doi               10.1039/D2CC02071H
_journal_year                    2022
_chemical_formula_moiety         'C84 H71 N7 Ni O2, C6 H14'
_chemical_formula_sum            'C90 H85 N7 Ni O2'
_chemical_formula_weight         1355.35
_space_group_crystal_system      triclinic
_space_group_IT_number           2
_space_group_name_Hall           '-P 1'
_space_group_name_H-M_alt        'P -1'
_atom_sites_solution_hydrogens   geom
_audit_creation_date             2021-09-28
_audit_creation_method
;
Olex2 1.2
(compiled 2018.05.29 svn.r3508 for OlexSys, GUI svn.r5506)
;
_audit_update_record
;
2021-10-20 deposited with the CCDC.	2022-05-16 downloaded from the CCDC.
;
_cell_angle_alpha                109.234(2)
_cell_angle_beta                 102.943(2)
_cell_angle_gamma                103.838(2)
_cell_formula_units_Z            1
_cell_length_a                   12.3458(2)
_cell_length_b                   12.9810(2)
_cell_length_c                   16.1260(3)
_cell_measurement_reflns_used    19648
_cell_measurement_temperature    169.99(16)
_cell_measurement_theta_max      75.0430
_cell_measurement_theta_min      3.8010
_cell_volume                     2236.35(9)
_computing_cell_refinement       'CrysAlisPro 1.171.40.67a (Rigaku OD, 2019)'
_computing_data_collection       'CrysAlisPro 1.171.40.67a (Rigaku OD, 2019)'
_computing_data_reduction        'CrysAlisPro 1.171.40.67a (Rigaku OD, 2019)'
_computing_molecular_graphics    'Olex2 (Dolomanov et al., 2009)'
_computing_publication_material  'Olex2 (Dolomanov et al., 2009)'
_computing_structure_refinement  'ShelXL (Sheldrick, 2015)'
_computing_structure_solution    'SHELXT 2018/2 (Sheldrick, 2018)'
_diffrn_ambient_environment      N~2~
_diffrn_ambient_temperature      169.99(16)
_diffrn_detector                 'Hybrid Pixel Array Detector'
_diffrn_detector_area_resol_mean 10.0000
_diffrn_detector_type            HyPix
_diffrn_measured_fraction_theta_full 0.997
_diffrn_measured_fraction_theta_max 0.956
_diffrn_measurement_details
;
List of Runs (angles in degrees, time in seconds):

  # Type    Start    End  Width  t~exp~   \w     \q     \k     \f   Frames
#--------------------------------------------------------------------------
  1  \w    -82.00 -57.00   0.50    0.05    --  -46.95 132.00 -68.00   50
  2  \w   -118.00 -93.00   0.50    0.05    --  -46.95-132.00-138.00   50
  3  \w   -105.00 -80.00   0.50    0.05    --  -46.95-138.00  45.00   50
  4  \w    -85.00 -60.00   0.50    0.05    --  -46.95 138.00 107.00   50
  5  \w     72.00  97.00   0.50    0.05    --   46.95 138.00 107.00   50
  6  \w     49.00  99.00   0.50    0.05    --   46.95-138.00  45.00  100
  7  \w     24.00  95.00   0.50    0.05    --   46.95-132.00-138.00  142
  8  \w   -116.00 -28.00   0.50    0.10    --  -99.00 132.00 -68.00  176
  9  \w    -83.00 -29.00   0.50    0.10    --  -99.00 138.00 107.00  108
 10  \w   -121.00 -88.00   0.50    0.10    --  -99.00 138.00 107.00   66
 11  \w   -141.00-116.00   0.50    0.10    --  -99.00-138.00  45.00   50
 12  \w    116.00 144.00   0.50    0.10    --  103.25 138.00 107.00   56
 13  \w     96.00 121.00   0.50    0.10    --  103.25-138.00  45.00   50
 14  \w     50.00  75.00   0.50    0.10    --  103.25-132.00-138.00   50
 15  \w     81.00 123.00   0.50    0.10    --  103.25 132.00 -68.00   84
 16  \w   -110.00 -74.00   0.50    0.05    --  -46.95-125.00  60.00   72
 17  \w    -19.00  25.00   0.50    0.05    --  -46.95  19.00-180.00   88
 18  \w    -22.00  28.00   0.50    0.05    --  -46.95  19.00 -60.00  100
 19  \w    -11.00  27.00   0.50    0.05    --   46.95 -19.00   0.00   76
 20  \w    -26.00  18.00   0.50    0.05    --   46.95 -19.00 -30.00   88
 21  \w     25.00 119.00   0.50    0.05    --   46.95  77.00 -60.00  188
 22  \w   -110.00 -29.00   0.50    0.10    --  -99.00 125.00 -90.00  162
 23  \w    -54.00 -27.00   0.50    0.10    --  -99.00 125.00-180.00   54
 24  \w   -168.00 -85.00   0.50    0.10    --  -99.00 -15.00 -90.00  166
 25  \w   -161.00-111.00   0.50    0.10    --  -99.00 -94.00 -30.00  100
 26  \w    -79.00 -27.00   0.50    0.10    --  -99.00  77.00  60.00  104
 27  \w   -167.00 -93.00   0.50    0.10    --  -99.00 -69.00-145.04  148
 28  \w   -126.00-100.00   0.50    0.10    --  -99.00 147.00  42.84   52
 29  \w   -126.00 -63.00   0.50    0.10    --  -99.00 144.00 128.90  126
 30  \w   -143.00-118.00   0.50    0.10    --  -99.00-132.00-138.00   50
 31  \w   -168.00 -99.00   0.50    0.10    --  -99.00 -30.00  90.00  138
 32  \w   -111.00 -43.00   0.50    0.10    --  -99.00 125.00 -30.00  136
 33  \w   -164.00 -85.00   0.50    0.10    --  -99.00 -94.00-180.00  158
 34  \w    -56.00 -28.00   0.50    0.10    --  -99.00 147.00  42.84   56
 35  \w    -68.00 -40.00   0.50    0.10    --  -99.00  61.00 150.00   56
 36  \w   -112.00 -59.00   0.50    0.10    --  -99.00 125.00-180.00  106
 37  \w     33.00  59.00   0.50    0.10    --  103.25-125.00  90.00   52
 38  \w     50.00  76.00   0.50    0.10    --  103.25-125.00 120.00   52
 39  \w     34.00  73.00   0.50    0.10    --  103.25 -94.00  60.00   78
 40  \w     31.00  75.00   0.50    0.10    --  103.25 -61.00-180.00   88
 41  \w     36.00  75.00   0.50    0.10    --  103.25 -61.00-120.00   78
 42  \w     34.00 109.00   0.50    0.10    --  103.25 -77.00  60.00  150
 43  \w     77.00 110.00   0.50    0.10    --  103.25-125.00 120.00   66
 44  \w     71.00  97.00   0.50    0.10    --  103.25 -94.00-120.00   52
 45  \w     35.00  87.00   0.50    0.10    --  103.25 -77.00-120.00  104
 46  \w     32.00  70.00   0.50    0.10    --  103.25 -61.00  90.00   76
 47  \w     35.00  74.00   0.50    0.10    --  103.25 -61.00 120.00   78
 48  \w     66.00 100.00   0.50    0.10    --  103.25-125.00  90.00   68
 49  \w     82.00 169.00   0.50    0.10    --  103.25  77.00   0.00  174
;
_diffrn_measurement_device       'four-circle diffractometer'
_diffrn_measurement_device_type  'XtaLAB Synergy R, HyPix'
_diffrn_measurement_method       '\w scans'
_diffrn_orient_matrix_type
'CrysAlisPro convention (1999,Acta A55,543-557)'
_diffrn_orient_matrix_UB_11      0.0261995000
_diffrn_orient_matrix_UB_12      -0.0975409000
_diffrn_orient_matrix_UB_13      0.0261943000
_diffrn_orient_matrix_UB_21      0.0428431000
_diffrn_orient_matrix_UB_22      0.0813970000
_diffrn_orient_matrix_UB_23      0.1039150000
_diffrn_orient_matrix_UB_31      -0.1265538000
_diffrn_orient_matrix_UB_32      -0.0415441000
_diffrn_orient_matrix_UB_33      0.0025139000
_diffrn_radiation_monochromator  mirror
_diffrn_radiation_probe          x-ray
_diffrn_radiation_type           CuK\a
_diffrn_radiation_wavelength     1.54184
_diffrn_reflns_av_R_equivalents  0.0439
_diffrn_reflns_av_unetI/netI     0.0295
_diffrn_reflns_Laue_measured_fraction_full 0.997
_diffrn_reflns_Laue_measured_fraction_max 0.956
_diffrn_reflns_limit_h_max       12
_diffrn_reflns_limit_h_min       -15
_diffrn_reflns_limit_k_max       16
_diffrn_reflns_limit_k_min       -16
_diffrn_reflns_limit_l_max       20
_diffrn_reflns_limit_l_min       -18
_diffrn_reflns_number            33345
_diffrn_reflns_point_group_measured_fraction_full 0.997
_diffrn_reflns_point_group_measured_fraction_max 0.956
_diffrn_reflns_theta_full        67.684
_diffrn_reflns_theta_max         75.441
_diffrn_reflns_theta_min         3.824
_diffrn_source                   'Rotating-anode X-ray tube'
_diffrn_source_type              'PhotonJet R (Cu) X-ray Source'
_exptl_absorpt_coefficient_mu    0.658
_exptl_absorpt_correction_T_max  1.00000
_exptl_absorpt_correction_T_min  0.76741
_exptl_absorpt_correction_type   multi-scan
_exptl_absorpt_process_details
;
CrysAlisPro 1.171.40.67a (Rigaku Oxford Diffraction, 2019)
Empirical absorption correction using spherical harmonics,
 implemented in SCALE3 ABSPACK scaling algorithm.
;
_exptl_crystal_colour            black
_exptl_crystal_colour_primary    black
_exptl_crystal_density_diffrn    1.006
_exptl_crystal_description       rod
_exptl_crystal_F_000             718
_exptl_crystal_size_max          0.32
_exptl_crystal_size_mid          0.18
_exptl_crystal_size_min          0.15
_refine_diff_density_max         0.846
_refine_diff_density_min         -0.496
_refine_diff_density_rms         0.083
_refine_ls_extinction_method     none
_refine_ls_goodness_of_fit_ref   1.096
_refine_ls_hydrogen_treatment    constr
_refine_ls_matrix_type           full
_refine_ls_number_parameters     504
_refine_ls_number_reflns         8863
_refine_ls_number_restraints     0
_refine_ls_restrained_S_all      1.096
_refine_ls_R_factor_all          0.0699
_refine_ls_R_factor_gt           0.0666
_refine_ls_shift/su_max          0.001
_refine_ls_shift/su_mean         0.000
_refine_ls_structure_factor_coef Fsqd
_refine_ls_weighting_details
'w=1/[\s^2^(Fo^2^)+(0.1233P)^2^+0.7657P] where P=(Fo^2^+2Fc^2^)/3'
_refine_ls_weighting_scheme      calc
_refine_ls_wR_factor_gt          0.1933
_refine_ls_wR_factor_ref         0.1966
_reflns_Friedel_coverage         0.000
_reflns_number_gt                8055
_reflns_number_total             8863
_reflns_threshold_expression     'I > 2\s(I)'
_cod_data_source_file            d2cc02071h3.cif
_cod_data_source_block           tx2499_sq
_cod_original_cell_volume        2236.35(7)
_cod_database_code               7130095
_shelx_shelxl_version_number     2018/3
_chemical_oxdiff_formula         CHNO
_shelx_space_group_comment
;
The symmetry employed for this shelxl refinement is uniquely defined
by the following loop, which should always be used as a source of
symmetry information in preference to the above space-group names.
They are only intended as comments.
;
_reflns_odcompleteness_completeness 99.68
_reflns_odcompleteness_iscentric 1
_reflns_odcompleteness_theta     68.13
_olex2_refinement_description
;
1. Fixed Uiso
 At 1.2 times of:
  All C(H) groups, All C(H,H) groups
 At 1.5 times of:
  All C(H,H,H) groups
2. Others
 Sof(C31A)=Sof(H31D)=Sof(H31E)=Sof(H31F)=Sof(C32A)=Sof(H32D)=Sof(H32E)=
 Sof(H32F)=Sof(C30A)=Sof(H30D)=Sof(H30E)=Sof(H30F)=1-FVAR(1)
 Sof(C30)=Sof(H30A)=Sof(H30B)=Sof(H30C)=Sof(C31)=Sof(H31A)=Sof(H31B)=Sof(H31C)=
 Sof(C32)=Sof(H32A)=Sof(H32B)=Sof(H32C)=FVAR(1)
 Fixed Sof: O1(0.5) O2(0.5) N3(0.5) H2(0.5)
3.a Ternary CH refined with riding coordinates:
 C6(H6), C7(H7), C9(H9), C27(H27)
3.b Secondary CH2 refined with riding coordinates:
 C44(H44A,H44B), C45(H45A,H45B)
3.c Aromatic/amide H refined with riding coordinates:
 C2(H2), C3(H3), C11(H11), C12(H12), C13(H13), C14(H14), C17(H17), C19(H19),
 C22(H22), C23(H23), C24(H24), C25(H25), C36(H36), C38(H38)
3.d Idealised Me refined as rotating group:
 C30(H30A,H30B,H30C), C31(H31A,H31B,H31C), C32(H32A,H32B,H32C), C40(H40A,H40B,
 H40C), C41(H41A,H41B,H41C), C42(H42A,H42B,H42C), C43(H43A,H43B,H43C),
 C31A(H31D,H31E,H31F), C32A(H32D,H32E,H32F), C30A(H30D,H30E,H30F)
;
_shelx_res_file
;
TITL tx2499_a.res in P-1
    tx2499_sq.res
    created by SHELXL-2018/3 at 15:55:19 on 28-Sep-2021
REM Old TITL TX2499 in P-1
REM SHELXT solution in P-1: R1 0.276, Rweak 0.020, Alpha 0.051
REM <I/s> 0.000 for 0 systematic absences, Orientation as input
REM Formula found by SHELXT: C92 N6 O2 Cl
CELL 1.54184 12.3458 12.981 16.126 109.234 102.943 103.838
ZERR 1 0.0002 0.0002 0.0003 0.002 0.002 0.002
LATT 1
SFAC C H N Ni O
UNIT 90 85 7 1 2

L.S. 5 0 82
PLAN  22
BOND
ABIN
fmap 2
acta
REM <olex2.extras>
REM <HklSrc "%.\\tx2499_sq.hkl">
REM </olex2.extras>

WGHT    0.123300    0.765700
FVAR       0.59752   0.49446
NI1   4    0.500000    1.000000    0.500000    10.50000    0.04572    0.02847 =
         0.03105    0.00116    0.00066    0.01478
PART 1
O1    5    0.068150    0.944778    0.240359    10.50000    0.03795    0.04170 =
         0.07388    0.00008    0.00042    0.01359
O2    5    0.094484    0.818598    0.127829    10.50000    0.06108    0.05462 =
         0.04084   -0.00341   -0.00882    0.01702
PART 0
N1    3    0.398247    0.957980    0.387230    11.00000    0.04400    0.02898 =
         0.03404    0.00411    0.00621    0.01173
N2    3    0.532059    0.868999    0.449764    11.00000    0.04098    0.02980 =
         0.03303    0.00509    0.00614    0.00955
PART 1
N3    3    0.128954    0.891787    0.208913    10.50000    0.03703    0.03001 =
         0.04266    0.00533   -0.00051    0.00374
PART 0
N4    3    0.467027    0.512461    0.334374    11.00000    0.03370    0.02512 =
         0.03463    0.00666    0.01303    0.00378
C1    1    0.316879    1.000353    0.357997    11.00000    0.03256    0.02865 =
         0.03108    0.00913    0.00759    0.00612
C2    1    0.247225    0.916590    0.265762    11.00000    0.03620    0.04226 =
         0.03328    0.00588    0.00489    0.01204
PART 2
AFIX  43
H2    2    0.182886    0.922077    0.226725    10.50000   -1.20000
AFIX   0
PART 0
C3    1    0.291419    0.825564    0.243965    11.00000    0.03739    0.03540 =
         0.02958    0.00354    0.00830    0.00532
AFIX  43
H3    2    0.263135    0.760230    0.188210    11.00000   -1.20000
AFIX   0
C4    1    0.386571    0.851542    0.322223    11.00000    0.04071    0.02497 =
         0.03069    0.00337    0.00816    0.00645
C5    1    0.467971    0.804380    0.361308    11.00000    0.03845    0.02696 =
         0.03068    0.00590    0.01082    0.00624
C6    1    0.495275    0.695214    0.328804    11.00000    0.03316    0.02598 =
         0.03185    0.00714    0.01167    0.00622
AFIX  13
H6    2    0.517349    0.683656    0.272548    11.00000   -1.20000
AFIX   0
C7    1    0.600352    0.711198    0.412876    11.00000    0.03306    0.02526 =
         0.03241    0.00769    0.01117    0.00519
AFIX  13
H7    2    0.672912    0.720361    0.396602    11.00000   -1.20000
AFIX   0
C8    1    0.611848    0.825482    0.490497    11.00000    0.03395    0.02668 =
         0.03448    0.00848    0.01141    0.00664
C9    1    0.397479    0.584542    0.316979    11.00000    0.03321    0.02694 =
         0.03627    0.00689    0.01548    0.00515
AFIX  13
H9    2    0.363609    0.606159    0.366925    11.00000   -1.20000
AFIX   0
C10   1    0.298148    0.521673    0.225674    11.00000    0.03269    0.02919 =
         0.04132    0.00978    0.01402    0.00257
C11   1    0.191323    0.541261    0.214561    11.00000    0.03466    0.03867 =
         0.04760    0.00962    0.01518    0.00564
AFIX  43
H11   2    0.180355    0.594797    0.263982    11.00000   -1.20000
AFIX   0
C12   1    0.100335    0.480769    0.129359    11.00000    0.03124    0.05019 =
         0.05718    0.01336    0.01035    0.00426
AFIX  43
H12   2    0.029236    0.495098    0.121270    11.00000   -1.20000
AFIX   0
C13   1    0.116367    0.399414    0.057003    11.00000    0.03686    0.04696 =
         0.04869    0.00782    0.00441   -0.00101
AFIX  43
H13   2    0.055197    0.357932    0.000476    11.00000   -1.20000
AFIX   0
C14   1    0.222501    0.379098    0.067852    11.00000    0.04133    0.03775 =
         0.04022    0.00436    0.01003    0.00277
AFIX  43
H14   2    0.231738    0.323227    0.018897    11.00000   -1.20000
AFIX   0
C15   1    0.316241    0.441965    0.151968    11.00000    0.03551    0.03001 =
         0.03938    0.00909    0.01252    0.00307
C16   1    0.433482    0.428553    0.167377    11.00000    0.03697    0.02605 =
         0.03818    0.00832    0.01410    0.00436
C17   1    0.473192    0.381527    0.093918    11.00000    0.04447    0.03341 =
         0.03722    0.00941    0.01531    0.01014
AFIX  43
H17   2    0.423787    0.357524    0.033346    11.00000   -1.20000
AFIX   0
C18   1    0.583964    0.369101    0.107726    11.00000    0.04917    0.03660 =
         0.04368    0.01434    0.02323    0.01537
C19   1    0.653792    0.403451    0.198840    11.00000    0.04411    0.04019 =
         0.04454    0.01722    0.02143    0.01714
AFIX  43
H19   2    0.727602    0.394718    0.209742    11.00000   -1.20000
AFIX   0
C20   1    0.618335    0.450697    0.275235    11.00000    0.03956    0.03008 =
         0.04054    0.01307    0.01650    0.00999
C21   1    0.688955    0.478376    0.371333    11.00000    0.04007    0.03147 =
         0.04308    0.01547    0.01747    0.00908
C22   1    0.781654    0.437036    0.392151    11.00000    0.05136    0.05083 =
         0.05128    0.02205    0.02224    0.02430
AFIX  43
H22   2    0.805683    0.396819    0.344407    11.00000   -1.20000
AFIX   0
C23   1    0.838111    0.454875    0.482310    11.00000    0.05144    0.05529 =
         0.05922    0.02841    0.01813    0.02516
AFIX  43
H23   2    0.901917    0.429784    0.495442    11.00000   -1.20000
AFIX   0
C24   1    0.799582    0.510270    0.553322    11.00000    0.05532    0.03932 =
         0.04325    0.01791    0.01058    0.01238
AFIX  43
H24   2    0.834865    0.518979    0.613716    11.00000   -1.20000
AFIX   0
C25   1    0.708483    0.552594    0.534147    11.00000    0.04923    0.02923 =
         0.04075    0.01322    0.01462    0.00666
AFIX  43
H25   2    0.682459    0.589426    0.581825    11.00000   -1.20000
AFIX   0
C26   1    0.655715    0.540558    0.444508    11.00000    0.03860    0.02447 =
         0.04195    0.01272    0.01474    0.00439
C27   1    0.560971    0.591863    0.423837    11.00000    0.03788    0.02708 =
         0.03338    0.00899    0.01435    0.00587
AFIX  13
H27   2    0.525669    0.602878    0.473423    11.00000   -1.20000
AFIX   0
C28   1    0.507565    0.465542    0.259416    11.00000    0.03662    0.02348 =
         0.03745    0.00925    0.01648    0.00499
C29   1    0.625353    0.317059    0.025196    11.00000    0.05808    0.05547 =
         0.04339    0.01762    0.02728    0.02544
PART 1
C30   1    0.604286    0.378318   -0.039231    21.00000    0.10402    0.09183 =
         0.06608    0.04637    0.06046    0.05731
AFIX 137
H30A  2    0.525314    0.380548   -0.051138    21.00000   -1.50000
H30B  2    0.614423    0.337108   -0.096842    21.00000   -1.50000
H30C  2    0.659792    0.456062   -0.010480    21.00000   -1.50000
AFIX   0
C31   1    0.545235    0.186150   -0.029367    21.00000    0.10210    0.05263 =
         0.07310    0.00391    0.04904    0.02920
AFIX 137
H31A  2    0.558516    0.144971    0.009480    21.00000   -1.50000
H31B  2    0.564466    0.152908   -0.084414    21.00000   -1.50000
H31C  2    0.463698    0.180464   -0.046556    21.00000   -1.50000
AFIX   0
C32   1    0.747796    0.317943    0.051933    21.00000    0.06764    0.11441 =
         0.05287    0.01482    0.03110    0.04682
AFIX 137
H32A  2    0.800508    0.396269    0.088510    21.00000   -1.50000
H32B  2    0.767577    0.285859   -0.003049    21.00000   -1.50000
H32C  2    0.755142    0.272278    0.087773    21.00000   -1.50000
AFIX   0
PART 0
C33   1    0.684656    0.884937    0.581416    11.00000    0.03209    0.02587 =
         0.03380    0.00865    0.01088    0.00442
C34   1    0.770381    0.840806    0.627231    11.00000    0.03242    0.02511 =
         0.03616    0.00860    0.00969    0.00464
C35   1    0.876471    0.845682    0.608255    11.00000    0.03628    0.03543 =
         0.04787    0.01534    0.01487    0.00870
C36   1    0.958286    0.812120    0.657642    11.00000    0.03827    0.04844 =
         0.06548    0.02309    0.01647    0.01575
AFIX  43
H36   2    1.027557    0.813365    0.643641    11.00000   -1.20000
AFIX   0
C37   1    0.940098    0.776680    0.727392    11.00000    0.04879    0.04071 =
         0.05257    0.01618    0.00597    0.01535
C38   1    0.834941    0.772416    0.745525    11.00000    0.05449    0.03606 =
         0.04035    0.01601    0.00992    0.01123
AFIX  43
H38   2    0.821112    0.748053    0.791525    11.00000   -1.20000
AFIX   0
C39   1    0.749422    0.803589    0.696793    11.00000    0.04160    0.02773 =
         0.03759    0.00975    0.01196    0.00669
C40   1    0.905983    0.892095    0.538752    11.00000    0.04272    0.05665 =
         0.06154    0.02993    0.02552    0.01446
AFIX 137
H40A  2    0.877487    0.829589    0.478277    11.00000   -1.50000
H40B  2    0.990103    0.927309    0.556952    11.00000   -1.50000
H40C  2    0.869145    0.948930    0.536788    11.00000   -1.50000
AFIX   0
C41   1    0.635152    0.794041    0.716998    11.00000    0.04988    0.04047 =
         0.04537    0.01734    0.02236    0.00800
AFIX 137
H41A  2    0.628895    0.869786    0.741021    11.00000   -1.50000
H41B  2    0.633508    0.761069    0.762152    11.00000   -1.50000
H41C  2    0.570091    0.745170    0.660721    11.00000   -1.50000
AFIX   0
C42   1    1.030990    0.741429    0.780541    11.00000    0.06453    0.06410 =
         0.07402    0.02976    0.00385    0.02803
AFIX 137
H42A  2    1.035502    0.670807    0.739596    11.00000   -1.50000
H42B  2    1.008602    0.729483    0.830855    11.00000   -1.50000
H42C  2    1.106698    0.801569    0.804990    11.00000   -1.50000
AFIX   0

C43   1    0.271439    1.053028    0.011343    11.00000    0.10298    0.08084 =
         0.10233    0.03010    0.03802    0.02680
AFIX 137
H43A  2    0.255347    1.026528   -0.054645    11.00000   -1.50000
H43B  2    0.335057    1.030832    0.037849    11.00000   -1.50000
H43C  2    0.293297    1.135982    0.038599    11.00000   -1.50000
AFIX   0
C44   1    0.161603    0.998794    0.030698    11.00000    0.09803    0.05870 =
         0.06377    0.01605    0.02088    0.02522
AFIX  23
H44A  2    0.142341    0.915244    0.005124    11.00000   -1.20000
H44B  2    0.179253    1.025371    0.097497    11.00000   -1.20000
AFIX   0
C45   1    0.054563    1.026542   -0.009181    11.00000    0.09757    0.05439 =
         0.05545    0.01685    0.01983    0.02067
AFIX  23
H45A  2    0.074031    1.110116    0.016473    11.00000   -1.20000
H45B  2    0.037287    1.000195   -0.075934    11.00000   -1.20000
AFIX   0

PART 2
C31A  1    0.625008    0.198560    0.016453   -21.00000    0.11574    0.06672 =
         0.08620    0.01522    0.06022    0.04993
AFIX 137
H31D  2    0.686179    0.205168    0.068588   -21.00000   -1.50000
H31E  2    0.638875    0.160027   -0.040102   -21.00000   -1.50000
H31F  2    0.549749    0.154473    0.015264   -21.00000   -1.50000
AFIX   0
C32A  1    0.759588    0.391562    0.050026   -21.00000    0.08175    0.11089 =
         0.07879    0.00554    0.05907   -0.00142
AFIX 137
H32D  2    0.765146    0.468373    0.054517   -21.00000   -1.50000
H32E  2    0.789322    0.355453    0.002139   -21.00000   -1.50000
H32F  2    0.805426    0.395888    0.108429   -21.00000   -1.50000
AFIX   0
C30A  1    0.557760    0.318231   -0.062570   -21.00000    0.13171    0.15443 =
         0.04997    0.04217    0.05109    0.10135
AFIX 137
H30D  2    0.480411    0.260684   -0.086943   -21.00000   -1.50000
H30E  2    0.598304    0.301354   -0.107000   -21.00000   -1.50000
H30F  2    0.550724    0.393417   -0.050689   -21.00000   -1.50000
AFIX   0
HKLF 4




REM  tx2499_a.res in P-1
REM wR2 = 0.1966, GooF = S = 1.096, Restrained GooF = 1.096 for all data
REM R1 = 0.0666 for 8055 Fo > 4sig(Fo) and 0.0699 for all 8863 data
REM 504 parameters refined using 0 restraints

END

WGHT      0.1233      0.7656

REM Highest difference peak  0.846,  deepest hole -0.496,  1-sigma level  0.083
Q1    1   0.4789  0.9744  0.4316  11.00000  0.05    0.85
Q2    1   0.5136  0.9599  0.4477  11.00000  0.05    0.78
Q3    1   0.4389  1.0237  0.4673  11.00000  0.05    0.72
Q4    1   0.6647  0.5056  0.4032  11.00000  0.05    0.47
Q5    1   0.8003  0.4875  0.4960  11.00000  0.05    0.45
Q6    1   0.6566  0.4602  0.3207  11.00000  0.05    0.45
Q7    1   0.6345  0.4213  0.2403  11.00000  0.05    0.43
Q8    1   0.6076  0.3420  0.0704  11.00000  0.05    0.42
Q9    1   0.4852  0.4950  0.2917  11.00000  0.05    0.41
Q10   1   0.3014  0.4875  0.1840  11.00000  0.05    0.41
Q11   1   0.4758  0.4580  0.2174  11.00000  0.05    0.40
Q12   1   0.4550  0.4123  0.1397  11.00000  0.05    0.40
Q13   1   0.7210  0.5037  0.4572  11.00000  0.05    0.40
Q14   1   0.6828  0.5476  0.4804  11.00000  0.05    0.38
Q15   1   0.5695  0.4487  0.2634  11.00000  0.05    0.38
Q16   1   0.6209  0.3869  0.1511  11.00000  0.05    0.38
Q17   1   0.6159  0.5523  0.4356  11.00000  0.05    0.37
Q18   1   0.7204  0.4543  0.3781  11.00000  0.05    0.36
Q19   1   0.7531  0.5208  0.5245  11.00000  0.05    0.34
Q20   1   0.4265  0.5424  0.3132  11.00000  0.05    0.34
Q21   1   0.1137  0.4427  0.1027  11.00000  0.05    0.34
Q22   1   0.3421  0.5411  0.2646  11.00000  0.05    0.33
;
_shelx_res_checksum              53616
_shelx_fab_file
;
    0    0    2    -56.67      0.00
    0    0    3      4.39      0.00
    0    0    4     17.21      0.00
    0    0    5     11.48      0.00
    0    0    6    -13.26      0.00
    0    0    7      1.44      0.00
    0    0    8     -1.28      0.00
    0    0    9     -0.43      0.00
    0    0   10      1.78      0.00
    0    0   11      1.60      0.00
    0    0   12     -1.71      0.00
    0    0   13      0.68      0.00
    0    0   14     -1.28      0.00
    0    0   15      1.59      0.00
    0    0   16      0.35      0.00
    0    0   17     -1.12      0.00
    0   -1   18      0.38      0.00
    0   -1   17     -0.30      0.00
    0   -1   16     -1.47      0.00
    0   -1   15      0.83      0.00
    0   -1   14      0.53      0.00
    0   -1   13      0.30      0.00
    0   -1   12     -1.05      0.00
    0   -1   11     -1.07      0.00
    0   -1   10      0.43      0.00
    0   -1    9      2.04      0.00
    0   -1    8      1.03      0.00
    0   -1    7      2.75      0.00
    0   -1    6     -9.05      0.00
    0   -1    5     -8.14      0.00
    0   -1    4     23.72      0.00
    0   -1    3     13.58      0.00
    0   -1    2    -17.36      0.00
    0   -1    1    -65.04      0.00
    0    1    0     53.68      0.00
    0    1    1     34.58      0.00
    0    1    2    -31.08      0.00
    0    1    3     -4.10      0.00
    0    1    4      2.27      0.00
    0    1    5      4.39      0.00
    0    1    6     -2.32      0.00
    0    1    7      1.67      0.00
    0    1    8     -0.31      0.00
    0    1    9     -1.08      0.00
    0    1   10     -1.38      0.00
    0    1   11      0.67      0.00
    0    1   12     -0.12      0.00
    0    1   13      1.61      0.00
    0    1   14     -1.03      0.00
    0    1   15     -0.83      0.00
    0    1   16      0.97      0.00
    0    1   17      0.14      0.00
    0   -2   18     -0.04      0.00
    0   -2   17      0.53      0.00
    0   -2   16      0.41      0.00
    0   -2   15     -0.99      0.00
    0   -2   14      0.75      0.00
    0   -2   13     -0.55      0.00
    0   -2   12      0.74      0.00
    0   -2   11      1.14      0.00
    0   -2   10     -2.69      0.00
    0   -2    9     -3.55      0.00
    0   -2    8      5.14      0.00
    0   -2    7      0.24      0.00
    0   -2    6      7.00      0.00
    0   -2    5    -16.98      0.00
    0   -2    4      4.97      0.00
    0   -2    3     16.80      0.00
    0   -2    2    -19.54      0.00
    0   -2    1     31.54      0.00
    0    2    0    -37.46      0.00
    0    2    1      1.52      0.00
    0    2    2      7.75      0.00
    0    2    3      4.77      0.00
    0    2    4      5.38      0.00
    0    2    5     -8.93      0.00
    0    2    6      0.03      0.00
    0    2    7      2.08      0.00
    0    2    8      1.30      0.00
    0    2    9      0.21      0.00
    0    2   10     -0.06      0.00
    0    2   11     -1.96      0.00
    0    2   12     -0.08      0.00
    0    2   13      0.72      0.00
    0    2   14      0.84      0.00
    0    2   15     -0.65      0.00
    0    2   16     -0.60      0.00
    0   -3   18     -0.23      0.00
    0   -3   17     -0.63      0.00
    0   -3   16      1.18      0.00
    0   -3   15     -0.07      0.00
    0   -3   14      0.27      0.00
    0   -3   13     -0.82      0.00
    0   -3   12     -0.40      0.00
    0   -3   11      2.18      0.00
    0   -3   10      2.51      0.00
    0   -3    9     -7.38      0.00
    0   -3    8     -0.07      0.00
    0   -3    7      1.38      0.00
    0   -3    6      7.23      0.00
    0   -3    5     -0.33      0.00
    0   -3    4    -14.38      0.00
    0   -3    3     16.21      0.00
    0   -3    2    -26.63      0.00
    0   -3    1     40.61      0.00
    0    3    0     -7.74      0.00
    0    3    1    -20.85      0.00
    0    3    2      2.22      0.00
    0    3    3      3.65      0.00
    0    3    4      6.31      0.00
    0    3    5     -4.98      0.00
    0    3    6      0.52      0.00
    0    3    7     -0.99      0.00
    0    3    8      0.94      0.00
    0    3    9      0.33      0.00
    0    3   10      1.10      0.00
    0    3   11     -1.41      0.00
    0    3   12      0.80      0.00
    0    3   13     -0.50      0.00
    0    3   14     -0.09      0.00
    0    3   15      0.60      0.00
    0   -4   18      0.10      0.00
    0   -4   17     -0.38      0.00
    0   -4   16     -0.23      0.00
    0   -4   15      0.50      0.00
    0   -4   14     -0.25      0.00
    0   -4   13      0.25      0.00
    0   -4   12     -0.10      0.00
    0   -4   11     -1.64      0.00
    0   -4   10      2.48      0.00
    0   -4    9      2.17      0.00
    0   -4    8     -6.03      0.00
    0   -4    7      3.04      0.00
    0   -4    6     -2.53      0.00
    0   -4    5      6.73      0.00
    0   -4    4     -4.19      0.00
    0   -4    3     -6.15      0.00
    0   -4    2      6.45      0.00
    0   -4    1      0.95      0.00
    0    4    0      0.11      0.00
    0    4    1     -1.87      0.00
    0    4    2      1.85      0.00
    0    4    3      0.95      0.00
    0    4    4     -3.23      0.00
    0    4    5     -0.78      0.00
    0    4    6      3.17      0.00
    0    4    7     -1.00      0.00
    0    4    8     -1.34      0.00
    0    4    9      0.46      0.00
    0    4   10      0.08      0.00
    0    4   11     -0.53      0.00
    0    4   12      0.72      0.00
    0    4   13      0.52      0.00
    0    4   14     -0.49      0.00
    0    4   15      0.09      0.00
    0   -5   18      0.20      0.00
    0   -5   17      0.07      0.00
    0   -5   16     -0.37      0.00
    0   -5   15      0.51      0.00
    0   -5   14     -0.67      0.00
    0   -5   13      0.00      0.00
    0   -5   12      1.06      0.00
    0   -5   11     -0.03      0.00
    0   -5   10     -4.33      0.00
    0   -5    9      4.61      0.00
    0   -5    8     -0.34      0.00
    0   -5    7      1.14      0.00
    0   -5    6     -2.39      0.00
    0   -5    5     -2.42      0.00
    0   -5    4      7.92      0.00
    0   -5    3    -16.78      0.00
    0   -5    2     17.87      0.00
    0   -5    1     -2.66      0.00
    0    5    0     -5.98      0.00
    0    5    1     -0.95      0.00
    0    5    2      3.39      0.00
    0    5    3      4.50      0.00
    0    5    4     -5.24      0.00
    0    5    5     -0.76      0.00
    0    5    6      1.72      0.00
    0    5    7      1.20      0.00
    0    5    8     -1.09      0.00
    0    5    9      0.29      0.00
    0    5   10     -1.08      0.00
    0    5   11      0.56      0.00
    0    5   12     -0.20      0.00
    0    5   13     -0.05      0.00
    0    5   14      0.14      0.00
    0   -6   19      0.16      0.00
    0   -6   18      0.30      0.00
    0   -6   17     -0.10      0.00
    0   -6   16     -0.28      0.00
    0   -6   15      0.52      0.00
    0   -6   14     -0.04      0.00
    0   -6   13     -0.21      0.00
    0   -6   12     -0.84      0.00
    0   -6   11      2.77      0.00
    0   -6   10     -1.54      0.00
    0   -6    9     -2.12      0.00
    0   -6    8      3.78      0.00
    0   -6    7     -1.03      0.00
    0   -6    6     -0.05      0.00
    0   -6    5     -2.26      0.00
    0   -6    4      4.89      0.00
    0   -6    3     -9.13      0.00
    0   -6    2      5.44      0.00
    0   -6    1      0.17      0.00
    0    6    0      0.74      0.00
    0    6    1     -0.83      0.00
    0    6    2     -0.90      0.00
    0    6    3      2.11      0.00
    0    6    4     -2.11      0.00
    0    6    5      1.30      0.00
    0    6    6     -0.71      0.00
    0    6    7     -0.15      0.00
    0    6    8      0.45      0.00
    0    6    9      0.78      0.00
    0    6   10     -0.94      0.00
    0    6   11      0.23      0.00
    0    6   12      0.32      0.00
    0    6   13     -0.24      0.00
    0   -7   19      0.24      0.00
    0   -7   18      0.11      0.00
    0   -7   17     -0.16      0.00
    0   -7   16     -0.44      0.00
    0   -7   15      0.19      0.00
    0   -7   14      0.38      0.00
    0   -7   13      0.22      0.00
    0   -7   12     -1.17      0.00
    0   -7   11     -0.85      0.00
    0   -7   10      3.31      0.00
    0   -7    9     -1.59      0.00
    0   -7    8      0.77      0.00
    0   -7    7     -1.00      0.00
    0   -7    6      0.00      0.00
    0   -7    5      1.41      0.00
    0   -7    4     -0.34      0.00
    0   -7    3      2.43      0.00
    0   -7    2     -4.41      0.00
    0   -7    1     -0.54      0.00
    0    7    0      0.51      0.00
    0    7    1      2.10      0.00
    0    7    2      0.47      0.00
    0    7    3     -1.53      0.00
    0    7    4     -1.82      0.00
    0    7    5      2.31      0.00
    0    7    6      0.85      0.00
    0    7    7     -1.75      0.00
    0    7    8      0.17      0.00
    0    7    9      0.49      0.00
    0    7   10      0.27      0.00
    0    7   11     -0.31      0.00
    0    7   12     -0.28      0.00
    0   -8   19      0.24      0.00
    0   -8   18      0.29      0.00
    0   -8   17     -0.21      0.00
    0   -8   16     -0.38      0.00
    0   -8   15     -0.37      0.00
    0   -8   14      1.00      0.00
    0   -8   13     -0.52      0.00
    0   -8   12      1.00      0.00
    0   -8   11     -2.35      0.00
    0   -8   10      0.45      0.00
    0   -8    9      1.76      0.00
    0   -8    8     -0.66      0.00
    0   -8    7     -1.88      0.00
    0   -8    6     -0.33      0.00
    0   -8    5      4.24      0.00
    0   -8    4     -4.24      0.00
    0   -8    3      5.56      0.00
    0   -8    2     -3.79      0.00
    0   -8    1      0.61      0.00
    0    8    0     -0.22      0.00
    0    8    1     -0.83      0.00
    0    8    2      2.16      0.00
    0    8    3     -0.97      0.00
    0    8    4     -1.16      0.00
    0    8    5     -0.40      0.00
    0    8    6      1.57      0.00
    0    8    7     -0.41      0.00
    0    8    8     -0.14      0.00
    0    8    9     -0.09      0.00
    0    8   10      0.37      0.00
    0    8   11      0.22      0.00
    0   -9   19      0.01      0.00
    0   -9   18      0.42      0.00
    0   -9   17      0.17      0.00
    0   -9   16     -0.10      0.00
    0   -9   15     -0.89      0.00
    0   -9   14      1.15      0.00
    0   -9   13     -0.18      0.00
    0   -9   12     -0.15      0.00
    0   -9   11      0.62      0.00
    0   -9   10     -1.18      0.00
    0   -9    9      0.79      0.00
    0   -9    8     -0.54      0.00
    0   -9    7     -0.77      0.00
    0   -9    6     -0.57      0.00
    0   -9    5      2.38      0.00
    0   -9    4     -1.44      0.00
    0   -9    3     -0.23      0.00
    0   -9    2      0.64      0.00
    0   -9    1     -0.12      0.00
    0    9    0      1.47      0.00
    0    9    1     -1.55      0.00
    0    9    2      0.04      0.00
    0    9    3      0.16      0.00
    0    9    4      1.06      0.00
    0    9    5     -0.82      0.00
    0    9    6     -0.67      0.00
    0    9    7      0.29      0.00
    0    9    8      0.02      0.00
    0    9    9      0.13      0.00
    0  -10   18     -0.52      0.00
    0  -10   17      0.85      0.00
    0  -10   16      0.14      0.00
    0  -10   15     -0.68      0.00
    0  -10   14     -0.34      0.00
    0  -10   13      1.68      0.00
    0  -10   12     -1.35      0.00
    0  -10   11      0.30      0.00
    0  -10   10      0.16      0.00
    0  -10    9      1.00      0.00
    0  -10    8     -0.72      0.00
    0  -10    7     -1.42      0.00
    0  -10    6      1.65      0.00
    0  -10    5     -1.12      0.00
    0  -10    4      2.40      0.00
    0  -10    3     -3.93      0.00
    0  -10    2      2.06      0.00
    0  -10    1      0.01      0.00
    0   10    0     -0.44      0.00
    0   10    1      0.72      0.00
    0   10    2     -0.60      0.00
    0   10    3      0.06      0.00
    0   10    4      0.11      0.00
    0   10    5      1.09      0.00
    0   10    6     -0.67      0.00
    0   10    7     -0.12      0.00
    0   10    8     -0.48      0.00
    0  -11   18     -0.96      0.00
    0  -11   17      0.49      0.00
    0  -11   16      0.42      0.00
    0  -11   15     -0.16      0.00
    0  -11   14     -1.01      0.00
    0  -11   13      0.74      0.00
    0  -11   12      0.43      0.00
    0  -11   11     -0.81      0.00
    0  -11   10     -0.14      0.00
    0  -11    9      0.68      0.00
    0  -11    8      0.60      0.00
    0  -11    7     -1.43      0.00
    0  -11    6      1.15      0.00
    0  -11    5     -1.34      0.00
    0  -11    4      2.47      0.00
    0  -11    3     -1.91      0.00
    0  -11    2     -0.13      0.00
    0  -11    1      1.58      0.00
    0   11    0     -1.67      0.00
    0   11    1     -0.33      0.00
    0   11    2      0.22      0.00
    0   11    3      1.30      0.00
    0   11    4     -1.06      0.00
    0   11    5      0.27      0.00
    0   11    6      0.16      0.00
    0   11    7      0.25      0.00
    0  -12   17     -0.12      0.00
    0  -12   16      0.26      0.00
    0  -12   15     -0.14      0.00
    0  -12   14      0.02      0.00
    0  -12   13     -0.68      0.00
    0  -12   12      1.09      0.00
    0  -12   11     -0.18      0.00
    0  -12   10      0.03      0.00
    0  -12    9     -0.39      0.00
    0  -12    8     -0.22      0.00
    0  -12    7      0.41      0.00
    0  -12    6     -0.34      0.00
    0  -12    5      0.03      0.00
    0  -12    4     -0.27      0.00
    0  -12    3      1.27      0.00
    0  -12    2     -1.15      0.00
    0  -12    1      0.62      0.00
    0   12    0      0.41      0.00
    0   12    1     -0.75      0.00
    0   12    2     -0.48      0.00
    0   12    3      0.43      0.00
    0   12    4      0.29      0.00
    0   12    5     -0.17      0.00
    0  -13   16     -0.22      0.00
    0  -13   15     -0.02      0.00
    0  -13   14      0.21      0.00
    0  -13   13     -0.53      0.00
    0  -13   12      0.32      0.00
    0  -13   11      0.31      0.00
    0  -13   10      0.13      0.00
    0  -13    9      0.03      0.00
    0  -13    8     -0.90      0.00
    0  -13    7      1.27      0.00
    0  -13    6     -1.22      0.00
    0  -13    5      1.29      0.00
    0  -13    4     -1.66      0.00
    0  -13    3      1.09      0.00
    0  -13    2      0.35      0.00
    0  -13    1     -0.97      0.00
    0   13    0      0.59      0.00
    0   13    1      0.17      0.00
    0   13    2      0.12      0.00
    0   13    3     -0.75      0.00
    0  -14   15      0.18      0.00
    0  -14   14      0.19      0.00
    0  -14   13     -0.11      0.00
    0  -14   12     -0.27      0.00
    0  -14   11      0.31      0.00
    0  -14   10     -0.28      0.00
    0  -14    9      0.16      0.00
    0  -14    8     -0.52      0.00
    0  -14    7      1.02      0.00
    0  -14    6     -0.79      0.00
    0  -14    5      0.43      0.00
    0  -14    4     -0.29      0.00
    0  -14    3     -0.35      0.00
    0  -14    2      0.95      0.00
    0  -14    1     -0.64      0.00
    0   14    0      0.22      0.00
    0  -15   12     -0.37      0.00
    0  -15   11      0.21      0.00
    0  -15   10      0.10      0.00
    0  -15    9     -0.35      0.00
    0  -15    8      0.13      0.00
    0  -15    7     -0.04      0.00
    0  -15    6      0.46      0.00
    0  -15    5     -0.65      0.00
    0  -15    4      0.42      0.00
    1  -16    8      0.17      0.00
    1  -15    2     -0.47      0.00
    1  -15    3     -0.01      0.00
    1  -15    4      0.59      0.00
    1  -15    5     -0.77      0.00
    1  -15    6      0.53      0.00
    1  -15    7     -0.74      0.00
    1  -15    8      0.68      0.00
    1  -15    9     -0.26      0.00
    1  -15   10     -0.01      0.00
    1  -15   11      0.25      0.00
    1  -15   12      0.09      0.00
    1  -15   13     -0.54      0.00
   -1   14    1     -0.34      0.00
   -1   14    0      0.35      0.00
    1  -14    1      0.08      0.00
    1  -14    2      0.03      0.00
    1  -14    3     -0.61      0.00
    1  -14    4      0.94      0.00
    1  -14    5     -0.52      0.00
    1  -14    6      0.37      0.00
    1  -14    7     -0.52      0.00
    1  -14    8      0.49      0.00
    1  -14    9     -0.02      0.00
    1  -14   10     -0.17      0.00
    1  -14   11      0.09      0.00
    1  -14   12      0.08      0.00
    1  -14   13     -0.11      0.00
    1  -14   14     -0.48      0.00
   -1   13    4      0.58      0.00
   -1   13    3     -0.19      0.00
   -1   13    2     -0.26      0.00
   -1   13    1     -0.52      0.00
   -1   13    0      0.99      0.00
    1  -13    1     -0.76      0.00
    1  -13    2      0.20      0.00
    1  -13    3      0.27      0.00
    1  -13    4     -0.57      0.00
    1  -13    5      0.65      0.00
    1  -13    6     -0.82      0.00
    1  -13    7      0.64      0.00
    1  -13    8      0.06      0.00
    1  -13    9      0.03      0.00
    1  -13   10     -0.44      0.00
    1  -13   11      0.09      0.00
    1  -13   12     -0.03      0.00
    1  -13   13      0.29      0.00
    1  -13   14     -0.39      0.00
    1  -13   15      0.36      0.00
    1  -13   16      0.28      0.00
   -1   12    6      0.17      0.00
   -1   12    5     -0.52      0.00
   -1   12    4      0.20      0.00
   -1   12    3     -0.01      0.00
   -1   12    2      0.70      0.00
   -1   12    1     -1.14      0.00
   -1   12    0      0.93      0.00
    1  -12    1     -0.10      0.00
    1  -12    2     -1.31      0.00
    1  -12    3      1.64      0.00
    1  -12    4     -1.54      0.00
    1  -12    5      1.76      0.00
    1  -12    6     -1.85      0.00
    1  -12    7      1.24      0.00
    1  -12    8     -0.08      0.00
    1  -12    9      0.26      0.00
    1  -12   10     -0.39      0.00
    1  -12   11     -0.61      0.00
    1  -12   12      0.55      0.00
    1  -12   13     -0.16      0.00
    1  -12   14      0.17      0.00
    1  -12   15     -0.34      0.00
    1  -12   16      0.55      0.00
    1  -12   17     -0.39      0.00
   -1   11    7     -0.14      0.00
   -1   11    6      0.52      0.00
   -1   11    5      0.67      0.00
   -1   11    4     -0.84      0.00
   -1   11    3     -1.23      0.00
   -1   11    2      1.40      0.00
   -1   11    1      0.67      0.00
   -1   11    0     -0.86      0.00
    1  -11    1      0.78      0.00
    1  -11    2     -0.79      0.00
    1  -11    3      0.42      0.00
    1  -11    4     -1.06      0.00
    1  -11    5      1.17      0.00
    1  -11    6     -0.66      0.00
    1  -11    7      0.12      0.00
    1  -11    8     -0.37      0.00
    1  -11    9      0.32      0.00
    1  -11   10      1.05      0.00
    1  -11   11     -1.29      0.00
    1  -11   12      0.25      0.00
    1  -11   13      0.30      0.00
    1  -11   14      0.29      0.00
    1  -11   15     -0.65      0.00
    1  -11   16      0.07      0.00
    1  -11   17      0.57      0.00
    1  -11   18     -0.28      0.00
   -1   10    9      0.19      0.00
   -1   10    8     -0.11      0.00
   -1   10    7     -0.21      0.00
   -1   10    6     -0.91      0.00
   -1   10    5      0.91      0.00
   -1   10    4      0.47      0.00
   -1   10    3     -0.21      0.00
   -1   10    2     -1.35      0.00
   -1   10    1      1.54      0.00
   -1   10    0     -0.62      0.00
    1  -10    1     -0.69      0.00
    1  -10    2      2.44      0.00
    1  -10    3     -1.69      0.00
    1  -10    4      1.14      0.00
    1  -10    5     -2.02      0.00
    1  -10    6      1.26      0.00
    1  -10    7      0.33      0.00
    1  -10    8     -0.51      0.00
    1  -10    9     -1.10      0.00
    1  -10   10      1.18      0.00
    1  -10   11      0.60      0.00
    1  -10   12     -1.63      0.00
    1  -10   13      0.73      0.00
    1  -10   14      0.42      0.00
    1  -10   15     -0.16      0.00
    1  -10   16     -0.85      0.00
    1  -10   17      0.83      0.00
    1  -10   18      0.18      0.00
   -1    9   10     -0.28      0.00
   -1    9    9      0.13      0.00
   -1    9    8     -0.01      0.00
   -1    9    7      0.87      0.00
   -1    9    6     -0.78      0.00
   -1    9    5     -0.69      0.00
   -1    9    4     -0.23      0.00
   -1    9    3      1.82      0.00
   -1    9    2     -0.88      0.00
   -1    9    1     -0.40      0.00
   -1    9    0      0.00      0.00
    1   -9    1     -1.91      0.00
    1   -9    2      3.82      0.00
    1   -9    3     -2.51      0.00
    1   -9    4      2.14      0.00
    1   -9    5     -2.31      0.00
    1   -9    6      0.87      0.00
    1   -9    7      1.08      0.00
    1   -9    8     -0.15      0.00
    1   -9    9     -0.01      0.00
    1   -9   10     -1.46      0.00
    1   -9   11      1.68      0.00
    1   -9   12     -1.16      0.00
    1   -9   13     -0.33      0.00
    1   -9   14      0.49      0.00
    1   -9   15      0.62      0.00
    1   -9   16     -0.84      0.00
    1   -9   17     -0.10      0.00
    1   -9   18      0.12      0.00
    1   -9   19      0.12      0.00
   -1    8   11      0.02      0.00
   -1    8   10     -0.08      0.00
   -1    8    9      0.06      0.00
   -1    8    8     -0.18      0.00
   -1    8    7      0.11      0.00
   -1    8    6      0.43      0.00
   -1    8    5      0.06      0.00
   -1    8    4      0.39      0.00
   -1    8    3     -0.72      0.00
   -1    8    2      0.48      0.00
   -1    8    1     -0.37      0.00
   -1    8    0      0.28      0.00
    1   -8    1     -0.94      0.00
    1   -8    2      0.06      0.00
    1   -8    3      0.86      0.00
    1   -8    4     -1.52      0.00
    1   -8    5     -0.95      0.00
    1   -8    6      1.41      0.00
    1   -8    7      2.80      0.00
    1   -8    8     -3.06      0.00
    1   -8    9      1.31      0.00
    1   -8   10      0.19      0.00
    1   -8   11     -0.26      0.00
    1   -8   12      0.44      0.00
    1   -8   13     -1.18      0.00
    1   -8   14      0.01      0.00
    1   -8   15      0.96      0.00
    1   -8   16      0.00      0.00
    1   -8   17     -0.39      0.00
    1   -8   18     -0.23      0.00
    1   -8   19     -0.04      0.00
   -1    7   12      0.15      0.00
   -1    7   11     -0.46      0.00
   -1    7   10     -0.10      0.00
   -1    7    9     -0.09      0.00
   -1    7    8      1.01      0.00
   -1    7    7     -0.97      0.00
   -1    7    6     -0.87      0.00
   -1    7    5      0.20      0.00
   -1    7    4      3.47      0.00
   -1    7    3     -2.52      0.00
   -1    7    2     -0.32      0.00
   -1    7    1     -1.12      0.00
   -1    7    0      1.93      0.00
    1   -7    1      4.16      0.00
    1   -7    2     -7.80      0.00
    1   -7    3      6.13      0.00
    1   -7    4     -3.78      0.00
    1   -7    5     -0.41      0.00
    1   -7    6     -0.79      0.00
    1   -7    7      3.48      0.00
    1   -7    8     -0.78      0.00
    1   -7    9     -3.18      0.00
    1   -7   10      2.17      0.00
    1   -7   11      0.02      0.00
    1   -7   12      0.91      0.00
    1   -7   13     -0.67      0.00
    1   -7   14     -0.30      0.00
    1   -7   15      0.13      0.00
    1   -7   16      0.68      0.00
    1   -7   17     -0.25      0.00
    1   -7   19      0.13      0.00
   -1    6   13     -0.08      0.00
   -1    6   12      0.08      0.00
   -1    6   11      0.04      0.00
   -1    6   10     -0.17      0.00
   -1    6    9     -0.79      0.00
   -1    6    8      1.39      0.00
   -1    6    7      0.37      0.00
   -1    6    6     -1.95      0.00
   -1    6    5     -0.06      0.00
   -1    6    4      2.91      0.00
   -1    6    3     -1.72      0.00
   -1    6    2      0.37      0.00
   -1    6    1     -1.71      0.00
   -1    6    0     -1.71      0.00
    1   -6    1      7.69      0.00
    1   -6    2     -7.81      0.00
    1   -6    3      5.74      0.00
    1   -6    4     -1.68      0.00
    1   -6    5     -0.19      0.00
    1   -6    6      1.04      0.00
    1   -6    7     -4.30      0.00
    1   -6    8      4.75      0.00
    1   -6    9     -2.12      0.00
    1   -6   10     -1.17      0.00
    1   -6   11      0.51      0.00
    1   -6   12      0.42      0.00
    1   -6   13      0.00      0.00
    1   -6   14      0.24      0.00
    1   -6   15     -0.43      0.00
    1   -6   16      0.48      0.00
    1   -6   17     -0.05      0.00
   -1    5   14      0.16      0.00
   -1    5   13      0.11      0.00
   -1    5   12     -0.53      0.00
   -1    5   11      0.67      0.00
   -1    5   10      0.02      0.00
   -1    5    9     -0.24      0.00
   -1    5    8     -0.52      0.00
   -1    5    7      0.04      0.00
   -1    5    6     -1.63      0.00
   -1    5    5      4.42      0.00
   -1    5    4     -2.29      0.00
   -1    5    3     -2.62      0.00
   -1    5    2     -0.74      0.00
   -1    5    1      7.08      0.00
   -1    5    0     -1.16      0.00
    1   -5    1     -9.74      0.00
    1   -5    2      8.95      0.00
    1   -5    3     -4.61      0.00
    1   -5    4      4.62      0.00
    1   -5    5     -2.59      0.00
    1   -5    6      4.68      0.00
    1   -5    7     -5.60      0.00
    1   -5    8     -0.86      0.00
    1   -5    9      4.21      0.00
    1   -5   10     -1.20      0.00
    1   -5   11     -0.65      0.00
    1   -5   12     -0.30      0.00
    1   -5   13      0.44      0.00
    1   -5   14     -0.36      0.00
    1   -5   15      0.20      0.00
    1   -5   16     -0.15      0.00
    1   -5   17      0.18      0.00
    1   -5   18     -0.47      0.00
   -1    4   15      0.14      0.00
   -1    4   14     -0.27      0.00
   -1    4   13     -0.17      0.00
   -1    4   12     -0.29      0.00
   -1    4   11      0.95      0.00
   -1    4   10     -0.30      0.00
   -1    4    9      1.39      0.00
   -1    4    8      0.21      0.00
   -1    4    7     -1.99      0.00
   -1    4    6     -3.54      0.00
   -1    4    5      8.87      0.00
   -1    4    4     -3.25      0.00
   -1    4    3     -2.31      0.00
   -1    4    2     -4.91      0.00
   -1    4    1      3.67      0.00
   -1    4    0     16.96      0.00
    1   -4    1    -32.59      0.00
    1   -4    2     23.99      0.00
    1   -4    3     -5.90      0.00
    1   -4    4     -2.13      0.00
    1   -4    5      0.87      0.00
    1   -4    6     -0.57      0.00
    1   -4    7      5.10      0.00
    1   -4    8     -5.84      0.00
    1   -4    9      1.04      0.00
    1   -4   10      1.76      0.00
    1   -4   11     -0.38      0.00
    1   -4   12     -0.60      0.00
    1   -4   13      1.17      0.00
    1   -4   14     -1.27      0.00
    1   -4   15      0.52      0.00
    1   -4   16     -0.10      0.00
    1   -4   17     -0.22      0.00
    1   -4   18      0.21      0.00
   -1    3   15      0.43      0.00
   -1    3   14      0.11      0.00
   -1    3   13     -0.60      0.00
   -1    3   12     -0.08      0.00
   -1    3   11      0.32      0.00
   -1    3   10     -0.71      0.00
   -1    3    9     -0.02      0.00
   -1    3    8      2.27      0.00
   -1    3    7     -0.59      0.00
   -1    3    6     -1.15      0.00
   -1    3    5      1.30      0.00
   -1    3    4     -3.16      0.00
   -1    3    3     -1.59      0.00
   -1    3    2     15.11      0.00
   -1    3    1     -8.63      0.00
   -1    3    0     -2.84      0.00
    1   -3    1    -10.73      0.00
    1   -3    2      5.59      0.00
    1   -3    3     15.48      0.00
    1   -3    4     -8.98      0.00
    1   -3    5     -1.04      0.00
    1   -3    6     -6.56      0.00
    1   -3    7      6.35      0.00
    1   -3    8      3.29      0.00
    1   -3    9     -3.16      0.00
    1   -3   10     -0.95      0.00
    1   -3   11      0.19      0.00
    1   -3   12      0.32      0.00
    1   -3   13      1.07      0.00
    1   -3   14     -0.72      0.00
    1   -3   15     -0.48      0.00
    1   -3   16      0.91      0.00
    1   -3   17     -0.22      0.00
    1   -3   18      0.05      0.00
   -1    2   17      0.68      0.00
   -1    2   16     -0.17      0.00
   -1    2   15     -0.37      0.00
   -1    2   14     -0.23      0.00
   -1    2   13     -0.58      0.00
   -1    2   12      1.63      0.00
   -1    2   11     -0.06      0.00
   -1    2   10     -0.84      0.00
   -1    2    9     -2.36      0.00
   -1    2    8      0.82      0.00
   -1    2    7     -0.79      0.00
   -1    2    6      9.53      0.00
   -1    2    5     -6.76      0.00
   -1    2    4     -4.30      0.00
   -1    2    3    -14.86      0.00
   -1    2    2     22.61      0.00
   -1    2    1     35.93      0.00
   -1    2    0    -59.63      0.00
    1   -2    1     23.61      0.00
    1   -2    2    -14.91      0.00
    1   -2    3      9.36      0.00
    1   -2    4      9.04      0.00
    1   -2    5     -4.58      0.00
    1   -2    6     -4.31      0.00
    1   -2    7     -3.98      0.00
    1   -2    8      6.29      0.00
    1   -2    9      2.34      0.00
    1   -2   10     -2.42      0.00
    1   -2   11     -1.71      0.00
    1   -2   12      1.01      0.00
    1   -2   13     -0.47      0.00
    1   -2   14      0.96      0.00
    1   -2   15     -1.19      0.00
    1   -2   16      0.25      0.00
    1   -2   17      0.46      0.00
    1   -2   18     -0.17      0.00
   -1    1   17      0.10      0.00
   -1    1   16      1.03      0.00
   -1    1   15      0.37      0.00
   -1    1   14     -0.55      0.00
   -1    1   13     -1.72      0.00
   -1    1   12      1.17      0.00
   -1    1   11      1.84      0.00
   -1    1   10      0.39      0.00
   -1    1    9     -2.00      0.00
   -1    1    8     -0.63      0.00
   -1    1    7     -4.02      0.00
   -1    1    6      8.72      0.00
   -1    1    5     -4.56      0.00
   -1    1    4      1.38      0.00
   -1    1    3      1.84      0.00
   -1    1    2    -28.48      0.00
   -1    1    1     39.69      0.00
   -1    1    0    -22.36      0.00
    1   -1    1     26.64      0.00
    1   -1    2     -9.24      0.00
    1   -1    3    -24.55      0.00
    1   -1    4     14.44      0.00
    1   -1    5      5.14      0.00
    1   -1    6     -0.58      0.00
    1   -1    7     -5.73      0.00
    1   -1    8     -0.53      0.00
    1   -1    9      2.81      0.00
    1   -1   10      1.17      0.00
    1   -1   11     -1.14      0.00
    1   -1   12      1.28      0.00
    1   -1   13     -1.91      0.00
    1   -1   14      0.51      0.00
    1   -1   15      0.46      0.00
    1   -1   16     -0.24      0.00
    1   -1   17     -0.25      0.00
   -1    0   18      0.20      0.00
   -1    0   17     -0.81      0.00
   -1    0   16     -0.53      0.00
   -1    0   15      1.06      0.00
   -1    0   14      0.03      0.00
   -1    0   13      0.14      0.00
   -1    0   12     -1.33      0.00
   -1    0   11     -0.30      0.00
   -1    0   10      1.73      0.00
   -1    0    9      1.45      0.00
   -1    0    8     -0.86      0.00
   -1    0    7      3.93      0.00
   -1    0    6     -5.48      0.00
   -1    0    5     -5.76      0.00
   -1    0    4     -8.03      0.00
   -1    0    3     45.35      0.00
   -1    0    2      0.68      0.00
    1    0    1     52.17      0.00
    1    0    2      6.25      0.00
    1    0    3    -33.12      0.00
    1    0    4     -7.03      0.00
    1    0    5     13.88      0.00
    1    0    6      2.12      0.00
    1    0    7     -2.92      0.00
    1    0    8     -1.01      0.00
    1    0    9     -1.01      0.00
    1    0   10     -0.38      0.00
    1    0   11      1.11      0.00
    1    0   12      1.03      0.00
    1    0   13      0.04      0.00
    1    0   14     -1.39      0.00
    1    0   15      0.29      0.00
    1    0   16      1.13      0.00
    1    0   17     -0.10      0.00
   -1   -1   18      0.77      0.00
   -1   -1   17      0.81      0.00
   -1   -1   16     -1.54      0.00
   -1   -1   15     -0.06      0.00
   -1   -1   14     -0.87      0.00
   -1   -1   13      1.49      0.00
   -1   -1   12      0.87      0.00
   -1   -1   11     -2.48      0.00
   -1   -1   10     -1.88      0.00
   -1   -1    9      3.87      0.00
   -1   -1    8     -4.77      0.00
   -1   -1    7     11.80      0.00
   -1   -1    6     -2.90      0.00
   -1   -1    5     -8.21      0.00
   -1   -1    4    -20.11      0.00
   -1   -1    3     15.89      0.00
    1    1    0    -26.23      0.00
    1    1    1     47.73      0.00
    1    1    2     18.43      0.00
    1    1    3    -11.21      0.00
    1    1    4    -13.88      0.00
    1    1    5      6.66      0.00
    1    1    6      2.41      0.00
    1    1    7     -1.08      0.00
    1    1    8      0.27      0.00
    1    1    9      1.02      0.00
    1    1   10     -2.46      0.00
    1    1   11      1.28      0.00
    1    1   12     -1.55      0.00
    1    1   13      1.58      0.00
    1    1   14      0.01      0.00
    1    1   15     -1.18      0.00
    1    1   16      0.57      0.00
   -1   -2   18     -0.16      0.00
   -1   -2   17      0.93      0.00
   -1   -2   16      0.28      0.00
   -1   -2   15     -0.21      0.00
   -1   -2   14     -0.68      0.00
   -1   -2   13     -0.24      0.00
   -1   -2   12      0.71      0.00
   -1   -2   11      1.35      0.00
   -1   -2   10     -2.05      0.00
   -1   -2    9      0.77      0.00
   -1   -2    8     -3.35      0.00
   -1   -2    7     -0.41      0.00
   -1   -2    6      9.84      0.00
   -1   -2    5     -4.59      0.00
   -1   -2    4     -9.66      0.00
   -1   -2    3    -15.82      0.00
   -1   -2    2     49.89      0.00
   -1   -2    1     -9.06      0.00
    1    2    0    -24.69      0.00
    1    2    1      3.22      0.00
    1    2    2      3.93      0.00
    1    2    3     -0.60      0.00
    1    2    4     -0.40      0.00
    1    2    5      2.63      0.00
    1    2    6     -1.60      0.00
    1    2    7     -0.12      0.00
    1    2    8     -0.40      0.00
    1    2    9      1.12      0.00
    1    2   10     -0.11      0.00
    1    2   11      1.80      0.00
    1    2   12     -2.06      0.00
    1    2   13     -0.69      0.00
    1    2   14      1.20      0.00
    1    2   15     -0.24      0.00
    1    2   16     -0.24      0.00
   -1   -3   19      0.11      0.00
   -1   -3   18     -0.39      0.00
   -1   -3   17     -0.71      0.00
   -1   -3   16      0.29      0.00
   -1   -3   15      0.22      0.00
   -1   -3   14      0.33      0.00
   -1   -3   13      0.66      0.00
   -1   -3   12     -2.02      0.00
   -1   -3   11     -0.09      0.00
   -1   -3   10      4.98      0.00
   -1   -3    9     -2.34      0.00
   -1   -3    8      2.27      0.00
   -1   -3    7    -11.10      0.00
   -1   -3    6      7.08      0.00
   -1   -3    5      6.05      0.00
   -1   -3    4    -11.82      0.00
   -1   -3    3     12.20      0.00
   -1   -3    1     10.68      0.00
    1    3    0     12.09      0.00
    1    3    1     -0.71      0.00
    1    3    2     -7.07      0.00
    1    3    3     -4.93      0.00
    1    3    4      3.01      0.00
    1    3    5      2.66      0.00
    1    3    6     -1.26      0.00
    1    3    7     -0.91      0.00
    1    3    8      0.34      0.00
    1    3    9     -1.25      0.00
    1    3   10      1.21      0.00
    1    3   11      0.55      0.00
    1    3   12      0.53      0.00
    1    3   13     -0.85      0.00
    1    3   14     -0.20      0.00
    1    3   15      0.28      0.00
   -1   -4   19      0.45      0.00
   -1   -4   18      0.12      0.00
   -1   -4   17     -0.32      0.00
   -1   -4   16     -0.35      0.00
   -1   -4   15     -0.30      0.00
   -1   -4   14     -0.34      0.00
   -1   -4   13      0.92      0.00
   -1   -4   12      1.01      0.00
   -1   -4   11     -4.42      0.00
   -1   -4   10      3.46      0.00
   -1   -4    9      1.16      0.00
   -1   -4    8      2.06      0.00
   -1   -4    7     -4.00      0.00
   -1   -4    6     -3.78      0.00
   -1   -4    5     10.16      0.00
   -1   -4    4    -12.07      0.00
   -1   -4    3     17.09      0.00
   -1   -4    2    -18.36      0.00
   -1   -4    1      2.11      0.00
    1    4    0      4.91      0.00
    1    4    1      2.40      0.00
    1    4    2     -0.95      0.00
    1    4    3     -1.96      0.00
    1    4    4      2.39      0.00
    1    4    5     -1.50      0.00
    1    4    6      0.67      0.00
    1    4    7     -0.27      0.00
    1    4    8      0.45      0.00
    1    4    9     -1.67      0.00
    1    4   10      1.49      0.00
    1    4   11     -1.11      0.00
    1    4   12     -0.04      0.00
    1    4   13      0.84      0.00
    1    4   14     -0.30      0.00
   -1   -5   19      0.04      0.00
   -1   -5   18      0.36      0.00
   -1   -5   17      0.10      0.00
   -1   -5   16      0.29      0.00
   -1   -5   15      0.03      0.00
   -1   -5   14     -0.07      0.00
   -1   -5   13     -1.61      0.00
   -1   -5   12      2.13      0.00
   -1   -5   11      0.50      0.00
   -1   -5   10     -3.01      0.00
   -1   -5    9      1.86      0.00
   -1   -5    8     -2.23      0.00
   -1   -5    7      3.52      0.00
   -1   -5    6     -0.91      0.00
   -1   -5    5      0.95      0.00
   -1   -5    4     -0.39      0.00
   -1   -5    3     -0.16      0.00
   -1   -5    2     -5.73      0.00
   -1   -5    1      5.91      0.00
    1    5    0      2.25      0.00
    1    5    1     -5.11      0.00
    1    5    2     -1.29      0.00
    1    5    3      1.53      0.00
    1    5    4      3.94      0.00
    1    5    5     -2.74      0.00
    1    5    6     -0.78      0.00
    1    5    7      1.15      0.00
    1    5    8      0.24      0.00
    1    5    9     -0.27      0.00
    1    5   10      0.38      0.00
    1    5   11     -0.18      0.00
    1    5   12     -0.57      0.00
    1    5   13      0.24      0.00
   -1   -6   19     -0.52      0.00
   -1   -6   18      0.17      0.00
   -1   -6   17      0.18      0.00
   -1   -6   16     -0.30      0.00
   -1   -6   15      0.13      0.00
   -1   -6   14      0.82      0.00
   -1   -6   13     -0.35      0.00
   -1   -6   12     -2.18      0.00
   -1   -6   11      3.50      0.00
   -1   -6   10     -1.08      0.00
   -1   -6    9     -0.38      0.00
   -1   -6    8     -2.49      0.00
   -1   -6    7      1.66      0.00
   -1   -6    6      3.44      0.00
   -1   -6    5     -4.49      0.00
   -1   -6    4      8.51      0.00
   -1   -6    3     -8.53      0.00
   -1   -6    2      0.32      0.00
   -1   -6    1     -0.41      0.00
    1    6    0      4.21      0.00
    1    6    1     -0.55      0.00
    1    6    2     -3.54      0.00
    1    6    3      0.73      0.00
    1    6    4      1.77      0.00
    1    6    5      0.21      0.00
    1    6    6     -1.36      0.00
    1    6    7      0.46      0.00
    1    6    8     -0.87      0.00
    1    6    9      1.16      0.00
    1    6   10     -0.07      0.00
    1    6   11     -0.50      0.00
    1    6   12      0.33      0.00
   -1   -7   19     -0.16      0.00
   -1   -7   18     -0.34      0.00
   -1   -7   17      0.76      0.00
   -1   -7   16     -0.55      0.00
   -1   -7   15     -0.28      0.00
   -1   -7   14     -0.55      0.00
   -1   -7   13      1.95      0.00
   -1   -7   12     -1.58      0.00
   -1   -7   11     -0.68      0.00
   -1   -7   10      1.49      0.00
   -1   -7    9     -1.05      0.00
   -1   -7    8     -0.41      0.00
   -1   -7    7      0.42      0.00
   -1   -7    6      2.66      0.00
   -1   -7    5     -6.51      0.00
   -1   -7    4      7.28      0.00
   -1   -7    3     -2.67      0.00
   -1   -7    2      1.97      0.00
   -1   -7    1     -1.74      0.00
    1    7    0     -2.33      0.00
    1    7    1      2.63      0.00
    1    7    2     -0.74      0.00
    1    7    3      1.38      0.00
    1    7    4     -2.21      0.00
    1    7    5      0.47      0.00
    1    7    6      1.02      0.00
    1    7    7      0.20      0.00
    1    7    8     -1.32      0.00
    1    7    9      0.24      0.00
    1    7   10      0.61      0.00
    1    7   11     -0.28      0.00
   -1   -8   19     -0.04      0.00
   -1   -8   18     -0.15      0.00
   -1   -8   17      0.47      0.00
   -1   -8   16      0.17      0.00
   -1   -8   15     -0.11      0.00
   -1   -8   14     -0.75      0.00
   -1   -8   13     -0.06      0.00
   -1   -8   12      2.01      0.00
   -1   -8   11     -1.68      0.00
   -1   -8   10      0.14      0.00
   -1   -8    9     -0.72      0.00
   -1   -8    8      1.01      0.00
   -1   -8    7     -0.12      0.00
   -1   -8    6      0.03      0.00
   -1   -8    5     -1.24      0.00
   -1   -8    4     -2.17      0.00
   -1   -8    3      4.01      0.00
   -1   -8    2     -0.61      0.00
   -1   -8    1      0.98      0.00
    1    8    0     -1.52      0.00
    1    8    1     -0.38      0.00
    1    8    2      0.09      0.00
    1    8    3      2.26      0.00
    1    8    4     -1.12      0.00
    1    8    5     -1.90      0.00
    1    8    6      1.20      0.00
    1    8    7      0.53      0.00
    1    8    8     -0.18      0.00
    1    8    9     -0.49      0.00
    1    8   10     -0.01      0.00
   -1   -9   19     -0.42      0.00
   -1   -9   18      0.25      0.00
   -1   -9   17     -0.31      0.00
   -1   -9   16      0.59      0.00
   -1   -9   15     -0.43      0.00
   -1   -9   14      0.65      0.00
   -1   -9   13     -1.23      0.00
   -1   -9   12      1.10      0.00
   -1   -9   11      0.47      0.00
   -1   -9   10     -0.15      0.00
   -1   -9    9     -0.78      0.00
   -1   -9    8      0.71      0.00
   -1   -9    7      1.10      0.00
   -1   -9    6     -3.18      0.00
   -1   -9    5      3.21      0.00
   -1   -9    4     -3.80      0.00
   -1   -9    3      2.92      0.00
   -1   -9    2     -1.04      0.00
   -1   -9    1     -0.92      0.00
    1    9    0      1.74      0.00
    1    9    1     -0.31      0.00
    1    9    2     -0.36      0.00
    1    9    3     -0.43      0.00
    1    9    4      1.44      0.00
    1    9    5     -0.63      0.00
    1    9    6     -0.25      0.00
    1    9    7     -0.19      0.00
    1    9    8      0.34      0.00
    1    9    9     -0.25      0.00
   -1  -10   19     -0.03      0.00
   -1  -10   18     -0.02      0.00
   -1  -10   17     -0.66      0.00
   -1  -10   16      0.66      0.00
   -1  -10   15     -0.35      0.00
   -1  -10   14     -0.18      0.00
   -1  -10   13      0.51      0.00
   -1  -10   12     -0.56      0.00
   -1  -10   11      0.42      0.00
   -1  -10   10     -0.49      0.00
   -1  -10    9      0.62      0.00
   -1  -10    8      0.34      0.00
   -1  -10    7      0.59      0.00
   -1  -10    6     -1.83      0.00
   -1  -10    5      0.85      0.00
   -1  -10    4      0.77      0.00
   -1  -10    3     -0.72      0.00
   -1  -10    2      0.13      0.00
   -1  -10    1     -1.04      0.00
    1   10    0      0.57      0.00
    1   10    1      0.31      0.00
    1   10    2      0.46      0.00
    1   10    3     -1.35      0.00
    1   10    4      0.01      0.00
    1   10    5      0.92      0.00
    1   10    6      0.43      0.00
    1   10    7     -0.11      0.00
   -1  -11   18     -0.17      0.00
   -1  -11   17     -0.74      0.00
   -1  -11   16      0.48      0.00
   -1  -11   15      0.65      0.00
   -1  -11   14     -1.11      0.00
   -1  -11   13      0.69      0.00
   -1  -11   12     -0.29      0.00
   -1  -11   11      0.61      0.00
   -1  -11   10     -1.43      0.00
   -1  -11    9      0.16      0.00
   -1  -11    8      1.38      0.00
   -1  -11    7     -0.80      0.00
   -1  -11    6      0.80      0.00
   -1  -11    5     -2.54      0.00
   -1  -11    4      3.22      0.00
   -1  -11    3     -1.04      0.00
   -1  -11    2     -0.70      0.00
   -1  -11    1      0.66      0.00
    1   11    0      0.36      0.00
    1   11    1     -0.23      0.00
    1   11    2     -0.76      0.00
    1   11    3      0.56      0.00
    1   11    4     -0.76      0.00
    1   11    5     -0.05      0.00
    1   11    6      0.15      0.00
   -1  -12   17     -0.48      0.00
   -1  -12   16      0.16      0.00
   -1  -12   15      0.61      0.00
   -1  -12   14     -0.35      0.00
   -1  -12   13     -0.26      0.00
   -1  -12   12     -0.19      0.00
   -1  -12   11      0.57      0.00
   -1  -12   10     -0.05      0.00
   -1  -12    9     -0.47      0.00
   -1  -12    8      1.05      0.00
   -1  -12    7     -1.25      0.00
   -1  -12    6      1.74      0.00
   -1  -12    5     -2.34      0.00
   -1  -12    4      0.90      0.00
   -1  -12    3      0.86      0.00
   -1  -12    2     -1.17      0.00
   -1  -12    1      0.09      0.00
    1   12    0      0.66      0.00
    1   12    1      0.98      0.00
    1   12    2     -1.26      0.00
    1   12    3      0.36      0.00
    1   12    4     -0.25      0.00
   -1  -13   16      0.05      0.00
   -1  -13   15     -0.11      0.00
   -1  -13   14      0.59      0.00
   -1  -13   13     -0.61      0.00
   -1  -13   12     -0.09      0.00
   -1  -13   11     -0.42      0.00
   -1  -13   10      0.53      0.00
   -1  -13    9      0.02      0.00
   -1  -13    8      0.20      0.00
   -1  -13    7     -0.19      0.00
   -1  -13    6      0.05      0.00
   -1  -13    5      0.77      0.00
   -1  -13    4     -1.42      0.00
   -1  -13    3      0.73      0.00
   -1  -13    2     -0.07      0.00
   -1  -13    1     -0.34      0.00
    1   13    0     -0.36      0.00
    1   13    1      0.66      0.00
    1   13    2      0.42      0.00
   -1  -14   15     -0.54      0.00
   -1  -14   14      0.56      0.00
   -1  -14   13     -0.04      0.00
   -1  -14   12      0.11      0.00
   -1  -14   11     -0.26      0.00
   -1  -14   10     -0.11      0.00
   -1  -14    9      0.31      0.00
   -1  -14    8     -0.82      0.00
   -1  -14    7      1.06      0.00
   -1  -14    6     -1.17      0.00
   -1  -14    5      1.42      0.00
   -1  -14    4     -0.45      0.00
   -1  -14    3     -0.48      0.00
   -1  -14    2      0.35      0.00
   -1  -14    1     -0.16      0.00
   -1  -15   12     -0.20      0.00
   -1  -15   11      0.15      0.00
   -1  -15   10     -0.05      0.00
   -1  -15    9      0.31      0.00
   -1  -15    8     -0.69      0.00
   -1  -15    7      0.34      0.00
   -1  -15    6     -0.18      0.00
    2  -16    6     -0.65      0.00
    2  -16    7      0.49      0.00
    2  -16    8     -0.39      0.00
    2  -16    9      0.31      0.00
    2  -15    1      0.33      0.00
    2  -15    2     -0.22      0.00
    2  -15    3      0.21      0.00
    2  -15    4      0.12      0.00
    2  -15    5      0.31      0.00
    2  -15    6     -0.27      0.00
    2  -15    7     -0.12      0.00
    2  -15    8     -0.22      0.00
    2  -15    9      0.16      0.00
    2  -15   10     -0.07      0.00
    2  -15   11     -0.32      0.00
   -2   14    2      0.24      0.00
   -2   14    1     -0.07      0.00
   -2   14    0     -1.11      0.00
    2  -14    1      0.63      0.00
    2  -14    2      0.33      0.00
    2  -14    3     -0.94      0.00
    2  -14    4      0.74      0.00
    2  -14    5     -0.53      0.00
    2  -14    6      0.89      0.00
    2  -14    7     -0.51      0.00
    2  -14    8     -0.05      0.00
    2  -14    9     -0.02      0.00
    2  -14   10      0.14      0.00
    2  -14   11     -0.30      0.00
    2  -14   12      0.31      0.00
    2  -14   13      0.31      0.00
    2  -14   14     -0.26      0.00
   -2   13    4      0.00      0.00
   -2   13    3      0.65      0.00
   -2   13    2      0.20      0.00
   -2   13    1      0.29      0.00
   -2   13    0     -0.59      0.00
    2  -13    1     -0.53      0.00
    2  -13    2      1.05      0.00
    2  -13    3     -0.97      0.00
    2  -13    4      0.86      0.00
    2  -13    5     -0.87      0.00
    2  -13    6      0.72      0.00
    2  -13    7     -0.76      0.00
    2  -13    8      0.53      0.00
    2  -13    9      0.06      0.00
    2  -13   10     -0.10      0.00
    2  -13   11      0.10      0.00
    2  -13   12     -0.49      0.00
    2  -13   13      0.63      0.00
    2  -13   14     -0.37      0.00
    2  -13   16      0.11      0.00
   -2   12    6      0.44      0.00
   -2   12    5     -0.59      0.00
   -2   12    4     -0.46      0.00
   -2   12    3      0.34      0.00
   -2   12    2      0.71      0.00
   -2   12    1     -0.83      0.00
   -2   12    0      0.75      0.00
    2  -12    1     -0.07      0.00
    2  -12    2     -0.42      0.00
    2  -12    3      0.39      0.00
    2  -12    4     -0.45      0.00
    2  -12    5      0.39      0.00
    2  -12    6     -0.18      0.00
    2  -12    7     -0.34      0.00
    2  -12    8     -0.11      0.00
    2  -12    9      0.72      0.00
    2  -12   10     -0.09      0.00
    2  -12   11      0.11      0.00
    2  -12   12     -0.44      0.00
    2  -12   13      0.17      0.00
    2  -12   14      0.21      0.00
    2  -12   15     -0.50      0.00
    2  -12   16      0.33      0.00
    2  -12   17     -0.20      0.00
   -2   11    7     -0.57      0.00
   -2   11    6      0.06      0.00
   -2   11    5      0.61      0.00
   -2   11    4      0.81      0.00
   -2   11    3     -2.01      0.00
   -2   11    2      0.85      0.00
   -2   11    1     -0.44      0.00
   -2   11    0      0.06      0.00
    2  -11    1      1.27      0.00
    2  -11    2     -1.67      0.00
    2  -11    3      2.15      0.00
    2  -11    4     -2.25      0.00
    2  -11    5      1.64      0.00
    2  -11    6     -0.82      0.00
    2  -11    7      0.71      0.00
    2  -11    8     -1.09      0.00
    2  -11    9     -0.12      0.00
    2  -11   10      0.85      0.00
    2  -11   11     -0.26      0.00
    2  -11   12      0.17      0.00
    2  -11   13     -0.59      0.00
    2  -11   14      0.78      0.00
    2  -11   15     -0.36      0.00
    2  -11   16     -0.09      0.00
    2  -11   17      0.00      0.00
   -2   10    9      0.05      0.00
   -2   10    8      0.56      0.00
   -2   10    7      0.01      0.00
   -2   10    6     -1.02      0.00
   -2   10    5     -0.85      0.00
   -2   10    4      2.10      0.00
   -2   10    3     -0.53      0.00
   -2   10    2     -0.50      0.00
   -2   10    1      0.13      0.00
   -2   10    0     -0.23      0.00
    2  -10    1      0.55      0.00
    2  -10    2     -1.76      0.00
    2  -10    3      2.28      0.00
    2  -10    4     -0.97      0.00
    2  -10    5      0.89      0.00
    2  -10    6     -0.79      0.00
    2  -10    7      0.28      0.00
    2  -10    8      0.86      0.00
    2  -10    9     -1.97      0.00
    2  -10   10      0.63      0.00
    2  -10   11      0.55      0.00
    2  -10   12      0.13      0.00
    2  -10   13     -0.72      0.00
    2  -10   14      0.55      0.00
    2  -10   15      0.21      0.00
    2  -10   16     -0.73      0.00
    2  -10   17     -0.08      0.00
   -2    9   10      0.19      0.00
   -2    9    9     -0.17      0.00
   -2    9    8     -0.07      0.00
   -2    9    7      1.21      0.00
   -2    9    6      0.18      0.00
   -2    9    5     -0.84      0.00
   -2    9    4     -1.61      0.00
   -2    9    3      1.46      0.00
   -2    9    2     -0.01      0.00
   -2    9    1      0.75      0.00
   -2    9    0     -0.09      0.00
    2   -9    1     -1.50      0.00
    2   -9    2      0.58      0.00
    2   -9    3     -1.63      0.00
    2   -9    4      2.30      0.00
    2   -9    5     -0.09      0.00
    2   -9    6     -0.06      0.00
    2   -9    7     -1.82      0.00
    2   -9    8      2.05      0.00
    2   -9    9      0.23      0.00
    2   -9   10     -1.67      0.00
    2   -9   11      1.25      0.00
    2   -9   12      0.02      0.00
    2   -9   13     -0.45      0.00
    2   -9   14     -0.09      0.00
    2   -9   15      0.83      0.00
    2   -9   16     -0.39      0.00
    2   -9   17     -0.42      0.00
    2   -9   18      0.07      0.00
   -2    8   12     -0.43      0.00
   -2    8   11      0.00      0.00
   -2    8   10      0.04      0.00
   -2    8    9      0.20      0.00
   -2    8    8     -0.94      0.00
   -2    8    7      0.44      0.00
   -2    8    6      0.34      0.00
   -2    8    5      1.06      0.00
   -2    8    4     -2.38      0.00
   -2    8    3      1.66      0.00
   -2    8    2     -0.73      0.00
   -2    8    1      0.99      0.00
   -2    8    0      1.81      0.00
    2   -8    1     -4.43      0.00
    2   -8    2      4.64      0.00
    2   -8    3     -4.31      0.00
    2   -8    4      2.89      0.00
    2   -8    5     -1.17      0.00
    2   -8    6     -1.67      0.00
    2   -8    7      1.61      0.00
    2   -8    8     -1.44      0.00
    2   -8    9      2.12      0.00
    2   -8   10     -1.15      0.00
    2   -8   11      0.37      0.00
    2   -8   12      0.48      0.00
    2   -8   13     -0.01      0.00
    2   -8   14     -1.10      0.00
    2   -8   15      0.67      0.00
    2   -8   16      0.20      0.00
    2   -8   17      0.07      0.00
    2   -8   18     -0.02      0.00
   -2    7   13      0.28      0.00
   -2    7   12      0.11      0.00
   -2    7   11      0.20      0.00
   -2    7   10     -0.03      0.00
   -2    7    9     -0.14      0.00
   -2    7    8     -0.14      0.00
   -2    7    7     -0.03      0.00
   -2    7    6      0.71      0.00
   -2    7    5     -1.47      0.00
   -2    7    4     -0.59      0.00
   -2    7    3      1.68      0.00
   -2    7    2      1.02      0.00
   -2    7    1     -3.07      0.00
   -2    7    0      2.45      0.00
    2   -7    1     -1.01      0.00
    2   -7    2      1.54      0.00
    2   -7    3     -1.29      0.00
    2   -7    4      1.05      0.00
    2   -7    5      3.29      0.00
    2   -7    6     -7.61      0.00
    2   -7    7      3.74      0.00
    2   -7    8      0.51      0.00
    2   -7    9     -0.88      0.00
    2   -7   10      0.17      0.00
    2   -7   11     -0.92      0.00
    2   -7   12      0.64      0.00
    2   -7   13      0.78      0.00
    2   -7   14     -0.77      0.00
    2   -7   15     -0.40      0.00
    2   -7   16      0.32      0.00
    2   -7   17      0.02      0.00
   -2    6   14     -0.23      0.00
   -2    6   13     -0.21      0.00
   -2    6   12      0.21      0.00
   -2    6   11     -0.12      0.00
   -2    6   10      0.60      0.00
   -2    6    9     -1.16      0.00
   -2    6    8     -0.17      0.00
   -2    6    7      0.55      0.00
   -2    6    6      2.59      0.00
   -2    6    5     -4.78      0.00
   -2    6    4      1.97      0.00
   -2    6    3     -1.01      0.00
   -2    6    2      4.38      0.00
   -2    6    1     -2.21      0.00
   -2    6    0     -8.05      0.00
    2   -6    1     12.40      0.00
    2   -6    2     -7.64      0.00
    2   -6    3      2.47      0.00
    2   -6    4     -3.24      0.00
    2   -6    5      6.10      0.00
    2   -6    6     -1.37      0.00
    2   -6    7     -3.60      0.00
    2   -6    8      3.24      0.00
    2   -6    9     -0.45      0.00
    2   -6   10      0.13      0.00
    2   -6   11     -0.86      0.00
    2   -6   12     -0.24      0.00
    2   -6   13     -0.20      0.00
    2   -6   14      1.02      0.00
    2   -6   15     -0.92      0.00
    2   -6   16      0.21      0.00
    2   -6   17      0.05      0.00
   -2    5   15      0.15      0.00
   -2    5   14      0.18      0.00
   -2    5   13      0.13      0.00
   -2    5   12      0.19      0.00
   -2    5   11     -0.42      0.00
   -2    5   10      0.82      0.00
   -2    5    9     -0.19      0.00
   -2    5    8     -0.84      0.00
   -2    5    7      0.69      0.00
   -2    5    6      1.15      0.00
   -2    5    5     -3.81      0.00
   -2    5    4      4.47      0.00
   -2    5    3     -0.71      0.00
   -2    5    2     -3.71      0.00
   -2    5    1      6.42      0.00
   -2    5    0    -12.00      0.00
    2   -5    1     14.22      0.00
    2   -5    2     -5.63      0.00
    2   -5    3     -2.67      0.00
    2   -5    4      0.89      0.00
    2   -5    5     -3.65      0.00
    2   -5    6      8.39      0.00
    2   -5    7     -2.91      0.00
    2   -5    8     -2.03      0.00
    2   -5    9      1.05      0.00
    2   -5   10      0.50      0.00
    2   -5   11      0.46      0.00
    2   -5   12      0.05      0.00
    2   -5   13     -1.42      0.00
    2   -5   14      0.93      0.00
    2   -5   15     -0.13      0.00
    2   -5   16     -0.43      0.00
    2   -5   17      0.82      0.00
    2   -5   18     -0.58      0.00
   -2    4   15     -0.05      0.00
   -2    4   14      0.15      0.00
   -2    4   13      0.22      0.00
   -2    4   12     -0.48      0.00
   -2    4   11     -0.33      0.00
   -2    4   10     -0.24      0.00
   -2    4    9      0.68      0.00
   -2    4    8      0.22      0.00
   -2    4    7      3.07      0.00
   -2    4    6     -5.55      0.00
   -2    4    5     -0.31      0.00
   -2    4    4      3.60      0.00
   -2    4    3      8.30      0.00
   -2    4    2    -11.42      0.00
   -2    4    1     -6.99      0.00
   -2    4    0     15.84      0.00
    2   -4    1     -8.72      0.00
    2   -4    2      6.56      0.00
    2   -4    3     -6.12      0.00
    2   -4    4      4.41      0.00
    2   -4    5     -6.31      0.00
    2   -4    6      1.45      0.00
    2   -4    7      4.69      0.00
    2   -4    8     -2.41      0.00
    2   -4    9     -1.50      0.00
    2   -4   10      0.51      0.00
    2   -4   11      0.99      0.00
    2   -4   12     -0.10      0.00
    2   -4   13      0.33      0.00
    2   -4   14     -0.26      0.00
    2   -4   15      0.31      0.00
    2   -4   16     -0.48      0.00
    2   -4   17      0.05      0.00
    2   -4   18      0.52      0.00
   -2    3   16     -0.39      0.00
   -2    3   15     -0.29      0.00
   -2    3   14      0.39      0.00
   -2    3   13      0.74      0.00
   -2    3   12     -0.84      0.00
   -2    3   11     -0.22      0.00
   -2    3   10     -0.23      0.00
   -2    3    9     -0.57      0.00
   -2    3    8     -1.01      0.00
   -2    3    7      5.83      0.00
   -2    3    6     -6.97      0.00
   -2    3    5      3.53      0.00
   -2    3    4     -1.41      0.00
   -2    3    3      1.45      0.00
   -2    3    2      7.47      0.00
   -2    3    1    -26.78      0.00
   -2    3    0     37.41      0.00
    2   -3    1    -19.01      0.00
    2   -3    2     -6.26      0.00
    2   -3    3      5.78      0.00
    2   -3    4      3.37      0.00
    2   -3    5      2.31      0.00
    2   -3    6     -6.46      0.00
    2   -3    7     -0.17      0.00
    2   -3    8      3.01      0.00
    2   -3    9     -0.84      0.00
    2   -3   10     -0.62      0.00
    2   -3   11      0.76      0.00
    2   -3   12     -2.15      0.00
    2   -3   13      1.79      0.00
    2   -3   14      0.10      0.00
    2   -3   15     -0.29      0.00
    2   -3   16      0.32      0.00
    2   -3   17     -0.41      0.00
   -2    2   17      0.39      0.00
   -2    2   16      0.10      0.00
   -2    2   15     -0.08      0.00
   -2    2   14      0.22      0.00
   -2    2   13     -0.11      0.00
   -2    2   12     -0.21      0.00
   -2    2   11      0.35      0.00
   -2    2   10      1.28      0.00
   -2    2    9     -0.82      0.00
   -2    2    8     -2.47      0.00
   -2    2    7     -0.24      0.00
   -2    2    6     -1.16      0.00
   -2    2    5      5.85      0.00
   -2    2    4      9.47      0.00
   -2    2    3    -24.50      0.00
   -2    2    2      0.63      0.00
   -2    2    1     10.02      0.00
   -2    2    0     13.43      0.00
    2   -2    1      0.73      0.00
    2   -2    2    -20.20      0.00
    2   -2    3      0.85      0.00
    2   -2    4      3.82      0.00
    2   -2    5      7.19      0.00
    2   -2    6      0.28      0.00
    2   -2    7     -6.23      0.00
    2   -2    8     -0.35      0.00
    2   -2    9      2.33      0.00
    2   -2   10      0.89      0.00
    2   -2   11      0.44      0.00
    2   -2   12     -2.19      0.00
    2   -2   13      0.09      0.00
    2   -2   14      0.88      0.00
    2   -2   15     -0.50      0.00
    2   -2   16     -0.35      0.00
    2   -2   17      0.20      0.00
   -2    1   17     -0.35      0.00
   -2    1   16     -0.13      0.00
   -2    1   15      0.43      0.00
   -2    1   14      1.80      0.00
   -2    1   13     -1.10      0.00
   -2    1   12     -1.85      0.00
   -2    1   11      0.71      0.00
   -2    1   10      3.19      0.00
   -2    1    9     -0.61      0.00
   -2    1    8      2.23      0.00
   -2    1    7     -9.21      0.00
   -2    1    6      4.50      0.00
   -2    1    5     -2.69      0.00
   -2    1    4     17.57      0.00
   -2    1    3     -1.05      0.00
   -2    1    2    -48.91      0.00
   -2    1    1     44.31      0.00
   -2    1    0    -11.53      0.00
    2   -1    1      6.28      0.00
    2   -1    2      5.25      0.00
    2   -1    3     -9.46      0.00
    2   -1    4     -5.13      0.00
    2   -1    5      4.03      0.00
    2   -1    6      5.37      0.00
    2   -1    7     -0.71      0.00
    2   -1    8     -3.97      0.00
    2   -1    9     -0.85      0.00
    2   -1   10      2.84      0.00
    2   -1   11     -0.74      0.00
    2   -1   12      1.21      0.00
    2   -1   13     -0.95      0.00
    2   -1   14      0.19      0.00
    2   -1   15      0.23      0.00
    2   -1   16     -0.39      0.00
   -2    0   18     -0.03      0.00
   -2    0   17     -0.24      0.00
   -2    0   16     -0.84      0.00
   -2    0   15     -0.71      0.00
   -2    0   14      1.50      0.00
   -2    0   13      1.11      0.00
   -2    0   12     -1.71      0.00
   -2    0   11     -2.04      0.00
   -2    0   10      2.49      0.00
   -2    0    9     -1.76      0.00
   -2    0    8      5.08      0.00
   -2    0    7     -5.87      0.00
   -2    0    6      6.53      0.00
   -2    0    5     -0.88      0.00
   -2    0    4    -17.58      0.00
   -2    0    3     29.40      0.00
   -2    0    2    -15.11      0.00
   -2    0    1     19.42      0.00
    2    0    0    -32.91      0.00
    2    0    1     -8.63      0.00
    2    0    2     29.27      0.00
    2    0    3      5.16      0.00
    2    0    4    -14.39      0.00
    2    0    5     -2.47      0.00
    2    0    6      4.65      0.00
    2    0    7      2.02      0.00
    2    0    8     -0.47      0.00
    2    0    9     -2.29      0.00
    2    0   10      1.50      0.00
    2    0   11     -2.72      0.00
    2    0   12      1.66      0.00
    2    0   13      0.77      0.00
    2    0   14     -0.26      0.00
    2    0   15     -0.42      0.00
    2    0   16      0.08      0.00
   -2   -1   18      0.17      0.00
   -2   -1   17      0.91      0.00
   -2   -1   16      0.13      0.00
   -2   -1   15     -0.37      0.00
   -2   -1   14     -0.86      0.00
   -2   -1   13     -0.25      0.00
   -2   -1   12      2.31      0.00
   -2   -1   11     -1.14      0.00
   -2   -1   10     -1.85      0.00
   -2   -1    9      0.52      0.00
   -2   -1    8     -3.80      0.00
   -2   -1    7      2.79      0.00
   -2   -1    6      1.57      0.00
   -2   -1    5     17.90      0.00
   -2   -1    4    -24.97      0.00
   -2   -1    1     29.59      0.00
    2    1    0    -43.41      0.00
    2    1    1    -27.45      0.00
    2    1    2     20.06      0.00
    2    1    3     16.98      0.00
    2    1    4     -6.73      0.00
    2    1    5     -7.53      0.00
    2    1    6      3.20      0.00
    2    1    7      1.42      0.00
    2    1    8     -0.68      0.00
    2    1    9      1.07      0.00
    2    1   10      0.20      0.00
    2    1   11     -1.03      0.00
    2    1   12     -1.06      0.00
    2    1   13      0.60      0.00
    2    1   14      0.77      0.00
    2    1   15     -0.63      0.00
    2    1   16     -0.53      0.00
   -2   -2   18     -0.49      0.00
   -2   -2   17      0.21      0.00
   -2   -2   16      0.74      0.00
   -2   -2   15      0.77      0.00
   -2   -2   14      0.41      0.00
   -2   -2   13     -2.16      0.00
   -2   -2   12      0.59      0.00
   -2   -2   11      3.62      0.00
   -2   -2   10     -4.69      0.00
   -2   -2    9      4.62      0.00
   -2   -2    8     -5.91      0.00
   -2   -2    7      1.37      0.00
   -2   -2    6     -3.45      0.00
   -2   -2    5     10.28      0.00
   -2   -2    4     19.17      0.00
   -2   -2    3    -66.40      0.00
   -2   -2    2     28.57      0.00
   -2   -2    1     36.56      0.00
    2    2    0     -9.35      0.00
    2    2    1    -21.57      0.00
    2    2    2      3.42      0.00
    2    2    3      6.30      0.00
    2    2    4     -0.34      0.00
    2    2    5     -3.26      0.00
    2    2    6     -0.02      0.00
    2    2    7      2.27      0.00
    2    2    8     -1.89      0.00
    2    2    9      1.49      0.00
    2    2   10     -1.59      0.00
    2    2   11      2.07      0.00
    2    2   12     -0.13      0.00
    2    2   13     -1.14      0.00
    2    2   14      0.66      0.00
    2    2   15      0.15      0.00
   -2   -3   19      0.15      0.00
   -2   -3   18     -0.16      0.00
   -2   -3   17     -0.58      0.00
   -2   -3   16     -0.47      0.00
   -2   -3   15      0.31      0.00
   -2   -3   14      0.15      0.00
   -2   -3   13      1.01      0.00
   -2   -3   12     -1.90      0.00
   -2   -3   11      1.77      0.00
   -2   -3   10     -1.53      0.00
   -2   -3    9      0.58      0.00
   -2   -3    8      4.61      0.00
   -2   -3    7     -2.73      0.00
   -2   -3    6     -2.31      0.00
   -2   -3    5     -4.04      0.00
   -2   -3    4     20.28      0.00
   -2   -3    3    -22.33      0.00
   -2   -3    2      1.34      0.00
   -2   -3    1      0.88      0.00
    2    3    0      3.62      0.00
    2    3    1      1.51      0.00
    2    3    2      1.88      0.00
    2    3    3      0.95      0.00
    2    3    4     -3.98      0.00
    2    3    5      0.80      0.00
    2    3    6     -0.54      0.00
    2    3    7      0.74      0.00
    2    3    8     -0.10      0.00
    2    3    9      0.70      0.00
    2    3   10     -2.41      0.00
    2    3   11      0.48      0.00
    2    3   12      1.57      0.00
    2    3   13     -0.49      0.00
    2    3   14      0.01      0.00
   -2   -4   19      0.61      0.00
   -2   -4   18      0.31      0.00
   -2   -4   17      0.34      0.00
   -2   -4   16     -0.58      0.00
   -2   -4   15      0.50      0.00
   -2   -4   14     -1.59      0.00
   -2   -4   13      0.43      0.00
   -2   -4   12      2.02      0.00
   -2   -4   11     -2.94      0.00
   -2   -4   10      1.12      0.00
   -2   -4    9     -4.50      0.00
   -2   -4    8      7.58      0.00
   -2   -4    7      0.67      0.00
   -2   -4    6     -5.19      0.00
   -2   -4    5      3.42      0.00
   -2   -4    4     -4.20      0.00
   -2   -4    3      6.41      0.00
   -2   -4    2      0.70      0.00
   -2   -4    1     -4.47      0.00
    2    4    0     -6.30      0.00
    2    4    1      4.54      0.00
    2    4    2      1.47      0.00
    2    4    3      1.46      0.00
    2    4    4     -1.58      0.00
    2    4    5     -0.04      0.00
    2    4    6      0.63      0.00
    2    4    7     -0.83      0.00
    2    4    8      1.38      0.00
    2    4    9     -0.36      0.00
    2    4   10     -0.04      0.00
    2    4   11     -0.70      0.00
    2    4   12     -0.16      0.00
    2    4   13      0.19      0.00
   -2   -5   19     -0.16      0.00
   -2   -5   18      0.22      0.00
   -2   -5   17     -0.10      0.00
   -2   -5   16      0.21      0.00
   -2   -5   15      0.58      0.00
   -2   -5   14      0.84      0.00
   -2   -5   13     -2.67      0.00
   -2   -5   12      2.44      0.00
   -2   -5   11     -0.82      0.00
   -2   -5   10      0.42      0.00
   -2   -5    9     -1.92      0.00
   -2   -5    8      0.44      0.00
   -2   -5    7      2.15      0.00
   -2   -5    6     -5.61      0.00
   -2   -5    5      8.92      0.00
   -2   -5    4     -9.52      0.00
   -2   -5    3     10.59      0.00
   -2   -5    2     -5.96      0.00
   -2   -5    1     -0.21      0.00
    2    5    0      1.38      0.00
    2    5    1      0.25      0.00
    2    5    2     -0.31      0.00
    2    5    3     -3.05      0.00
    2    5    4      2.23      0.00
    2    5    5      0.17      0.00
    2    5    6      0.03      0.00
    2    5    7     -1.43      0.00
    2    5    8      1.81      0.00
    2    5    9     -0.96      0.00
    2    5   10      0.42      0.00
    2    5   11      0.67      0.00
    2    5   12     -0.63      0.00
   -2   -6   19     -0.55      0.00
   -2   -6   18      0.19      0.00
   -2   -6   17     -0.44      0.00
   -2   -6   16      0.10      0.00
   -2   -6   15     -0.96      0.00
   -2   -6   14      1.87      0.00
   -2   -6   13     -0.01      0.00
   -2   -6   12     -1.80      0.00
   -2   -6   11      1.12      0.00
   -2   -6   10     -0.49      0.00
   -2   -6    9      2.42      0.00
   -2   -6    8     -1.54      0.00
   -2   -6    7     -1.59      0.00
   -2   -6    6     -2.87      0.00
   -2   -6    5      4.30      0.00
   -2   -6    4     -0.88      0.00
   -2   -6    3      4.20      0.00
   -2   -6    2     -1.78      0.00
   -2   -6    1     -5.72      0.00
    2    6    0      3.46      0.00
    2    6    1      2.03      0.00
    2    6    2      1.04      0.00
    2    6    3     -4.38      0.00
    2    6    4      1.05      0.00
    2    6    5      1.45      0.00
    2    6    6     -0.38      0.00
    2    6    7     -0.56      0.00
    2    6    8      0.25      0.00
    2    6    9     -0.30      0.00
    2    6   10      0.23      0.00
    2    6   11      0.31      0.00
   -2   -7   20      0.32      0.00
   -2   -7   19      0.26      0.00
   -2   -7   18     -0.41      0.00
   -2   -7   17      0.23      0.00
   -2   -7   16      0.50      0.00
   -2   -7   15     -0.62      0.00
   -2   -7   14     -1.07      0.00
   -2   -7   13      2.49      0.00
   -2   -7   12     -1.55      0.00
   -2   -7   11     -0.06      0.00
   -2   -7   10     -0.56      0.00
   -2   -7    9      2.12      0.00
   -2   -7    8     -0.53      0.00
   -2   -7    7     -2.39      0.00
   -2   -7    6      2.38      0.00
   -2   -7    5     -4.53      0.00
   -2   -7    4      4.68      0.00
   -2   -7    3     -2.48      0.00
   -2   -7    2      3.07      0.00
   -2   -7    1     -0.68      0.00
    2    7    0     -2.37      0.00
    2    7    1      0.80      0.00
    2    7    2      1.28      0.00
    2    7    3     -0.22      0.00
    2    7    4     -0.82      0.00
    2    7    5      0.42      0.00
    2    7    6     -0.68      0.00
    2    7    7      1.19      0.00
    2    7    8     -0.34      0.00
    2    7    9     -0.69      0.00
    2    7   10      0.43      0.00
    2    7   11      0.35      0.00
   -2   -8   19      0.57      0.00
   -2   -8   18     -0.51      0.00
   -2   -8   17     -0.08      0.00
   -2   -8   16      0.33      0.00
   -2   -8   15      1.11      0.00
   -2   -8   14     -1.49      0.00
   -2   -8   13      0.19      0.00
   -2   -8   12      0.78      0.00
   -2   -8   11     -0.38      0.00
   -2   -8   10      0.00      0.00
   -2   -8    9      0.52      0.00
   -2   -8    8      0.25      0.00
   -2   -8    7     -2.70      0.00
   -2   -8    6      4.71      0.00
   -2   -8    5     -3.45      0.00
   -2   -8    4      0.73      0.00
   -2   -8    3     -1.72      0.00
   -2   -8    2      0.29      0.00
   -2   -8    1      2.70      0.00
    2    8    0     -1.12      0.00
    2    8    1     -0.41      0.00
    2    8    2     -1.45      0.00
    2    8    3      1.86      0.00
    2    8    4      0.79      0.00
    2    8    5     -0.87      0.00
    2    8    6     -1.19      0.00
    2    8    7      0.87      0.00
    2    8    8      0.36      0.00
    2    8    9     -0.30      0.00
   -2   -9   19     -0.01      0.00
   -2   -9   17     -0.10      0.00
   -2   -9   16     -0.59      0.00
   -2   -9   15      0.45      0.00
   -2   -9   14      0.71      0.00
   -2   -9   13     -1.41      0.00
   -2   -9   12      0.54      0.00
   -2   -9   11     -0.41      0.00
   -2   -9   10      1.27      0.00
   -2   -9    9     -0.63      0.00
   -2   -9    8      0.31      0.00
   -2   -9    7     -0.33      0.00
   -2   -9    6      0.29      0.00
   -2   -9    5      1.86      0.00
   -2   -9    4     -2.87      0.00
   -2   -9    3      0.77      0.00
   -2   -9    2      0.12      0.00
   -2   -9    1     -0.15      0.00
    2    9    0     -0.46      0.00
    2    9    1      1.07      0.00
    2    9    2     -0.96      0.00
    2    9    3     -0.34      0.00
    2    9    4      1.32      0.00
    2    9    5      0.07      0.00
    2    9    6     -0.51      0.00
    2    9    7     -0.33      0.00
    2    9    8      0.31      0.00
   -2  -10   19     -0.25      0.00
   -2  -10   18      0.34      0.00
   -2  -10   17      0.33      0.00
   -2  -10   16     -0.23      0.00
   -2  -10   15     -0.85      0.00
   -2  -10   14      0.83      0.00
   -2  -10   13     -0.51      0.00
   -2  -10   12      0.45      0.00
   -2  -10   11     -0.94      0.00
   -2  -10   10      0.61      0.00
   -2  -10    9     -0.20      0.00
   -2  -10    8     -0.79      0.00
   -2  -10    7      2.34      0.00
   -2  -10    6     -2.41      0.00
   -2  -10    5      2.52      0.00
   -2  -10    4     -1.97      0.00
   -2  -10    3      0.60      0.00
   -2  -10    2      0.89      0.00
   -2  -10    1     -0.29      0.00
    2   10    0     -1.15      0.00
    2   10    1     -0.02      0.00
    2   10    2      1.20      0.00
    2   10    3     -0.73      0.00
    2   10    4     -0.25      0.00
    2   10    5     -0.22      0.00
    2   10    6      0.65      0.00
   -2  -11   18      0.56      0.00
   -2  -11   17     -0.06      0.00
   -2  -11   16      0.15      0.00
   -2  -11   15     -0.09      0.00
   -2  -11   14     -0.20      0.00
   -2  -11   13     -0.02      0.00
   -2  -11   12      0.12      0.00
   -2  -11   11      0.69      0.00
   -2  -11   10     -0.48      0.00
   -2  -11    9     -0.47      0.00
   -2  -11    8     -1.00      0.00
   -2  -11    7      1.84      0.00
   -2  -11    6     -0.42      0.00
   -2  -11    5     -0.71      0.00
   -2  -11    4      0.18      0.00
   -2  -11    3      0.23      0.00
   -2  -11    2      0.38      0.00
   -2  -11    1     -0.25      0.00
    2   11    0      0.40      0.00
    2   11    1     -0.50      0.00
    2   11    2      0.45      0.00
    2   11    3      0.09      0.00
    2   11    4      0.12      0.00
   -2  -12   17     -0.19      0.00
   -2  -12   16     -0.51      0.00
   -2  -12   15      0.85      0.00
   -2  -12   14     -0.58      0.00
   -2  -12   13      0.66      0.00
   -2  -12   12     -1.10      0.00
   -2  -12   11      0.81      0.00
   -2  -12   10      0.21      0.00
   -2  -12    9     -0.76      0.00
   -2  -12    8      0.42      0.00
   -2  -12    7     -0.95      0.00
   -2  -12    6      2.39      0.00
   -2  -12    5     -2.03      0.00
   -2  -12    4      0.17      0.00
   -2  -12    3      0.27      0.00
   -2  -12    2      0.32      0.00
   -2  -12    1     -0.93      0.00
    2   12    0      0.03      0.00
    2   12    1      0.98      0.00
    2   12    2     -0.40      0.00
    2   12    3      0.18      0.00
   -2  -13   16     -0.60      0.00
   -2  -13   15      0.45      0.00
   -2  -13   14     -0.27      0.00
   -2  -13   13      0.69      0.00
   -2  -13   12     -0.36      0.00
   -2  -13   11     -0.31      0.00
   -2  -13   10      0.40      0.00
   -2  -13    9     -1.01      0.00
   -2  -13    8      1.25      0.00
   -2  -13    7     -1.36      0.00
   -2  -13    6      1.30      0.00
   -2  -13    5     -0.19      0.00
   -2  -13    4     -0.40      0.00
   -2  -13    3      0.29      0.00
   -2  -13    2      0.18      0.00
   -2  -13    1     -0.01      0.00
    2   13    0     -1.11      0.00
    2   13    1      0.63      0.00
   -2  -14   14      0.09      0.00
   -2  -14   13     -0.13      0.00
   -2  -14   12      0.49      0.00
   -2  -14   11     -0.09      0.00
   -2  -14   10      0.14      0.00
   -2  -14    9     -0.28      0.00
   -2  -14    8     -0.18      0.00
   -2  -14    7      0.36      0.00
   -2  -14    6     -0.63      0.00
   -2  -14    5      0.46      0.00
   -2  -14    4     -0.12      0.00
   -2  -14    3      0.24      0.00
   -2  -14    2      0.07      0.00
   -2  -15   10     -0.12      0.00
   -2  -15    9      0.54      0.00
   -2  -15    7      0.56      0.00
    3  -16    5      0.10      0.00
    3  -16    6     -0.23      0.00
    3  -16    7     -0.02      0.00
    3  -16    8     -0.18      0.00
    3  -16    9      0.10      0.00
   -3   15    0      0.51      0.00
    3  -15    1      0.00      0.00
    3  -15    2     -0.54      0.00
    3  -15    3      0.19      0.00
    3  -15    4     -0.50      0.00
    3  -15    5      1.14      0.00
    3  -15    6     -0.27      0.00
    3  -15    7      0.15      0.00
    3  -15    8     -0.33      0.00
    3  -15    9     -0.12      0.00
    3  -15   10      0.45      0.00
    3  -15   11     -0.36      0.00
   -3   14    2      0.12      0.00
   -3   14    1      0.40      0.00
   -3   14    0     -0.25      0.00
    3  -14    1      0.31      0.00
    3  -14    2     -0.33      0.00
    3  -14    3      0.10      0.00
    3  -14    4     -0.74      0.00
    3  -14    5      0.34      0.00
    3  -14    6      0.06      0.00
    3  -14    7      0.50      0.00
    3  -14    8     -0.02      0.00
    3  -14    9     -0.58      0.00
    3  -14   10      0.46      0.00
    3  -14   11     -0.17      0.00
    3  -14   12     -0.24      0.00
    3  -14   13     -0.21      0.00
    3  -14   14      0.64      0.00
   -3   13    5      0.16      0.00
   -3   13    4     -0.49      0.00
   -3   13    3     -0.05      0.00
   -3   13    2     -0.97      0.00
   -3   13    1      1.47      0.00
   -3   13    0      0.18      0.00
    3  -13    1     -0.72      0.00
    3  -13    2      0.81      0.00
    3  -13    3     -0.74      0.00
    3  -13    4      0.45      0.00
    3  -13    5     -0.60      0.00
    3  -13    6      0.55      0.00
    3  -13    7     -0.69      0.00
    3  -13    8      0.60      0.00
    3  -13    9     -0.26      0.00
    3  -13   10      0.22      0.00
    3  -13   11      0.15      0.00
    3  -13   12     -0.21      0.00
    3  -13   13     -0.17      0.00
    3  -13   14     -0.16      0.00
    3  -13   16     -0.68      0.00
   -3   12    6      0.56      0.00
   -3   12    5      0.70      0.00
   -3   12    4     -1.31      0.00
   -3   12    3      0.69      0.00
   -3   12    2     -0.84      0.00
   -3   12    1      0.01      0.00
   -3   12    0      0.75      0.00
    3  -12    1     -0.78      0.00
    3  -12    2      1.17      0.00
    3  -12    3     -0.93      0.00
    3  -12    4      1.10      0.00
    3  -12    5     -1.28      0.00
    3  -12    6      1.17      0.00
    3  -12    7     -0.84      0.00
    3  -12    8     -0.23      0.00
    3  -12    9      0.24      0.00
    3  -12   10     -0.12      0.00
    3  -12   11      0.71      0.00
    3  -12   12     -0.49      0.00
    3  -12   13      0.16      0.00
    3  -12   14     -0.26      0.00
    3  -12   15      0.33      0.00
    3  -12   16     -0.06      0.00
   -3   11    8      0.42      0.00
   -3   11    7     -0.60      0.00
   -3   11    6     -0.28      0.00
   -3   11    5      0.79      0.00
   -3   11    4      0.53      0.00
   -3   11    3     -0.34      0.00
   -3   11    2      0.12      0.00
   -3   11    1     -0.84      0.00
   -3   11    0     -0.02      0.00
    3  -11    1      0.20      0.00
    3  -11    2     -0.15      0.00
    3  -11    3      0.22      0.00
    3  -11    4      0.58      0.00
    3  -11    5     -0.47      0.00
    3  -11    6     -0.47      0.00
    3  -11    7      1.22      0.00
    3  -11    8     -0.77      0.00
    3  -11    9      0.10      0.00
    3  -11   10     -0.30      0.00
    3  -11   11      0.21      0.00
    3  -11   12      0.32      0.00
    3  -11   13     -0.46      0.00
    3  -11   14      0.14      0.00
    3  -11   15     -0.25      0.00
    3  -11   16      0.47      0.00
    3  -11   17     -0.22      0.00
   -3   10   10      0.08      0.00
   -3   10    9     -0.53      0.00
   -3   10    8      0.50      0.00
   -3   10    7      0.28      0.00
   -3   10    6      0.14      0.00
   -3   10    5     -2.04      0.00
   -3   10    4      2.15      0.00
   -3   10    3     -0.46      0.00
   -3   10    2      0.64      0.00
   -3   10    1     -0.93      0.00
   -3   10    0     -0.64      0.00
    3  -10    1      2.14      0.00
    3  -10    2     -2.66      0.00
    3  -10    3      1.74      0.00
    3  -10    4     -1.25      0.00
    3  -10    5      1.39      0.00
    3  -10    6     -1.35      0.00
    3  -10    7      0.71      0.00
    3  -10    8      1.00      0.00
    3  -10    9     -0.86      0.00
    3  -10   10     -0.03      0.00
    3  -10   11     -0.71      0.00
    3  -10   12      0.98      0.00
    3  -10   13     -0.45      0.00
    3  -10   14      0.21      0.00
    3  -10   15     -0.02      0.00
    3  -10   16      0.19      0.00
    3  -10   17     -0.20      0.00
   -3    9   11     -0.44      0.00
   -3    9   10      0.32      0.00
   -3    9    9     -0.44      0.00
   -3    9    8     -0.56      0.00
   -3    9    7      0.33      0.00
   -3    9    6      1.46      0.00
   -3    9    5     -1.05      0.00
   -3    9    4      0.99      0.00
   -3    9    3     -1.19      0.00
   -3    9    2      0.05      0.00
   -3    9    1      0.58      0.00
   -3    9    0     -1.58      0.00
    3   -9    1      3.70      0.00
    3   -9    2     -3.00      0.00
    3   -9    3      1.04      0.00
    3   -9    4     -1.60      0.00
    3   -9    5      0.20      0.00
    3   -9    6      2.29      0.00
    3   -9    7     -2.76      0.00
    3   -9    8      1.49      0.00
    3   -9    9      0.54      0.00
    3   -9   10     -0.62      0.00
    3   -9   11     -0.60      0.00
    3   -9   12      0.48      0.00
    3   -9   13     -0.23      0.00
    3   -9   14     -0.22      0.00
    3   -9   15      0.45      0.00
    3   -9   16      0.48      0.00
    3   -9   17     -0.31      0.00
    3   -9   18     -0.10      0.00
   -3    8   12      0.47      0.00
   -3    8   11     -0.35      0.00
   -3    8   10     -0.19      0.00
   -3    8    9      0.60      0.00
   -3    8    8     -0.76      0.00
   -3    8    7     -0.11      0.00
   -3    8    6     -0.70      0.00
   -3    8    5      1.70      0.00
   -3    8    4     -0.56      0.00
   -3    8    3      0.84      0.00
   -3    8    2     -2.51      0.00
   -3    8    1      1.30      0.00
   -3    8    0      0.54      0.00
    3   -8    1     -0.85      0.00
    3   -8    2      2.40      0.00
    3   -8    3     -1.85      0.00
    3   -8    4      1.51      0.00
    3   -8    5     -2.64      0.00
    3   -8    6      2.62      0.00
    3   -8    7     -0.82      0.00
    3   -8    8     -1.99      0.00
    3   -8    9      1.86      0.00
    3   -8   10     -0.36      0.00
    3   -8   11     -0.33      0.00
    3   -8   12      0.34      0.00
    3   -8   13      0.25      0.00
    3   -8   14     -0.81      0.00
    3   -8   15      0.09      0.00
    3   -8   16      0.30      0.00
    3   -8   17      0.20      0.00
    3   -8   18     -0.15      0.00
   -3    7   13      0.03      0.00
   -3    7   12     -0.01      0.00
   -3    7   11      0.26      0.00
   -3    7   10     -0.19      0.00
   -3    7    9      0.57      0.00
   -3    7    8     -0.08      0.00
   -3    7    7     -0.35      0.00
   -3    7    6     -1.40      0.00
   -3    7    5      3.90      0.00
   -3    7    4     -3.92      0.00
   -3    7    3      1.32      0.00
   -3    7    2      0.03      0.00
   -3    7    1     -2.74      0.00
   -3    7    0      6.54      0.00
    3   -7    1     -8.19      0.00
    3   -7    2      5.80      0.00
    3   -7    3     -2.54      0.00
    3   -7    4     -0.13      0.00
    3   -7    5      3.96      0.00
    3   -7    6     -3.13      0.00
    3   -7    7      1.22      0.00
    3   -7    8     -1.15      0.00
    3   -7    9      0.26      0.00
    3   -7   10      0.72      0.00
    3   -7   11     -0.69      0.00
    3   -7   12     -0.31      0.00
    3   -7   13      1.29      0.00
    3   -7   14     -0.81      0.00
    3   -7   15     -0.02      0.00
    3   -7   16     -0.04      0.00
    3   -7   17     -0.37      0.00
    3   -7   18      0.30      0.00
   -3    6   14     -0.07      0.00
   -3    6   13     -0.04      0.00
   -3    6   12     -0.04      0.00
   -3    6   11     -0.29      0.00
   -3    6   10      0.68      0.00
   -3    6    9      0.34      0.00
   -3    6    8      0.16      0.00
   -3    6    7     -1.93      0.00
   -3    6    6      0.49      0.00
   -3    6    5      3.29      0.00
   -3    6    4     -1.61      0.00
   -3    6    3     -4.44      0.00
   -3    6    2      5.14      0.00
   -3    6    1     -1.47      0.00
   -3    6    0      1.44      0.00
    3   -6    1     -3.67      0.00
    3   -6    2      1.14      0.00
    3   -6    3      4.72      0.00
    3   -6    4     -9.72      0.00
    3   -6    5      6.49      0.00
    3   -6    6      0.58      0.00
    3   -6    7     -2.14      0.00
    3   -6    8      0.67      0.00
    3   -6    9     -0.43      0.00
    3   -6   10      1.01      0.00
    3   -6   11      0.24      0.00
    3   -6   12     -1.04      0.00
    3   -6   13      0.52      0.00
    3   -6   14      0.26      0.00
    3   -6   15     -0.41      0.00
    3   -6   16      0.52      0.00
    3   -6   17     -0.45      0.00
   -3    5   15     -0.13      0.00
   -3    5   14     -0.01      0.00
   -3    5   13     -0.37      0.00
   -3    5   12      0.50      0.00
   -3    5   11     -0.55      0.00
   -3    5   10      0.30      0.00
   -3    5    9      0.73      0.00
   -3    5    8      0.63      0.00
   -3    5    7     -3.59      0.00
   -3    5    6      4.23      0.00
   -3    5    5     -2.46      0.00
   -3    5    4      2.57      0.00
   -3    5    3     -3.86      0.00
   -3    5    2     -0.76      0.00
   -3    5    1     12.67      0.00
   -3    5    0    -15.09      0.00
    3   -5    1      4.73      0.00
    3   -5    2     -1.38      0.00
    3   -5    3      7.79      0.00
    3   -5    4     -5.11      0.00
    3   -5    5     -4.66      0.00
    3   -5    6      3.60      0.00
    3   -5    7      0.81      0.00
    3   -5    8     -0.57      0.00
    3   -5    9     -0.38      0.00
    3   -5   10     -0.35      0.00
    3   -5   11      0.38      0.00
    3   -5   12      1.49      0.00
    3   -5   13     -1.68      0.00
    3   -5   14      0.62      0.00
    3   -5   15     -0.11      0.00
    3   -5   16     -0.24      0.00
    3   -5   17      0.66      0.00
   -3    4   16      0.07      0.00
   -3    4   15     -0.11      0.00
   -3    4   14     -0.26      0.00
   -3    4   13     -0.13      0.00
   -3    4   12      0.41      0.00
   -3    4   11     -0.10      0.00
   -3    4   10     -0.80      0.00
   -3    4    9      0.08      0.00
   -3    4    8      0.80      0.00
   -3    4    7     -1.85      0.00
   -3    4    6      5.31      0.00
   -3    4    5     -5.56      0.00
   -3    4    4     -3.69      0.00
   -3    4    3      8.88      0.00
   -3    4    2     -5.73      0.00
   -3    4    1     11.73      0.00
   -3    4    0    -13.20      0.00
    3   -4    1     -1.55      0.00
    3   -4    2      5.88      0.00
    3   -4    3     -0.06      0.00
    3   -4    4      5.15      0.00
    3   -4    5     -4.54      0.00
    3   -4    6     -4.22      0.00
    3   -4    7      3.24      0.00
    3   -4    8      0.87      0.00
    3   -4    9     -0.19      0.00
    3   -4   10     -0.81      0.00
    3   -4   11     -1.90      0.00
    3   -4   12      2.67      0.00
    3   -4   13     -0.77      0.00
    3   -4   14     -0.30      0.00
    3   -4   15      0.81      0.00
    3   -4   16     -0.55      0.00
    3   -4   17      0.01      0.00
   -3    3   16      0.32      0.00
   -3    3   15     -0.04      0.00
   -3    3   14     -0.78      0.00
   -3    3   13      0.34      0.00
   -3    3   12      0.92      0.00
   -3    3   11     -0.18      0.00
   -3    3   10     -0.85      0.00
   -3    3    9      0.48      0.00
   -3    3    8     -2.19      0.00
   -3    3    7      2.73      0.00
   -3    3    6      0.90      0.00
   -3    3    5      0.75      0.00
   -3    3    4    -11.15      0.00
   -3    3    3      6.47      0.00
   -3    3    2     13.43      0.00
   -3    3    1    -16.66      0.00
   -3    3    0      6.06      0.00
    3   -3    1     -2.41      0.00
    3   -3    2      2.96      0.00
    3   -3    3     -4.85      0.00
    3   -3    4      3.15      0.00
    3   -3    5      3.86      0.00
    3   -3    6     -2.31      0.00
    3   -3    7     -2.22      0.00
    3   -3    8      1.29      0.00
    3   -3    9      0.90      0.00
    3   -3   10     -0.26      0.00
    3   -3   11     -0.33      0.00
    3   -3   12     -0.86      0.00
    3   -3   13      0.17      0.00
    3   -3   14     -0.31      0.00
    3   -3   15      0.34      0.00
    3   -3   16      0.56      0.00
    3   -3   17     -0.37      0.00
   -3    2   17     -0.03      0.00
   -3    2   16      0.52      0.00
   -3    2   15     -0.02      0.00
   -3    2   14     -0.47      0.00
   -3    2   13     -0.26      0.00
   -3    2   12      1.23      0.00
   -3    2   11     -0.25      0.00
   -3    2   10     -1.18      0.00
   -3    2    9      3.28      0.00
   -3    2    8     -4.09      0.00
   -3    2    7      5.58      0.00
   -3    2    6     -6.50      0.00
   -3    2    5      0.74      0.00
   -3    2    4      5.80      0.00
   -3    2    3    -10.63      0.00
   -3    2    2     22.45      0.00
   -3    2    1    -29.14      0.00
   -3    2    0      5.61      0.00
    3   -2    1     14.47      0.00
    3   -2    2      0.05      0.00
    3   -2    3     -8.64      0.00
    3   -2    4     -1.74      0.00
    3   -2    5     -0.08      0.00
    3   -2    6      6.10      0.00
    3   -2    7     -1.51      0.00
    3   -2    8     -1.77      0.00
    3   -2    9      0.76      0.00
    3   -2   10     -1.51      0.00
    3   -2   11      3.68      0.00
    3   -2   12     -1.29      0.00
    3   -2   13     -0.88      0.00
    3   -2   14      0.12      0.00
    3   -2   15     -0.11      0.00
    3   -2   16      0.22      0.00
   -3    1   17     -0.21      0.00
   -3    1   16     -0.03      0.00
   -3    1   15     -1.05      0.00
   -3    1   14      0.56      0.00
   -3    1   13      0.87      0.00
   -3    1   12     -0.69      0.00
   -3    1   11     -0.76      0.00
   -3    1   10     -1.15      0.00
   -3    1    9      3.29      0.00
   -3    1    8     -0.06      0.00
   -3    1    7      2.52      0.00
   -3    1    6     -1.47      0.00
   -3    1    5    -14.51      0.00
   -3    1    4     16.10      0.00
   -3    1    3      7.48      0.00
   -3    1    2     -5.07      0.00
   -3    1    1    -13.38      0.00
   -3    1    0     -2.67      0.00
    3   -1    1      9.10      0.00
    3   -1    2      7.20      0.00
    3   -1    3     -2.25      0.00
    3   -1    4     -3.44      0.00
    3   -1    5     -4.92      0.00
    3   -1    6      2.54      0.00
    3   -1    7      3.16      0.00
    3   -1    8     -0.41      0.00
    3   -1    9     -1.20      0.00
    3   -1   10     -2.07      0.00
    3   -1   11      1.87      0.00
    3   -1   12      0.94      0.00
    3   -1   13     -0.59      0.00
    3   -1   14     -0.16      0.00
    3   -1   15      0.38      0.00
    3   -1   16      0.16      0.00
   -3    0   18      0.10      0.00
   -3    0   17      0.50      0.00
   -3    0   16      0.29      0.00
   -3    0   15     -1.79      0.00
   -3    0   14     -1.17      0.00
   -3    0   13      3.04      0.00
   -3    0   12      0.21      0.00
   -3    0   11     -2.96      0.00
   -3    0   10      0.63      0.00
   -3    0    9     -2.60      0.00
   -3    0    8      6.55      0.00
   -3    0    7     -5.63      0.00
   -3    0    6      6.84      0.00
   -3    0    5     -6.17      0.00
   -3    0    4    -12.20      0.00
   -3    0    3     30.14      0.00
   -3    0    2    -19.88      0.00
   -3    0    1      5.82      0.00
    3    0    0      5.05      0.00
    3    0    1    -11.30      0.00
    3    0    2     -4.15      0.00
    3    0    3     13.12      0.00
    3    0    4     -0.99      0.00
    3    0    5     -3.89      0.00
    3    0    6     -1.84      0.00
    3    0    7      1.14      0.00
    3    0    8      2.99      0.00
    3    0    9     -2.24      0.00
    3    0   10      0.96      0.00
    3    0   11     -1.34      0.00
    3    0   12     -0.03      0.00
    3    0   13      0.31      0.00
    3    0   14     -0.16      0.00
    3    0   15      0.16      0.00
    3    0   16      0.18      0.00
   -3   -1   18     -0.33      0.00
   -3   -1   17      0.38      0.00
   -3   -1   16      1.02      0.00
   -3   -1   15      0.12      0.00
   -3   -1   14     -1.37      0.00
   -3   -1   13     -0.38      0.00
   -3   -1   12      2.99      0.00
   -3   -1   11     -2.48      0.00
   -3   -1   10      2.67      0.00
   -3   -1    9     -4.27      0.00
   -3   -1    8      4.38      0.00
   -3   -1    7     -5.09      0.00
   -3   -1    6     -5.54      0.00
   -3   -1    5     18.20      0.00
   -3   -1    4    -11.52      0.00
   -3   -1    3      6.08      0.00
   -3   -1    2    -27.90      0.00
   -3   -1    1     22.58      0.00
    3    1    0     20.73      0.00
    3    1    1    -12.57      0.00
    3    1    2    -20.52      0.00
    3    1    3      9.71      0.00
    3    1    4      7.53      0.00
    3    1    5     -3.30      0.00
    3    1    6     -1.72      0.00
    3    1    7     -0.43      0.00
    3    1    8      2.17      0.00
    3    1    9     -2.30      0.00
    3    1   10      2.55      0.00
    3    1   11      0.05      0.00
    3    1   12     -1.06      0.00
    3    1   13     -0.24      0.00
    3    1   14      0.08      0.00
    3    1   15      0.07      0.00
   -3   -2   19     -0.26      0.00
   -3   -2   18     -0.42      0.00
   -3   -2   17     -0.76      0.00
   -3   -2   16      0.32      0.00
   -3   -2   15     -0.16      0.00
   -3   -2   14      2.31      0.00
   -3   -2   13     -2.09      0.00
   -3   -2   12     -0.24      0.00
   -3   -2   11      1.75      0.00
   -3   -2   10     -0.21      0.00
   -3   -2    9      2.35      0.00
   -3   -2    8     -2.62      0.00
   -3   -2    7      3.96      0.00
   -3   -2    6    -12.37      0.00
   -3   -2    5      1.88      0.00
   -3   -2    4     23.16      0.00
   -3   -2    3     -4.27      0.00
   -3   -2    2    -36.59      0.00
   -3   -2    1      9.57      0.00
    3    2    0     26.34      0.00
    3    2    1     -3.04      0.00
    3    2    2    -11.14      0.00
    3    2    3     -3.12      0.00
    3    2    4      7.38      0.00
    3    2    5     -0.14      0.00
    3    2    6     -2.92      0.00
    3    2    7      0.64      0.00
    3    2    8      0.46      0.00
    3    2    9     -0.92      0.00
    3    2   10     -0.18      0.00
    3    2   11      1.00      0.00
    3    2   12      0.45      0.00
    3    2   13     -0.44      0.00
    3    2   14     -0.02      0.00
   -3   -3   19     -0.05      0.00
   -3   -3   18      0.42      0.00
   -3   -3   17     -0.41      0.00
   -3   -3   16     -0.10      0.00
   -3   -3   15     -1.40      0.00
   -3   -3   14      0.87      0.00
   -3   -3   13      1.62      0.00
   -3   -3   12     -4.16      0.00
   -3   -3   11      3.55      0.00
   -3   -3   10     -1.97      0.00
   -3   -3    9      2.67      0.00
   -3   -3    8     -4.09      0.00
   -3   -3    7      4.32      0.00
   -3   -3    6      4.45      0.00
   -3   -3    5    -19.35      0.00
   -3   -3    4     23.14      0.00
   -3   -3    3     -0.32      0.00
   -3   -3    2    -11.12      0.00
   -3   -3    1     -6.89      0.00
    3    3    0     10.13      0.00
    3    3    1     -2.31      0.00
    3    3    2     -0.52      0.00
    3    3    3      0.35      0.00
    3    3    4      1.13      0.00
    3    3    5      1.78      0.00
    3    3    6     -2.34      0.00
    3    3    7      0.60      0.00
    3    3    8     -0.95      0.00
    3    3    9      1.91      0.00
    3    3   10     -1.32      0.00
    3    3   11     -0.94      0.00
    3    3   12      0.79      0.00
    3    3   13      0.05      0.00
   -3   -4   19     -0.13      0.00
   -3   -4   18      0.23      0.00
   -3   -4   17      0.79      0.00
   -3   -4   16     -0.21      0.00
   -3   -4   15      0.74      0.00
   -3   -4   14     -1.46      0.00
   -3   -4   13      1.19      0.00
   -3   -4   12     -1.28      0.00
   -3   -4   11      0.44      0.00
   -3   -4   10      1.50      0.00
   -3   -4    9     -2.61      0.00
   -3   -4    8     -2.06      0.00
   -3   -4    7      0.03      0.00
   -3   -4    6      9.10      0.00
   -3   -4    5    -10.85      0.00
   -3   -4    4      8.24      0.00
   -3   -4    3     -5.78      0.00
   -3   -4    2      3.97      0.00
   -3   -4    1      2.34      0.00
    3    4    0     -1.98      0.00
    3    4    1     -2.07      0.00
    3    4    2     -3.14      0.00
    3    4    3      3.16      0.00
    3    4    4     -0.15      0.00
    3    4    5      0.77      0.00
    3    4    6     -0.35      0.00
    3    4    7      0.34      0.00
    3    4    8     -1.66      0.00
    3    4    9      1.63      0.00
    3    4   10      0.59      0.00
    3    4   11     -0.89      0.00
    3    4   12     -0.10      0.00
   -3   -5   19     -0.32      0.00
   -3   -5   18     -0.36      0.00
   -3   -5   17      0.43      0.00
   -3   -5   16     -0.73      0.00
   -3   -5   15      0.74      0.00
   -3   -5   14      1.09      0.00
   -3   -5   13     -1.84      0.00
   -3   -5   12      1.43      0.00
   -3   -5   11     -1.39      0.00
   -3   -5   10      3.43      0.00
   -3   -5    9     -2.85      0.00
   -3   -5    8     -1.39      0.00
   -3   -5    7      1.41      0.00
   -3   -5    6     -0.42      0.00
   -3   -5    5      1.36      0.00
   -3   -5    4     -2.70      0.00
   -3   -5    3      1.20      0.00
   -3   -5    2     -0.90      0.00
   -3   -5    1      3.29      0.00
    3    5    0     -1.39      0.00
    3    5    1      1.22      0.00
    3    5    2     -1.13      0.00
    3    5    3     -0.28      0.00
    3    5    4     -0.55      0.00
    3    5    5     -0.08      0.00
    3    5    6      1.42      0.00
    3    5    7     -0.90      0.00
    3    5    8     -0.23      0.00
    3    5    9     -0.14      0.00
    3    5   10      0.22      0.00
    3    5   11      0.18      0.00
    3    5   12      0.39      0.00
   -3   -6   20      0.40      0.00
   -3   -6   19     -0.30      0.00
   -3   -6   18      0.13      0.00
   -3   -6   17     -0.01      0.00
   -3   -6   16     -0.02      0.00
   -3   -6   15     -1.52      0.00
   -3   -6   14      1.46      0.00
   -3   -6   13     -0.37      0.00
   -3   -6   12      0.66      0.00
   -3   -6   11     -1.12      0.00
   -3   -6   10      0.75      0.00
   -3   -6    9     -0.33      0.00
   -3   -6    8      0.36      0.00
   -3   -6    7      3.81      0.00
   -3   -6    6     -7.10      0.00
   -3   -6    5      5.10      0.00
   -3   -6    4     -6.39      0.00
   -3   -6    3      4.06      0.00
   -3   -6    2      2.40      0.00
   -3   -6    1     -2.06      0.00
    3    6    0     -1.79      0.00
    3    6    1      0.52      0.00
    3    6    2      3.20      0.00
    3    6    3     -1.24      0.00
    3    6    4     -1.28      0.00
    3    6    5     -0.54      0.00
    3    6    6      2.19      0.00
    3    6    7     -1.30      0.00
    3    6    8      0.35      0.00
    3    6    9      0.01      0.00
    3    6   10     -0.38      0.00
   -3   -7   20      0.19      0.00
   -3   -7   19     -0.05      0.00
   -3   -7   18      0.20      0.00
   -3   -7   17     -0.34      0.00
   -3   -7   16      1.05      0.00
   -3   -7   15     -0.52      0.00
   -3   -7   14     -1.21      0.00
   -3   -7   13      1.09      0.00
   -3   -7   12      0.42      0.00
   -3   -7   11      0.29      0.00
   -3   -7   10     -1.68      0.00
   -3   -7    9      0.12      0.00
   -3   -7    8      0.76      0.00
   -3   -7    7      3.54      0.00
   -3   -7    6     -3.67      0.00
   -3   -7    5      0.04      0.00
   -3   -7    4     -0.47      0.00
   -3   -7    3     -1.35      0.00
   -3   -7    2      2.30      0.00
   -3   -7    1      0.78      0.00
    3    7    0     -0.69      0.00
    3    7    1     -2.57      0.00
    3    7    2      2.72      0.00
    3    7    3      0.10      0.00
    3    7    4     -1.15      0.00
    3    7    5      0.02      0.00
    3    7    6      0.59      0.00
    3    7    7     -0.38      0.00
    3    7    8      0.33      0.00
    3    7    9     -0.04      0.00
   -3   -8   19      0.10      0.00
   -3   -8   18      0.36      0.00
   -3   -8   17     -0.83      0.00
   -3   -8   16     -0.17      0.00
   -3   -8   15      1.62      0.00
   -3   -8   14     -1.28      0.00
   -3   -8   13      0.20      0.00
   -3   -8   12     -0.21      0.00
   -3   -8   11      1.30      0.00
   -3   -8   10     -1.66      0.00
   -3   -8    9      0.35      0.00
   -3   -8    8      1.11      0.00
   -3   -8    7     -1.13      0.00
   -3   -8    6      2.23      0.00
   -3   -8    5     -2.83      0.00
   -3   -8    4      2.94      0.00
   -3   -8    3     -1.71      0.00
   -3   -8    2     -1.55      0.00
   -3   -8    1      0.73      0.00
    3    8    0      2.15      0.00
    3    8    1     -1.33      0.00
    3    8    2     -0.44      0.00
    3    8    3      0.25      0.00
    3    8    4     -0.35      0.00
    3    8    5      1.01      0.00
    3    8    6     -0.49      0.00
    3    8    7     -0.20      0.00
    3    8    8      0.10      0.00
   -3   -9   19     -0.17      0.00
   -3   -9   18      0.37      0.00
   -3   -9   17      0.33      0.00
   -3   -9   16     -1.41      0.00
   -3   -9   15      0.93      0.00
   -3   -9   14      0.13      0.00
   -3   -9   13      0.10      0.00
   -3   -9   12     -0.72      0.00
   -3   -9   11      0.10      0.00
   -3   -9   10     -0.32      0.00
   -3   -9    9     -0.46      0.00
   -3   -9    8      2.30      0.00
   -3   -9    7     -2.69      0.00
   -3   -9    6      1.71      0.00
   -3   -9    5     -0.55      0.00
   -3   -9    4      1.31      0.00
   -3   -9    3     -0.55      0.00
   -3   -9    2     -0.63      0.00
   -3   -9    1     -0.23      0.00
    3    9    0     -0.01      0.00
    3    9    1      0.97      0.00
    3    9    2     -0.46      0.00
    3    9    3     -0.72      0.00
    3    9    4     -0.14      0.00
    3    9    5      1.04      0.00
    3    9    6     -0.15      0.00
   -3  -10   19     -0.09      0.00
   -3  -10   18     -0.58      0.00
   -3  -10   17      0.96      0.00
   -3  -10   16      0.02      0.00
   -3  -10   15     -0.49      0.00
   -3  -10   14      0.43      0.00
   -3  -10   13     -0.35      0.00
   -3  -10   12      0.85      0.00
   -3  -10   11     -1.09      0.00
   -3  -10   10      0.44      0.00
   -3  -10    9     -0.76      0.00
   -3  -10    8      0.49      0.00
   -3  -10    7      0.10      0.00
   -3  -10    6     -1.34      0.00
   -3  -10    5      1.76      0.00
   -3  -10    4     -0.15      0.00
   -3  -10    3     -0.49      0.00
   -3  -10    2     -0.35      0.00
   -3  -10    1      1.75      0.00
    3   10    0     -1.09      0.00
    3   10    1     -0.30      0.00
    3   10    2      0.53      0.00
    3   10    3     -0.36      0.00
    3   10    4     -0.18      0.00
    3   10    5      0.01      0.00
   -3  -11   18     -0.62      0.00
   -3  -11   17     -0.24      0.00
   -3  -11   16      0.96      0.00
   -3  -11   15     -0.66      0.00
   -3  -11   14      0.93      0.00
   -3  -11   13     -1.22      0.00
   -3  -11   12      0.79      0.00
   -3  -11   11     -0.26      0.00
   -3  -11   10      0.37      0.00
   -3  -11    9      0.98      0.00
   -3  -11    8     -2.27      0.00
   -3  -11    7      1.59      0.00
   -3  -11    6     -1.62      0.00
   -3  -11    5      1.37      0.00
   -3  -11    4     -0.34      0.00
   -3  -11    3     -0.32      0.00
   -3  -11    2     -0.64      0.00
   -3  -11    1      1.00      0.00
    3   11    0      0.37      0.00
    3   11    1     -0.78      0.00
    3   11    2      0.46      0.00
    3   11    3     -0.16      0.00
    3   11    4      0.54      0.00
   -3  -12   16      0.16      0.00
   -3  -12   15     -0.27      0.00
   -3  -12   14      0.41      0.00
   -3  -12   13      0.05      0.00
   -3  -12   12     -0.20      0.00
   -3  -12   11     -0.06      0.00
   -3  -12   10     -0.33      0.00
   -3  -12    9      1.67      0.00
   -3  -12    8     -1.22      0.00
   -3  -12    7     -0.16      0.00
   -3  -12    6      0.18      0.00
   -3  -12    5      0.20      0.00
   -3  -12    4      0.08      0.00
   -3  -12    3     -0.43      0.00
   -3  -12    2      0.33      0.00
   -3  -12    1     -0.42      0.00
    3   12    0     -0.03      0.00
    3   12    1     -0.20      0.00
    3   12    2      0.39      0.00
   -3  -13   15      0.50      0.00
   -3  -13   14     -0.62      0.00
   -3  -13   13      0.52      0.00
   -3  -13   12      0.15      0.00
   -3  -13   11     -0.27      0.00
   -3  -13   10      0.16      0.00
   -3  -13    9     -0.23      0.00
   -3  -13    8      0.72      0.00
   -3  -13    7     -1.18      0.00
   -3  -13    6      0.81      0.00
   -3  -13    5     -0.19      0.00
   -3  -13    4      0.13      0.00
   -3  -13    3     -0.30      0.00
   -3  -13    2      0.53      0.00
   -3  -13    1      0.28      0.00
   -3  -14   13     -0.15      0.00
   -3  -14   12      0.26      0.00
   -3  -14   11     -0.45      0.00
   -3  -14   10      0.77      0.00
   -3  -14    9     -0.45      0.00
   -3  -14    8      0.42      0.00
   -3  -14    7     -0.72      0.00
   -3  -14    6      0.44      0.00
   -3  -14    5     -0.08      0.00
    4  -16    5     -0.24      0.00
    4  -16    6      0.32      0.00
    4  -16    7      0.06      0.00
    4  -16    8     -0.31      0.00
    4  -16    9     -0.02      0.00
   -4   15    0      0.30      0.00
    4  -15    1     -0.37      0.00
    4  -15    2      0.28      0.00
    4  -15    3     -0.12      0.00
    4  -15    4     -0.58      0.00
    4  -15    5      0.10      0.00
    4  -15    6      0.21      0.00
    4  -15    7      0.42      0.00
    4  -15    8     -0.06      0.00
    4  -15    9     -0.30      0.00
    4  -15   10      0.12      0.00
    4  -15   11      0.15      0.00
    4  -15   12     -0.35      0.00
   -4   14    3     -0.31      0.00
   -4   14    2      0.76      0.00
   -4   14    1     -0.62      0.00
   -4   14    0     -0.22      0.00
    4  -14    1      0.76      0.00
    4  -14    2     -0.26      0.00
    4  -14    3      0.83      0.00
    4  -14    4     -1.10      0.00
    4  -14    5      0.05      0.00
    4  -14    6     -0.56      0.00
    4  -14    7      0.63      0.00
    4  -14    8      0.43      0.00
    4  -14    9     -0.16      0.00
    4  -14   10     -0.40      0.00
    4  -14   11      0.47      0.00
    4  -14   12     -0.04      0.00
    4  -14   13     -0.60      0.00
    4  -14   14      0.29      0.00
   -4   13    5     -0.07      0.00
   -4   13    4      0.48      0.00
   -4   13    3      0.07      0.00
   -4   13    2     -0.40      0.00
   -4   13    1     -0.23      0.00
   -4   13    0     -0.19      0.00
    4  -13    1      0.43      0.00
    4  -13    2     -0.05      0.00
    4  -13    3      0.79      0.00
    4  -13    4     -0.62      0.00
    4  -13    5      0.04      0.00
    4  -13    6     -0.01      0.00
    4  -13    7     -0.50      0.00
    4  -13    8      0.53      0.00
    4  -13    9     -0.04      0.00
    4  -13   10     -0.24      0.00
    4  -13   11     -0.14      0.00
    4  -13   12      0.88      0.00
    4  -13   13     -0.30      0.00
    4  -13   14     -0.78      0.00
    4  -13   15      0.59      0.00
   -4   12    7      0.13      0.00
   -4   12    6     -0.61      0.00
   -4   12    5      0.81      0.00
   -4   12    4     -1.02      0.00
   -4   12    3      1.23      0.00
   -4   12    2     -0.58      0.00
   -4   12    1     -0.23      0.00
   -4   12    0      0.24      0.00
    4  -12    1     -0.87      0.00
    4  -12    2      0.49      0.00
    4  -12    3     -0.02      0.00
    4  -12    4      0.71      0.00
    4  -12    5     -1.15      0.00
    4  -12    6      1.57      0.00
    4  -12    7     -0.79      0.00
    4  -12    8      0.12      0.00
    4  -12    9     -0.23      0.00
    4  -12   10     -0.33      0.00
    4  -12   11      0.13      0.00
    4  -12   12     -0.07      0.00
    4  -12   13      0.94      0.00
    4  -12   14     -1.08      0.00
    4  -12   16      0.10      0.00
   -4   11    8      0.56      0.00
   -4   11    7      0.29      0.00
   -4   11    6     -1.31      0.00
   -4   11    5      1.39      0.00
   -4   11    4     -1.54      0.00
   -4   11    3      1.22      0.00
   -4   11    2      0.12      0.00
   -4   11    1     -0.02      0.00
   -4   11    0      0.71      0.00
    4  -11    1     -1.34      0.00
    4  -11    2      0.76      0.00
    4  -11    3     -1.77      0.00
    4  -11    4      1.83      0.00
    4  -11    5     -0.76      0.00
    4  -11    6      0.19      0.00
    4  -11    7      0.43      0.00
    4  -11    8     -0.36      0.00
    4  -11    9      0.27      0.00
    4  -11   10     -0.47      0.00
    4  -11   11      0.25      0.00
    4  -11   12     -0.30      0.00
    4  -11   13      0.66      0.00
    4  -11   14     -0.28      0.00
    4  -11   15     -0.10      0.00
    4  -11   16     -0.07      0.00
   -4   10   10      0.27      0.00
   -4   10    9     -0.61      0.00
   -4   10    8      0.50      0.00
   -4   10    7      0.30      0.00
   -4   10    6      0.00      0.00
   -4   10    5     -0.57      0.00
   -4   10    4     -0.93      0.00
   -4   10    3      0.10      0.00
   -4   10    2      1.73      0.00
   -4   10    1     -0.67      0.00
   -4   10    0      0.13      0.00
    4  -10    1     -0.23      0.00
    4  -10    2      0.71      0.00
    4  -10    3     -1.13      0.00
    4  -10    4     -0.38      0.00
    4  -10    5      1.70      0.00
    4  -10    6     -1.66      0.00
    4  -10    7      0.43      0.00
    4  -10    8      0.40      0.00
    4  -10    9     -0.19      0.00
    4  -10   10      0.46      0.00
    4  -10   11     -0.65      0.00
    4  -10   12      0.07      0.00
    4  -10   13     -0.01      0.00
    4  -10   14      0.33      0.00
    4  -10   15     -0.14      0.00
    4  -10   16     -0.21      0.00
    4  -10   17      0.31      0.00
   -4    9   11     -0.27      0.00
   -4    9   10      0.53      0.00
   -4    9    9     -0.22      0.00
   -4    9    8     -0.17      0.00
   -4    9    7     -0.70      0.00
   -4    9    6      2.15      0.00
   -4    9    5     -2.18      0.00
   -4    9    4      1.23      0.00
   -4    9    3     -1.65      0.00
   -4    9    2      1.92      0.00
   -4    9    1      0.53      0.00
   -4    9    0     -2.89      0.00
    4   -9    1      2.94      0.00
    4   -9    2     -1.62      0.00
    4   -9    3      1.86      0.00
    4   -9    4     -2.08      0.00
    4   -9    5      0.54      0.00
    4   -9    6      0.89      0.00
    4   -9    7     -1.51      0.00
    4   -9    8      0.50      0.00
    4   -9    9      0.14      0.00
    4   -9   10      0.78      0.00
    4   -9   11     -0.46      0.00
    4   -9   12     -0.04      0.00
    4   -9   13     -0.34      0.00
    4   -9   14      0.17      0.00
    4   -9   15     -0.31      0.00
    4   -9   16      0.06      0.00
    4   -9   17      0.07      0.00
   -4    8   12      0.50      0.00
   -4    8   11      0.02      0.00
   -4    8   10     -0.31      0.00
   -4    8    9      0.46      0.00
   -4    8    8     -0.23      0.00
   -4    8    7     -0.72      0.00
   -4    8    6      2.02      0.00
   -4    8    5     -2.79      0.00
   -4    8    4      1.15      0.00
   -4    8    3      0.78      0.00
   -4    8    2     -1.33      0.00
   -4    8    1      2.93      0.00
   -4    8    0     -4.88      0.00
    4   -8    1      3.31      0.00
    4   -8    2     -1.34      0.00
    4   -8    3      0.26      0.00
    4   -8    4      2.43      0.00
    4   -8    5     -3.72      0.00
    4   -8    6      2.38      0.00
    4   -8    7      0.59      0.00
    4   -8    8     -1.74      0.00
    4   -8    9      0.37      0.00
    4   -8   10      0.46      0.00
    4   -8   11     -0.18      0.00
    4   -8   12      0.32      0.00
    4   -8   13     -0.22      0.00
    4   -8   14      0.23      0.00
    4   -8   15     -0.43      0.00
    4   -8   16     -0.21      0.00
    4   -8   17      0.21      0.00
   -4    7   13     -0.43      0.00
   -4    7   12     -0.20      0.00
   -4    7   11      0.48      0.00
   -4    7   10     -0.43      0.00
   -4    7    9      0.12      0.00
   -4    7    8      0.22      0.00
   -4    7    7      0.65      0.00
   -4    7    6     -1.55      0.00
   -4    7    5      1.67      0.00
   -4    7    4     -2.03      0.00
   -4    7    3      3.05      0.00
   -4    7    2     -1.91      0.00
   -4    7    1     -1.11      0.00
   -4    7    0      2.62      0.00
    4   -7    1     -2.54      0.00
    4   -7    2      2.53      0.00
    4   -7    3     -4.16      0.00
    4   -7    4      3.03      0.00
    4   -7    5     -0.75      0.00
    4   -7    6     -0.71      0.00
    4   -7    7      2.15      0.00
    4   -7    8     -0.97      0.00
    4   -7    9     -0.83      0.00
    4   -7   10      0.93      0.00
    4   -7   11     -0.45      0.00
    4   -7   12     -0.33      0.00
    4   -7   13      0.87      0.00
    4   -7   14     -0.17      0.00
    4   -7   15      0.17      0.00
    4   -7   16     -0.23      0.00
    4   -7   17     -0.02      0.00
   -4    6   14      0.30      0.00
   -4    6   13      0.07      0.00
   -4    6   12     -0.09      0.00
   -4    6   11     -0.53      0.00
   -4    6   10     -0.12      0.00
   -4    6    9      0.08      0.00
   -4    6    8      0.36      0.00
   -4    6    7      2.99      0.00
   -4    6    6     -6.36      0.00
   -4    6    5      4.24      0.00
   -4    6    4      0.50      0.00
   -4    6    3     -1.31      0.00
   -4    6    2      2.83      0.00
   -4    6    1     -8.39      0.00
   -4    6    0      9.45      0.00
    4   -6    1     -3.57      0.00
    4   -6    2     -0.34      0.00
    4   -6    3      2.42      0.00
    4   -6    4     -3.41      0.00
    4   -6    5      0.06      0.00
    4   -6    6      1.36      0.00
    4   -6    7     -0.11      0.00
    4   -6    8      0.60      0.00
    4   -6    9     -1.57      0.00
    4   -6   10      0.28      0.00
    4   -6   11      1.43      0.00
    4   -6   12     -2.32      0.00
    4   -6   13      1.32      0.00
    4   -6   14      0.12      0.00
    4   -6   15     -0.27      0.00
    4   -6   16      0.24      0.00
    4   -6   17      0.01      0.00
   -4    5   15     -0.24      0.00
   -4    5   14      0.40      0.00
   -4    5   13     -0.25      0.00
   -4    5   12      0.24      0.00
   -4    5   11     -0.48      0.00
   -4    5   10     -0.71      0.00
   -4    5    9      0.19      0.00
   -4    5    8      0.90      0.00
   -4    5    7      1.39      0.00
   -4    5    6     -3.78      0.00
   -4    5    5     -0.27      0.00
   -4    5    4      6.46      0.00
   -4    5    3     -4.67      0.00
   -4    5    2     -1.09      0.00
   -4    5    1     -0.67      0.00
   -4    5    0      3.82      0.00
    4   -5    1      2.60      0.00
    4   -5    2     -9.52      0.00
    4   -5    3      7.05      0.00
    4   -5    4      1.54      0.00
    4   -5    5     -4.22      0.00
    4   -5    6      0.82      0.00
    4   -5    7      0.18      0.00
    4   -5    8      0.78      0.00
    4   -5    9     -0.04      0.00
    4   -5   10     -1.63      0.00
    4   -5   11      1.47      0.00
    4   -5   12     -0.40      0.00
    4   -5   13     -0.43      0.00
    4   -5   14      0.65      0.00
    4   -5   15     -0.30      0.00
    4   -5   16     -0.27      0.00
    4   -5   17      0.13      0.00
   -4    4   16      0.17      0.00
   -4    4   15      0.08      0.00
   -4    4   14      0.28      0.00
   -4    4   13     -0.02      0.00
   -4    4   12     -0.27      0.00
   -4    4   11      0.56      0.00
   -4    4   10     -0.39      0.00
   -4    4    9     -1.75      0.00
   -4    4    8      3.43      0.00
   -4    4    7     -3.27      0.00
   -4    4    6      2.86      0.00
   -4    4    5     -2.55      0.00
   -4    4    4      1.63      0.00
   -4    4    3      2.93      0.00
   -4    4    2    -12.98      0.00
   -4    4    1     11.77      0.00
   -4    4    0      0.35      0.00
    4   -4    1      1.10      0.00
    4   -4    2     -7.74      0.00
    4   -4    3     -0.01      0.00
    4   -4    4      4.34      0.00
    4   -4    5      3.07      0.00
    4   -4    6     -3.52      0.00
    4   -4    7     -0.48      0.00
    4   -4    8      0.04      0.00
    4   -4    9      1.09      0.00
    4   -4   10      1.08      0.00
    4   -4   11     -3.04      0.00
    4   -4   12      1.65      0.00
    4   -4   13     -0.17      0.00
    4   -4   14     -0.18      0.00
    4   -4   15      0.39      0.00
    4   -4   16     -0.30      0.00
    4   -4   17     -0.11      0.00
   -4    3   17     -0.18      0.00
   -4    3   16     -0.26      0.00
   -4    3   15      0.89      0.00
   -4    3   14     -0.09      0.00
   -4    3   13     -0.40      0.00
   -4    3   12      0.02      0.00
   -4    3   11      0.83      0.00
   -4    3   10      0.96      0.00
   -4    3    9     -3.10      0.00
   -4    3    8      3.02      0.00
   -4    3    7     -4.25      0.00
   -4    3    6      2.80      0.00
   -4    3    5      6.32      0.00
   -4    3    4     -8.57      0.00
   -4    3    3      2.93      0.00
   -4    3    2     -6.99      0.00
   -4    3    1      6.96      0.00
   -4    3    0      4.09      0.00
    4   -3    1     -3.23      0.00
    4   -3    2     -1.72      0.00
    4   -3    3     -0.66      0.00
    4   -3    4     -4.63      0.00
    4   -3    5      6.49      0.00
    4   -3    6      0.25      0.00
    4   -3    7     -0.85      0.00
    4   -3    8     -1.03      0.00
    4   -3    9     -1.15      0.00
    4   -3   10      3.88      0.00
    4   -3   11     -2.08      0.00
    4   -3   12     -0.12      0.00
    4   -3   13      0.62      0.00
    4   -3   14     -0.69      0.00
    4   -3   15      0.02      0.00
    4   -3   16      0.05      0.00
   -4    2   17     -0.31      0.00
   -4    2   16     -0.60      0.00
   -4    2   15      0.84      0.00
   -4    2   14      0.63      0.00
   -4    2   13     -1.83      0.00
   -4    2   12      0.44      0.00
   -4    2   11      1.20      0.00
   -4    2   10     -0.09      0.00
   -4    2    9     -0.17      0.00
   -4    2    8     -1.67      0.00
   -4    2    7      2.21      0.00
   -4    2    6     -3.59      0.00
   -4    2    5      7.31      0.00
   -4    2    4     -0.76      0.00
   -4    2    3    -12.23      0.00
   -4    2    2     11.91      0.00
   -4    2    1     -0.40      0.00
   -4    2    0     -4.09      0.00
    4   -2    1     -1.99      0.00
    4   -2    2      5.19      0.00
    4   -2    3      0.56      0.00
    4   -2    4     -2.36      0.00
    4   -2    5     -3.00      0.00
    4   -2    6      1.80      0.00
    4   -2    7      1.70      0.00
    4   -2    8     -0.54      0.00
    4   -2    9     -0.79      0.00
    4   -2   10     -0.91      0.00
    4   -2   11      1.25      0.00
    4   -2   12      0.26      0.00
    4   -2   13      0.42      0.00
    4   -2   14     -0.22      0.00
    4   -2   15     -0.38      0.00
    4   -2   16     -0.20      0.00
   -4    1   17     -0.17      0.00
   -4    1   16      0.12      0.00
   -4    1   15     -0.33      0.00
   -4    1   14      0.84      0.00
   -4    1   13     -0.98      0.00
   -4    1   12     -0.62      0.00
   -4    1   11      2.11      0.00
   -4    1   10     -3.30      0.00
   -4    1    9      3.74      0.00
   -4    1    8     -6.09      0.00
   -4    1    7      5.10      0.00
   -4    1    6      2.92      0.00
   -4    1    5     -7.09      0.00
   -4    1    4      7.45      0.00
   -4    1    3    -14.62      0.00
   -4    1    2     16.17      0.00
   -4    1    1      2.87      0.00
   -4    1    0     -8.70      0.00
    4   -1    1     -8.68      0.00
    4   -1    2     10.30      0.00
    4   -1    3     -1.62      0.00
    4   -1    4      5.02      0.00
    4   -1    5     -3.91      0.00
    4   -1    6     -2.32      0.00
    4   -1    7      1.33      0.00
    4   -1    8     -0.29      0.00
    4   -1    9      3.08      0.00
    4   -1   10     -3.55      0.00
    4   -1   11     -0.40      0.00
    4   -1   12      1.02      0.00
    4   -1   13      0.33      0.00
    4   -1   14      0.16      0.00
    4   -1   15     -0.27      0.00
   -4    0   18      0.15      0.00
   -4    0   17     -0.18      0.00
   -4    0   16      1.24      0.00
   -4    0   15      0.25      0.00
   -4    0   14     -2.12      0.00
   -4    0   13      0.97      0.00
   -4    0   12      0.21      0.00
   -4    0   11      2.06      0.00
   -4    0   10     -3.38      0.00
   -4    0    9      0.98      0.00
   -4    0    8     -0.72      0.00
   -4    0    7     -3.32      0.00
   -4    0    6      9.92      0.00
   -4    0    5     -4.78      0.00
   -4    0    4     -4.60      0.00
   -4    0    3     -2.28      0.00
   -4    0    2      8.58      0.00
   -4    0    1     -1.61      0.00
    4    0    0      2.40      0.00
    4    0    1     -4.77      0.00
    4    0    2     -1.55      0.00
    4    0    3      0.22      0.00
    4    0    4      3.93      0.00
    4    0    5      0.83      0.00
    4    0    6     -1.92      0.00
    4    0    7     -1.09      0.00
    4    0    8     -0.25      0.00
    4    0    9      2.63      0.00
    4    0   10     -0.54      0.00
    4    0   11     -1.19      0.00
    4    0   12      0.07      0.00
    4    0   13      0.18      0.00
    4    0   14     -0.03      0.00
    4    0   15      0.00      0.00
   -4   -1   19      0.15      0.00
   -4   -1   18     -0.14      0.00
   -4   -1   17     -0.70      0.00
   -4   -1   16      0.36      0.00
   -4   -1   15      2.59      0.00
   -4   -1   14     -2.23      0.00
   -4   -1   13     -1.58      0.00
   -4   -1   12      2.55      0.00
   -4   -1   11     -0.27      0.00
   -4   -1   10      2.22      0.00
   -4   -1    9     -5.31      0.00
   -4   -1    8      5.92      0.00
   -4   -1    7     -2.82      0.00
   -4   -1    6     -3.29      0.00
   -4   -1    5      7.69      0.00
   -4   -1    4    -10.83      0.00
   -4   -1    3     10.74      0.00
   -4   -1    2     -0.99      0.00
   -4   -1    1    -12.29      0.00
    4    1    0      2.83      0.00
    4    1    1     16.20      0.00
    4    1    2    -10.03      0.00
    4    1    3     -4.05      0.00
    4    1    4      2.51      0.00
    4    1    5      1.64      0.00
    4    1    6      0.44      0.00
    4    1    7     -2.42      0.00
    4    1    8      1.39      0.00
    4    1    9     -0.72      0.00
    4    1   10      0.67      0.00
    4    1   11      0.29      0.00
    4    1   12     -0.10      0.00
    4    1   13      0.31      0.00
    4    1   14     -0.12      0.00
   -4   -2   19      0.39      0.00
   -4   -2   18      0.18      0.00
   -4   -2   17     -0.70      0.00
   -4   -2   16     -0.84      0.00
   -4   -2   15      0.14      0.00
   -4   -2   14      1.62      0.00
   -4   -2   13     -2.48      0.00
   -4   -2   12      1.83      0.00
   -4   -2   11     -2.28      0.00
   -4   -2   10      3.32      0.00
   -4   -2    9     -3.05      0.00
   -4   -2    8      1.52      0.00
   -4   -2    7      7.21      0.00
   -4   -2    6     -8.60      0.00
   -4   -2    5      1.28      0.00
   -4   -2    4    -10.85      0.00
   -4   -2    3     23.42      0.00
   -4   -2    2     -2.27      0.00
   -4   -2    1    -16.64      0.00
    4    2    0     -5.63      0.00
    4    2    1     17.06      0.00
    4    2    2      1.39      0.00
    4    2    3     -7.72      0.00
    4    2    4      0.03      0.00
    4    2    5      1.85      0.00
    4    2    6      1.32      0.00
    4    2    7     -2.91      0.00
    4    2    8      2.42      0.00
    4    2    9     -1.06      0.00
    4    2   10     -0.72      0.00
    4    2   11      0.13      0.00
    4    2   12      0.11      0.00
    4    2   13      0.15      0.00
   -4   -3   19      0.18      0.00
   -4   -3   18      0.61      0.00
   -4   -3   17     -0.31      0.00
   -4   -3   16      1.06      0.00
   -4   -3   15     -2.12      0.00
   -4   -3   14      0.20      0.00
   -4   -3   13      1.61      0.00
   -4   -3   12     -1.04      0.00
   -4   -3   11     -0.84      0.00
   -4   -3   10     -1.49      0.00
   -4   -3    9      3.84      0.00
   -4   -3    8     -4.11      0.00
   -4   -3    7      2.36      0.00
   -4   -3    6      3.61      0.00
   -4   -3    5     -3.63      0.00
   -4   -3    4    -10.28      0.00
   -4   -3    3     14.81      0.00
   -4   -3    2      5.30      0.00
   -4   -3    1    -10.74      0.00
    4    3    0     -2.31      0.00
    4    3    1      1.92      0.00
    4    3    2      3.90      0.00
    4    3    3     -2.68      0.00
    4    3    4     -1.43      0.00
    4    3    5      1.64      0.00
    4    3    6      1.01      0.00
    4    3    7     -1.45      0.00
    4    3    8      0.38      0.00
    4    3    9      1.08      0.00
    4    3   10     -0.41      0.00
    4    3   11     -0.55      0.00
    4    3   12     -0.08      0.00
   -4   -4   19     -0.26      0.00
   -4   -4   18      0.13      0.00
   -4   -4   17     -0.52      0.00
   -4   -4   16      1.02      0.00
   -4   -4   15      0.70      0.00
   -4   -4   14     -2.26      0.00
   -4   -4   13      2.87      0.00
   -4   -4   12     -1.32      0.00
   -4   -4   11      0.61      0.00
   -4   -4   10     -3.13      0.00
   -4   -4    9      5.15      0.00
   -4   -4    8     -0.83      0.00
   -4   -4    7     -7.72      0.00
   -4   -4    6      7.48      0.00
   -4   -4    5     -3.87      0.00
   -4   -4    4      1.94      0.00
   -4   -4    3     -1.22      0.00
   -4   -4    2      2.57      0.00
   -4   -4    1     -3.05      0.00
    4    4    0      3.41      0.00
    4    4    1      0.14      0.00
    4    4    2     -1.48      0.00
    4    4    3     -0.46      0.00
    4    4    4     -0.90      0.00
    4    4    5      1.23      0.00
    4    4    6     -0.68      0.00
    4    4    7      1.34      0.00
    4    4    8     -1.69      0.00
    4    4    9      0.46      0.00
    4    4   10      0.74      0.00
    4    4   11      0.11      0.00
    4    4   12     -0.54      0.00
   -4   -5   20      0.22      0.00
   -4   -5   19      0.12      0.00
   -4   -5   18     -0.26      0.00
   -4   -5   17     -0.04      0.00
   -4   -5   16     -0.93      0.00
   -4   -5   15      0.93      0.00
   -4   -5   14     -0.26      0.00
   -4   -5   13      0.44      0.00
   -4   -5   12     -0.18      0.00
   -4   -5   11     -0.33      0.00
   -4   -5   10     -0.10      0.00
   -4   -5    9      1.84      0.00
   -4   -5    8      1.88      0.00
   -4   -5    7     -6.63      0.00
   -4   -5    6      4.81      0.00
   -4   -5    5     -3.92      0.00
   -4   -5    4      4.46      0.00
   -4   -5    3     -1.48      0.00
   -4   -5    2     -1.93      0.00
   -4   -5    1     -0.51      0.00
    4    5    0      0.90      0.00
    4    5    1      2.31      0.00
    4    5    2     -1.27      0.00
    4    5    3      0.59      0.00
    4    5    4     -0.60      0.00
    4    5    5      0.04      0.00
    4    5    6     -1.04      0.00
    4    5    7      1.64      0.00
    4    5    8     -0.44      0.00
    4    5    9     -0.67      0.00
    4    5   10      0.24      0.00
    4    5   11      0.34      0.00
   -4   -6   20      0.15      0.00
   -4   -6   19      0.37      0.00
   -4   -6   18     -0.13      0.00
   -4   -6   17      0.56      0.00
   -4   -6   16     -0.06      0.00
   -4   -6   15     -0.93      0.00
   -4   -6   14      0.54      0.00
   -4   -6   13     -0.72      0.00
   -4   -6   12      1.21      0.00
   -4   -6   11     -1.69      0.00
   -4   -6   10      1.48      0.00
   -4   -6    9     -0.52      0.00
   -4   -6    8      0.20      0.00
   -4   -6    7      0.47      0.00
   -4   -6    6     -0.58      0.00
   -4   -6    5      1.81      0.00
   -4   -6    4     -1.81      0.00
   -4   -6    3     -0.10      0.00
   -4   -6    2     -0.34      0.00
   -4   -6    1      1.62      0.00
    4    6    0     -2.37      0.00
    4    6    1      0.62      0.00
    4    6    2     -0.33      0.00
    4    6    3      1.41      0.00
    4    6    4      0.85      0.00
    4    6    5     -1.87      0.00
    4    6    6      0.14      0.00
    4    6    7      0.30      0.00
    4    6    8      0.11      0.00
    4    6    9     -0.12      0.00
   -4   -7   19      0.03      0.00
   -4   -7   18     -0.02      0.00
   -4   -7   17     -0.28      0.00
   -4   -7   16      0.95      0.00
   -4   -7   15     -0.22      0.00
   -4   -7   14      0.00      0.00
   -4   -7   13     -1.61      0.00
   -4   -7   12      1.46      0.00
   -4   -7   11     -0.36      0.00
   -4   -7   10      1.09      0.00
   -4   -7    9     -0.69      0.00
   -4   -7    8     -3.50      0.00
   -4   -7    7      5.23      0.00
   -4   -7    6     -2.65      0.00
   -4   -7    5      2.75      0.00
   -4   -7    4     -1.58      0.00
   -4   -7    3     -0.51      0.00
   -4   -7    2     -1.19      0.00
   -4   -7    1      2.35      0.00
    4    7    0     -0.03      0.00
    4    7    1     -1.82      0.00
    4    7    2     -0.15      0.00
    4    7    3      0.98      0.00
    4    7    4      1.25      0.00
    4    7    5     -1.70      0.00
    4    7    6      0.46      0.00
    4    7    7     -0.06      0.00
    4    7    8     -0.03      0.00
   -4   -8   19     -0.27      0.00
   -4   -8   18      0.51      0.00
   -4   -8   17     -0.48      0.00
   -4   -8   16     -0.21      0.00
   -4   -8   15      0.22      0.00
   -4   -8   14      0.57      0.00
   -4   -8   13     -0.93      0.00
   -4   -8   12     -0.50      0.00
   -4   -8   11      1.14      0.00
   -4   -8   10     -0.17      0.00
   -4   -8    9      0.74      0.00
   -4   -8    8     -3.13      0.00
   -4   -8    7      2.34      0.00
   -4   -8    6      0.45      0.00
   -4   -8    5     -1.03      0.00
   -4   -8    4      0.54      0.00
   -4   -8    3      1.05      0.00
   -4   -8    2     -0.64      0.00
   -4   -8    1     -2.14      0.00
    4    8    0      2.66      0.00
    4    8    1     -0.90      0.00
    4    8    2     -0.78      0.00
    4    8    3      1.05      0.00
    4    8    4      0.03      0.00
    4    8    5     -0.66      0.00
    4    8    6      0.43      0.00
    4    8    7      0.04      0.00
   -4   -9   19     -0.41      0.00
   -4   -9   18      0.04      0.00
   -4   -9   17      0.95      0.00
   -4   -9   16     -0.83      0.00
   -4   -9   15     -0.04      0.00
   -4   -9   14     -0.13      0.00
   -4   -9   13      1.10      0.00
   -4   -9   12     -1.36      0.00
   -4   -9   11      1.38      0.00
   -4   -9   10     -0.73      0.00
   -4   -9    9     -0.79      0.00
   -4   -9    8      0.52      0.00
   -4   -9    7     -0.87      0.00
   -4   -9    6      2.08      0.00
   -4   -9    5     -2.29      0.00
   -4   -9    4      0.69      0.00
   -4   -9    3      0.47      0.00
   -4   -9    2      1.85      0.00
   -4   -9    1     -2.48      0.00
    4    9    0      0.37      0.00
    4    9    1      0.56      0.00
    4    9    2     -0.65      0.00
    4    9    3      0.66      0.00
    4    9    4     -0.38      0.00
    4    9    5     -0.20      0.00
   -4  -10   18     -1.01      0.00
   -4  -10   17      1.01      0.00
   -4  -10   16     -0.38      0.00
   -4  -10   15      0.38      0.00
   -4  -10   14     -0.79      0.00
   -4  -10   13      0.92      0.00
   -4  -10   12     -0.35      0.00
   -4  -10   11      0.36      0.00
   -4  -10   10      1.13      0.00
   -4  -10    9     -2.26      0.00
   -4  -10    8      1.18      0.00
   -4  -10    7     -0.61      0.00
   -4  -10    6      0.47      0.00
   -4  -10    5     -1.05      0.00
   -4  -10    4      0.66      0.00
   -4  -10    3      0.02      0.00
   -4  -10    2     -0.23      0.00
   -4  -10    1      0.47      0.00
    4   10    0      0.10      0.00
    4   10    1     -0.10      0.00
    4   10    2      0.13      0.00
    4   10    3     -0.02      0.00
    4   10    4     -0.33      0.00
   -4  -11   17     -0.11      0.00
   -4  -11   16      0.07      0.00
   -4  -11   15     -0.22      0.00
   -4  -11   14      0.29      0.00
   -4  -11   13     -0.32      0.00
   -4  -11   12      0.41      0.00
   -4  -11   11     -0.91      0.00
   -4  -11   10      1.33      0.00
   -4  -11    9     -0.35      0.00
   -4  -11    8     -0.04      0.00
   -4  -11    7      0.85      0.00
   -4  -11    6     -1.08      0.00
   -4  -11    5     -0.30      0.00
   -4  -11    4      0.36      0.00
   -4  -11    3      0.88      0.00
   -4  -11    2     -1.60      0.00
   -4  -11    1      0.06      0.00
    4   11    0      0.94      0.00
    4   11    1     -0.53      0.00
    4   11    2      0.34      0.00
   -4  -12   16      0.66      0.00
   -4  -12   15     -0.89      0.00
   -4  -12   14      0.47      0.00
   -4  -12   13     -0.48      0.00
   -4  -12   12      0.39      0.00
   -4  -12   11      0.02      0.00
   -4  -12   10     -1.04      0.00
   -4  -12    9      1.11      0.00
   -4  -12    8     -0.44      0.00
   -4  -12    7      1.16      0.00
   -4  -12    6     -0.73      0.00
   -4  -12    5     -0.15      0.00
   -4  -12    4      0.06      0.00
   -4  -12    3      0.62      0.00
   -4  -12    2     -0.57      0.00
   -4  -12    1     -0.23      0.00
    4   12    0      0.51      0.00
   -4  -13   14      0.05      0.00
   -4  -13   13     -0.33      0.00
   -4  -13   12     -0.27      0.00
   -4  -13   11      1.12      0.00
   -4  -13   10     -1.28      0.00
   -4  -13    9      0.47      0.00
   -4  -13    8     -0.17      0.00
   -4  -13    7      0.30      0.00
   -4  -13    6     -0.06      0.00
   -4  -13    5      0.00      0.00
   -4  -13    4     -0.04      0.00
   -4  -13    3      0.09      0.00
   -4  -14   11      0.11      0.00
   -4  -14   10     -0.18      0.00
   -4  -14    9     -0.05      0.00
   -4  -14    8      0.39      0.00
   -4  -14    7     -0.38      0.00
    5  -16    4      0.35      0.00
    5  -16    5     -0.38      0.00
    5  -16    6      0.23      0.00
    5  -16    7      0.22      0.00
    5  -16    8     -0.11      0.00
   -5   15    0      1.20      0.00
    5  -15    1     -0.23      0.00
    5  -15    2     -0.24      0.00
    5  -15    3     -0.07      0.00
    5  -15    4      0.30      0.00
    5  -15    5     -0.41      0.00
    5  -15    6     -0.04      0.00
    5  -15    7      0.03      0.00
    5  -15    8      0.19      0.00
    5  -15    9     -0.42      0.00
    5  -15   10      0.52      0.00
    5  -15   11     -0.04      0.00
   -5   14    3     -0.40      0.00
   -5   14    2      0.41      0.00
   -5   14    1     -0.45      0.00
   -5   14    0     -0.02      0.00
    5  -14    1      0.07      0.00
    5  -14    2     -0.12      0.00
    5  -14    3      0.54      0.00
    5  -14    4      0.10      0.00
    5  -14    5      0.07      0.00
    5  -14    6     -0.69      0.00
    5  -14    7      0.07      0.00
    5  -14    8      0.01      0.00
    5  -14    9      0.09      0.00
    5  -14   10     -0.03      0.00
    5  -14   11      0.45      0.00
    5  -14   12     -0.17      0.00
   -5   13    5     -0.92      0.00
   -5   13    4      0.83      0.00
   -5   13    3     -0.68      0.00
   -5   13    2      0.87      0.00
   -5   13    1     -0.11      0.00
   -5   13    0     -0.70      0.00
    5  -13    1      0.15      0.00
    5  -13    2     -0.66      0.00
    5  -13    3      1.07      0.00
    5  -13    4     -0.28      0.00
    5  -13    5      0.76      0.00
    5  -13    6     -0.71      0.00
    5  -13    7     -0.03      0.00
    5  -13    8     -0.35      0.00
    5  -13    9      0.46      0.00
    5  -13   10      0.05      0.00
    5  -13   11     -0.66      0.00
    5  -13   12      0.64      0.00
    5  -13   13      0.14      0.00
    5  -13   14     -0.09      0.00
   -5   12    6      0.41      0.00
   -5   12    5     -0.48      0.00
   -5   12    4      0.36      0.00
   -5   12    3     -0.38      0.00
   -5   12    2      0.40      0.00
   -5   12    1      0.25      0.00
   -5   12    0     -0.26      0.00
    5  -12    1      0.20      0.00
    5  -12    2     -1.34      0.00
    5  -12    3      0.97      0.00
    5  -12    4      0.13      0.00
    5  -12    5     -0.62      0.00
    5  -12    6      0.57      0.00
    5  -12    7     -0.03      0.00
    5  -12    8     -0.06      0.00
    5  -12    9      0.17      0.00
    5  -12   10      0.26      0.00
    5  -12   11     -0.48      0.00
    5  -12   12     -0.53      0.00
    5  -12   13      0.75      0.00
    5  -12   14      0.28      0.00
   -5   11    9     -0.20      0.00
   -5   11    8     -1.01      0.00
   -5   11    7      0.70      0.00
   -5   11    6     -0.88      0.00
   -5   11    5      1.28      0.00
   -5   11    4     -0.75      0.00
   -5   11    3      0.52      0.00
   -5   11    2     -1.01      0.00
   -5   11    1      0.07      0.00
   -5   11    0      0.78      0.00
    5  -11    1      0.35      0.00
    5  -11    2      0.06      0.00
    5  -11    3     -1.21      0.00
    5  -11    4      1.46      0.00
    5  -11    5     -1.48      0.00
    5  -11    6      0.33      0.00
    5  -11    7      0.24      0.00
    5  -11    8     -0.06      0.00
    5  -11    9      0.26      0.00
    5  -11   10     -0.25      0.00
    5  -11   11      0.53      0.00
    5  -11   12     -0.84      0.00
    5  -11   13      0.30      0.00
    5  -11   14      0.22      0.00
    5  -11   16     -0.07      0.00
   -5   10   10      0.58      0.00
   -5   10    9     -0.37      0.00
   -5   10    8     -0.41      0.00
   -5   10    7      1.26      0.00
   -5   10    6     -1.85      0.00
   -5   10    5      2.58      0.00
   -5   10    4     -1.56      0.00
   -5   10    3      0.02      0.00
   -5   10    2     -0.10      0.00
   -5   10    1     -0.90      0.00
   -5   10    0      1.45      0.00
    5  -10    1     -1.61      0.00
    5  -10    2      2.49      0.00
    5  -10    3     -1.37      0.00
    5  -10    4      0.07      0.00
    5  -10    5      0.52      0.00
    5  -10    6     -0.66      0.00
    5  -10    7     -0.19      0.00
    5  -10    8      0.44      0.00
    5  -10    9     -0.23      0.00
    5  -10   10     -0.04      0.00
    5  -10   11      0.48      0.00
    5  -10   12     -0.54      0.00
    5  -10   13      0.37      0.00
    5  -10   14     -0.43      0.00
    5  -10   15      0.31      0.00
    5  -10   16     -0.32      0.00
   -5    9   11     -0.32      0.00
   -5    9   10      0.68      0.00
   -5    9    9     -0.11      0.00
   -5    9    8     -0.63      0.00
   -5    9    7      0.06      0.00
   -5    9    6     -0.29      0.00
   -5    9    5      1.29      0.00
   -5    9    4      1.01      0.00
   -5    9    3     -2.94      0.00
   -5    9    2      1.13      0.00
   -5    9    1     -0.27      0.00
   -5    9    0      0.78      0.00
    5   -9    1     -0.98      0.00
    5   -9    2      0.02      0.00
    5   -9    3      1.88      0.00
    5   -9    4     -1.96      0.00
    5   -9    5      0.74      0.00
    5   -9    6      0.78      0.00
    5   -9    7     -1.26      0.00
    5   -9    8      0.59      0.00
    5   -9    9     -0.41      0.00
    5   -9   10     -0.07      0.00
    5   -9   11      0.62      0.00
    5   -9   12     -0.22      0.00
    5   -9   13      0.16      0.00
    5   -9   14     -0.08      0.00
    5   -9   15      0.12      0.00
    5   -9   16     -0.10      0.00
   -5    8   13     -0.07      0.00
   -5    8   12      0.05      0.00
   -5    8   11      0.08      0.00
   -5    8   10     -0.11      0.00
   -5    8    9      0.49      0.00
   -5    8    8      0.55      0.00
   -5    8    7     -3.22      0.00
   -5    8    6      3.09      0.00
   -5    8    5     -1.74      0.00
   -5    8    4      2.35      0.00
   -5    8    3     -1.92      0.00
   -5    8    2     -1.05      0.00
   -5    8    1      3.78      0.00
   -5    8    0     -3.67      0.00
    5   -8    1      2.14      0.00
    5   -8    2     -2.10      0.00
    5   -8    3      1.32      0.00
    5   -8    4      0.62      0.00
    5   -8    5     -1.54      0.00
    5   -8    6      0.52      0.00
    5   -8    7      0.59      0.00
    5   -8    8     -0.40      0.00
    5   -8    9     -0.03      0.00
    5   -8   10     -0.12      0.00
    5   -8   11     -0.12      0.00
    5   -8   12      0.86      0.00
    5   -8   13     -0.76      0.00
    5   -8   14      0.40      0.00
    5   -8   15      0.08      0.00
    5   -8   16      0.07      0.00
   -5    7   14      0.36      0.00
   -5    7   13      0.05      0.00
   -5    7   12     -0.57      0.00
   -5    7   11      0.78      0.00
   -5    7   10      0.25      0.00
   -5    7    9     -0.80      0.00
   -5    7    8      1.90      0.00
   -5    7    7     -3.11      0.00
   -5    7    6      2.30      0.00
   -5    7    5     -0.32      0.00
   -5    7    4     -1.53      0.00
   -5    7    3      2.29      0.00
   -5    7    2     -3.10      0.00
   -5    7    1      4.47      0.00
   -5    7    0     -2.67      0.00
    5   -7    1     -0.40      0.00
    5   -7    2      2.35      0.00
    5   -7    3     -2.83      0.00
    5   -7    4      1.61      0.00
    5   -7    5      0.52      0.00
    5   -7    6     -2.42      0.00
    5   -7    7      1.65      0.00
    5   -7    8      0.14      0.00
    5   -7    9     -0.95      0.00
    5   -7   10      0.87      0.00
    5   -7   11     -1.00      0.00
    5   -7   12      0.81      0.00
    5   -7   13     -0.39      0.00
    5   -7   14     -0.17      0.00
    5   -7   15      0.33      0.00
    5   -7   16     -0.02      0.00
   -5    6   15     -0.45      0.00
   -5    6   14     -0.03      0.00
   -5    6   13      0.26      0.00
   -5    6   12     -0.06      0.00
   -5    6   11     -0.19      0.00
   -5    6   10      0.63      0.00
   -5    6    9     -0.86      0.00
   -5    6    8     -1.09      0.00
   -5    6    7      2.82      0.00
   -5    6    6     -2.16      0.00
   -5    6    5      1.83      0.00
   -5    6    4     -2.85      0.00
   -5    6    3      1.38      0.00
   -5    6    2      3.04      0.00
   -5    6    1     -4.20      0.00
   -5    6    0      2.15      0.00
    5   -6    1     -2.93      0.00
    5   -6    2      3.59      0.00
    5   -6    3     -0.79      0.00
    5   -6    4      0.06      0.00
    5   -6    5      0.23      0.00
    5   -6    6     -1.25      0.00
    5   -6    7     -0.11      0.00
    5   -6    8      1.99      0.00
    5   -6    9     -1.21      0.00
    5   -6   10     -0.34      0.00
    5   -6   11      1.29      0.00
    5   -6   12     -1.24      0.00
    5   -6   13      0.21      0.00
    5   -6   14     -0.25      0.00
    5   -6   15      0.18      0.00
    5   -6   16     -0.05      0.00
   -5    5   15     -0.46      0.00
   -5    5   14      0.07      0.00
   -5    5   13     -0.20      0.00
   -5    5   12      0.76      0.00
   -5    5   11      0.14      0.00
   -5    5   10     -0.88      0.00
   -5    5    9      1.28      0.00
   -5    5    8     -4.22      0.00
   -5    5    7      5.89      0.00
   -5    5    6     -2.46      0.00
   -5    5    5     -2.41      0.00
   -5    5    4      2.32      0.00
   -5    5    3     -2.13      0.00
   -5    5    2      7.33      0.00
   -5    5    1     -7.07      0.00
   -5    5    0     -1.14      0.00
    5   -5    1      3.19      0.00
    5   -5    2     -0.50      0.00
    5   -5    3     -2.32      0.00
    5   -5    4      4.75      0.00
    5   -5    5     -2.25      0.00
    5   -5    6      0.12      0.00
    5   -5    7     -1.63      0.00
    5   -5    8      1.05      0.00
    5   -5    9      1.99      0.00
    5   -5   10     -3.31      0.00
    5   -5   11      2.61      0.00
    5   -5   12     -0.46      0.00
    5   -5   13     -0.52      0.00
    5   -5   14      0.03      0.00
    5   -5   15      0.15      0.00
    5   -5   16      0.17      0.00
   -5    4   16      0.47      0.00
   -5    4   15     -0.38      0.00
   -5    4   14     -0.16      0.00
   -5    4   13      0.25      0.00
   -5    4   12     -0.09      0.00
   -5    4   11      1.11      0.00
   -5    4   10     -0.61      0.00
   -5    4    9      0.05      0.00
   -5    4    8     -2.34      0.00
   -5    4    7      2.60      0.00
   -5    4    6      2.82      0.00
   -5    4    5     -6.25      0.00
   -5    4    4      1.63      0.00
   -5    4    3      3.58      0.00
   -5    4    2     -0.52      0.00
   -5    4    1     -1.76      0.00
   -5    4    0     -4.74      0.00
    5   -4    1      6.34      0.00
    5   -4    2      1.85      0.00
    5   -4    3     -6.38      0.00
    5   -4    4      1.79      0.00
    5   -4    5      1.27      0.00
    5   -4    6      0.74      0.00
    5   -4    7     -0.84      0.00
    5   -4    8     -1.94      0.00
    5   -4    9      2.41      0.00
    5   -4   10     -0.50      0.00
    5   -4   11     -0.48      0.00
    5   -4   12      0.53      0.00
    5   -4   13     -0.20      0.00
    5   -4   14     -0.11      0.00
    5   -4   15      0.03      0.00
    5   -4   16      0.34      0.00
   -5    3   16     -0.28      0.00
   -5    3   15      0.14      0.00
   -5    3   14     -0.43      0.00
   -5    3   13      0.51      0.00
   -5    3   12     -0.78      0.00
   -5    3   11     -0.22      0.00
   -5    3   10      3.21      0.00
   -5    3    9     -2.78      0.00
   -5    3    8      1.38      0.00
   -5    3    7     -2.88      0.00
   -5    3    6      2.02      0.00
   -5    3    5      1.24      0.00
   -5    3    4     -4.12      0.00
   -5    3    3      8.61      0.00
   -5    3    2     -5.69      0.00
   -5    3    1     -2.48      0.00
   -5    3    0     -0.56      0.00
    5   -3    1      4.60      0.00
    5   -3    2     -0.08      0.00
    5   -3    3      2.81      0.00
    5   -3    4     -6.56      0.00
    5   -3    5      0.97      0.00
    5   -3    6      0.94      0.00
    5   -3    7      1.29      0.00
    5   -3    8     -0.11      0.00
    5   -3    9     -3.09      0.00
    5   -3   10      2.92      0.00
    5   -3   11     -0.43      0.00
    5   -3   12     -0.36      0.00
    5   -3   13      0.19      0.00
    5   -3   14     -0.15      0.00
    5   -3   15     -0.09      0.00
   -5    2   17      0.49      0.00
   -5    2   16     -1.04      0.00
   -5    2   15     -0.18      0.00
   -5    2   14      0.81      0.00
   -5    2   13     -0.14      0.00
   -5    2   12     -0.47      0.00
   -5    2   11     -2.30      0.00
   -5    2   10      4.38      0.00
   -5    2    9     -2.41      0.00
   -5    2    8      1.77      0.00
   -5    2    7     -0.24      0.00
   -5    2    6     -5.46      0.00
   -5    2    5      4.65      0.00
   -5    2    4      0.29      0.00
   -5    2    3      1.85      0.00
   -5    2    2     -2.42      0.00
   -5    2    1     -1.22      0.00
   -5    2    0     -0.22      0.00
    5   -2    1      3.64      0.00
    5   -2    2     -5.64      0.00
    5   -2    3      6.94      0.00
    5   -2    4     -1.97      0.00
    5   -2    5     -1.16      0.00
    5   -2    6     -1.57      0.00
    5   -2    7      0.21      0.00
    5   -2    8      3.54      0.00
    5   -2    9     -3.11      0.00
    5   -2   10      0.41      0.00
    5   -2   11      0.29      0.00
    5   -2   12     -0.46      0.00
    5   -2   13      0.49      0.00
    5   -2   14     -0.03      0.00
    5   -2   15     -0.05      0.00
   -5    1   18     -0.14      0.00
   -5    1   17      0.86      0.00
   -5    1   16     -0.36      0.00
   -5    1   15     -1.39      0.00
   -5    1   14      1.85      0.00
   -5    1   13      0.20      0.00
   -5    1   12     -0.76      0.00
   -5    1   11     -0.80      0.00
   -5    1   10     -0.01      0.00
   -5    1    9      2.86      0.00
   -5    1    8     -3.17      0.00
   -5    1    7      1.80      0.00
   -5    1    6     -2.04      0.00
   -5    1    5     -2.07      0.00
   -5    1    4      8.23      0.00
   -5    1    3     -5.51      0.00
   -5    1    2     -4.66      0.00
   -5    1    1      5.10      0.00
   -5    1    0      4.05      0.00
    5   -1    1     -4.36      0.00
    5   -1    2     -0.70      0.00
    5   -1    3     -1.24      0.00
    5   -1    4      2.43      0.00
    5   -1    5      1.84      0.00
    5   -1    6     -1.51      0.00
    5   -1    7     -1.22      0.00
    5   -1    8      0.12      0.00
    5   -1    9      1.68      0.00
    5   -1   10     -0.24      0.00
    5   -1   11     -0.42      0.00
    5   -1   12     -0.85      0.00
    5   -1   13      0.24      0.00
    5   -1   14      0.39      0.00
    5   -1   15      0.07      0.00
   -5    0   19     -0.06      0.00
   -5    0   17     -0.16      0.00
   -5    0   16      0.80      0.00
   -5    0   15     -0.46      0.00
   -5    0   14      0.13      0.00
   -5    0   13      0.90      0.00
   -5    0   12     -2.12      0.00
   -5    0   11      3.47      0.00
   -5    0   10     -4.41      0.00
   -5    0    9      4.89      0.00
   -5    0    8     -1.25      0.00
   -5    0    7     -4.12      0.00
   -5    0    6      3.65      0.00
   -5    0    5     -3.50      0.00
   -5    0    4      8.52      0.00
   -5    0    3     -5.46      0.00
   -5    0    2     -3.89      0.00
   -5    0    1     -0.88      0.00
    5    0    0     10.31      0.00
    5    0    1     -7.09      0.00
    5    0    2      2.51      0.00
    5    0    3     -3.60      0.00
    5    0    4     -0.06      0.00
    5    0    5      2.50      0.00
    5    0    6      0.11      0.00
    5    0    7      1.17      0.00
    5    0    8     -3.83      0.00
    5    0    9      1.82      0.00
    5    0   10      1.15      0.00
    5    0   11      0.01      0.00
    5    0   12     -0.54      0.00
    5    0   13     -0.43      0.00
    5    0   14     -0.08      0.00
   -5   -1   19     -0.29      0.00
   -5   -1   18      0.31      0.00
   -5   -1   17     -0.71      0.00
   -5   -1   16     -1.10      0.00
   -5   -1   15      2.24      0.00
   -5   -1   14      0.18      0.00
   -5   -1   13     -0.45      0.00
   -5   -1   12     -2.89      0.00
   -5   -1   11      3.22      0.00
   -5   -1   10     -0.19      0.00
   -5   -1    9     -1.55      0.00
   -5   -1    8      2.83      0.00
   -5   -1    7     -2.81      0.00
   -5   -1    6      1.05      0.00
   -5   -1    5     -0.26      0.00
   -5   -1    4      2.73      0.00
   -5   -1    3     -5.66      0.00
   -5   -1    2      6.83      0.00
   -5   -1    1     -3.51      0.00
    5    1    0     -2.17      0.00
    5    1    1      1.93      0.00
    5    1    2      2.92      0.00
    5    1    3     -2.38      0.00
    5    1    4     -1.71      0.00
    5    1    5      0.78      0.00
    5    1    6      0.38      0.00
    5    1    7      1.74      0.00
    5    1    8     -2.20      0.00
    5    1    9     -0.64      0.00
    5    1   10      1.01      0.00
    5    1   11      0.24      0.00
    5    1   12     -0.09      0.00
    5    1   13      0.19      0.00
   -5   -2   19     -0.38      0.00
   -5   -2   18      0.32      0.00
   -5   -2   17      1.22      0.00
   -5   -2   16     -2.39      0.00
   -5   -2   15      0.33      0.00
   -5   -2   14      2.30      0.00
   -5   -2   13     -1.45      0.00
   -5   -2   12     -0.39      0.00
   -5   -2   11     -2.17      0.00
   -5   -2   10      4.83      0.00
   -5   -2    9     -4.07      0.00
   -5   -2    8     -1.18      0.00
   -5   -2    7      3.44      0.00
   -5   -2    6     -0.23      0.00
   -5   -2    5      4.48      0.00
   -5   -2    4     -6.55      0.00
   -5   -2    3     -6.32      0.00
   -5   -2    2      9.88      0.00
   -5   -2    1      7.81      0.00
    5    2    0    -14.36      0.00
    5    2    1      0.53      0.00
    5    2    2      5.76      0.00
    5    2    3      0.52      0.00
    5    2    4     -2.07      0.00
    5    2    5     -1.26      0.00
    5    2    6      1.99      0.00
    5    2    7     -0.70      0.00
    5    2    8      0.52      0.00
    5    2    9     -0.68      0.00
    5    2   10      0.32      0.00
    5    2   11      0.05      0.00
    5    2   12     -0.47      0.00
    5    2   13     -0.28      0.00
   -5   -3   19     -0.25      0.00
   -5   -3   18     -0.41      0.00
   -5   -3   17      0.98      0.00
   -5   -3   16      0.73      0.00
   -5   -3   15     -1.36      0.00
   -5   -3   14      1.03      0.00
   -5   -3   13     -1.17      0.00
   -5   -3   12      2.44      0.00
   -5   -3   11     -2.79      0.00
   -5   -3   10      1.39      0.00
   -5   -3    9      0.30      0.00
   -5   -3    8     -3.55      0.00
   -5   -3    7      2.44      0.00
   -5   -3    6     -2.19      0.00
   -5   -3    5     10.42      0.00
   -5   -3    4     -9.41      0.00
   -5   -3    3     -5.32      0.00
   -5   -3    2      4.11      0.00
   -5   -3    1      9.86      0.00
    5    3    0     -6.42      0.00
    5    3    1     -3.93      0.00
    5    3    2      2.57      0.00
    5    3    3      1.80      0.00
    5    3    4     -0.51      0.00
    5    3    5     -2.58      0.00
    5    3    6      2.94      0.00
    5    3    7     -1.42      0.00
    5    3    8     -0.24      0.00
    5    3    9      0.47      0.00
    5    3   10      0.44      0.00
    5    3   11      0.07      0.00
    5    3   12      0.24      0.00
   -5   -4   19     -0.27      0.00
   -5   -4   18      0.27      0.00
   -5   -4   17     -1.17      0.00
   -5   -4   16      0.90      0.00
   -5   -4   15      0.66      0.00
   -5   -4   14     -0.91      0.00
   -5   -4   13     -0.38      0.00
   -5   -4   12      1.26      0.00
   -5   -4   11      1.79      0.00
   -5   -4   10     -4.07      0.00
   -5   -4    9      1.92      0.00
   -5   -4    8      1.44      0.00
   -5   -4    7     -0.31      0.00
   -5   -4    6     -4.09      0.00
   -5   -4    5      5.41      0.00
   -5   -4    4     -2.00      0.00
   -5   -4    3     -2.67      0.00
   -5   -4    2      1.25      0.00
   -5   -4    1      0.56      0.00
    5    4    0      0.87      0.00
    5    4    1     -0.91      0.00
    5    4    2      0.94      0.00
    5    4    3     -0.11      0.00
    5    4    4     -0.37      0.00
    5    4    5     -0.93      0.00
    5    4    6      0.99      0.00
    5    4    7      0.46      0.00
    5    4    8     -0.95      0.00
    5    4    9     -0.21      0.00
    5    4   10      0.21      0.00
    5    4   11      0.19      0.00
   -5   -5   20      0.03      0.00
   -5   -5   19     -0.39      0.00
   -5   -5   18      0.74      0.00
   -5   -5   17     -0.15      0.00
   -5   -5   16     -1.03      0.00
   -5   -5   15      1.06      0.00
   -5   -5   14     -1.00      0.00
   -5   -5   13      0.88      0.00
   -5   -5   12     -1.48      0.00
   -5   -5   11      3.44      0.00
   -5   -5   10     -3.76      0.00
   -5   -5    9     -0.73      0.00
   -5   -5    8      5.50      0.00
   -5   -5    7     -2.63      0.00
   -5   -5    6      0.59      0.00
   -5   -5    5     -2.99      0.00
   -5   -5    4      2.28      0.00
   -5   -5    3     -0.38      0.00
   -5   -5    2      2.00      0.00
   -5   -5    1     -3.33      0.00
    5    5    0      0.44      0.00
    5    5    1      0.37      0.00
    5    5    2      0.72      0.00
    5    5    3      0.37      0.00
    5    5    4     -1.15      0.00
    5    5    5      1.03      0.00
    5    5    6     -0.98      0.00
    5    5    7      0.54      0.00
    5    5    8      0.31      0.00
    5    5    9     -0.20      0.00
    5    5   10     -0.65      0.00
   -5   -6   20     -0.21      0.00
   -5   -6   19     -0.26      0.00
   -5   -6   18     -0.18      0.00
   -5   -6   17      0.84      0.00
   -5   -6   16     -0.59      0.00
   -5   -6   15      0.60      0.00
   -5   -6   14     -0.67      0.00
   -5   -6   13      0.83      0.00
   -5   -6   12     -0.94      0.00
   -5   -6   11      0.69      0.00
   -5   -6   10     -0.44      0.00
   -5   -6    9     -2.42      0.00
   -5   -6    8      4.64      0.00
   -5   -6    7     -2.99      0.00
   -5   -6    6      1.93      0.00
   -5   -6    5     -1.98      0.00
   -5   -6    4      1.36      0.00
   -5   -6    3     -0.30      0.00
   -5   -6    2      0.71      0.00
   -5   -6    1      0.15      0.00
    5    6    0     -1.42      0.00
    5    6    1      0.95      0.00
    5    6    2     -0.82      0.00
    5    6    3     -0.18      0.00
    5    6    4      0.21      0.00
    5    6    5      1.11      0.00
    5    6    6     -0.73      0.00
    5    6    7     -0.09      0.00
    5    6    8     -0.01      0.00
    5    6    9      0.21      0.00
   -5   -7   19     -0.12      0.00
   -5   -7   18     -0.21      0.00
   -5   -7   17      0.00      0.00
   -5   -7   16     -0.20      0.00
   -5   -7   15      0.40      0.00
   -5   -7   14      0.79      0.00
   -5   -7   13     -1.02      0.00
   -5   -7   12      0.67      0.00
   -5   -7   11     -1.54      0.00
   -5   -7   10      1.38      0.00
   -5   -7    9     -0.25      0.00
   -5   -7    8     -0.22      0.00
   -5   -7    7     -0.01      0.00
   -5   -7    6     -1.12      0.00
   -5   -7    5      1.12      0.00
   -5   -7    4      0.09      0.00
   -5   -7    3      1.27      0.00
   -5   -7    2     -2.96      0.00
   -5   -7    1      2.55      0.00
    5    7    0     -0.72      0.00
    5    7    1      0.67      0.00
    5    7    2     -0.17      0.00
    5    7    3     -1.85      0.00
    5    7    4      1.04      0.00
    5    7    5      0.60      0.00
    5    7    6     -0.33      0.00
    5    7    7      0.14      0.00
    5    7    8      0.11      0.00
   -5   -8   19     -0.23      0.00
   -5   -8   18      0.33      0.00
   -5   -8   17     -0.27      0.00
   -5   -8   16      0.28      0.00
   -5   -8   15     -0.82      0.00
   -5   -8   14      1.77      0.00
   -5   -8   13     -1.13      0.00
   -5   -8   12      0.54      0.00
   -5   -8   11     -1.25      0.00
   -5   -8   10     -0.18      0.00
   -5   -8    9      2.70      0.00
   -5   -8    8     -2.59      0.00
   -5   -8    7      1.02      0.00
   -5   -8    6     -1.00      0.00
   -5   -8    5      1.18      0.00
   -5   -8    4     -1.72      0.00
   -5   -8    3      2.10      0.00
   -5   -8    2     -0.87      0.00
   -5   -8    1     -0.50      0.00
    5    8    0      0.38      0.00
    5    8    1      0.56      0.00
    5    8    2     -0.03      0.00
    5    8    3     -1.07      0.00
    5    8    4      0.62      0.00
    5    8    5     -0.07      0.00
    5    8    6      0.07      0.00
   -5   -9   18      0.03      0.00
   -5   -9   17     -0.42      0.00
   -5   -9   16      0.81      0.00
   -5   -9   15     -0.75      0.00
   -5   -9   14      0.48      0.00
   -5   -9   13      0.37      0.00
   -5   -9   12     -0.70      0.00
   -5   -9   11      0.83      0.00
   -5   -9   10     -1.06      0.00
   -5   -9    9      2.05      0.00
   -5   -9    8     -1.63      0.00
   -5   -9    7     -0.84      0.00
   -5   -9    6      1.14      0.00
   -5   -9    5      0.79      0.00
   -5   -9    4     -1.28      0.00
   -5   -9    3     -1.48      0.00
   -5   -9    2      2.71      0.00
   -5   -9    1     -0.57      0.00
    5    9    0     -0.87      0.00
    5    9    1      1.19      0.00
    5    9    2     -0.75      0.00
    5    9    3     -0.22      0.00
    5    9    4      0.66      0.00
   -5  -10   18     -0.33      0.00
   -5  -10   17     -0.32      0.00
   -5  -10   16      0.04      0.00
   -5  -10   15      0.42      0.00
   -5  -10   14     -1.03      0.00
   -5  -10   13      1.27      0.00
   -5  -10   12     -1.25      0.00
   -5  -10   11      0.54      0.00
   -5  -10   10      0.44      0.00
   -5  -10    9      0.69      0.00
   -5  -10    8     -0.06      0.00
   -5  -10    7     -1.67      0.00
   -5  -10    6      1.30      0.00
   -5  -10    5     -0.18      0.00
   -5  -10    4      0.40      0.00
   -5  -10    3     -1.68      0.00
   -5  -10    2      0.92      0.00
   -5  -10    1      0.27      0.00
    5   10    0     -0.72      0.00
    5   10    1      0.82      0.00
    5   10    2     -0.07      0.00
    5   10    3     -0.21      0.00
   -5  -11   16     -0.36      0.00
   -5  -11   15      0.71      0.00
   -5  -11   14     -1.01      0.00
   -5  -11   13      0.56      0.00
   -5  -11   12      0.27      0.00
   -5  -11   11     -1.53      0.00
   -5  -11   10      1.13      0.00
   -5  -11    9     -0.06      0.00
   -5  -11    8      0.17      0.00
   -5  -11    7     -0.25      0.00
   -5  -11    6      0.95      0.00
   -5  -11    5     -0.65      0.00
   -5  -11    4     -0.22      0.00
   -5  -11    3      0.40      0.00
   -5  -11    2      0.26      0.00
   -5  -11    1     -0.86      0.00
    5   11    0      0.17      0.00
    5   11    1     -0.17      0.00
   -5  -12   15      0.25      0.00
   -5  -12   14     -0.03      0.00
   -5  -12   13     -0.52      0.00
   -5  -12   12      1.14      0.00
   -5  -12   11     -1.36      0.00
   -5  -12   10      0.41      0.00
   -5  -12    9     -0.01      0.00
   -5  -12    8     -0.67      0.00
   -5  -12    7      0.33      0.00
   -5  -12    6      0.60      0.00
   -5  -12    5     -0.11      0.00
   -5  -12    4     -0.43      0.00
   -5  -12    3      0.51      0.00
   -5  -12    2      0.41      0.00
   -5  -12    1     -0.75      0.00
   -5  -13   13     -0.05      0.00
   -5  -13   12     -0.17      0.00
   -5  -13   11      0.27      0.00
   -5  -13   10     -0.29      0.00
   -5  -13    9      0.29      0.00
   -5  -13    8     -0.67      0.00
   -5  -13    7      0.15      0.00
   -5  -13    6     -0.01      0.00
    6  -16    6     -0.21      0.00
    6  -16    7      0.23      0.00
    6  -15    1      0.91      0.00
    6  -15    2      0.18      0.00
    6  -15    3     -0.45      0.00
    6  -15    4      0.43      0.00
    6  -15    5     -0.31      0.00
    6  -15    6      0.10      0.00
    6  -15    7     -0.08      0.00
    6  -15    8      0.41      0.00
    6  -15    9     -0.38      0.00
    6  -15   10     -0.18      0.00
   -6   14    3      0.55      0.00
   -6   14    2      0.36      0.00
   -6   14    1     -0.19      0.00
   -6   14    0     -0.52      0.00
    6  -14    1      0.09      0.00
    6  -14    2      0.28      0.00
    6  -14    3     -0.44      0.00
    6  -14    4      0.48      0.00
    6  -14    5     -0.14      0.00
    6  -14    6     -0.04      0.00
    6  -14    7     -0.11      0.00
    6  -14    8      0.60      0.00
    6  -14    9     -0.38      0.00
    6  -14   10     -0.55      0.00
    6  -14   11      0.52      0.00
    6  -14   12      0.24      0.00
   -6   13    5     -0.22      0.00
   -6   13    4     -0.16      0.00
   -6   13    3     -0.52      0.00
   -6   13    2      0.43      0.00
   -6   13    1      0.38      0.00
   -6   13    0      0.12      0.00
    6  -13    1     -0.36      0.00
    6  -13    2     -0.06      0.00
    6  -13    3     -0.18      0.00
    6  -13    4     -0.44      0.00
    6  -13    5      1.07      0.00
    6  -13    6     -0.39      0.00
    6  -13    7      0.01      0.00
    6  -13    8      0.12      0.00
    6  -13    9     -0.04      0.00
    6  -13   10     -0.02      0.00
    6  -13   11     -0.41      0.00
    6  -13   12      0.26      0.00
    6  -13   13      0.00      0.00
   -6   12    7     -0.62      0.00
   -6   12    6      1.25      0.00
   -6   12    5     -0.94      0.00
   -6   12    4      0.81      0.00
   -6   12    3     -1.30      0.00
   -6   12    2      0.53      0.00
   -6   12    1      0.38      0.00
   -6   12    0      0.08      0.00
    6  -12    1      0.82      0.00
    6  -12    2     -1.49      0.00
    6  -12    3      0.75      0.00
    6  -12    4     -0.74      0.00
    6  -12    5      0.52      0.00
    6  -12    6     -0.26      0.00
    6  -12    7      0.20      0.00
    6  -12    8     -0.14      0.00
    6  -12    9      0.02      0.00
    6  -12   10      0.38      0.00
    6  -12   11      0.00      0.00
    6  -12   12     -0.34      0.00
    6  -12   13     -0.38      0.00
    6  -12   14      1.05      0.00
    6  -12   15     -0.54      0.00
   -6   11    9      1.22      0.00
   -6   11    8     -0.22      0.00
   -6   11    7     -0.94      0.00
   -6   11    6      1.02      0.00
   -6   11    5     -1.11      0.00
   -6   11    4      0.56      0.00
   -6   11    3      0.28      0.00
   -6   11    2     -0.30      0.00
   -6   11    1      0.23      0.00
   -6   11    0     -1.36      0.00
    6  -11    1      1.98      0.00
    6  -11    2     -0.72      0.00
    6  -11    3     -0.65      0.00
    6  -11    4      1.01      0.00
    6  -11    5     -0.18      0.00
    6  -11    6     -0.49      0.00
    6  -11    7      0.34      0.00
    6  -11    8     -0.44      0.00
    6  -11    9      0.29      0.00
    6  -11   10     -0.11      0.00
    6  -11   11      0.12      0.00
    6  -11   12      0.51      0.00
    6  -11   13     -1.15      0.00
    6  -11   14      0.98      0.00
   -6   10   10     -0.13      0.00
   -6   10    9      0.40      0.00
   -6   10    8     -0.24      0.00
   -6   10    7      0.92      0.00
   -6   10    6     -1.08      0.00
   -6   10    5      0.83      0.00
   -6   10    4     -1.33      0.00
   -6   10    3      1.51      0.00
   -6   10    2     -0.08      0.00
   -6   10    1     -0.17      0.00
   -6   10    0     -0.08      0.00
    6  -10    1     -1.34      0.00
    6  -10    2      1.75      0.00
    6  -10    3     -1.39      0.00
    6  -10    4      0.64      0.00
    6  -10    5      0.58      0.00
    6  -10    6     -0.30      0.00
    6  -10    7     -0.12      0.00
    6  -10    8      0.04      0.00
    6  -10    9      0.05      0.00
    6  -10   10     -0.04      0.00
    6  -10   11     -0.19      0.00
    6  -10   12      0.09      0.00
    6  -10   13      0.10      0.00
    6  -10   14      0.05      0.00
    6  -10   15      0.30      0.00
    6  -10   16     -0.57      0.00
   -6    9   11     -0.87      0.00
   -6    9   10      0.11      0.00
   -6    9    9      0.96      0.00
   -6    9    8     -1.82      0.00
   -6    9    7      2.57      0.00
   -6    9    6     -2.87      0.00
   -6    9    5      1.04      0.00
   -6    9    4      0.60      0.00
   -6    9    3     -0.05      0.00
   -6    9    2      0.84      0.00
   -6    9    1     -2.45      0.00
   -6    9    0      2.63      0.00
    6   -9    1     -1.59      0.00
    6   -9    2     -0.12      0.00
    6   -9    3      0.58      0.00
    6   -9    4     -0.53      0.00
    6   -9    5     -0.28      0.00
    6   -9    6      1.35      0.00
    6   -9    7     -1.09      0.00
    6   -9    8      0.39      0.00
    6   -9    9      0.53      0.00
    6   -9   10     -0.84      0.00
    6   -9   11      0.79      0.00
    6   -9   12     -1.13      0.00
    6   -9   13      0.59      0.00
    6   -9   14     -0.09      0.00
    6   -9   15      0.36      0.00
    6   -9   16      0.11      0.00
   -6    8   13      0.29      0.00
   -6    8   12      0.42      0.00
   -6    8   11     -0.16      0.00
   -6    8   10     -1.20      0.00
   -6    8    9      1.64      0.00
   -6    8    8      0.15      0.00
   -6    8    7      0.03      0.00
   -6    8    6     -0.39      0.00
   -6    8    5     -2.38      0.00
   -6    8    4      2.80      0.00
   -6    8    3     -0.74      0.00
   -6    8    2      0.09      0.00
   -6    8    1      0.08      0.00
   -6    8    0     -0.62      0.00
    6   -8    1      1.89      0.00
    6   -8    2     -2.00      0.00
    6   -8    3      0.63      0.00
    6   -8    4      0.84      0.00
    6   -8    5     -1.73      0.00
    6   -8    6      1.21      0.00
    6   -8    7     -0.25      0.00
    6   -8    8     -0.80      0.00
    6   -8    9      1.19      0.00
    6   -8   10     -0.79      0.00
    6   -8   11      0.24      0.00
    6   -8   12     -0.04      0.00
    6   -8   13     -0.22      0.00
    6   -8   14      0.02      0.00
    6   -8   15     -0.09      0.00
    6   -8   16      0.43      0.00
   -6    7   14     -0.17      0.00
   -6    7   13      0.33      0.00
   -6    7   12     -0.96      0.00
   -6    7   11      0.19      0.00
   -6    7   10      0.13      0.00
   -6    7    9     -1.49      0.00
   -6    7    8      4.03      0.00
   -6    7    7     -2.84      0.00
   -6    7    6      1.72      0.00
   -6    7    5     -1.71      0.00
   -6    7    4      0.62      0.00
   -6    7    3      1.48      0.00
   -6    7    2     -4.70      0.00
   -6    7    1      3.84      0.00
   -6    7    0     -0.81      0.00
    6   -7    1      0.60      0.00
    6   -7    2     -0.25      0.00
    6   -7    3     -0.29      0.00
    6   -7    4     -0.16      0.00
    6   -7    5      1.02      0.00
    6   -7    6     -1.07      0.00
    6   -7    7      0.92      0.00
    6   -7    8     -0.07      0.00
    6   -7    9     -0.77      0.00
    6   -7   10      1.08      0.00
    6   -7   11     -1.46      0.00
    6   -7   12      0.96      0.00
    6   -7   13     -0.10      0.00
    6   -7   14     -0.14      0.00
    6   -7   15     -0.22      0.00
    6   -7   16      0.14      0.00
   -6    6   15      0.11      0.00
   -6    6   14     -0.34      0.00
   -6    6   13      0.87      0.00
   -6    6   12     -0.41      0.00
   -6    6   11     -1.54      0.00
   -6    6   10      2.17      0.00
   -6    6    9     -2.40      0.00
   -6    6    8      2.05      0.00
   -6    6    7     -1.03      0.00
   -6    6    6     -0.44      0.00
   -6    6    5      2.03      0.00
   -6    6    4     -1.82      0.00
   -6    6    3      1.58      0.00
   -6    6    2     -1.95      0.00
   -6    6    1     -0.17      0.00
   -6    6    0      2.58      0.00
    6   -6    1     -1.85      0.00
    6   -6    2     -0.57      0.00
    6   -6    3      1.64      0.00
    6   -6    4     -2.62      0.00
    6   -6    5      2.75      0.00
    6   -6    6     -1.05      0.00
    6   -6    7     -1.03      0.00
    6   -6    8      2.22      0.00
    6   -6    9     -1.43      0.00
    6   -6   10      0.83      0.00
    6   -6   11     -0.55      0.00
    6   -6   12      0.08      0.00
    6   -6   13      0.41      0.00
    6   -6   14     -0.09      0.00
    6   -6   15      0.00      0.00
   -6    5   16      0.14      0.00
   -6    5   15      0.17      0.00
   -6    5   14      0.02      0.00
   -6    5   13     -0.21      0.00
   -6    5   12      0.72      0.00
   -6    5   11     -0.69      0.00
   -6    5   10      0.05      0.00
   -6    5    9      1.67      0.00
   -6    5    8     -2.63      0.00
   -6    5    7      1.66      0.00
   -6    5    6     -1.04      0.00
   -6    5    5      1.17      0.00
   -6    5    4      0.21      0.00
   -6    5    3     -4.09      0.00
   -6    5    2      4.62      0.00
   -6    5    1     -0.36      0.00
   -6    5    0      0.25      0.00
    6   -5    1     -1.47      0.00
    6   -5    2      0.60      0.00
    6   -5    3     -1.28      0.00
    6   -5    4     -0.07      0.00
    6   -5    5      0.71      0.00
    6   -5    6      1.59      0.00
    6   -5    7     -2.10      0.00
    6   -5    8     -0.11      0.00
    6   -5    9      1.76      0.00
    6   -5   10     -1.68      0.00
    6   -5   11      0.39      0.00
    6   -5   12      0.14      0.00
    6   -5   13      0.19      0.00
    6   -5   14     -0.06      0.00
    6   -5   15     -0.03      0.00
   -6    4   16      0.24      0.00
   -6    4   15     -0.08      0.00
   -6    4   14      0.24      0.00
   -6    4   13     -0.47      0.00
   -6    4   12     -0.45      0.00
   -6    4   11      1.61      0.00
   -6    4   10     -2.25      0.00
   -6    4    9      4.09      0.00
   -6    4    8     -4.08      0.00
   -6    4    7     -0.11      0.00
   -6    4    6      3.18      0.00
   -6    4    5     -1.03      0.00
   -6    4    4      0.01      0.00
   -6    4    3     -4.00      0.00
   -6    4    2      2.29      0.00
   -6    4    1      4.52      0.00
   -6    4    0     -1.73      0.00
    6   -4    1     -5.35      0.00
    6   -4    2      7.07      0.00
    6   -4    3     -4.33      0.00
    6   -4    4      0.86      0.00
    6   -4    5     -1.31      0.00
    6   -4    6      2.02      0.00
    6   -4    7      1.49      0.00
    6   -4    8     -4.00      0.00
    6   -4    9      2.77      0.00
    6   -4   10     -0.83      0.00
    6   -4   11     -0.45      0.00
    6   -4   12      0.09      0.00
    6   -4   13      0.25      0.00
    6   -4   14      0.06      0.00
    6   -4   15     -0.33      0.00
   -6    3   16      0.08      0.00
   -6    3   15      0.31      0.00
   -6    3   14     -0.28      0.00
   -6    3   13      0.39      0.00
   -6    3   12     -1.23      0.00
   -6    3   11      0.17      0.00
   -6    3   10     -0.64      0.00
   -6    3    9      2.75      0.00
   -6    3    8     -0.23      0.00
   -6    3    7     -3.86      0.00
   -6    3    6      2.64      0.00
   -6    3    5      2.37      0.00
   -6    3    4     -4.16      0.00
   -6    3    3      0.70      0.00
   -6    3    2      0.43      0.00
   -6    3    1      2.40      0.00
   -6    3    0      0.19      0.00
    6   -3    1     -5.77      0.00
    6   -3    2      3.39      0.00
    6   -3    3      1.35      0.00
    6   -3    4      0.15      0.00
    6   -3    5     -1.66      0.00
    6   -3    6     -0.88      0.00
    6   -3    7      3.12      0.00
    6   -3    8     -1.22      0.00
    6   -3    9     -0.73      0.00
    6   -3   10      0.19      0.00
    6   -3   11      0.15      0.00
    6   -3   12     -0.10      0.00
    6   -3   13     -0.07      0.00
    6   -3   14      0.25      0.00
    6   -3   15     -0.17      0.00
   -6    2   17      0.49      0.00
   -6    2   16     -0.27      0.00
   -6    2   15      0.18      0.00
   -6    2   14     -0.54      0.00
   -6    2   13      0.69      0.00
   -6    2   12      1.16      0.00
   -6    2   11     -3.57      0.00
   -6    2   10      1.96      0.00
   -6    2    9     -1.35      0.00
   -6    2    8      2.69      0.00
   -6    2    7     -0.42      0.00
   -6    2    6     -2.03      0.00
   -6    2    5      2.70      0.00
   -6    2    4     -3.44      0.00
   -6    2    3      0.27      0.00
   -6    2    2      2.42      0.00
   -6    2    1      0.86      0.00
   -6    2    0     -3.48      0.00
    6   -2    1      3.97      0.00
    6   -2    2     -5.55      0.00
    6   -2    3      2.83      0.00
    6   -2    4      1.19      0.00
    6   -2    5      0.61      0.00
    6   -2    6     -1.55      0.00
    6   -2    7     -1.82      0.00
    6   -2    8      3.34      0.00
    6   -2    9     -1.09      0.00
    6   -2   10     -0.25      0.00
    6   -2   11     -0.04      0.00
    6   -2   12      0.15      0.00
    6   -2   13     -0.08      0.00
    6   -2   14      0.28      0.00
    6   -2   15     -0.01      0.00
   -6    1   18     -0.59      0.00
   -6    1   17      0.96      0.00
   -6    1   16      0.52      0.00
   -6    1   15     -0.85      0.00
   -6    1   14     -0.52      0.00
   -6    1   13     -0.16      0.00
   -6    1   12      3.27      0.00
   -6    1   11     -3.56      0.00
   -6    1   10      1.36      0.00
   -6    1    9     -0.83      0.00
   -6    1    8     -0.07      0.00
   -6    1    7      2.69      0.00
   -6    1    6     -0.89      0.00
   -6    1    5     -2.03      0.00
   -6    1    4      0.22      0.00
   -6    1    3      2.07      0.00
   -6    1    2     -1.93      0.00
   -6    1    1      1.68      0.00
   -6    1    0     -4.72      0.00
    6   -1    1      6.37      0.00
    6   -1    2     -3.17      0.00
    6   -1    3     -0.18      0.00
    6   -1    4     -0.89      0.00
    6   -1    5      1.57      0.00
    6   -1    6      2.03      0.00
    6   -1    7     -3.80      0.00
    6   -1    8      1.43      0.00
    6   -1    9     -0.09      0.00
    6   -1   10      0.24      0.00
    6   -1   11      0.39      0.00
    6   -1   12     -0.47      0.00
    6   -1   13     -0.18      0.00
    6   -1   14      0.43      0.00
   -6    0   18     -0.58      0.00
   -6    0   17     -0.54      0.00
   -6    0   16      1.45      0.00
   -6    0   15     -0.80      0.00
   -6    0   14     -0.68      0.00
   -6    0   13      0.15      0.00
   -6    0   12      0.58      0.00
   -6    0   11      1.27      0.00
   -6    0   10     -3.08      0.00
   -6    0    9      1.67      0.00
   -6    0    8      0.33      0.00
   -6    0    7      0.37      0.00
   -6    0    6      1.44      0.00
   -6    0    5     -4.50      0.00
   -6    0    4     -0.18      0.00
   -6    0    3      6.66      0.00
   -6    0    2     -1.44      0.00
   -6    0    1     -4.82      0.00
    6    0    0      2.09      0.00
    6    0    1      0.34      0.00
    6    0    2      0.82      0.00
    6    0    3      0.45      0.00
    6    0    4     -2.40      0.00
    6    0    5     -0.38      0.00
    6    0    6      1.52      0.00
    6    0    7      0.96      0.00
    6    0    8     -1.07      0.00
    6    0    9     -0.40      0.00
    6    0   10     -0.65      0.00
    6    0   11      1.24      0.00
    6    0   12      0.04      0.00
    6    0   13     -0.37      0.00
   -6   -1   19      0.21      0.00
   -6   -1   18      0.74      0.00
   -6   -1   17     -0.98      0.00
   -6   -1   16     -0.17      0.00
   -6   -1   15     -0.13      0.00
   -6   -1   14     -0.37      0.00
   -6   -1   13      2.58      0.00
   -6   -1   12     -3.61      0.00
   -6   -1   11      3.25      0.00
   -6   -1   10     -2.41      0.00
   -6   -1    9     -0.17      0.00
   -6   -1    8      2.05      0.00
   -6   -1    7     -1.42      0.00
   -6   -1    6      2.18      0.00
   -6   -1    5     -4.07      0.00
   -6   -1    4      0.76      0.00
   -6   -1    3      0.61      0.00
   -6   -1    2      4.65      0.00
   -6   -1    1     -5.88      0.00
    6    1    0      3.38      0.00
    6    1    1     -2.69      0.00
    6    1    2      1.86      0.00
    6    1    3      1.30      0.00
    6    1    4     -1.38      0.00
    6    1    5      0.07      0.00
    6    1    6     -2.40      0.00
    6    1    7      3.14      0.00
    6    1    8      0.05      0.00
    6    1    9     -0.70      0.00
    6    1   10     -1.11      0.00
    6    1   11      0.28      0.00
    6    1   12      0.44      0.00
    6    1   13      0.47      0.00
   -6   -2   19     -0.18      0.00
   -6   -2   18     -0.18      0.00
   -6   -2   17      1.26      0.00
   -6   -2   16     -0.90      0.00
   -6   -2   15     -1.02      0.00
   -6   -2   14     -0.36      0.00
   -6   -2   13      3.39      0.00
   -6   -2   12     -2.00      0.00
   -6   -2   11     -1.10      0.00
   -6   -2   10      1.88      0.00
   -6   -2    9     -0.87      0.00
   -6   -2    8      0.58      0.00
   -6   -2    7     -2.34      0.00
   -6   -2    6      1.99      0.00
   -6   -2    5     -1.64      0.00
   -6   -2    4      5.42      0.00
   -6   -2    3     -6.30      0.00
   -6   -2    2     -0.80      0.00
   -6   -2    1      3.89      0.00
    6    2    0      2.08      0.00
    6    2    1     -5.11      0.00
    6    2    2      0.14      0.00
    6    2    3      2.47      0.00
    6    2    4      0.03      0.00
    6    2    5      0.51      0.00
    6    2    6     -2.23      0.00
    6    2    7      0.61      0.00
    6    2    8      1.38      0.00
    6    2    9     -0.50      0.00
    6    2   10     -0.40      0.00
    6    2   11      0.18      0.00
    6    2   12     -0.08      0.00
   -6   -3   19      0.96      0.00
   -6   -3   18     -1.69      0.00
   -6   -3   17      0.79      0.00
   -6   -3   16      0.66      0.00
   -6   -3   15     -1.03      0.00
   -6   -3   14      0.06      0.00
   -6   -3   13     -0.05      0.00
   -6   -3   12      2.14      0.00
   -6   -3   11     -3.32      0.00
   -6   -3   10      2.35      0.00
   -6   -3    9      0.91      0.00
   -6   -3    8     -1.38      0.00
   -6   -3    7     -0.62      0.00
   -6   -3    6     -2.45      0.00
   -6   -3    5      1.75      0.00
   -6   -3    4      6.29      0.00
   -6   -3    3     -2.27      0.00
   -6   -3    2     -9.39      0.00
   -6   -3    1      6.23      0.00
    6    3    0      3.34      0.00
    6    3    1     -2.32      0.00
    6    3    2     -2.94      0.00
    6    3    3      1.13      0.00
    6    3    4      2.15      0.00
    6    3    5     -1.20      0.00
    6    3    6      0.17      0.00
    6    3    7     -0.27      0.00
    6    3    8      0.25      0.00
    6    3    9     -0.30      0.00
    6    3   10     -0.27      0.00
    6    3   11      0.28      0.00
   -6   -4   19      1.00      0.00
   -6   -4   18     -0.12      0.00
   -6   -4   17     -0.94      0.00
   -6   -4   16      0.85      0.00
   -6   -4   15     -0.70      0.00
   -6   -4   14      1.21      0.00
   -6   -4   13     -2.50      0.00
   -6   -4   12      1.93      0.00
   -6   -4   11     -0.40      0.00
   -6   -4   10      0.12      0.00
   -6   -4    9      1.10      0.00
   -6   -4    8     -2.39      0.00
   -6   -4    7      4.01      0.00
   -6   -4    6     -5.15      0.00
   -6   -4    5      1.09      0.00
   -6   -4    4      2.58      0.00
   -6   -4    3      2.55      0.00
   -6   -4    2     -6.00      0.00
   -6   -4    1      1.44      0.00
    6    4    0      1.02      0.00
    6    4    1      0.31      0.00
    6    4    2     -0.68      0.00
    6    4    3     -0.71      0.00
    6    4    4      2.16      0.00
    6    4    5     -1.78      0.00
    6    4    6      0.16      0.00
    6    4    7      0.63      0.00
    6    4    8      0.13      0.00
    6    4    9     -0.43      0.00
    6    4   10     -0.08      0.00
   -6   -5   19     -0.23      0.00
   -6   -5   18      0.64      0.00
   -6   -5   17     -0.46      0.00
   -6   -5   16      0.35      0.00
   -6   -5   15     -0.43      0.00
   -6   -5   14      0.68      0.00
   -6   -5   13     -0.74      0.00
   -6   -5   12     -1.54      0.00
   -6   -5   11      2.67      0.00
   -6   -5   10     -0.32      0.00
   -6   -5    9     -1.18      0.00
   -6   -5    8     -1.71      0.00
   -6   -5    7      4.01      0.00
   -6   -5    6     -0.89      0.00
   -6   -5    5     -1.34      0.00
   -6   -5    4     -0.12      0.00
   -6   -5    3      0.50      0.00
   -6   -5    2      1.33      0.00
   -6   -5    1     -1.12      0.00
    6    5    0      0.31      0.00
    6    5    1     -1.12      0.00
    6    5    2      0.20      0.00
    6    5    3      0.55      0.00
    6    5    4      0.61      0.00
    6    5    5     -0.66      0.00
    6    5    6     -0.04      0.00
    6    5    7     -0.28      0.00
    6    5    8      0.52      0.00
    6    5    9      0.08      0.00
   -6   -6   19     -0.06      0.00
   -6   -6   18     -0.27      0.00
   -6   -6   17      0.32      0.00
   -6   -6   16     -0.45      0.00
   -6   -6   15      0.42      0.00
   -6   -6   14     -0.99      0.00
   -6   -6   13      2.02      0.00
   -6   -6   12     -2.84      0.00
   -6   -6   11      2.12      0.00
   -6   -6   10      1.30      0.00
   -6   -6    9     -3.44      0.00
   -6   -6    8      0.72      0.00
   -6   -6    7      0.19      0.00
   -6   -6    6      2.02      0.00
   -6   -6    5     -1.83      0.00
   -6   -6    4      0.66      0.00
   -6   -6    3     -2.08      0.00
   -6   -6    2      2.82      0.00
   -6   -6    1     -0.70      0.00
    6    6    0      0.15      0.00
    6    6    1     -0.02      0.00
    6    6    2     -0.78      0.00
    6    6    3      0.70      0.00
    6    6    4     -0.45      0.00
    6    6    5     -0.06      0.00
    6    6    6      0.41      0.00
    6    6    7     -0.01      0.00
    6    6    8     -0.44      0.00
   -6   -7   19      0.21      0.00
   -6   -7   18     -0.48      0.00
   -6   -7   17      0.87      0.00
   -6   -7   16     -0.88      0.00
   -6   -7   15      0.48      0.00
   -6   -7   14     -1.12      0.00
   -6   -7   13      1.57      0.00
   -6   -7   12     -0.60      0.00
   -6   -7   11     -0.44      0.00
   -6   -7   10      2.15      0.00
   -6   -7    9     -3.09      0.00
   -6   -7    8      1.59      0.00
   -6   -7    7     -0.30      0.00
   -6   -7    6      0.93      0.00
   -6   -7    5     -1.71      0.00
   -6   -7    4      0.45      0.00
   -6   -7    3      0.44      0.00
   -6   -7    2     -0.69      0.00
   -6   -7    1      0.57      0.00
    6    7    0     -0.42      0.00
    6    7    1      0.16      0.00
    6    7    2      0.78      0.00
    6    7    3      0.03      0.00
    6    7    4     -0.87      0.00
    6    7    5      0.25      0.00
    6    7    6     -0.36      0.00
    6    7    7      0.62      0.00
   -6   -8   19     -0.01      0.00
   -6   -8   18     -0.49      0.00
   -6   -8   17      0.59      0.00
   -6   -8   16      0.01      0.00
   -6   -8   15     -0.56      0.00
   -6   -8   14      0.47      0.00
   -6   -8   13     -0.51      0.00
   -6   -8   12      1.61      0.00
   -6   -8   11     -1.41      0.00
   -6   -8   10      0.66      0.00
   -6   -8    9     -0.78      0.00
   -6   -8    8      0.20      0.00
   -6   -8    7      0.81      0.00
   -6   -8    6     -0.32      0.00
   -6   -8    5      0.39      0.00
   -6   -8    4     -1.96      0.00
   -6   -8    3      2.48      0.00
   -6   -8    2     -1.29      0.00
   -6   -8    1      0.05      0.00
    6    8    0      0.04      0.00
    6    8    1     -0.98      0.00
    6    8    2      1.35      0.00
    6    8    3      0.11      0.00
    6    8    4     -0.65      0.00
   -6   -9   18      0.12      0.00
   -6   -9   17     -0.29      0.00
   -6   -9   16      0.59      0.00
   -6   -9   15     -1.18      0.00
   -6   -9   14      0.94      0.00
   -6   -9   13     -0.78      0.00
   -6   -9   12      0.91      0.00
   -6   -9   11      0.02      0.00
   -6   -9   10     -1.02      0.00
   -6   -9    9      1.13      0.00
   -6   -9    8     -0.19      0.00
   -6   -9    7      0.24      0.00
   -6   -9    6     -1.71      0.00
   -6   -9    5      2.18      0.00
   -6   -9    4     -0.66      0.00
   -6   -9    3     -0.22      0.00
   -6   -9    2     -0.45      0.00
   -6   -9    1      0.78      0.00
    6    9    0     -0.10      0.00
    6    9    1     -0.61      0.00
    6    9    2      0.43      0.00
    6    9    3     -0.06      0.00
   -6  -10   16      0.25      0.00
   -6  -10   15     -0.36      0.00
   -6  -10   14     -0.28      0.00
   -6  -10   13      0.40      0.00
   -6  -10   12     -0.85      0.00
   -6  -10   11      0.95      0.00
   -6  -10   10     -1.45      0.00
   -6  -10    9      0.98      0.00
   -6  -10    8      1.05      0.00
   -6  -10    7     -0.42      0.00
   -6  -10    6     -1.32      0.00
   -6  -10    5      0.51      0.00
   -6  -10    4      1.47      0.00
   -6  -10    3     -0.89      0.00
   -6  -10    2     -1.00      0.00
   -6  -10    1      1.13      0.00
    6   10    0     -0.47      0.00
    6   10    1      0.00      0.00
   -6  -11   16     -0.32      0.00
   -6  -11   15      0.80      0.00
   -6  -11   14     -0.80      0.00
   -6  -11   13      0.60      0.00
   -6  -11   12     -0.55      0.00
   -6  -11   11      0.36      0.00
   -6  -11   10     -0.81      0.00
   -6  -11    9     -0.10      0.00
   -6  -11    8      1.18      0.00
   -6  -11    7     -0.86      0.00
   -6  -11    6      0.22      0.00
   -6  -11    5     -0.16      0.00
   -6  -11    4      0.53      0.00
   -6  -11    3     -0.23      0.00
   -6  -11    2      0.00      0.00
   -6  -11    1      0.36      0.00
   -6  -12   14     -0.08      0.00
   -6  -12   13     -0.44      0.00
   -6  -12   12      0.89      0.00
   -6  -12   11     -0.18      0.00
   -6  -12   10     -0.44      0.00
   -6  -12    9     -0.02      0.00
   -6  -12    8      0.46      0.00
   -6  -12    7     -0.68      0.00
   -6  -12    6      0.12      0.00
   -6  -12    5      0.03      0.00
   -6  -12    4      0.02      0.00
   -6  -13   10     -0.31      0.00
    7  -15    1     -0.28      0.00
    7  -15    2      0.21      0.00
    7  -15    3     -0.22      0.00
    7  -15    4      0.24      0.00
    7  -15    5      0.05      0.00
    7  -15    6     -0.07      0.00
    7  -15    7      0.06      0.00
    7  -15    8     -0.09      0.00
   -7   14    3     -0.19      0.00
   -7   14    2      0.09      0.00
   -7   14    1      0.85      0.00
   -7   14    0     -0.47      0.00
    7  -14    1     -0.23      0.00
    7  -14    2      0.40      0.00
    7  -14    3     -0.68      0.00
    7  -14    4      0.68      0.00
    7  -14    5     -0.26      0.00
    7  -14    6      0.08      0.00
    7  -14    7     -0.51      0.00
    7  -14    8      0.16      0.00
    7  -14    9      0.60      0.00
    7  -14   10     -0.36      0.00
    7  -14   11     -0.15      0.00
   -7   13    5      0.72      0.00
   -7   13    4     -0.29      0.00
   -7   13    3      0.22      0.00
   -7   13    2     -0.72      0.00
   -7   13    1      0.19      0.00
   -7   13    0      0.51      0.00
    7  -13    1     -0.76      0.00
    7  -13    2      0.78      0.00
    7  -13    3     -0.21      0.00
    7  -13    4     -0.33      0.00
    7  -13    5      0.23      0.00
    7  -13    6      0.34      0.00
    7  -13    7     -0.64      0.00
    7  -13    8      0.09      0.00
    7  -13    9      0.19      0.00
    7  -13   10      0.28      0.00
    7  -13   11     -0.39      0.00
    7  -13   12      0.21      0.00
   -7   12    6     -0.24      0.00
   -7   12    5      0.35      0.00
   -7   12    4      0.61      0.00
   -7   12    3     -0.47      0.00
   -7   12    2     -0.05      0.00
   -7   12    1     -0.89      0.00
   -7   12    0      0.77      0.00
    7  -12    1      0.31      0.00
    7  -12    2     -0.73      0.00
    7  -12    3      1.16      0.00
    7  -12    4     -0.88      0.00
    7  -12    5      0.07      0.00
    7  -12    6      0.44      0.00
    7  -12    7     -0.40      0.00
    7  -12    8     -0.09      0.00
    7  -12    9     -0.12      0.00
    7  -12   10      0.19      0.00
    7  -12   11      0.21      0.00
    7  -12   12     -0.22      0.00
    7  -12   13      0.17      0.00
   -7   11    8      0.73      0.00
   -7   11    7     -1.40      0.00
   -7   11    6      1.08      0.00
   -7   11    5     -0.86      0.00
   -7   11    4      1.12      0.00
   -7   11    3     -0.79      0.00
   -7   11    2      0.26      0.00
   -7   11    1      0.53      0.00
   -7   11    0     -1.76      0.00
    7  -11    1      1.79      0.00
    7  -11    2     -0.63      0.00
    7  -11    3     -0.06      0.00
    7  -11    4      0.00      0.00
    7  -11    5      0.27      0.00
    7  -11    6     -0.26      0.00
    7  -11    7      0.62      0.00
    7  -11    8     -0.77      0.00
    7  -11    9      0.19      0.00
    7  -11   10      0.04      0.00
    7  -11   11     -0.31      0.00
    7  -11   12      0.76      0.00
    7  -11   13     -0.73      0.00
    7  -11   14      0.36      0.00
   -7   10   10     -0.36      0.00
   -7   10    9     -0.69      0.00
   -7   10    8      1.27      0.00
   -7   10    7     -1.40      0.00
   -7   10    6      0.81      0.00
   -7   10    5      0.28      0.00
   -7   10    4     -0.59      0.00
   -7   10    3      0.05      0.00
   -7   10    2     -0.93      0.00
   -7   10    1      1.93      0.00
   -7   10    0     -0.57      0.00
    7  -10    1     -0.87      0.00
    7  -10    2      1.25      0.00
    7  -10    3     -0.82      0.00
    7  -10    4     -0.69      0.00
    7  -10    5      1.25      0.00
    7  -10    6     -0.90      0.00
    7  -10    7      0.83      0.00
    7  -10    8     -0.25      0.00
    7  -10    9     -0.73      0.00
    7  -10   10      1.18      0.00
    7  -10   11     -1.03      0.00
    7  -10   12      0.73      0.00
    7  -10   13     -0.47      0.00
    7  -10   14     -0.03      0.00
   -7    9   11     -0.20      0.00
   -7    9   10      0.26      0.00
   -7    9    9      0.17      0.00
   -7    9    8     -1.19      0.00
   -7    9    7      1.33      0.00
   -7    9    6     -1.21      0.00
   -7    9    5      1.18      0.00
   -7    9    4     -1.27      0.00
   -7    9    3      0.45      0.00
   -7    9    2      1.04      0.00
   -7    9    1     -1.82      0.00
   -7    9    0      1.87      0.00
    7   -9    1     -0.97      0.00
    7   -9    2      0.45      0.00
    7   -9    3      0.22      0.00
    7   -9    4     -0.95      0.00
    7   -9    5      0.13      0.00
    7   -9    6      0.42      0.00
    7   -9    7     -0.44      0.00
    7   -9    8      0.36      0.00
    7   -9    9     -0.58      0.00
    7   -9   10      0.35      0.00
    7   -9   11      0.63      0.00
    7   -9   12     -0.38      0.00
    7   -9   13     -0.14      0.00
    7   -9   14     -0.48      0.00
    7   -9   15      0.32      0.00
   -7    8   13     -0.70      0.00
   -7    8   12      0.85      0.00
   -7    8   11      0.76      0.00
   -7    8   10     -1.87      0.00
   -7    8    9      2.10      0.00
   -7    8    8     -2.14      0.00
   -7    8    7      1.84      0.00
   -7    8    6      0.07      0.00
   -7    8    5     -0.50      0.00
   -7    8    4     -0.33      0.00
   -7    8    3     -1.43      0.00
   -7    8    2      2.60      0.00
   -7    8    1     -0.84      0.00
   -7    8    0     -1.19      0.00
    7   -8    1      0.93      0.00
    7   -8    2      0.24      0.00
    7   -8    3     -0.59      0.00
    7   -8    4      1.70      0.00
    7   -8    5     -1.90      0.00
    7   -8    6      1.12      0.00
    7   -8    7      0.31      0.00
    7   -8    8     -1.51      0.00
    7   -8    9      1.05      0.00
    7   -8   10     -1.04      0.00
    7   -8   11      1.16      0.00
    7   -8   12     -0.11      0.00
    7   -8   13      0.06      0.00
    7   -8   14     -0.40      0.00
    7   -8   15     -0.37      0.00
   -7    7   14      0.01      0.00
   -7    7   13     -0.07      0.00
   -7    7   12     -0.53      0.00
   -7    7   11      1.53      0.00
   -7    7   10     -1.78      0.00
   -7    7    9     -0.71      0.00
   -7    7    8      0.86      0.00
   -7    7    7     -0.54      0.00
   -7    7    6      2.00      0.00
   -7    7    5     -1.32      0.00
   -7    7    4      0.34      0.00
   -7    7    3      1.27      0.00
   -7    7    2     -2.14      0.00
   -7    7    1      1.30      0.00
   -7    7    0     -1.47      0.00
    7   -7    1      0.14      0.00
    7   -7    2      1.01      0.00
    7   -7    3     -1.41      0.00
    7   -7    4      1.66      0.00
    7   -7    5     -0.62      0.00
    7   -7    6     -0.85      0.00
    7   -7    7      1.77      0.00
    7   -7    8     -0.97      0.00
    7   -7    9      0.16      0.00
    7   -7   10      0.07      0.00
    7   -7   11     -0.32      0.00
    7   -7   12      0.23      0.00
    7   -7   13      0.37      0.00
    7   -7   14      0.14      0.00
    7   -7   15     -0.47      0.00
   -7    6   15      0.33      0.00
   -7    6   14     -0.84      0.00
   -7    6   13      1.02      0.00
   -7    6   12      0.44      0.00
   -7    6   11     -0.84      0.00
   -7    6   10      2.10      0.00
   -7    6    9     -3.51      0.00
   -7    6    8      1.85      0.00
   -7    6    7     -1.08      0.00
   -7    6    6      0.84      0.00
   -7    6    5     -0.23      0.00
   -7    6    4     -1.52      0.00
   -7    6    3      3.74      0.00
   -7    6    2     -0.91      0.00
   -7    6    1     -1.78      0.00
   -7    6    0      0.03      0.00
    7   -6    1      1.32      0.00
    7   -6    2     -1.39      0.00
    7   -6    3      1.77      0.00
    7   -6    4     -1.83      0.00
    7   -6    5      1.51      0.00
    7   -6    6     -0.97      0.00
    7   -6    7     -1.32      0.00
    7   -6    8      1.98      0.00
    7   -6    9     -1.21      0.00
    7   -6   10      1.13      0.00
    7   -6   11     -0.49      0.00
    7   -6   12     -0.40      0.00
    7   -6   13      0.11      0.00
    7   -6   14      0.38      0.00
    7   -6   15      0.06      0.00
   -7    5   16     -0.25      0.00
   -7    5   15      0.50      0.00
   -7    5   14     -0.83      0.00
   -7    5   13     -0.28      0.00
   -7    5   12      1.90      0.00
   -7    5   11     -2.12      0.00
   -7    5   10      2.02      0.00
   -7    5    9     -1.01      0.00
   -7    5    8      0.32      0.00
   -7    5    7      0.51      0.00
   -7    5    6     -1.11      0.00
   -7    5    5      0.02      0.00
   -7    5    4      0.53      0.00
   -7    5    3     -1.22      0.00
   -7    5    2      1.75      0.00
   -7    5    1     -0.79      0.00
   -7    5    0     -1.24      0.00
    7   -5    1      3.09      0.00
    7   -5    2     -2.91      0.00
    7   -5    3      3.18      0.00
    7   -5    4     -2.13      0.00
    7   -5    5     -0.15      0.00
    7   -5    6      1.89      0.00
    7   -5    7     -2.76      0.00
    7   -5    8      1.11      0.00
    7   -5    9     -0.16      0.00
    7   -5   10      0.43      0.00
    7   -5   11      0.13      0.00
    7   -5   12     -0.23      0.00
    7   -5   13     -0.33      0.00
    7   -5   14     -0.01      0.00
    7   -5   15     -0.23      0.00
   -7    4   16     -0.05      0.00
   -7    4   15     -0.10      0.00
   -7    4   14      0.17      0.00
   -7    4   13     -0.75      0.00
   -7    4   12      0.34      0.00
   -7    4   11      0.78      0.00
   -7    4   10     -2.00      0.00
   -7    4    9      2.22      0.00
   -7    4    8     -0.82      0.00
   -7    4    7      0.41      0.00
   -7    4    6     -0.47      0.00
   -7    4    5     -0.79      0.00
   -7    4    4      3.24      0.00
   -7    4    3     -2.29      0.00
   -7    4    2     -2.54      0.00
   -7    4    1      1.44      0.00
   -7    4    0      2.22      0.00
    7   -4    1     -1.83      0.00
    7   -4    2      0.24      0.00
    7   -4    3      0.82      0.00
    7   -4    4      0.84      0.00
    7   -4    5     -2.27      0.00
    7   -4    6      0.68      0.00
    7   -4    7      1.32      0.00
    7   -4    8     -1.51      0.00
    7   -4    9      0.39      0.00
    7   -4   10      0.36      0.00
    7   -4   11      0.08      0.00
    7   -4   12     -0.16      0.00
    7   -4   13     -0.01      0.00
    7   -4   14      0.12      0.00
   -7    3   16      0.26      0.00
   -7    3   15     -0.32      0.00
   -7    3   14      0.38      0.00
   -7    3   13      0.73      0.00
   -7    3   12     -1.80      0.00
   -7    3   11      2.53      0.00
   -7    3   10     -3.89      0.00
   -7    3    9      2.27      0.00
   -7    3    8      1.28      0.00
   -7    3    7     -1.61      0.00
   -7    3    6     -1.38      0.00
   -7    3    5      1.42      0.00
   -7    3    4      1.78      0.00
   -7    3    3      0.77      0.00
   -7    3    2     -3.54      0.00
   -7    3    1     -2.83      0.00
   -7    3    0      8.06      0.00
    7   -3    1     -4.96      0.00
    7   -3    2      0.89      0.00
    7   -3    3     -1.12      0.00
    7   -3    4      2.25      0.00
    7   -3    5     -0.33      0.00
    7   -3    6     -3.32      0.00
    7   -3    7      3.18      0.00
    7   -3    8     -0.55      0.00
    7   -3    9      0.00      0.00
    7   -3   10     -0.17      0.00
    7   -3   11      0.42      0.00
    7   -3   12     -0.17      0.00
    7   -3   13     -0.12      0.00
    7   -3   14      0.07      0.00
   -7    2   17     -0.09      0.00
   -7    2   16      0.09      0.00
   -7    2   15      0.23      0.00
   -7    2   14     -0.47      0.00
   -7    2   13      0.84      0.00
   -7    2   12      0.02      0.00
   -7    2   11      0.72      0.00
   -7    2   10     -1.20      0.00
   -7    2    9     -1.43      0.00
   -7    2    8      2.41      0.00
   -7    2    7      0.05      0.00
   -7    2    6     -3.23      0.00
   -7    2    5      2.25      0.00
   -7    2    4      1.19      0.00
   -7    2    3     -0.35      0.00
   -7    2    2     -0.41      0.00
   -7    2    1     -3.09      0.00
   -7    2    0      3.46      0.00
    7   -2    1      0.15      0.00
    7   -2    2     -0.14      0.00
    7   -2    3     -2.16      0.00
    7   -2    4      0.66      0.00
    7   -2    5      2.59      0.00
    7   -2    6     -2.19      0.00
    7   -2    7     -0.55      0.00
    7   -2    8      0.22      0.00
    7   -2    9      0.61      0.00
    7   -2   10      0.04      0.00
    7   -2   11     -0.25      0.00
    7   -2   12      0.39      0.00
    7   -2   13     -0.21      0.00
    7   -2   14     -0.14      0.00
   -7    1   18     -0.83      0.00
   -7    1   17      0.10      0.00
   -7    1   16      0.04      0.00
   -7    1   15      1.00      0.00
   -7    1   14     -0.24      0.00
   -7    1   13     -2.06      0.00
   -7    1   12      2.75      0.00
   -7    1   11     -1.83      0.00
   -7    1   10      2.22      0.00
   -7    1    9     -1.85      0.00
   -7    1    8     -0.62      0.00
   -7    1    7      1.50      0.00
   -7    1    6     -0.95      0.00
   -7    1    5      0.36      0.00
   -7    1    4      1.13      0.00
   -7    1    3     -0.02      0.00
   -7    1    2     -2.11      0.00
   -7    1    1      3.32      0.00
   -7    1    0     -4.38      0.00
    7   -1    1      2.69      0.00
    7   -1    2      0.49      0.00
    7   -1    3     -0.68      0.00
    7   -1    4     -1.47      0.00
    7   -1    5      0.35      0.00
    7   -1    6      2.86      0.00
    7   -1    7     -1.96      0.00
    7   -1    8     -0.23      0.00
    7   -1    9     -0.40      0.00
    7   -1   10      0.67      0.00
    7   -1   11     -0.27      0.00
    7   -1   12      0.27      0.00
    7   -1   13     -0.34      0.00
   -7    0   18     -0.33      0.00
   -7    0   17     -0.65      0.00
   -7    0   16      0.17      0.00
   -7    0   15      0.87      0.00
   -7    0   14      0.91      0.00
   -7    0   13     -3.11      0.00
   -7    0   12      2.21      0.00
   -7    0   11     -0.97      0.00
   -7    0   10      0.62      0.00
   -7    0    9      0.20      0.00
   -7    0    8     -1.52      0.00
   -7    0    7      0.16      0.00
   -7    0    6      1.47      0.00
   -7    0    5      0.50      0.00
   -7    0    4     -2.99      0.00
   -7    0    3      2.35      0.00
   -7    0    2     -1.69      0.00
   -7    0    1      4.00      0.00
    7    0    0     -4.05      0.00
    7    0    1      1.57      0.00
    7    0    2     -0.57      0.00
    7    0    3      1.48      0.00
    7    0    4      0.15      0.00
    7    0    5     -3.35      0.00
    7    0    6      2.49      0.00
    7    0    7     -0.33      0.00
    7    0    8      0.34      0.00
    7    0    9      0.08      0.00
    7    0   10     -0.60      0.00
    7    0   11      0.12      0.00
    7    0   12      0.30      0.00
    7    0   13     -0.32      0.00
   -7   -1   19     -0.51      0.00
   -7   -1   18      1.02      0.00
   -7   -1   17     -0.56      0.00
   -7   -1   16      0.07      0.00
   -7   -1   15      0.18      0.00
   -7   -1   14      0.02      0.00
   -7   -1   13     -0.16      0.00
   -7   -1   12     -0.67      0.00
   -7   -1   11      1.78      0.00
   -7   -1   10     -1.05      0.00
   -7   -1    9     -0.24      0.00
   -7   -1    8      0.03      0.00
   -7   -1    7     -0.74      0.00
   -7   -1    6      1.60      0.00
   -7   -1    5      1.89      0.00
   -7   -1    4     -4.19      0.00
   -7   -1    3     -1.16      0.00
   -7   -1    2      3.09      0.00
   -7   -1    1     -0.11      0.00
    7    1    0     -0.58      0.00
    7    1    1      0.25      0.00
    7    1    2     -1.02      0.00
    7    1    3      1.04      0.00
    7    1    4      1.25      0.00
    7    1    5     -0.84      0.00
    7    1    6     -1.12      0.00
    7    1    7     -0.06      0.00
    7    1    8      0.14      0.00
    7    1    9      1.59      0.00
    7    1   10     -0.61      0.00
    7    1   11     -0.50      0.00
    7    1   12      0.06      0.00
   -7   -2   19     -0.77      0.00
   -7   -2   18      0.31      0.00
   -7   -2   17      0.27      0.00
   -7   -2   16      0.19      0.00
   -7   -2   15      0.53      0.00
   -7   -2   14     -2.54      0.00
   -7   -2   13      2.34      0.00
   -7   -2   12     -1.29      0.00
   -7   -2   11      1.26      0.00
   -7   -2   10     -0.24      0.00
   -7   -2    9     -0.97      0.00
   -7   -2    8      1.71      0.00
   -7   -2    7     -1.92      0.00
   -7   -2    6      1.28      0.00
   -7   -2    5      0.41      0.00
   -7   -2    4      1.16      0.00
   -7   -2    3     -3.57      0.00
   -7   -2    2      2.17      0.00
   -7   -2    1     -2.69      0.00
    7    2    0      3.72      0.00
    7    2    1     -0.78      0.00
    7    2    2     -1.79      0.00
    7    2    3      0.58      0.00
    7    2    4     -0.81      0.00
    7    2    5      2.53      0.00
    7    2    6     -0.96      0.00
    7    2    7     -1.05      0.00
    7    2    8     -0.21      0.00
    7    2    9      1.01      0.00
    7    2   10      0.12      0.00
    7    2   11     -0.34      0.00
   -7   -3   19      0.47      0.00
   -7   -3   18     -0.32      0.00
   -7   -3   17      0.19      0.00
   -7   -3   16     -0.19      0.00
   -7   -3   15      1.33      0.00
   -7   -3   14     -2.26      0.00
   -7   -3   13      0.94      0.00
   -7   -3   12      0.61      0.00
   -7   -3   11     -1.00      0.00
   -7   -3   10      0.28      0.00
   -7   -3    9     -0.60      0.00
   -7   -3    8      2.51      0.00
   -7   -3    7     -1.81      0.00
   -7   -3    6      0.31      0.00
   -7   -3    5     -2.88      0.00
   -7   -3    4      3.12      0.00
   -7   -3    3      2.30      0.00
   -7   -3    2     -1.40      0.00
   -7   -3    1     -4.74      0.00
    7    3    0      3.71      0.00
    7    3    1      2.12      0.00
    7    3    2     -1.96      0.00
    7    3    3     -0.55      0.00
    7    3    4     -1.23      0.00
    7    3    5      1.42      0.00
    7    3    6      0.43      0.00
    7    3    7     -0.43      0.00
    7    3    8     -0.20      0.00
    7    3    9      0.49      0.00
    7    3   10     -0.22      0.00
   -7   -4   19      0.30      0.00
   -7   -4   18      0.28      0.00
   -7   -4   17     -0.11      0.00
   -7   -4   16     -0.03      0.00
   -7   -4   15      0.26      0.00
   -7   -4   14      0.56      0.00
   -7   -4   13     -1.37      0.00
   -7   -4   12      1.86      0.00
   -7   -4   11     -1.91      0.00
   -7   -4   10     -0.14      0.00
   -7   -4    9      1.00      0.00
   -7   -4    8      0.07      0.00
   -7   -4    7      0.42      0.00
   -7   -4    6      0.56      0.00
   -7   -4    5     -2.63      0.00
   -7   -4    4     -1.81      0.00
   -7   -4    3      5.73      0.00
   -7   -4    2     -1.21      0.00
   -7   -4    1     -2.08      0.00
    7    4    0     -0.55      0.00
    7    4    1      2.01      0.00
    7    4    2      0.51      0.00
    7    4    3     -1.45      0.00
    7    4    4      0.18      0.00
    7    4    5      0.17      0.00
    7    4    6     -0.36      0.00
    7    4    7      0.22      0.00
    7    4    8     -0.11      0.00
    7    4    9      0.43      0.00
   -7   -5   19     -0.40      0.00
   -7   -5   18      0.60      0.00
   -7   -5   17     -0.72      0.00
   -7   -5   16      0.69      0.00
   -7   -5   15     -0.98      0.00
   -7   -5   14      1.95      0.00
   -7   -5   13     -1.44      0.00
   -7   -5   12      0.97      0.00
   -7   -5   11     -1.19      0.00
   -7   -5   10     -0.82      0.00
   -7   -5    9      2.98      0.00
   -7   -5    8     -2.77      0.00
   -7   -5    7      0.48      0.00
   -7   -5    6      0.94      0.00
   -7   -5    5      1.01      0.00
   -7   -5    4     -3.04      0.00
   -7   -5    3      2.01      0.00
   -7   -5    2     -0.71      0.00
   -7   -5    1      0.61      0.00
    7    5    0     -0.15      0.00
    7    5    1     -0.11      0.00
    7    5    2      0.57      0.00
    7    5    3     -1.24      0.00
    7    5    4      0.76      0.00
    7    5    5      0.09      0.00
    7    5    6     -0.03      0.00
    7    5    7     -0.31      0.00
    7    5    8      0.05      0.00
   -7   -6   19     -0.21      0.00
   -7   -6   18      0.65      0.00
   -7   -6   17     -0.51      0.00
   -7   -6   16      0.68      0.00
   -7   -6   15     -0.82      0.00
   -7   -6   14      0.20      0.00
   -7   -6   13      0.88      0.00
   -7   -6   12     -0.83      0.00
   -7   -6   11     -0.22      0.00
   -7   -6   10     -0.39      0.00
   -7   -6    9      2.68      0.00
   -7   -6    8     -2.23      0.00
   -7   -6    7     -0.87      0.00
   -7   -6    6      0.54      0.00
   -7   -6    5      1.08      0.00
   -7   -6    4      0.53      0.00
   -7   -6    3     -1.87      0.00
   -7   -6    2      0.37      0.00
   -7   -6    1     -0.08      0.00
    7    6    0      0.22      0.00
    7    6    1      0.73      0.00
    7    6    2      0.01      0.00
    7    6    3     -0.78      0.00
    7    6    4      0.65      0.00
    7    6    5     -0.66      0.00
    7    6    6      0.35      0.00
    7    6    7     -0.04      0.00
   -7   -7   19     -0.04      0.00
   -7   -7   18      0.07      0.00
   -7   -7   17      0.02      0.00
   -7   -7   16      0.15      0.00
   -7   -7   15      0.99      0.00
   -7   -7   14     -2.15      0.00
   -7   -7   13      2.01      0.00
   -7   -7   12     -0.98      0.00
   -7   -7   11     -0.72      0.00
   -7   -7   10      1.21      0.00
   -7   -7    9      0.58      0.00
   -7   -7    8     -0.48      0.00
   -7   -7    7     -1.42      0.00
   -7   -7    6      1.64      0.00
   -7   -7    5     -0.90      0.00
   -7   -7    4      1.70      0.00
   -7   -7    3     -1.94      0.00
   -7   -7    2      0.71      0.00
   -7   -7    1     -0.10      0.00
    7    7    0     -0.69      0.00
    7    7    1      0.41      0.00
    7    7    2     -0.01      0.00
    7    7    3      0.05      0.00
    7    7    4      0.56      0.00
    7    7    5     -0.19      0.00
   -7   -8   18     -0.49      0.00
   -7   -8   17      0.01      0.00
   -7   -8   16     -0.48      0.00
   -7   -8   15      1.39      0.00
   -7   -8   14     -1.43      0.00
   -7   -8   13      0.27      0.00
   -7   -8   12      0.93      0.00
   -7   -8   11     -1.46      0.00
   -7   -8   10      1.49      0.00
   -7   -8    9     -0.58      0.00
   -7   -8    8      0.02      0.00
   -7   -8    7     -1.17      0.00
   -7   -8    6      1.68      0.00
   -7   -8    5     -0.24      0.00
   -7   -8    4     -0.50      0.00
   -7   -8    3      0.10      0.00
   -7   -8    2      0.71      0.00
   -7   -8    1     -0.17      0.00
    7    8    0     -0.14      0.00
    7    8    1     -0.33      0.00
    7    8    2     -0.33      0.00
    7    8    3      0.28      0.00
   -7   -9   17     -0.18      0.00
   -7   -9   16      0.24      0.00
   -7   -9   15     -0.16      0.00
   -7   -9   14      0.45      0.00
   -7   -9   13     -1.55      0.00
   -7   -9   12      1.47      0.00
   -7   -9   11     -0.48      0.00
   -7   -9   10      0.34      0.00
   -7   -9    9     -0.23      0.00
   -7   -9    8     -0.35      0.00
   -7   -9    7      0.49      0.00
   -7   -9    6     -0.72      0.00
   -7   -9    5      0.93      0.00
   -7   -9    4     -1.05      0.00
   -7   -9    3      0.65      0.00
   -7   -9    2      0.02      0.00
   -7   -9    1     -0.27      0.00
    7    9    0      0.84      0.00
    7    9    1     -0.38      0.00
   -7  -10   16      0.79      0.00
   -7  -10   14      0.80      0.00
   -7  -10   13     -0.69      0.00
   -7  -10   12     -0.04      0.00
   -7  -10   11      0.32      0.00
   -7  -10   10     -0.50      0.00
   -7  -10    9      0.05      0.00
   -7  -10    8     -0.41      0.00
   -7  -10    7      1.72      0.00
   -7  -10    6     -1.34      0.00
   -7  -10    5     -0.16      0.00
   -7  -10    4      0.01      0.00
   -7  -10    3      1.02      0.00
   -7  -10    2     -0.70      0.00
   -7  -10    1     -0.67      0.00
    7   10    0      0.88      0.00
   -7  -11   14      0.00      0.00
   -7  -11   13      0.76      0.00
   -7  -11   12     -0.43      0.00
   -7  -11   11      0.26      0.00
   -7  -11   10     -0.31      0.00
   -7  -11    9     -0.70      0.00
   -7  -11    8      0.24      0.00
   -7  -11    7      0.77      0.00
   -7  -11    6     -0.14      0.00
   -7  -11    5     -0.56      0.00
   -7  -11    4     -0.06      0.00
   -7  -12    9     -0.91      0.00
   -7  -12    8      0.40      0.00
    8  -15    2     -0.19      0.00
    8  -15    3      0.16      0.00
    8  -15    4     -0.36      0.00
    8  -15    5      0.21      0.00
    8  -15    6     -0.45      0.00
    8  -15    7      0.22      0.00
   -8   14    2     -0.41      0.00
   -8   14    1      0.18      0.00
   -8   14    0      0.16      0.00
    8  -14    1     -0.06      0.00
    8  -14    2      0.65      0.00
    8  -14    3     -0.71      0.00
    8  -14    4      0.17      0.00
    8  -14    5      0.29      0.00
    8  -14    6     -0.20      0.00
    8  -14    7     -0.02      0.00
    8  -14    8     -0.42      0.00
    8  -14    9      0.43      0.00
    8  -14   10     -0.04      0.00
   -8   13    4     -0.22      0.00
   -8   13    3      0.67      0.00
   -8   13    2     -0.65      0.00
   -8   13    1      0.21      0.00
   -8   13    0      0.37      0.00
    8  -13    1     -1.04      0.00
    8  -13    2      0.98      0.00
    8  -13    3     -0.53      0.00
    8  -13    4      0.06      0.00
    8  -13    5      0.05      0.00
    8  -13    6      0.36      0.00
    8  -13    7     -0.06      0.00
    8  -13    8     -0.25      0.00
    8  -13    9     -0.07      0.00
    8  -13   10      0.11      0.00
    8  -13   11     -0.10      0.00
   -8   12    7      0.63      0.00
   -8   12    6     -0.50      0.00
   -8   12    5      0.34      0.00
   -8   12    4     -0.53      0.00
   -8   12    3      0.68      0.00
   -8   12    2      0.37      0.00
   -8   12    1     -0.82      0.00
   -8   12    0      0.53      0.00
    8  -12    1     -0.12      0.00
    8  -12    2     -0.62      0.00
    8  -12    3      0.51      0.00
    8  -12    4      0.16      0.00
    8  -12    5     -0.82      0.00
    8  -12    6      0.99      0.00
    8  -12    7     -0.31      0.00
    8  -12    8      0.19      0.00
    8  -12    9     -0.19      0.00
    8  -12   10     -0.08      0.00
    8  -12   11      0.23      0.00
    8  -12   12     -0.59      0.00
   -8   11    9      0.50      0.00
   -8   11    8     -0.07      0.00
   -8   11    7     -0.06      0.00
   -8   11    6     -0.14      0.00
   -8   11    5     -0.58      0.00
   -8   11    4      0.76      0.00
   -8   11    3     -0.73      0.00
   -8   11    2      0.74      0.00
   -8   11    1      0.27      0.00
   -8   11    0     -1.43      0.00
    8  -11    1      1.43      0.00
    8  -11    2     -0.61      0.00
    8  -11    3     -0.23      0.00
    8  -11    4      0.75      0.00
    8  -11    5     -0.87      0.00
    8  -11    6      0.24      0.00
    8  -11    7      0.49      0.00
    8  -11    8     -0.44      0.00
    8  -11    9      0.34      0.00
    8  -11   10     -0.30      0.00
    8  -11   11      0.26      0.00
    8  -11   12     -0.25      0.00
    8  -11   13     -0.08      0.00
   -8   10   10     -0.11      0.00
   -8   10    9     -0.80      0.00
   -8   10    8      1.54      0.00
   -8   10    7     -0.87      0.00
   -8   10    6      0.49      0.00
   -8   10    5     -0.99      0.00
   -8   10    4      1.28      0.00
   -8   10    3     -0.01      0.00
   -8   10    2     -1.61      0.00
   -8   10    1      1.24      0.00
   -8   10    0     -0.45      0.00
    8  -10    1     -0.25      0.00
    8  -10    2      0.84      0.00
    8  -10    3     -0.06      0.00
    8  -10    4     -0.90      0.00
    8  -10    5      0.97      0.00
    8  -10    6     -1.25      0.00
    8  -10    7      1.00      0.00
    8  -10    8      0.16      0.00
    8  -10    9     -0.64      0.00
    8  -10   10      0.56      0.00
    8  -10   11     -0.48      0.00
    8  -10   12      0.27      0.00
    8  -10   13     -0.25      0.00
    8  -10   14     -0.19      0.00
   -8    9   11     -0.56      0.00
   -8    9   10      1.20      0.00
   -8    9    9     -0.82      0.00
   -8    9    8      0.52      0.00
   -8    9    7      0.08      0.00
   -8    9    6     -0.49      0.00
   -8    9    5      0.25      0.00
   -8    9    4     -0.31      0.00
   -8    9    3      0.65      0.00
   -8    9    2     -0.04      0.00
   -8    9    1     -1.27      0.00
   -8    9    0      1.33      0.00
    8   -9    1     -0.67      0.00
    8   -9    2     -0.16      0.00
    8   -9    3      2.03      0.00
    8   -9    4     -2.11      0.00
    8   -9    5      1.00      0.00
    8   -9    6     -0.55      0.00
    8   -9    7     -0.65      0.00
    8   -9    8      1.78      0.00
    8   -9    9     -1.25      0.00
    8   -9   10      0.19      0.00
    8   -9   11     -0.10      0.00
    8   -9   12      0.42      0.00
    8   -9   13     -0.04      0.00
   -8    8   12      0.32      0.00
   -8    8   11     -0.35      0.00
   -8    8   10     -0.56      0.00
   -8    8    9      1.45      0.00
   -8    8    8     -1.33      0.00
   -8    8    7      1.10      0.00
   -8    8    6     -1.12      0.00
   -8    8    5      1.28      0.00
   -8    8    4      0.45      0.00
   -8    8    3     -2.39      0.00
   -8    8    2      1.37      0.00
   -8    8    1      0.08      0.00
   -8    8    0     -0.05      0.00
    8   -8    1     -0.29      0.00
    8   -8    2     -0.59      0.00
    8   -8    3      0.69      0.00
    8   -8    4      0.37      0.00
    8   -8    5     -0.91      0.00
    8   -8    6      0.83      0.00
    8   -8    7     -0.37      0.00
    8   -8    8      0.42      0.00
    8   -8    9      0.32      0.00
    8   -8   10     -0.92      0.00
    8   -8   11     -0.02      0.00
    8   -8   12      0.23      0.00
    8   -8   13      0.48      0.00
    8   -8   14     -0.01      0.00
   -8    7   14      0.92      0.00
   -8    7   13     -0.51      0.00
   -8    7   12     -0.86      0.00
   -8    7   11      2.31      0.00
   -8    7   10     -1.87      0.00
   -8    7    9      0.86      0.00
   -8    7    8     -0.97      0.00
   -8    7    7      0.08      0.00
   -8    7    6     -0.28      0.00
   -8    7    5      0.07      0.00
   -8    7    4      1.29      0.00
   -8    7    3     -0.25      0.00
   -8    7    2     -1.39      0.00
   -8    7    1      1.60      0.00
   -8    7    0      0.51      0.00
    8   -7    1     -1.83      0.00
    8   -7    2      1.51      0.00
    8   -7    3     -2.11      0.00
    8   -7    4      1.74      0.00
    8   -7    5     -0.74      0.00
    8   -7    6     -1.19      0.00
    8   -7    7      1.87      0.00
    8   -7    8     -0.83      0.00
    8   -7    9      0.81      0.00
    8   -7   10     -0.42      0.00
    8   -7   11     -0.27      0.00
    8   -7   12     -0.52      0.00
    8   -7   13      0.30      0.00
    8   -7   14      0.60      0.00
   -8    6   15      0.07      0.00
   -8    6   14      0.02      0.00
   -8    6   13      0.41      0.00
   -8    6   12     -1.46      0.00
   -8    6   11      1.29      0.00
   -8    6   10      1.31      0.00
   -8    6    9     -1.12      0.00
   -8    6    8      0.52      0.00
   -8    6    7     -1.44      0.00
   -8    6    6      0.79      0.00
   -8    6    5      0.36      0.00
   -8    6    4     -2.13      0.00
   -8    6    3      1.62      0.00
   -8    6    2      0.14      0.00
   -8    6    1      0.14      0.00
   -8    6    0      0.70      0.00
    8   -6    1     -1.33      0.00
    8   -6    2      1.09      0.00
    8   -6    3     -0.76      0.00
    8   -6    4     -0.31      0.00
    8   -6    5      1.66      0.00
    8   -6    6     -1.33      0.00
    8   -6    7      0.00      0.00
    8   -6    8      0.15      0.00
    8   -6    9     -0.22      0.00
    8   -6   10      0.39      0.00
    8   -6   11      0.32      0.00
    8   -6   12     -0.62      0.00
    8   -6   13     -0.41      0.00
    8   -6   14      0.07      0.00
   -8    5   15      0.78      0.00
   -8    5   14     -0.44      0.00
   -8    5   13     -0.57      0.00
   -8    5   12      1.04      0.00
   -8    5   11     -2.22      0.00
   -8    5   10      2.67      0.00
   -8    5    9     -1.54      0.00
   -8    5    8      1.02      0.00
   -8    5    7     -0.64      0.00
   -8    5    6      0.62      0.00
   -8    5    5      0.83      0.00
   -8    5    4     -1.26      0.00
   -8    5    3     -1.56      0.00
   -8    5    2      1.21      0.00
   -8    5    1      1.51      0.00
   -8    5    0     -2.48      0.00
    8   -5    1      1.94      0.00
    8   -5    2     -1.78      0.00
    8   -5    3      1.70      0.00
    8   -5    4     -1.35      0.00
    8   -5    5      0.20      0.00
    8   -5    6      2.50      0.00
    8   -5    7     -1.96      0.00
    8   -5    8      0.39      0.00
    8   -5    9     -0.61      0.00
    8   -5   10     -0.11      0.00
    8   -5   11      0.50      0.00
    8   -5   12      0.42      0.00
    8   -5   13     -0.29      0.00
    8   -5   14     -0.14      0.00
   -8    4   16     -0.51      0.00
   -8    4   15      0.51      0.00
   -8    4   14      0.50      0.00
   -8    4   13     -1.79      0.00
   -8    4   12      1.59      0.00
   -8    4   11     -1.02      0.00
   -8    4   10      0.44      0.00
   -8    4    9     -0.36      0.00
   -8    4    8     -0.57      0.00
   -8    4    7      0.53      0.00
   -8    4    6      1.11      0.00
   -8    4    5     -1.16      0.00
   -8    4    4      1.64      0.00
   -8    4    3     -0.61      0.00
   -8    4    2     -1.57      0.00
   -8    4    1      2.11      0.00
   -8    4    0     -2.75      0.00
    8   -4    1      2.96      0.00
    8   -4    2     -2.69      0.00
    8   -4    3      0.68      0.00
    8   -4    4      1.08      0.00
    8   -4    5     -1.92      0.00
    8   -4    6      2.12      0.00
    8   -4    7     -0.49      0.00
    8   -4    8      0.14      0.00
    8   -4    9     -0.26      0.00
    8   -4   10     -0.38      0.00
    8   -4   11     -0.14      0.00
    8   -4   12      0.40      0.00
    8   -4   13     -0.09      0.00
   -8    3   17      0.01      0.00
   -8    3   16      0.09      0.00
   -8    3   15     -0.38      0.00
   -8    3   14      0.47      0.00
   -8    3   13      0.18      0.00
   -8    3   12     -1.12      0.00
   -8    3   11      2.37      0.00
   -8    3   10     -2.08      0.00
   -8    3    9      0.41      0.00
   -8    3    8     -0.23      0.00
   -8    3    7      0.51      0.00
   -8    3    6      0.59      0.00
   -8    3    5     -2.30      0.00
   -8    3    4      0.08      0.00
   -8    3    3      2.80      0.00
   -8    3    2      0.58      0.00
   -8    3    1     -3.02      0.00
   -8    3    0      0.27      0.00
    8   -3    1      1.91      0.00
    8   -3    2     -0.42      0.00
    8   -3    3     -1.90      0.00
    8   -3    4      1.43      0.00
    8   -3    5      0.44      0.00
    8   -3    6     -1.05      0.00
    8   -3    7     -0.06      0.00
    8   -3    8      0.30      0.00
    8   -3    9      0.43      0.00
    8   -3   10     -0.51      0.00
    8   -3   11      0.18      0.00
    8   -3   12     -0.07      0.00
    8   -3   13     -0.08      0.00
   -8    2   17     -0.35      0.00
   -8    2   16      0.21      0.00
   -8    2   15     -0.22      0.00
   -8    2   14     -0.94      0.00
   -8    2   13      1.64      0.00
   -8    2   12     -2.24      0.00
   -8    2   11      3.04      0.00
   -8    2   10     -0.85      0.00
   -8    2    9     -1.18      0.00
   -8    2    8      0.31      0.00
   -8    2    7      1.64      0.00
   -8    2    6     -0.38      0.00
   -8    2    5     -1.29      0.00
   -8    2    4     -1.84      0.00
   -8    2    3      0.76      0.00
   -8    2    2      5.44      0.00
   -8    2    1     -5.12      0.00
   -8    2    0      0.53      0.00
    8   -2    1     -0.29      0.00
    8   -2    2      2.50      0.00
    8   -2    3     -1.60      0.00
    8   -2    4     -1.61      0.00
    8   -2    5      2.68      0.00
    8   -2    6     -0.53      0.00
    8   -2    7     -0.18      0.00
    8   -2    8     -0.80      0.00
    8   -2    9      0.46      0.00
    8   -2   10     -0.27      0.00
    8   -2   11      0.06      0.00
    8   -2   12     -0.04      0.00
   -8    1   18      0.20      0.00
   -8    1   17     -0.20      0.00
   -8    1   16     -0.54      0.00
   -8    1   15      0.37      0.00
   -8    1   14     -0.15      0.00
   -8    1   13      0.37      0.00
   -8    1   12     -0.83      0.00
   -8    1   11     -0.28      0.00
   -8    1   10      1.43      0.00
   -8    1    9     -0.44      0.00
   -8    1    8     -1.08      0.00
   -8    1    7      1.81      0.00
   -8    1    6     -0.46      0.00
   -8    1    5     -0.80      0.00
   -8    1    4     -0.55      0.00
   -8    1    3     -0.44      0.00
   -8    1    2      2.86      0.00
   -8    1    1     -0.91      0.00
   -8    1    0     -0.13      0.00
    8   -1    1     -2.12      0.00
    8   -1    2      2.11      0.00
    8   -1    3      1.05      0.00
    8   -1    4     -2.69      0.00
    8   -1    5      0.36      0.00
    8   -1    6      0.73      0.00
    8   -1    7      0.99      0.00
    8   -1    8     -0.21      0.00
    8   -1    9     -0.72      0.00
    8   -1   10      0.17      0.00
    8   -1   11     -0.24      0.00
    8   -1   12      0.03      0.00
   -8    0   18      0.21      0.00
   -8    0   17      0.03      0.00
   -8    0   16     -0.90      0.00
   -8    0   15     -0.33      0.00
   -8    0   14      1.88      0.00
   -8    0   13     -1.35      0.00
   -8    0   12      1.44      0.00
   -8    0   11     -1.81      0.00
   -8    0   10      0.33      0.00
   -8    0    9      1.09      0.00
   -8    0    8     -1.12      0.00
   -8    0    7      0.23      0.00
   -8    0    6      0.48      0.00
   -8    0    5     -0.24      0.00
   -8    0    4     -1.62      0.00
   -8    0    3      2.13      0.00
   -8    0    2     -2.03      0.00
   -8    0    1      2.37      0.00
    8    0    0     -0.81      0.00
    8    0    1     -0.66      0.00
    8    0    2     -0.37      0.00
    8    0    3      1.06      0.00
    8    0    4      1.11      0.00
    8    0    5     -2.13      0.00
    8    0    6      0.23      0.00
    8    0    7      0.23      0.00
    8    0    8      0.59      0.00
    8    0    9     -0.30      0.00
    8    0   10      0.24      0.00
    8    0   11     -0.27      0.00
   -8   -1   18      0.25      0.00
   -8   -1   17      0.13      0.00
   -8   -1   16     -0.13      0.00
   -8   -1   15     -1.21      0.00
   -8   -1   14      2.27      0.00
   -8   -1   13     -1.88      0.00
   -8   -1   12      1.03      0.00
   -8   -1   11     -0.03      0.00
   -8   -1   10     -0.20      0.00
   -8   -1    9      0.57      0.00
   -8   -1    8     -0.18      0.00
   -8   -1    7     -0.90      0.00
   -8   -1    6      0.00      0.00
   -8   -1    5      2.47      0.00
   -8   -1    4     -2.17      0.00
   -8   -1    3      1.15      0.00
   -8   -1    2     -2.67      0.00
   -8   -1    1      3.01      0.00
    8    1    0     -1.69      0.00
    8    1    1      0.59      0.00
    8    1    2     -0.38      0.00
    8    1    3     -1.59      0.00
    8    1    4      3.13      0.00
    8    1    5     -1.03      0.00
    8    1    6      0.09      0.00
    8    1    7     -0.21      0.00
    8    1    8     -0.80      0.00
    8    1    9      0.04      0.00
    8    1   10      0.66      0.00
    8    1   11     -0.11      0.00
   -8   -2   19     -0.18      0.00
   -8   -2   18     -0.15      0.00
   -8   -2   17     -0.15      0.00
   -8   -2   16      0.37      0.00
   -8   -2   15     -0.20      0.00
   -8   -2   14      0.39      0.00
   -8   -2   13     -0.51      0.00
   -8   -2   12     -1.01      0.00
   -8   -2   11      0.95      0.00
   -8   -2   10      0.24      0.00
   -8   -2    9     -0.18      0.00
   -8   -2    8      0.22      0.00
   -8   -2    7      0.03      0.00
   -8   -2    6     -1.86      0.00
   -8   -2    5      1.93      0.00
   -8   -2    4      1.47      0.00
   -8   -2    3     -1.09      0.00
   -8   -2    2     -0.80      0.00
   -8   -2    1      0.19      0.00
    8    2    0     -0.23      0.00
    8    2    1      0.79      0.00
    8    2    2      0.01      0.00
    8    2    3     -1.18      0.00
    8    2    4      0.20      0.00
    8    2    5      0.32      0.00
    8    2    6      0.59      0.00
    8    2    7      0.47      0.00
    8    2    8     -0.88      0.00
    8    2    9     -0.48      0.00
    8    2   10      0.40      0.00
   -8   -3   19      0.07      0.00
   -8   -3   18     -0.16      0.00
   -8   -3   17      0.33      0.00
   -8   -3   16     -0.70      0.00
   -8   -3   15      1.38      0.00
   -8   -3   14     -1.07      0.00
   -8   -3   13      0.91      0.00
   -8   -3   12     -1.50      0.00
   -8   -3   11      0.79      0.00
   -8   -3   10      0.45      0.00
   -8   -3    9     -1.31      0.00
   -8   -3    8      0.42      0.00
   -8   -3    7      1.27      0.00
   -8   -3    6     -0.61      0.00
   -8   -3    5     -2.20      0.00
   -8   -3    4      1.85      0.00
   -8   -3    3     -0.78      0.00
   -8   -3    2      3.36      0.00
   -8   -3    1     -3.18      0.00
    8    3    0     -0.84      0.00
    8    3    1      1.87      0.00
    8    3    2     -0.18      0.00
    8    3    3      1.01      0.00
    8    3    4     -1.36      0.00
    8    3    5     -0.40      0.00
    8    3    6      0.31      0.00
    8    3    7      0.40      0.00
    8    3    8     -0.23      0.00
    8    3    9      0.05      0.00
   -8   -4   18     -0.63      0.00
   -8   -4   17      0.84      0.00
   -8   -4   16     -0.95      0.00
   -8   -4   15      0.95      0.00
   -8   -4   14     -0.81      0.00
   -8   -4   13      0.50      0.00
   -8   -4   12      0.30      0.00
   -8   -4   11     -0.09      0.00
   -8   -4   10      0.62      0.00
   -8   -4    9     -1.87      0.00
   -8   -4    8      0.83      0.00
   -8   -4    7      0.05      0.00
   -8   -4    6      1.87      0.00
   -8   -4    5     -1.26      0.00
   -8   -4    4     -1.62      0.00
   -8   -4    3     -1.13      0.00
   -8   -4    2      4.18      0.00
   -8   -4    1     -1.10      0.00
    8    4    0     -1.88      0.00
    8    4    1      0.46      0.00
    8    4    2      0.16      0.00
    8    4    3      1.10      0.00
    8    4    4     -0.29      0.00
    8    4    5     -0.13      0.00
    8    4    6     -0.29      0.00
    8    4    7      0.32      0.00
    8    4    8     -0.56      0.00
   -8   -5   19      0.01      0.00
   -8   -5   18     -0.48      0.00
   -8   -5   17      0.17      0.00
   -8   -5   16     -0.12      0.00
   -8   -5   15     -0.27      0.00
   -8   -5   14      0.59      0.00
   -8   -5   13     -1.68      0.00
   -8   -5   12      2.12      0.00
   -8   -5   11      0.19      0.00
   -8   -5   10     -0.90      0.00
   -8   -5    9     -0.87      0.00
   -8   -5    8      1.36      0.00
   -8   -5    7     -0.63      0.00
   -8   -5    6     -0.49      0.00
   -8   -5    5      2.01      0.00
   -8   -5    4     -1.89      0.00
   -8   -5    3      0.19      0.00
   -8   -5    2      0.28      0.00
   -8   -5    1      0.29      0.00
    8    5    0     -0.17      0.00
    8    5    1     -0.47      0.00
    8    5    2      0.27      0.00
    8    5    3      0.08      0.00
    8    5    4     -0.15      0.00
    8    5    5      0.42      0.00
    8    5    6     -0.39      0.00
    8    5    7      0.51      0.00
   -8   -6   18      0.01      0.00
   -8   -6   17     -0.32      0.00
   -8   -6   16      0.89      0.00
   -8   -6   15     -1.10      0.00
   -8   -6   14      1.46      0.00
   -8   -6   13     -1.95      0.00
   -8   -6   12      0.91      0.00
   -8   -6   11      1.57      0.00
   -8   -6   10     -2.37      0.00
   -8   -6    9      0.69      0.00
   -8   -6    8      0.90      0.00
   -8   -6    7      0.73      0.00
   -8   -6    6     -2.54      0.00
   -8   -6    5      1.08      0.00
   -8   -6    4     -0.35      0.00
   -8   -6    3      1.55      0.00
   -8   -6    2     -0.96      0.00
   -8   -6    1     -0.11      0.00
    8    6    0     -0.25      0.00
    8    6    1     -0.34      0.00
    8    6    2      0.74      0.00
    8    6    3     -0.19      0.00
    8    6    4     -0.02      0.00
    8    6    5      0.24      0.00
    8    6    6     -0.25      0.00
   -8   -7   18      0.32      0.00
   -8   -7   17     -0.77      0.00
   -8   -7   16      0.66      0.00
   -8   -7   15      0.02      0.00
   -8   -7   14     -0.12      0.00
   -8   -7   13      0.14      0.00
   -8   -7   12     -0.44      0.00
   -8   -7   11      1.05      0.00
   -8   -7   10     -2.09      0.00
   -8   -7    9      0.94      0.00
   -8   -7    8      0.98      0.00
   -8   -7    7      0.29      0.00
   -8   -7    6     -0.84      0.00
   -8   -7    5     -1.05      0.00
   -8   -7    4      1.19      0.00
   -8   -7    3      0.33      0.00
   -8   -7    2     -0.35      0.00
   -8   -7    1      0.49      0.00
    8    7    0     -0.20      0.00
    8    7    1     -0.74      0.00
    8    7    2      0.37      0.00
    8    7    3     -0.41      0.00
   -8   -8   17     -0.03      0.00
   -8   -8   16     -1.14      0.00
   -8   -8   15      1.60      0.00
   -8   -8   14     -1.07      0.00
   -8   -8   13      0.15      0.00
   -8   -8   12      0.15      0.00
   -8   -8   11      0.12      0.00
   -8   -8   10     -0.40      0.00
   -8   -8    9     -0.33      0.00
   -8   -8    8      1.15      0.00
   -8   -8    7     -1.25      0.00
   -8   -8    6      1.06      0.00
   -8   -8    5     -1.25      0.00
   -8   -8    4      1.07      0.00
   -8   -8    3     -0.95      0.00
   -8   -8    2      0.31      0.00
   -8   -8    1      0.83      0.00
    8    8    0     -0.18      0.00
    8    8    1     -0.09      0.00
   -8   -9   16     -1.25      0.00
   -8   -9   15      0.92      0.00
   -8   -9   14      0.47      0.00
   -8   -9   13     -0.93      0.00
   -8   -9   12     -0.10      0.00
   -8   -9   11     -0.14      0.00
   -8   -9   10      0.89      0.00
   -8   -9    9     -0.22      0.00
   -8   -9    8      0.48      0.00
   -8   -9    7     -1.15      0.00
   -8   -9    6      0.58      0.00
   -8   -9    5      0.03      0.00
   -8   -9    4      0.14      0.00
   -8   -9    3     -0.88      0.00
   -8   -9    2     -0.08      0.00
   -8   -9    1      0.70      0.00
    8    9    0     -0.19      0.00
   -8  -10   14      1.08      0.00
   -8  -10   13     -0.24      0.00
   -8  -10   12     -0.28      0.00
   -8  -10   11     -0.23      0.00
   -8  -10   10      0.13      0.00
   -8  -10    9      0.37      0.00
   -8  -10    8     -0.51      0.00
   -8  -10    7      0.50      0.00
   -8  -10    6     -0.03      0.00
   -8  -10    5      0.19      0.00
   -8  -10    4     -0.51      0.00
   -8  -10    3      0.28      0.00
   -8  -10    2      0.15      0.00
   -8  -11   11      0.32      0.00
   -8  -11    9      0.15      0.00
   -8  -11    8     -0.93      0.00
   -8  -11    7      0.41      0.00
   -8  -11    6      0.36      0.00
    9  -15    4      0.14      0.00
    9  -15    5     -0.09      0.00
   -9   14    1     -0.60      0.00
   -9   14    0     -0.30      0.00
    9  -14    1      0.17      0.00
    9  -14    2      0.12      0.00
    9  -14    3      0.21      0.00
    9  -14    4     -0.37      0.00
    9  -14    5      0.45      0.00
    9  -14    6      0.09      0.00
    9  -14    7      0.02      0.00
    9  -14    9      0.10      0.00
   -9   13    4     -0.11      0.00
   -9   13    3      0.21      0.00
   -9   13    2      0.01      0.00
   -9   13    1     -0.14      0.00
   -9   13    0      0.65      0.00
    9  -13    1     -1.15      0.00
    9  -13    2      0.66      0.00
    9  -13    3      0.32      0.00
    9  -13    4     -0.91      0.00
    9  -13    5      0.46      0.00
    9  -13    6     -0.09      0.00
    9  -13    7      0.46      0.00
    9  -13    8     -0.28      0.00
    9  -13    9     -0.01      0.00
    9  -13   10     -0.13      0.00
   -9   12    7      0.01      0.00
   -9   12    6     -0.17      0.00
   -9   12    5      0.51      0.00
   -9   12    4     -0.94      0.00
   -9   12    3      0.49      0.00
   -9   12    2      0.01      0.00
   -9   12    1     -0.49      0.00
   -9   12    0      1.34      0.00
    9  -12    1     -0.74      0.00
    9  -12    2     -0.19      0.00
    9  -12    3      0.33      0.00
    9  -12    4     -0.01      0.00
    9  -12    5     -0.61      0.00
    9  -12    6      0.37      0.00
    9  -12    7     -0.12      0.00
    9  -12    8      0.19      0.00
    9  -12    9      0.07      0.00
    9  -12   10     -0.14      0.00
    9  -12   11      0.13      0.00
   -9   11    8     -0.06      0.00
   -9   11    7      0.22      0.00
   -9   11    6     -0.19      0.00
   -9   11    5      0.34      0.00
   -9   11    4     -0.47      0.00
   -9   11    3     -0.25      0.00
   -9   11    2      0.15      0.00
   -9   11    1      0.38      0.00
   -9   11    0     -0.48      0.00
    9  -11    1      0.50      0.00
    9  -11    2      0.10      0.00
    9  -11    3     -1.10      0.00
    9  -11    4      1.66      0.00
    9  -11    5     -1.25      0.00
    9  -11    6      0.27      0.00
    9  -11    7      0.32      0.00
    9  -11    8     -0.47      0.00
    9  -11    9      0.37      0.00
    9  -11   10     -0.42      0.00
    9  -11   11      0.42      0.00
    9  -11   12     -0.10      0.00
   -9   10   10     -0.46      0.00
   -9   10    9     -0.53      0.00
   -9   10    8      0.53      0.00
   -9   10    7     -0.28      0.00
   -9   10    6      0.74      0.00
   -9   10    5     -0.83      0.00
   -9   10    4      0.38      0.00
   -9   10    3      0.52      0.00
   -9   10    2     -0.92      0.00
   -9   10    1      1.25      0.00
   -9   10    0     -0.76      0.00
    9  -10    1     -0.61      0.00
    9  -10    2      1.11      0.00
    9  -10    3     -1.00      0.00
    9  -10    4      0.64      0.00
    9  -10    5      0.30      0.00
    9  -10    6     -1.04      0.00
    9  -10    7      0.87      0.00
    9  -10    8     -0.33      0.00
    9  -10    9      0.09      0.00
    9  -10   10     -0.06      0.00
    9  -10   11      0.17      0.00
    9  -10   12      0.03      0.00
   -9    9   11     -0.19      0.00
   -9    9   10      0.58      0.00
   -9    9    9     -1.08      0.00
   -9    9    8      0.82      0.00
   -9    9    7     -0.55      0.00
   -9    9    6      0.96      0.00
   -9    9    5     -0.81      0.00
   -9    9    4     -0.63      0.00
   -9    9    3      0.93      0.00
   -9    9    2      0.14      0.00
   -9    9    1     -0.55      0.00
   -9    9    0      0.58      0.00
    9   -9    1     -0.40      0.00
    9   -9    2     -0.91      0.00
    9   -9    3      1.60      0.00
    9   -9    4     -1.22      0.00
    9   -9    5      1.33      0.00
    9   -9    6     -0.48      0.00
    9   -9    7     -0.86      0.00
    9   -9    8      0.68      0.00
    9   -9    9     -0.09      0.00
    9   -9   10      0.09      0.00
    9   -9   11     -0.21      0.00
    9   -9   12      0.28      0.00
    9   -9   13      0.20      0.00
   -9    8   12      0.81      0.00
   -9    8   11     -0.82      0.00
   -9    8   10      0.05      0.00
   -9    8    9      0.02      0.00
   -9    8    8     -0.31      0.00
   -9    8    7      0.55      0.00
   -9    8    6     -0.19      0.00
   -9    8    5     -0.05      0.00
   -9    8    4      0.64      0.00
   -9    8    3     -0.90      0.00
   -9    8    2      0.85      0.00
   -9    8    1     -0.84      0.00
   -9    8    0     -0.02      0.00
    9   -8    1      1.53      0.00
    9   -8    2     -2.41      0.00
    9   -8    3      1.47      0.00
    9   -8    4     -0.40      0.00
    9   -8    5     -0.31      0.00
    9   -8    6      1.26      0.00
    9   -8    7     -1.37      0.00
    9   -8    8      0.07      0.00
    9   -8    9      0.40      0.00
    9   -8   10      0.24      0.00
    9   -8   11     -0.39      0.00
    9   -8   12     -0.06      0.00
    9   -8   13      0.20      0.00
   -9    7   13     -0.41      0.00
   -9    7   12     -0.16      0.00
   -9    7   11      0.93      0.00
   -9    7   10     -1.18      0.00
   -9    7    9      1.31      0.00
   -9    7    8     -1.14      0.00
   -9    7    7      1.18      0.00
   -9    7    6     -0.62      0.00
   -9    7    5     -1.49      0.00
   -9    7    4      1.38      0.00
   -9    7    3      0.52      0.00
   -9    7    2     -0.57      0.00
   -9    7    1     -0.46      0.00
   -9    7    0      0.54      0.00
    9   -7    1      0.63      0.00
    9   -7    2     -0.26      0.00
    9   -7    3     -0.99      0.00
    9   -7    4      1.52      0.00
    9   -7    5     -0.67      0.00
    9   -7    6     -0.34      0.00
    9   -7    7      0.25      0.00
    9   -7    8     -0.60      0.00
    9   -7    9      0.27      0.00
    9   -7   10      0.36      0.00
    9   -7   11      0.14      0.00
    9   -7   12     -0.30      0.00
    9   -7   13     -0.35      0.00
   -9    6   14      0.43      0.00
   -9    6   13      1.11      0.00
   -9    6   12     -2.15      0.00
   -9    6   11      1.01      0.00
   -9    6   10     -0.34      0.00
   -9    6    9      0.88      0.00
   -9    6    8     -0.11      0.00
   -9    6    7      0.18      0.00
   -9    6    6     -0.02      0.00
   -9    6    5     -0.20      0.00
   -9    6    4     -1.23      0.00
   -9    6    3      1.23      0.00
   -9    6    2     -0.17      0.00
   -9    6    1     -1.52      0.00
   -9    6    0      2.07      0.00
    9   -6    1     -1.19      0.00
    9   -6    2      1.49      0.00
    9   -6    3     -1.53      0.00
    9   -6    4      0.12      0.00
    9   -6    5      1.52      0.00
    9   -6    6     -1.26      0.00
    9   -6    7      0.42      0.00
    9   -6    8     -0.19      0.00
    9   -6    9     -0.20      0.00
    9   -6   10      0.00      0.00
    9   -6   11      0.68      0.00
    9   -6   12      0.03      0.00
    9   -6   13     -0.16      0.00
   -9    5   15     -0.23      0.00
   -9    5   14     -0.45      0.00
   -9    5   13      1.23      0.00
   -9    5   12     -0.57      0.00
   -9    5   11     -1.50      0.00
   -9    5   10      1.31      0.00
   -9    5    9     -0.45      0.00
   -9    5    8      0.81      0.00
   -9    5    7     -0.52      0.00
   -9    5    6     -0.95      0.00
   -9    5    5      1.85      0.00
   -9    5    4     -0.27      0.00
   -9    5    3     -0.31      0.00
   -9    5    2     -0.23      0.00
   -9    5    1     -0.57      0.00
   -9    5    0      1.01      0.00
    9   -5    1     -1.08      0.00
    9   -5    2      0.47      0.00
    9   -5    3      0.84      0.00
    9   -5    4     -1.51      0.00
    9   -5    5      0.15      0.00
    9   -5    6      0.49      0.00
    9   -5    7      0.14      0.00
    9   -5    8      0.29      0.00
    9   -5    9     -0.13      0.00
    9   -5   10     -0.58      0.00
    9   -5   11      0.13      0.00
    9   -5   12      0.19      0.00
   -9    4   16     -0.29      0.00
   -9    4   15      0.19      0.00
   -9    4   14      0.68      0.00
   -9    4   13     -0.92      0.00
   -9    4   12      1.44      0.00
   -9    4   11     -2.23      0.00
   -9    4   10      1.60      0.00
   -9    4    9     -0.41      0.00
   -9    4    8      0.13      0.00
   -9    4    7     -0.57      0.00
   -9    4    6     -0.56      0.00
   -9    4    5     -0.21      0.00
   -9    4    4      1.66      0.00
   -9    4    3      0.71      0.00
   -9    4    2     -2.18      0.00
   -9    4    1      1.69      0.00
   -9    4    0     -0.89      0.00
    9   -4    1      0.98      0.00
    9   -4    2     -1.28      0.00
    9   -4    3      0.65      0.00
    9   -4    4      0.44      0.00
    9   -4    5     -1.77      0.00
    9   -4    6      0.76      0.00
    9   -4    7      0.03      0.00
    9   -4    8      0.28      0.00
    9   -4    9      0.34      0.00
    9   -4   10      0.05      0.00
    9   -4   11     -0.60      0.00
    9   -4   12      0.12      0.00
   -9    3   16      0.11      0.00
   -9    3   15     -0.51      0.00
   -9    3   14      1.22      0.00
   -9    3   13     -1.05      0.00
   -9    3   12      0.43      0.00
   -9    3   11     -0.22      0.00
   -9    3   10      0.46      0.00
   -9    3    9      0.13      0.00
   -9    3    8     -0.06      0.00
   -9    3    7     -1.11      0.00
   -9    3    6      1.74      0.00
   -9    3    5     -1.45      0.00
   -9    3    4     -0.42      0.00
   -9    3    3      1.46      0.00
   -9    3    2     -1.42      0.00
   -9    3    1      2.08      0.00
   -9    3    0     -2.73      0.00
    9   -3    1      1.96      0.00
    9   -3    2      0.45      0.00
    9   -3    3     -1.18      0.00
    9   -3    4      0.92      0.00
    9   -3    5     -0.93      0.00
    9   -3    6      0.59      0.00
    9   -3    7     -0.35      0.00
    9   -3    8     -0.46      0.00
    9   -3    9      0.35      0.00
    9   -3   10      0.49      0.00
    9   -3   11     -0.32      0.00
    9   -3   12      0.21      0.00
   -9    2   16      0.46      0.00
   -9    2   15      0.01      0.00
   -9    2   14     -0.29      0.00
   -9    2   13      0.64      0.00
   -9    2   12     -2.02      0.00
   -9    2   11      1.14      0.00
   -9    2   10      0.31      0.00
   -9    2    9      0.08      0.00
   -9    2    8      0.05      0.00
   -9    2    7     -1.30      0.00
   -9    2    6      1.33      0.00
   -9    2    5      1.41      0.00
   -9    2    4     -0.92      0.00
   -9    2    3     -2.46      0.00
   -9    2    2      1.03      0.00
   -9    2    1      2.26      0.00
   -9    2    0     -1.76      0.00
    9   -2    1     -1.19      0.00
    9   -2    2      1.80      0.00
    9   -2    3      0.13      0.00
    9   -2    4     -0.50      0.00
    9   -2    5     -0.57      0.00
    9   -2    6      0.65      0.00
    9   -2    7      0.62      0.00
    9   -2    8     -0.88      0.00
    9   -2    9      0.13      0.00
    9   -2   10     -0.01      0.00
    9   -2   11      0.09      0.00
   -9    1   17      0.13      0.00
   -9    1   16     -0.03      0.00
   -9    1   15      0.64      0.00
   -9    1   14     -1.33      0.00
   -9    1   13      2.21      0.00
   -9    1   12     -1.88      0.00
   -9    1   11      0.03      0.00
   -9    1   10      0.00      0.00
   -9    1    9      0.53      0.00
   -9    1    8     -0.59      0.00
   -9    1    7      0.42      0.00
   -9    1    6     -0.87      0.00
   -9    1    5      1.22      0.00
   -9    1    4      2.09      0.00
   -9    1    3     -4.39      0.00
   -9    1    2      1.01      0.00
   -9    1    1      0.59      0.00
   -9    1    0      2.10      0.00
    9   -1    1     -2.64      0.00
    9   -1    2     -0.27      0.00
    9   -1    3      2.25      0.00
    9   -1    4     -0.81      0.00
    9   -1    5     -0.62      0.00
    9   -1    6     -0.70      0.00
    9   -1    7      0.91      0.00
    9   -1    8      0.18      0.00
    9   -1    9      0.33      0.00
    9   -1   10     -0.44      0.00
    9   -1   11      0.21      0.00
   -9    0   18      0.12      0.00
   -9    0   17      0.45      0.00
   -9    0   16     -0.25      0.00
   -9    0   15      0.08      0.00
   -9    0   14     -1.16      0.00
   -9    0   13      1.24      0.00
   -9    0   12      0.45      0.00
   -9    0   11     -0.25      0.00
   -9    0   10     -0.64      0.00
   -9    0    9      0.93      0.00
   -9    0    8     -0.94      0.00
   -9    0    7      0.14      0.00
   -9    0    6      0.27      0.00
   -9    0    5     -0.06      0.00
   -9    0    4      1.19      0.00
   -9    0    3     -1.80      0.00
   -9    0    2      0.42      0.00
   -9    0    1     -1.01      0.00
    9    0    0      2.21      0.00
    9    0    1     -0.51      0.00
    9    0    2     -1.78      0.00
    9    0    3      1.40      0.00
    9    0    4      0.32      0.00
    9    0    5      0.05      0.00
    9    0    6     -0.84      0.00
    9    0    7     -0.26      0.00
    9    0    8      0.16      0.00
    9    0    9      0.51      0.00
    9    0   10     -0.16      0.00
   -9   -1   18     -0.05      0.00
   -9   -1   17      0.31      0.00
   -9   -1   16      0.41      0.00
   -9   -1   15     -0.95      0.00
   -9   -1   14      0.43      0.00
   -9   -1   13     -0.93      0.00
   -9   -1   12      1.00      0.00
   -9   -1   11     -0.03      0.00
   -9   -1   10     -0.41      0.00
   -9   -1    9      0.25      0.00
   -9   -1    8      1.10      0.00
   -9   -1    7     -1.43      0.00
   -9   -1    6     -0.58      0.00
   -9   -1    5      1.99      0.00
   -9   -1    4     -0.97      0.00
   -9   -1    3      0.76      0.00
   -9   -1    2     -1.34      0.00
   -9   -1    1      0.67      0.00
    9    1    0      0.20      0.00
    9    1    1      0.22      0.00
    9    1    2     -0.05      0.00
    9    1    3     -1.54      0.00
    9    1    4      1.02      0.00
    9    1    5      0.32      0.00
    9    1    6     -0.07      0.00
    9    1    7      0.26      0.00
    9    1    8     -0.09      0.00
    9    1    9     -0.59      0.00
   -9   -2   18      0.16      0.00
   -9   -2   17     -0.55      0.00
   -9   -2   16      0.89      0.00
   -9   -2   15     -1.17      0.00
   -9   -2   14      1.58      0.00
   -9   -2   13     -0.91      0.00
   -9   -2   12      0.00      0.00
   -9   -2   11     -0.36      0.00
   -9   -2   10     -0.04      0.00
   -9   -2    9     -0.36      0.00
   -9   -2    8      0.99      0.00
   -9   -2    7      0.44      0.00
   -9   -2    6     -2.45      0.00
   -9   -2    5      1.63      0.00
   -9   -2    4     -0.79      0.00
   -9   -2    3      2.27      0.00
   -9   -2    2     -2.34      0.00
   -9   -2    1      1.15      0.00
    9    2    0     -0.15      0.00
    9    2    1     -0.51      0.00
    9    2    2      1.71      0.00
    9    2    3     -1.79      0.00
    9    2    4      0.19      0.00
    9    2    5     -0.01      0.00
    9    2    6     -0.35      0.00
    9    2    7      0.56      0.00
    9    2    8      0.92      0.00
    9    2    9     -0.78      0.00
   -9   -3   17     -0.26      0.00
   -9   -3   16      0.20      0.00
   -9   -3   15     -0.57      0.00
   -9   -3   14      0.63      0.00
   -9   -3   13      1.04      0.00
   -9   -3   12     -0.84      0.00
   -9   -3   11     -0.30      0.00
   -9   -3   10     -0.15      0.00
   -9   -3    9      0.88      0.00
   -9   -3    8     -1.39      0.00
   -9   -3    7      1.13      0.00
   -9   -3    6     -0.04      0.00
   -9   -3    5     -0.60      0.00
   -9   -3    4     -0.38      0.00
   -9   -3    3      0.25      0.00
   -9   -3    2      0.24      0.00
   -9   -3    1      0.84      0.00
    9    3    0     -1.04      0.00
    9    3    1     -0.39      0.00
    9    3    2      0.83      0.00
    9    3    3      0.10      0.00
    9    3    4      0.07      0.00
    9    3    5     -0.04      0.00
    9    3    6     -0.40      0.00
    9    3    7     -0.39      0.00
   -9   -4   18     -0.38      0.00
   -9   -4   17      0.33      0.00
   -9   -4   16     -0.27      0.00
   -9   -4   15      0.45      0.00
   -9   -4   14     -1.36      0.00
   -9   -4   13      1.63      0.00
   -9   -4   12     -0.73      0.00
   -9   -4   11     -0.09      0.00
   -9   -4   10      0.31      0.00
   -9   -4    9      0.96      0.00
   -9   -4    8     -1.10      0.00
   -9   -4    7     -1.28      0.00
   -9   -4    6      2.09      0.00
   -9   -4    5     -0.17      0.00
   -9   -4    4      1.02      0.00
   -9   -4    3     -3.28      0.00
   -9   -4    2      1.17      0.00
   -9   -4    1      1.53      0.00
    9    4    0     -0.87      0.00
    9    4    1     -0.22      0.00
    9    4    2     -0.49      0.00
    9    4    3      0.27      0.00
    9    4    4      0.26      0.00
    9    4    5      0.13      0.00
    9    4    6      0.20      0.00
   -9   -5   18     -0.28      0.00
   -9   -5   17      0.21      0.00
   -9   -5   16     -0.79      0.00
   -9   -5   15      1.17      0.00
   -9   -5   14     -0.55      0.00
   -9   -5   13     -0.42      0.00
   -9   -5   12     -0.40      0.00
   -9   -5   11      0.00      0.00
   -9   -5   10      1.61      0.00
   -9   -5    9     -0.86      0.00
   -9   -5    8      0.23      0.00
   -9   -5    7     -1.05      0.00
   -9   -5    6      0.42      0.00
   -9   -5    5      0.35      0.00
   -9   -5    4      1.42      0.00
   -9   -5    3     -2.16      0.00
   -9   -5    2      0.61      0.00
   -9   -5    1      0.26      0.00
    9    5    0     -0.02      0.00
    9    5    1      0.30      0.00
    9    5    2     -0.45      0.00
    9    5    3     -0.20      0.00
    9    5    4      0.02      0.00
    9    5    5      0.15      0.00
   -9   -6   18     -0.03      0.00
   -9   -6   17      0.08      0.00
   -9   -6   16     -0.39      0.00
   -9   -6   15     -0.58      0.00
   -9   -6   14      1.98      0.00
   -9   -6   13     -1.10      0.00
   -9   -6   12     -0.93      0.00
   -9   -6   11      0.31      0.00
   -9   -6   10      1.39      0.00
   -9   -6    9     -1.17      0.00
   -9   -6    8     -0.57      0.00
   -9   -6    7      1.53      0.00
   -9   -6    6     -0.50      0.00
   -9   -6    5      0.19      0.00
   -9   -6    4     -0.98      0.00
   -9   -6    3      0.22      0.00
   -9   -6    2      0.76      0.00
   -9   -6    1     -0.01      0.00
    9    6    0     -0.34      0.00
    9    6    1      0.03      0.00
    9    6    2      0.07      0.00
    9    6    3      0.03      0.00
   -9   -7   17     -0.66      0.00
   -9   -7   16      0.86      0.00
   -9   -7   15     -1.47      0.00
   -9   -7   14      1.24      0.00
   -9   -7   13      0.19      0.00
   -9   -7   12     -1.05      0.00
   -9   -7   11      1.11      0.00
   -9   -7   10     -0.21      0.00
   -9   -7    9     -0.81      0.00
   -9   -7    8     -1.20      0.00
   -9   -7    7      1.96      0.00
   -9   -7    6      0.07      0.00
   -9   -7    5      0.35      0.00
   -9   -7    4     -1.79      0.00
   -9   -7    3      0.94      0.00
   -9   -7    2     -0.15      0.00
   -9   -7    1      0.11      0.00
    9    7    0      0.52      0.00
    9    7    1     -0.31      0.00
   -9   -8   16      0.04      0.00
   -9   -8   15     -0.06      0.00
   -9   -8   14     -0.01      0.00
   -9   -8   13      0.44      0.00
   -9   -8   12     -0.74      0.00
   -9   -8   11      0.96      0.00
   -9   -8   10      0.06      0.00
   -9   -8    9     -0.57      0.00
   -9   -8    8     -0.56      0.00
   -9   -8    7      0.22      0.00
   -9   -8    6      0.58      0.00
   -9   -8    5     -0.01      0.00
   -9   -8    4     -0.42      0.00
   -9   -8    3      0.16      0.00
   -9   -8    2     -0.35      0.00
   -9   -8    1     -0.21      0.00
    9    8    0      0.52      0.00
   -9   -9   13      0.50      0.00
   -9   -9   12     -0.30      0.00
   -9   -9   11     -0.59      0.00
   -9   -9   10      0.35      0.00
   -9   -9    9     -0.06      0.00
   -9   -9    8      0.85      0.00
   -9   -9    7     -0.96      0.00
   -9   -9    6      0.57      0.00
   -9   -9    5     -0.38      0.00
   -9   -9    4      0.90      0.00
   -9   -9    3     -0.35      0.00
   -9   -9    2     -0.89      0.00
   -9  -10   12      0.41      0.00
   -9  -10   11     -0.78      0.00
   -9  -10   10     -0.07      0.00
   -9  -10    9     -0.16      0.00
   -9  -10    8      0.60      0.00
   -9  -10    7     -0.60      0.00
   -9  -10    6      0.39      0.00
  -10   14    0     -0.95      0.00
   10  -14    1      0.45      0.00
   10  -14    2     -0.05      0.00
   10  -14    3     -0.48      0.00
   10  -14    4      0.35      0.00
   10  -14    5     -0.21      0.00
   10  -14    6      0.20      0.00
   10  -14    7      0.36      0.00
  -10   13    3     -0.67      0.00
  -10   13    2      0.19      0.00
  -10   13    1      0.42      0.00
  -10   13    0     -0.09      0.00
   10  -13    1     -0.17      0.00
   10  -13    2     -0.38      0.00
   10  -13    3      0.69      0.00
   10  -13    4     -0.54      0.00
   10  -13    5      0.24      0.00
   10  -13    6     -0.47      0.00
   10  -13    7      0.50      0.00
   10  -13    8      0.14      0.00
   10  -13    9     -0.23      0.00
  -10   12    6     -0.24      0.00
  -10   12    5      0.28      0.00
  -10   12    4      0.04      0.00
  -10   12    3     -0.17      0.00
  -10   12    2      0.24      0.00
  -10   12    1     -1.14      0.00
  -10   12    0      1.02      0.00
   10  -12    1      0.36      0.00
   10  -12    2     -1.04      0.00
   10  -12    3      1.13      0.00
   10  -12    4     -0.61      0.00
   10  -12    5      0.20      0.00
   10  -12    6     -0.06      0.00
   10  -12    7     -0.33      0.00
   10  -12    8      0.17      0.00
   10  -12    9      0.08      0.00
   10  -12   10      0.14      0.00
  -10   11    8     -0.17      0.00
  -10   11    7      0.10      0.00
  -10   11    6     -0.48      0.00
  -10   11    5      0.90      0.00
  -10   11    4     -0.14      0.00
  -10   11    3     -0.28      0.00
  -10   11    2      0.58      0.00
  -10   11    1     -1.16      0.00
  -10   11    0      0.14      0.00
   10  -11    1      0.71      0.00
   10  -11    2     -0.14      0.00
   10  -11    3     -0.53      0.00
   10  -11    4      0.85      0.00
   10  -11    5     -0.53      0.00
   10  -11    6      0.18      0.00
   10  -11    7      0.06      0.00
   10  -11    8     -0.20      0.00
   10  -11    9      0.17      0.00
   10  -11   10     -0.04      0.00
  -10   10    9     -0.18      0.00
  -10   10    8      0.15      0.00
  -10   10    7     -0.08      0.00
  -10   10    6     -0.68      0.00
  -10   10    5      0.54      0.00
  -10   10    4     -0.07      0.00
  -10   10    3      0.34      0.00
  -10   10    2     -0.62      0.00
  -10   10    1      0.48      0.00
  -10   10    0     -0.03      0.00
   10  -10    1     -0.63      0.00
   10  -10    2      1.65      0.00
   10  -10    3     -1.83      0.00
   10  -10    4      0.69      0.00
   10  -10    5      0.42      0.00
   10  -10    6     -0.84      0.00
   10  -10    7      0.47      0.00
   10  -10    8     -0.01      0.00
   10  -10    9      0.14      0.00
   10  -10   10     -0.23      0.00
   10  -10   11      0.07      0.00
  -10    9   11      0.29      0.00
  -10    9   10      0.70      0.00
  -10    9    9     -1.01      0.00
  -10    9    8      0.60      0.00
  -10    9    7     -0.22      0.00
  -10    9    6     -0.03      0.00
  -10    9    5      0.53      0.00
  -10    9    4     -0.98      0.00
  -10    9    3      0.83      0.00
  -10    9    2     -0.57      0.00
  -10    9    1     -0.06      0.00
  -10    9    0      0.66      0.00
   10   -9    1     -0.99      0.00
   10   -9    2      0.92      0.00
   10   -9    3      0.01      0.00
   10   -9    4     -1.05      0.00
   10   -9    5      1.02      0.00
   10   -9    6     -0.32      0.00
   10   -9    7     -0.17      0.00
   10   -9    8      0.00      0.00
   10   -9    9      0.15      0.00
   10   -9   10     -0.04      0.00
   10   -9   11     -0.12      0.00
  -10    8   12      0.06      0.00
  -10    8   11     -0.47      0.00
  -10    8   10      1.18      0.00
  -10    8    9     -0.86      0.00
  -10    8    8      0.17      0.00
  -10    8    7     -0.49      0.00
  -10    8    6      0.19      0.00
  -10    8    5      0.53      0.00
  -10    8    4      0.07      0.00
  -10    8    3     -0.65      0.00
  -10    8    2      0.91      0.00
  -10    8    1     -0.30      0.00
  -10    8    0     -0.65      0.00
   10   -8    1      0.84      0.00
   10   -8    2     -1.00      0.00
   10   -8    3      1.23      0.00
   10   -8    4     -0.74      0.00
   10   -8    5     -0.31      0.00
   10   -8    6      0.73      0.00
   10   -8    7      0.04      0.00
   10   -8    8     -0.25      0.00
   10   -8    9     -0.24      0.00
   10   -8   10      0.01      0.00
   10   -8   11      0.05      0.00
  -10    7   13     -0.39      0.00
  -10    7   12      0.54      0.00
  -10    7   11     -0.01      0.00
  -10    7   10     -0.17      0.00
  -10    7    9      0.08      0.00
  -10    7    8     -0.43      0.00
  -10    7    7     -0.04      0.00
  -10    7    6      1.09      0.00
  -10    7    5     -1.17      0.00
  -10    7    4      0.58      0.00
  -10    7    3     -0.76      0.00
  -10    7    2      0.65      0.00
  -10    7    1      0.69      0.00
  -10    7    0     -1.83      0.00
   10   -7    1      1.52      0.00
   10   -7    2     -0.42      0.00
   10   -7    3     -0.32      0.00
   10   -7    4      0.56      0.00
   10   -7    5     -0.45      0.00
   10   -7    6      0.10      0.00
   10   -7    7      0.50      0.00
   10   -7    8      0.05      0.00
   10   -7    9     -0.23      0.00
   10   -7   10     -0.25      0.00
   10   -7   11     -0.03      0.00
  -10    6   14     -0.13      0.00
  -10    6   13      0.39      0.00
  -10    6   12     -0.52      0.00
  -10    6   11      0.97      0.00
  -10    6   10     -0.96      0.00
  -10    6    9      0.58      0.00
  -10    6    8     -0.65      0.00
  -10    6    7     -0.25      0.00
  -10    6    6      1.35      0.00
  -10    6    5      0.24      0.00
  -10    6    4     -1.01      0.00
  -10    6    3     -0.28      0.00
  -10    6    2      0.60      0.00
  -10    6    1     -0.05      0.00
  -10    6    0     -0.82      0.00
   10   -6    1     -0.07      0.00
   10   -6    2      1.55      0.00
   10   -6    3     -1.16      0.00
   10   -6    4     -0.13      0.00
   10   -6    5      0.57      0.00
   10   -6    6     -0.38      0.00
   10   -6    7      0.11      0.00
   10   -6    8      0.19      0.00
   10   -6    9      0.02      0.00
   10   -6   10     -0.28      0.00
   10   -6   11     -0.07      0.00
  -10    5   15      0.04      0.00
  -10    5   14     -1.26      0.00
  -10    5   13      1.34      0.00
  -10    5   12     -0.18      0.00
  -10    5   11      0.07      0.00
  -10    5   10     -1.03      0.00
  -10    5    9      0.51      0.00
  -10    5    8     -0.02      0.00
  -10    5    7      0.66      0.00
  -10    5    6     -1.38      0.00
  -10    5    5      1.51      0.00
  -10    5    4     -0.61      0.00
  -10    5    3     -0.51      0.00
  -10    5    2      1.36      0.00
  -10    5    1     -1.18      0.00
  -10    5    0      1.15      0.00
   10   -5    1     -1.66      0.00
   10   -5    2      0.92      0.00
   10   -5    3      0.39      0.00
   10   -5    4     -0.59      0.00
   10   -5    5      0.31      0.00
   10   -5    6     -0.28      0.00
   10   -5    7     -0.13      0.00
   10   -5    8      0.10      0.00
   10   -5    9      0.37      0.00
   10   -5   10     -0.32      0.00
   10   -5   11      0.05      0.00
  -10    4   15      0.42      0.00
  -10    4   14     -0.84      0.00
  -10    4   13      0.34      0.00
  -10    4   12      1.38      0.00
  -10    4   11     -0.85      0.00
  -10    4   10     -0.42      0.00
  -10    4    9      0.20      0.00
  -10    4    8     -0.45      0.00
  -10    4    7      1.58      0.00
  -10    4    6     -1.05      0.00
  -10    4    5     -0.41      0.00
  -10    4    4     -0.27      0.00
  -10    4    3      0.33      0.00
  -10    4    2      0.83      0.00
  -10    4    1     -1.49      0.00
  -10    4    0      1.45      0.00
   10   -4    1     -0.05      0.00
   10   -4    2     -0.77      0.00
   10   -4    3      0.63      0.00
   10   -4    4      0.03      0.00
   10   -4    5     -0.07      0.00
   10   -4    6     -0.23      0.00
   10   -4    7     -0.18      0.00
   10   -4    8     -0.16      0.00
   10   -4    9      0.29      0.00
   10   -4   10      0.08      0.00
   10   -4   11      0.19      0.00
  -10    3   15     -0.47      0.00
  -10    3   14      0.54      0.00
  -10    3   13     -1.01      0.00
  -10    3   12      1.75      0.00
  -10    3   11     -1.21      0.00
  -10    3   10      0.26      0.00
  -10    3    9      0.20      0.00
  -10    3    8      0.17      0.00
  -10    3    7     -0.88      0.00
  -10    3    6      1.54      0.00
  -10    3    5     -0.52      0.00
  -10    3    4     -1.53      0.00
  -10    3    3      1.45      0.00
  -10    3    2     -0.22      0.00
  -10    3    1      0.19      0.00
  -10    3    0     -1.14      0.00
   10   -3    1      0.67      0.00
   10   -3    2      0.06      0.00
   10   -3    3      0.14      0.00
   10   -3    4      0.36      0.00
   10   -3    5     -0.41      0.00
   10   -3    6      0.21      0.00
   10   -3    7      0.10      0.00
   10   -3    8     -0.21      0.00
   10   -3    9     -0.50      0.00
   10   -3   10      0.39      0.00
  -10    2   16      0.22      0.00
  -10    2   15     -0.63      0.00
  -10    2   14      1.13      0.00
  -10    2   13     -0.63      0.00
  -10    2   12      0.62      0.00
  -10    2   11     -0.88      0.00
  -10    2   10      0.19      0.00
  -10    2    9     -0.65      0.00
  -10    2    8      1.97      0.00
  -10    2    7     -1.95      0.00
  -10    2    6      0.07      0.00
  -10    2    5      0.99      0.00
  -10    2    4     -0.55      0.00
  -10    2    3      1.23      0.00
  -10    2    2     -2.29      0.00
  -10    2    1      2.15      0.00
  -10    2    0     -0.42      0.00
   10   -2    1     -0.95      0.00
   10   -2    2     -0.02      0.00
   10   -2    3      0.01      0.00
   10   -2    4      1.02      0.00
   10   -2    5     -0.65      0.00
   10   -2    6     -0.28      0.00
   10   -2    7      0.65      0.00
   10   -2    8      0.35      0.00
   10   -2    9     -0.89      0.00
   10   -2   10      0.39      0.00
  -10    1   17     -0.20      0.00
  -10    1   16     -0.18      0.00
  -10    1   15      0.01      0.00
  -10    1   14     -0.32      0.00
  -10    1   13      1.13      0.00
  -10    1   12     -0.19      0.00
  -10    1   11      0.01      0.00
  -10    1   10     -0.15      0.00
  -10    1    9     -0.78      0.00
  -10    1    8      0.45      0.00
  -10    1    7      1.11      0.00
  -10    1    6     -1.26      0.00
  -10    1    5     -1.28      0.00
  -10    1    4      1.84      0.00
  -10    1    3      1.53      0.00
  -10    1    2     -2.47      0.00
  -10    1    1     -0.53      0.00
  -10    1    0      1.91      0.00
   10   -1    1     -0.09      0.00
   10   -1    2     -1.26      0.00
   10   -1    3     -0.08      0.00
   10   -1    4      1.01      0.00
   10   -1    5      0.24      0.00
   10   -1    6     -1.00      0.00
   10   -1    7     -0.06      0.00
   10   -1    8      0.52      0.00
   10   -1    9      0.00      0.00
  -10    0   17      0.23      0.00
  -10    0   16     -0.36      0.00
  -10    0   15      1.03      0.00
  -10    0   14     -1.94      0.00
  -10    0   13      0.92      0.00
  -10    0   12     -0.16      0.00
  -10    0   11      0.69      0.00
  -10    0   10     -0.57      0.00
  -10    0    9      0.93      0.00
  -10    0    8     -1.49      0.00
  -10    0    7      0.82      0.00
  -10    0    6      1.28      0.00
  -10    0    5     -2.88      0.00
  -10    0    4      1.70      0.00
  -10    0    3      0.43      0.00
  -10    0    2      0.79      0.00
  -10    0    1     -2.62      0.00
   10    0    0      0.89      0.00
   10    0    1      1.57      0.00
   10    0    2     -1.45      0.00
   10    0    3     -0.15      0.00
   10    0    4      0.35      0.00
   10    0    5      0.72      0.00
   10    0    6     -0.23      0.00
   10    0    7     -0.32      0.00
   10    0    8     -0.77      0.00
   10    0    9      0.81      0.00
  -10   -1   17      0.17      0.00
  -10   -1   16     -0.20      0.00
  -10   -1   15      1.21      0.00
  -10   -1   14     -0.93      0.00
  -10   -1   13     -0.55      0.00
  -10   -1   12     -0.20      0.00
  -10   -1   11      0.82      0.00
  -10   -1   10     -0.48      0.00
  -10   -1    9     -0.05      0.00
  -10   -1    8      0.50      0.00
  -10   -1    7     -0.51      0.00
  -10   -1    6      0.69      0.00
  -10   -1    5     -1.22      0.00
  -10   -1    4      1.02      0.00
  -10   -1    3     -0.65      0.00
  -10   -1    2      1.25      0.00
  -10   -1    1     -1.20      0.00
   10    1    0     -0.23      0.00
   10    1    1      1.19      0.00
   10    1    2     -0.14      0.00
   10    1    3     -0.58      0.00
   10    1    4     -0.25      0.00
   10    1    5      0.38      0.00
   10    1    6     -0.11      0.00
   10    1    7      0.64      0.00
   10    1    8     -0.63      0.00
  -10   -2   16     -0.07      0.00
  -10   -2   15      0.00      0.00
  -10   -2   14      0.80      0.00
  -10   -2   13     -0.59      0.00
  -10   -2   12      0.01      0.00
  -10   -2   11      0.01      0.00
  -10   -2   10      0.92      0.00
  -10   -2    9     -1.81      0.00
  -10   -2    8      0.44      0.00
  -10   -2    7      1.51      0.00
  -10   -2    6     -1.33      0.00
  -10   -2    5      0.02      0.00
  -10   -2    4     -0.54      0.00
  -10   -2    3      1.00      0.00
  -10   -2    2     -0.38      0.00
  -10   -2    1     -0.23      0.00
   10    2    0      0.21      0.00
   10    2    1     -0.24      0.00
   10    2    2      0.91      0.00
   10    2    3     -0.22      0.00
   10    2    4     -0.35      0.00
   10    2    5      0.19      0.00
   10    2    6     -0.69      0.00
   10    2    7     -0.05      0.00
  -10   -3   17     -0.09      0.00
  -10   -3   16      0.48      0.00
  -10   -3   15     -1.11      0.00
  -10   -3   14      0.48      0.00
  -10   -3   13     -0.09      0.00
  -10   -3   12      1.01      0.00
  -10   -3   11     -0.44      0.00
  -10   -3   10      0.25      0.00
  -10   -3    9     -0.32      0.00
  -10   -3    8     -0.69      0.00
  -10   -3    7      1.61      0.00
  -10   -3    6     -1.07      0.00
  -10   -3    5      0.75      0.00
  -10   -3    4     -1.39      0.00
  -10   -3    3      1.30      0.00
  -10   -3    2     -1.06      0.00
  -10   -3    1      0.37      0.00
   10    3    0      0.51      0.00
   10    3    1     -0.96      0.00
   10    3    2      0.60      0.00
   10    3    3      0.04      0.00
   10    3    4     -0.08      0.00
   10    3    5      0.46      0.00
   10    3    6      0.06      0.00
  -10   -4   17     -0.35      0.00
  -10   -4   16      0.77      0.00
  -10   -4   15     -0.17      0.00
  -10   -4   14     -0.87      0.00
  -10   -4   13      0.12      0.00
  -10   -4   12      0.45      0.00
  -10   -4   11      0.32      0.00
  -10   -4   10     -1.10      0.00
  -10   -4    9      0.78      0.00
  -10   -4    8      0.56      0.00
  -10   -4    7     -0.47      0.00
  -10   -4    6     -0.68      0.00
  -10   -4    5      0.38      0.00
  -10   -4    4      0.84      0.00
  -10   -4    3      0.35      0.00
  -10   -4    2     -1.82      0.00
  -10   -4    1      0.65      0.00
   10    4    0      0.81      0.00
   10    4    1     -0.70      0.00
   10    4    2      0.03      0.00
   10    4    3      0.08      0.00
   10    4    4     -0.33      0.00
   10    4    5     -0.11      0.00
  -10   -5   17      0.16      0.00
  -10   -5   16     -0.56      0.00
  -10   -5   15      1.16      0.00
  -10   -5   14     -0.99      0.00
  -10   -5   13      0.84      0.00
  -10   -5   12     -0.48      0.00
  -10   -5   11     -0.35      0.00
  -10   -5   10     -0.58      0.00
  -10   -5    9      0.39      0.00
  -10   -5    8      1.46      0.00
  -10   -5    7     -0.84      0.00
  -10   -5    6     -0.59      0.00
  -10   -5    5     -0.98      0.00
  -10   -5    4      2.08      0.00
  -10   -5    3     -0.13      0.00
  -10   -5    2     -0.81      0.00
  -10   -5    1     -0.08      0.00
   10    5    0      0.34      0.00
   10    5    1      0.33      0.00
   10    5    2     -0.14      0.00
   10    5    3     -0.01      0.00
   10    5    4      0.02      0.00
  -10   -6   17      1.03      0.00
  -10   -6   16     -0.79      0.00
  -10   -6   15     -0.07      0.00
  -10   -6   14     -0.08      0.00
  -10   -6   13      0.93      0.00
  -10   -6   12      0.11      0.00
  -10   -6   11     -1.34      0.00
  -10   -6   10      0.37      0.00
  -10   -6    9      0.20      0.00
  -10   -6    8      0.20      0.00
  -10   -6    7     -0.33      0.00
  -10   -6    6      0.28      0.00
  -10   -6    5     -0.60      0.00
  -10   -6    4      1.21      0.00
  -10   -6    3     -1.32      0.00
  -10   -6    2      0.28      0.00
  -10   -6    1      0.45      0.00
   10    6    0     -0.47      0.00
   10    6    1      0.17      0.00
  -10   -7   16      0.74      0.00
  -10   -7   15     -0.99      0.00
  -10   -7   14     -0.02      0.00
  -10   -7   13      0.52      0.00
  -10   -7   12      0.23      0.00
  -10   -7   11     -0.72      0.00
  -10   -7   10      0.79      0.00
  -10   -7    9      0.39      0.00
  -10   -7    8     -1.00      0.00
  -10   -7    7     -0.40      0.00
  -10   -7    6      0.12      0.00
  -10   -7    5      0.87      0.00
  -10   -7    4      0.04      0.00
  -10   -7    3     -0.56      0.00
  -10   -7    2     -0.19      0.00
  -10   -7    1      0.24      0.00
  -10   -8   14     -0.43      0.00
  -10   -8   12     -0.42      0.00
  -10   -8   11     -0.09      0.00
  -10   -8   10      0.66      0.00
  -10   -8    9      0.79      0.00
  -10   -8    8     -0.97      0.00
  -10   -8    7      0.07      0.00
  -10   -8    6     -0.80      0.00
  -10   -8    5      1.29      0.00
  -10   -8    4     -0.75      0.00
  -10   -8    3      0.30      0.00
  -10   -9   11     -0.03      0.00
  -10   -9   10     -0.19      0.00
  -10   -9    9      0.39      0.00
  -10   -9    8     -0.11      0.00
  -10   -9    7      0.20      0.00
  -10   -9    6     -0.47      0.00
  -11   13    1      0.87      0.00
  -11   13    0     -0.03      0.00
   11  -13    1     -0.25      0.00
   11  -13    2      0.35      0.00
   11  -13    3     -0.24      0.00
   11  -13    4     -0.01      0.00
   11  -13    5      0.20      0.00
  -11   12    5     -0.55      0.00
  -11   12    4      0.20      0.00
  -11   12    3      0.30      0.00
  -11   12    2     -0.17      0.00
  -11   12    1     -0.11      0.00
  -11   12    0     -0.12      0.00
   11  -12    1      0.41      0.00
   11  -12    2     -0.66      0.00
   11  -12    3      0.88      0.00
   11  -12    4     -0.51      0.00
   11  -12    5      0.13      0.00
   11  -12    6      0.20      0.00
   11  -12    7     -0.38      0.00
   11  -12    8      0.31      0.00
  -11   11    7      0.08      0.00
  -11   11    6     -0.08      0.00
  -11   11    5     -0.36      0.00
  -11   11    4      0.54      0.00
  -11   11    3     -0.68      0.00
  -11   11    2      1.13      0.00
  -11   11    1     -0.39      0.00
  -11   11    0     -0.83      0.00
   11  -11    1      0.99      0.00
   11  -11    2     -1.02      0.00
   11  -11    3      0.53      0.00
   11  -11    4      0.28      0.00
   11  -11    5     -0.61      0.00
   11  -11    6      0.34      0.00
   11  -11    7      0.00      0.00
   11  -11    8      0.27      0.00
   11  -11    9     -0.38      0.00
  -11   10    9      0.09      0.00
  -11   10    8      0.08      0.00
  -11   10    7      0.71      0.00
  -11   10    6     -0.29      0.00
  -11   10    5     -0.73      0.00
  -11   10    4      0.55      0.00
  -11   10    3     -0.38      0.00
  -11   10    2      0.25      0.00
  -11   10    1      0.55      0.00
  -11   10    0     -0.87      0.00
   11  -10    1     -0.02      0.00
   11  -10    2      0.83      0.00
   11  -10    3     -0.69      0.00
   11  -10    4      0.21      0.00
   11  -10    5      0.09      0.00
   11  -10    6     -0.20      0.00
   11  -10    7     -0.27      0.00
   11  -10    8      0.27      0.00
   11  -10    9      0.14      0.00
  -11    9   10      0.20      0.00
  -11    9    9     -0.26      0.00
  -11    9    8     -0.47      0.00
  -11    9    7      1.11      0.00
  -11    9    6     -0.31      0.00
  -11    9    5      0.32      0.00
  -11    9    4     -0.96      0.00
  -11    9    3      0.85      0.00
  -11    9    2     -0.59      0.00
  -11    9    1      0.31      0.00
  -11    9    0      0.84      0.00
   11   -9    1     -1.79      0.00
   11   -9    2      0.99      0.00
   11   -9    3      0.36      0.00
   11   -9    4     -0.58      0.00
   11   -9    5      0.29      0.00
   11   -9    6      0.23      0.00
   11   -9    7     -0.27      0.00
   11   -9    8     -0.37      0.00
   11   -9    9      0.14      0.00
   11   -9   10      0.30      0.00
  -11    8   11     -0.94      0.00
  -11    8   10      0.68      0.00
  -11    8    9      0.19      0.00
  -11    8    8     -0.47      0.00
  -11    8    7      0.64      0.00
  -11    8    6     -1.10      0.00
  -11    8    5      0.84      0.00
  -11    8    4     -0.35      0.00
  -11    8    3      0.04      0.00
  -11    8    2      0.15      0.00
  -11    8    1     -0.52      0.00
  -11    8    0      1.40      0.00
   11   -8    1     -0.66      0.00
   11   -8    2     -0.99      0.00
   11   -8    3      0.91      0.00
   11   -8    4     -0.08      0.00
   11   -8    5     -0.21      0.00
   11   -8    6      0.07      0.00
   11   -8    7      0.29      0.00
   11   -8    8     -0.04      0.00
   11   -8    9      0.00      0.00
   11   -8   10      0.00      0.00
  -11    7   12      0.72      0.00
  -11    7   11     -0.78      0.00
  -11    7   10      0.53      0.00
  -11    7    9      0.02      0.00
  -11    7    8      0.11      0.00
  -11    7    7     -0.40      0.00
  -11    7    6      0.38      0.00
  -11    7    5     -0.99      0.00
  -11    7    4      1.14      0.00
  -11    7    3     -0.66      0.00
  -11    7    2     -0.22      0.00
  -11    7    1      0.58      0.00
  -11    7    0     -0.25      0.00
   11   -7    1      0.73      0.00
   11   -7    2     -1.04      0.00
   11   -7    3      0.24      0.00
   11   -7    4      0.16      0.00
   11   -7    5     -0.02      0.00
   11   -7    6     -0.39      0.00
   11   -7    7     -0.05      0.00
   11   -7    8      0.14      0.00
   11   -7    9      0.61      0.00
   11   -7   10      0.07      0.00
  -11    6   13     -0.67      0.00
  -11    6   12     -0.08      0.00
  -11    6   11     -0.11      0.00
  -11    6   10      0.61      0.00
  -11    6    9     -0.08      0.00
  -11    6    8      0.86      0.00
  -11    6    7     -1.94      0.00
  -11    6    6      1.05      0.00
  -11    6    5     -0.30      0.00
  -11    6    4      0.81      0.00
  -11    6    3     -0.07      0.00
  -11    6    2     -1.30      0.00
  -11    6    1      1.51      0.00
  -11    6    0     -0.74      0.00
   11   -6    1     -0.05      0.00
   11   -6    2      0.14      0.00
   11   -6    3      0.01      0.00
   11   -6    4     -0.13      0.00
   11   -6    5      0.29      0.00
   11   -6    6     -0.11      0.00
   11   -6    7     -0.29      0.00
   11   -6    8     -0.26      0.00
   11   -6    9      0.37      0.00
   11   -6   10      0.40      0.00
  -11    5   14     -0.06      0.00
  -11    5   13     -0.13      0.00
  -11    5   12     -0.52      0.00
  -11    5   11      0.82      0.00
  -11    5   10     -0.46      0.00
  -11    5    9     -0.32      0.00
  -11    5    8      0.56      0.00
  -11    5    7      0.25      0.00
  -11    5    6     -1.29      0.00
  -11    5    5      0.62      0.00
  -11    5    4      0.66      0.00
  -11    5    3     -0.13      0.00
  -11    5    2     -0.63      0.00
  -11    5    1      0.30      0.00
  -11    5    0      0.75      0.00
   11   -5    1     -1.02      0.00
   11   -5    2      0.33      0.00
   11   -5    3     -0.03      0.00
   11   -5    4     -0.14      0.00
   11   -5    5      0.27      0.00
   11   -5    6      0.16      0.00
   11   -5    7     -0.04      0.00
   11   -5    8     -0.40      0.00
   11   -5    9      0.09      0.00
   11   -5   10      0.27      0.00
  -11    4   14     -0.47      0.00
  -11    4   13     -0.10      0.00
  -11    4   12     -0.64      0.00
  -11    4   11      1.46      0.00
  -11    4   10     -0.73      0.00
  -11    4    9      0.57      0.00
  -11    4    8     -1.67      0.00
  -11    4    7      1.92      0.00
  -11    4    6     -0.85      0.00
  -11    4    5     -0.06      0.00
  -11    4    4      0.62      0.00
  -11    4    3     -1.03      0.00
  -11    4    2      1.21      0.00
  -11    4    1     -1.60      0.00
  -11    4    0      1.20      0.00
   11   -4    1     -0.23      0.00
   11   -4    2     -0.07      0.00
   11   -4    3     -0.02      0.00
   11   -4    4     -0.09      0.00
   11   -4    5      0.21      0.00
   11   -4    6     -0.04      0.00
   11   -4    7      0.27      0.00
   11   -4    8     -0.36      0.00
   11   -4    9      0.03      0.00
  -11    3   15      0.32      0.00
  -11    3   14     -0.10      0.00
  -11    3   13     -0.78      0.00
  -11    3   12      0.20      0.00
  -11    3   11      0.56      0.00
  -11    3   10     -1.01      0.00
  -11    3    9      1.29      0.00
  -11    3    8     -0.55      0.00
  -11    3    7     -0.36      0.00
  -11    3    6      0.27      0.00
  -11    3    5      0.53      0.00
  -11    3    4      0.03      0.00
  -11    3    3     -1.58      0.00
  -11    3    2      1.74      0.00
  -11    3    1     -0.59      0.00
  -11    3    0     -0.25      0.00
   11   -3    1      0.23      0.00
   11   -3    2     -0.25      0.00
   11   -3    3      0.06      0.00
   11   -3    4      0.17      0.00
   11   -3    5     -0.05      0.00
   11   -3    6     -0.12      0.00
   11   -3    7      0.37      0.00
   11   -3    8     -0.13      0.00
   11   -3    9      0.12      0.00
  -11    2   16      0.19      0.00
  -11    2   15     -0.52      0.00
  -11    2   14      1.04      0.00
  -11    2   13     -1.21      0.00
  -11    2   12      0.66      0.00
  -11    2   11      0.20      0.00
  -11    2   10     -0.20      0.00
  -11    2    9     -1.05      0.00
  -11    2    8      1.91      0.00
  -11    2    7     -0.64      0.00
  -11    2    6     -1.02      0.00
  -11    2    5      1.12      0.00
  -11    2    4     -0.40      0.00
  -11    2    3     -0.04      0.00
  -11    2    2     -0.53      0.00
  -11    2    1      0.74      0.00
  -11    2    0     -0.02      0.00
   11   -2    1      0.21      0.00
   11   -2    2     -0.31      0.00
   11   -2    3     -0.60      0.00
   11   -2    4      0.47      0.00
   11   -2    5      0.14      0.00
   11   -2    6     -0.47      0.00
   11   -2    7      0.12      0.00
   11   -2    8      0.60      0.00
   11   -2    9     -0.36      0.00
  -11    1   16      0.38      0.00
  -11    1   15     -1.02      0.00
  -11    1   14      0.48      0.00
  -11    1   13     -0.34      0.00
  -11    1   12      0.45      0.00
  -11    1   11     -0.34      0.00
  -11    1   10      1.41      0.00
  -11    1    9     -1.91      0.00
  -11    1    8      0.31      0.00
  -11    1    7      1.26      0.00
  -11    1    6     -0.42      0.00
  -11    1    5      0.01      0.00
  -11    1    4     -1.72      0.00
  -11    1    3      2.27      0.00
  -11    1    2     -0.51      0.00
  -11    1    1     -0.71      0.00
  -11    1    0     -0.02      0.00
   11   -1    1      0.94      0.00
   11   -1    2      0.04      0.00
   11   -1    3     -0.91      0.00
   11   -1    4     -0.16      0.00
   11   -1    5      0.80      0.00
   11   -1    6     -0.04      0.00
   11   -1    7     -1.07      0.00
   11   -1    8      1.03      0.00
  -11    0   16      0.27      0.00
  -11    0   15      0.21      0.00
  -11    0   14     -0.49      0.00
  -11    0   13     -0.17      0.00
  -11    0   12      0.22      0.00
  -11    0   11     -0.48      0.00
  -11    0   10      0.38      0.00
  -11    0    9      0.80      0.00
  -11    0    8     -1.25      0.00
  -11    0    7     -0.61      0.00
  -11    0    6      1.83      0.00
  -11    0    5      0.05      0.00
  -11    0    4     -2.13      0.00
  -11    0    3      0.74      0.00
  -11    0    2      1.71      0.00
  -11    0    1     -0.67      0.00
   11    0    0     -1.33      0.00
   11    0    1      1.00      0.00
   11    0    2      0.38      0.00
   11    0    3     -0.46      0.00
   11    0    4     -0.53      0.00
   11    0    5      0.34      0.00
   11    0    6      0.92      0.00
   11    0    7     -0.65      0.00
  -11   -1   17      0.02      0.00
  -11   -1   16     -0.39      0.00
  -11   -1   15      0.90      0.00
  -11   -1   14      0.03      0.00
  -11   -1   13      0.14      0.00
  -11   -1   12     -0.85      0.00
  -11   -1   11      0.57      0.00
  -11   -1   10     -1.05      0.00
  -11   -1    9      1.20      0.00
  -11   -1    8      0.48      0.00
  -11   -1    7     -2.05      0.00
  -11   -1    6      1.46      0.00
  -11   -1    5     -0.08      0.00
  -11   -1    4     -0.15      0.00
  -11   -1    3     -1.42      0.00
  -11   -1    2      1.61      0.00
  -11   -1    1      0.48      0.00
   11    1    0     -1.32      0.00
   11    1    1      0.13      0.00
   11    1    2      0.58      0.00
   11    1    3      0.07      0.00
   11    1    4     -0.49      0.00
   11    1    5     -0.13      0.00
   11    1    6      0.10      0.00
  -11   -2   17      0.25      0.00
  -11   -2   16     -0.66      0.00
  -11   -2   15      0.21      0.00
  -11   -2   14      0.20      0.00
  -11   -2   13      0.88      0.00
  -11   -2   12     -1.15      0.00
  -11   -2   11      0.11      0.00
  -11   -2   10      0.45      0.00
  -11   -2    9     -0.02      0.00
  -11   -2    8     -0.09      0.00
  -11   -2    7     -0.42      0.00
  -11   -2    6      1.03      0.00
  -11   -2    5     -0.48      0.00
  -11   -2    4      0.23      0.00
  -11   -2    3     -1.08      0.00
  -11   -2    2      0.72      0.00
  -11   -2    1      0.25      0.00
   11    2    0     -0.49      0.00
   11    2    1     -0.09      0.00
   11    2    2      0.00      0.00
   11    2    3      0.51      0.00
   11    2    4     -0.06      0.00
   11    2    5      0.24      0.00
  -11   -3   16      0.04      0.00
  -11   -3   15     -0.47      0.00
  -11   -3   14      0.13      0.00
  -11   -3   13     -0.30      0.00
  -11   -3   12      0.38      0.00
  -11   -3   11     -0.78      0.00
  -11   -3   10      1.09      0.00
  -11   -3    9      0.29      0.00
  -11   -3    8     -1.38      0.00
  -11   -3    7      0.39      0.00
  -11   -3    6      0.64      0.00
  -11   -3    5      0.38      0.00
  -11   -3    4     -0.67      0.00
  -11   -3    3      0.06      0.00
  -11   -3    2      0.18      0.00
  -11   -3    1     -0.09      0.00
   11    3    0     -0.16      0.00
   11    3    1     -0.10      0.00
   11    3    2     -0.07      0.00
   11    3    3     -0.12      0.00
   11    3    4      0.07      0.00
  -11   -4   16      0.66      0.00
  -11   -4   15     -0.32      0.00
  -11   -4   14      0.60      0.00
  -11   -4   13     -1.22      0.00
  -11   -4   12      0.49      0.00
  -11   -4   11     -0.14      0.00
  -11   -4   10      0.30      0.00
  -11   -4    9     -0.02      0.00
  -11   -4    8     -0.76      0.00
  -11   -4    7      0.70      0.00
  -11   -4    6     -0.19      0.00
  -11   -4    5      0.26      0.00
  -11   -4    4     -0.99      0.00
  -11   -4    3      1.61      0.00
  -11   -4    2     -0.44      0.00
  -11   -4    1     -0.52      0.00
   11    4    0      0.73      0.00
   11    4    1     -0.59      0.00
   11    4    2      0.09      0.00
  -11   -5   16     -0.04      0.00
  -11   -5   15      0.53      0.00
  -11   -5   13     -0.15      0.00
  -11   -5   12      0.17      0.00
  -11   -5   11      0.44      0.00
  -11   -5   10     -0.33      0.00
  -11   -5    9     -0.69      0.00
  -11   -5    8     -0.08      0.00
  -11   -5    7      1.11      0.00
  -11   -5    6     -0.12      0.00
  -11   -5    5     -0.75      0.00
  -11   -5    4     -1.09      0.00
  -11   -5    3      1.74      0.00
  -11   -5    2      0.16      0.00
  -11   -5    1     -1.00      0.00
   11    5    0      0.42      0.00
  -11   -6   14     -0.62      0.00
  -11   -6   13      0.01      0.00
  -11   -6   12      0.52      0.00
  -11   -6   11      0.49      0.00
  -11   -6   10     -0.51      0.00
  -11   -6    9     -0.48      0.00
  -11   -6    8      0.07      0.00
  -11   -6    7      0.50      0.00
  -11   -6    6      0.56      0.00
  -11   -6    5     -1.18      0.00
  -11   -6    4      0.35      0.00
  -11   -6    3      0.00      0.00
  -11   -6    2      0.14      0.00
  -11   -6    1      0.14      0.00
  -11   -7   13     -0.45      0.00
  -11   -7   12      0.58      0.00
  -11   -7   11      0.06      0.00
  -11   -7   10     -0.16      0.00
  -11   -7    9     -0.02      0.00
  -11   -7    8      0.44      0.00
  -11   -7    7     -0.47      0.00
  -11   -7    6      0.57      0.00
  -11   -7    5     -1.13      0.00
  -11   -7    4      1.06      0.00
  -11   -7    3     -0.09      0.00
  -11   -8   10      0.03      0.00
  -11   -8    9      0.42      0.00
  -11   -8    8      0.30      0.00
  -11   -8    7     -0.07      0.00
   12  -13    2      0.37      0.00
  -12   12    3      0.60      0.00
  -12   12    2     -0.26      0.00
  -12   12    1     -0.19      0.00
  -12   12    0      0.34      0.00
   12  -12    1     -0.19      0.00
   12  -12    2     -0.05      0.00
   12  -12    3      0.03      0.00
   12  -12    4     -0.13      0.00
   12  -12    5      0.25      0.00
  -12   11    6      0.07      0.00
  -12   11    5      0.04      0.00
  -12   11    4      0.07      0.00
  -12   11    3     -0.36      0.00
  -12   11    2      0.54      0.00
  -12   11    1     -0.16      0.00
  -12   11    0     -0.27      0.00
   12  -11    1      0.75      0.00
   12  -11    2     -0.77      0.00
   12  -11    3     -0.16      0.00
   12  -11    4      0.56      0.00
   12  -11    5     -0.22      0.00
   12  -11    6      0.01      0.00
  -12   10    8     -0.10      0.00
  -12   10    7     -0.25      0.00
  -12   10    6      0.92      0.00
  -12   10    5     -0.85      0.00
  -12   10    4      0.72      0.00
  -12   10    3     -0.62      0.00
  -12   10    2     -0.02      0.00
  -12   10    1      0.99      0.00
  -12   10    0     -1.06      0.00
   12  -10    1      0.62      0.00
   12  -10    2      0.05      0.00
   12  -10    3     -0.61      0.00
   12  -10    4      0.34      0.00
   12  -10    5      0.20      0.00
   12  -10    6      0.39      0.00
   12  -10    8      0.24      0.00
  -12    9    9      0.11      0.00
  -12    9    8     -0.62      0.00
  -12    9    7     -0.58      0.00
  -12    9    6      0.88      0.00
  -12    9    5      0.20      0.00
  -12    9    4     -0.40      0.00
  -12    9    3      0.55      0.00
  -12    9    2     -1.04      0.00
  -12    9    1      0.60      0.00
  -12    9    0      0.38      0.00
   12   -9    1     -0.70      0.00
   12   -9    2      0.34      0.00
   12   -9    3      0.07      0.00
   12   -9    4     -0.14      0.00
   12   -9    5     -0.28      0.00
   12   -9    6      0.91      0.00
   12   -9    7     -0.17      0.00
   12   -9    8     -0.28      0.00
  -12    8   10     -0.32      0.00
  -12    8    9      0.69      0.00
  -12    8    8     -0.78      0.00
  -12    8    7      0.53      0.00
  -12    8    6     -0.87      0.00
  -12    8    5      1.08      0.00
  -12    8    4     -0.97      0.00
  -12    8    3      0.65      0.00
  -12    8    2      0.32      0.00
  -12    8    1     -1.47      0.00
  -12    8    0      1.18      0.00
   12   -8    1     -0.01      0.00
   12   -8    2     -0.42      0.00
   12   -8    3     -0.03      0.00
   12   -8    4      0.25      0.00
   12   -8    5     -0.31      0.00
   12   -8    6      0.04      0.00
   12   -8    7      0.26      0.00
   12   -8    8      0.20      0.00
  -12    7   11      0.25      0.00
  -12    7   10     -0.52      0.00
  -12    7    9      0.58      0.00
  -12    7    8     -0.77      0.00
  -12    7    7      0.85      0.00
  -12    7    6      0.05      0.00
  -12    7    5     -0.29      0.00
  -12    7    4     -0.32      0.00
  -12    7    3     -0.18      0.00
  -12    7    2      1.05      0.00
  -12    7    1     -1.08      0.00
  -12    7    0     -0.14      0.00
   12   -7    1      1.20      0.00
   12   -7    2     -0.40      0.00
   12   -7    3     -0.35      0.00
   12   -7    4      0.00      0.00
   12   -7    5      0.30      0.00
   12   -7    6     -0.18      0.00
   12   -7    7     -0.06      0.00
   12   -7    8     -0.27      0.00
  -12    6   12      0.15      0.00
  -12    6   11     -0.59      0.00
  -12    6   10      0.36      0.00
  -12    6    9     -0.15      0.00
  -12    6    8      0.88      0.00
  -12    6    7     -1.29      0.00
  -12    6    6      1.18      0.00
  -12    6    5     -0.69      0.00
  -12    6    4     -0.08      0.00
  -12    6    3      0.58      0.00
  -12    6    2     -0.39      0.00
  -12    6    1      0.35      0.00
  -12    6    0     -0.95      0.00
   12   -6    1      0.93      0.00
   12   -6    2     -0.07      0.00
   12   -6    3     -0.05      0.00
   12   -6    4     -0.23      0.00
   12   -6    5      0.28      0.00
   12   -6    6      0.06      0.00
   12   -6    7      0.21      0.00
   12   -6    8     -0.46      0.00
  -12    5   13      0.11      0.00
  -12    5   12      0.01      0.00
  -12    5   11     -0.73      0.00
  -12    5   10      0.99      0.00
  -12    5    9     -1.41      0.00
  -12    5    8      1.35      0.00
  -12    5    7     -0.42      0.00
  -12    5    6      0.09      0.00
  -12    5    5     -0.60      0.00
  -12    5    4     -0.43      0.00
  -12    5    3      1.51      0.00
  -12    5    2     -0.98      0.00
  -12    5    1      0.48      0.00
  -12    5    0     -0.16      0.00
   12   -5    1      0.00      0.00
   12   -5    2     -0.06      0.00
   12   -5    3      0.08      0.00
   12   -5    4     -0.27      0.00
   12   -5    5      0.03      0.00
   12   -5    6      0.22      0.00
   12   -5    7      0.29      0.00
   12   -5    8     -0.13      0.00
  -12    4   14      0.14      0.00
  -12    4   13      0.87      0.00
  -12    4   12     -0.84      0.00
  -12    4   11     -0.28      0.00
  -12    4   10      0.90      0.00
  -12    4    9     -0.11      0.00
  -12    4    8     -1.11      0.00
  -12    4    7      0.94      0.00
  -12    4    6      0.26      0.00
  -12    4    5     -0.60      0.00
  -12    4    4     -0.27      0.00
  -12    4    3      0.55      0.00
  -12    4    2      0.10      0.00
  -12    4    1     -0.69      0.00
  -12    4    0      0.53      0.00
   12   -4    1      0.01      0.00
   12   -4    2     -0.04      0.00
   12   -4    3      0.06      0.00
   12   -4    4     -0.23      0.00
   12   -4    5     -0.05      0.00
   12   -4    6     -0.03      0.00
   12   -4    7      0.28      0.00
  -12    3   14     -0.24      0.00
  -12    3   13      0.71      0.00
  -12    3   12     -0.57      0.00
  -12    3   11      0.42      0.00
  -12    3   10     -1.04      0.00
  -12    3    9      1.33      0.00
  -12    3    8     -0.92      0.00
  -12    3    7      0.10      0.00
  -12    3    6      0.29      0.00
  -12    3    5     -0.44      0.00
  -12    3    4      1.14      0.00
  -12    3    3     -1.29      0.00
  -12    3    2      0.95      0.00
  -12    3    1     -0.54      0.00
  -12    3    0     -0.07      0.00
   12   -3    1     -0.06      0.00
   12   -3    2      0.23      0.00
   12   -3    3     -0.02      0.00
   12   -3    4      0.06      0.00
   12   -3    5      0.01      0.00
   12   -3    6     -0.29      0.00
   12   -3    7      0.22      0.00
  -12    2   15     -0.18      0.00
  -12    2   14      0.39      0.00
  -12    2   13      0.15      0.00
  -12    2   12     -0.90      0.00
  -12    2   11      1.41      0.00
  -12    2   10     -0.79      0.00
  -12    2    9     -0.35      0.00
  -12    2    8      0.15      0.00
  -12    2    7      0.56      0.00
  -12    2    6     -0.30      0.00
  -12    2    5     -0.72      0.00
  -12    2    4      1.62      0.00
  -12    2    3     -0.88      0.00
  -12    2    2     -0.13      0.00
  -12    2    1      0.27      0.00
  -12    2    0     -0.09      0.00
   12   -2    1     -0.33      0.00
   12   -2    2      0.59      0.00
   12   -2    3     -0.43      0.00
   12   -2    4      0.06      0.00
   12   -2    5      0.43      0.00
   12   -2    6     -0.70      0.00
   12   -2    7      0.21      0.00
  -12    1   15     -0.38      0.00
  -12    1   14     -0.03      0.00
  -12    1   13      0.27      0.00
  -12    1   12     -0.61      0.00
  -12    1   11     -0.11      0.00
  -12    1   10      1.56      0.00
  -12    1    9     -0.97      0.00
  -12    1    8     -1.06      0.00
  -12    1    7      0.94      0.00
  -12    1    6     -0.05      0.00
  -12    1    5      0.18      0.00
  -12    1    4     -0.35      0.00
  -12    1    3      0.35      0.00
  -12    1    2     -0.07      0.00
  -12    1    1      0.11      0.00
  -12    1    0     -0.31      0.00
   12   -1    1     -0.26      0.00
   12   -1    2      0.87      0.00
   12   -1    3      0.00      0.00
   12   -1    4     -0.82      0.00
   12   -1    5      0.65      0.00
   12   -1    6      0.07      0.00
  -12    0   15      0.12      0.00
  -12    0   14      0.14      0.00
  -12    0   13     -0.74      0.00
  -12    0   12      1.12      0.00
  -12    0   11     -1.48      0.00
  -12    0   10      1.02      0.00
  -12    0    9      0.56      0.00
  -12    0    8     -0.54      0.00
  -12    0    7     -0.51      0.00
  -12    0    6     -0.51      0.00
  -12    0    5      1.54      0.00
  -12    0    4     -0.91      0.00
  -12    0    3     -0.57      0.00
  -12    0    2      0.41      0.00
  -12    0    1      0.75      0.00
   12    0    0     -0.52      0.00
   12    0    1     -0.45      0.00
   12    0    2      0.40      0.00
   12    0    3      0.60      0.00
   12    0    4     -0.57      0.00
   12    0    5     -0.55      0.00
  -12   -1   16      0.07      0.00
  -12   -1   15     -0.14      0.00
  -12   -1   14      0.55      0.00
  -12   -1   13     -0.62      0.00
  -12   -1   12      0.75      0.00
  -12   -1   11      0.13      0.00
  -12   -1   10     -1.04      0.00
  -12   -1    9      0.07      0.00
  -12   -1    8      1.47      0.00
  -12   -1    7     -0.56      0.00
  -12   -1    6     -0.97      0.00
  -12   -1    5      1.09      0.00
  -12   -1    4      0.32      0.00
  -12   -1    3     -1.16      0.00
  -12   -1    2     -0.48      0.00
  -12   -1    1      1.02      0.00
   12    1    0      0.24      0.00
   12    1    1     -0.66      0.00
   12    1    2     -0.06      0.00
   12    1    3      0.53      0.00
   12    1    4      0.09      0.00
  -12   -2   14     -0.54      0.00
  -12   -2   13      1.05      0.00
  -12   -2   12     -0.67      0.00
  -12   -2   11      0.70      0.00
  -12   -2   10     -0.76      0.00
  -12   -2    9     -0.39      0.00
  -12   -2    8      0.93      0.00
  -12   -2    7     -0.38      0.00
  -12   -2    6     -0.40      0.00
  -12   -2    5      0.46      0.00
  -12   -2    4      1.18      0.00
  -12   -2    3     -0.89      0.00
  -12   -2    2     -0.66      0.00
  -12   -2    1      0.33      0.00
   12    2    0      0.28      0.00
   12    2    1      0.11      0.00
   12    2    2     -0.64      0.00
   12    2    3      0.36      0.00
  -12   -3   15      0.24      0.00
  -12   -3   14     -0.74      0.00
  -12   -3   13      0.71      0.00
  -12   -3   12     -0.03      0.00
  -12   -3   11     -0.33      0.00
  -12   -3   10     -0.38      0.00
  -12   -3    9      0.56      0.00
  -12   -3    8      0.39      0.00
  -12   -3    7     -1.11      0.00
  -12   -3    6     -0.14      0.00
  -12   -3    5      0.23      0.00
  -12   -3    4      1.24      0.00
  -12   -3    3     -0.67      0.00
  -12   -3    2     -0.24      0.00
  -12   -3    1      0.47      0.00
   12    3    0     -0.57      0.00
   12    3    1      0.55      0.00
   12    3    2     -0.09      0.00
  -12   -4   14      0.48      0.00
  -12   -4   13     -0.36      0.00
  -12   -4   12      0.34      0.00
  -12   -4   11     -0.45      0.00
  -12   -4   10     -0.17      0.00
  -12   -4    9      0.66      0.00
  -12   -4    8      0.39      0.00
  -12   -4    7     -1.00      0.00
  -12   -4    6     -0.32      0.00
  -12   -4    5      0.44      0.00
  -12   -4    4     -0.08      0.00
  -12   -4    3      0.10      0.00
  -12   -4    2     -0.12      0.00
  -12   -4    1      0.18      0.00
  -12   -5   12      0.11      0.00
  -12   -5   11     -0.15      0.00
  -12   -5   10      0.07      0.00
  -12   -5    9      0.44      0.00
  -12   -5    8     -0.22      0.00
  -12   -5    7      0.06      0.00
  -12   -5    6     -0.29      0.00
  -12   -5    5      1.13      0.00
  -12   -5    4     -1.64      0.00
  -12   -5    3      0.13      0.00
  -12   -5    2      0.71      0.00
  -12   -6   11      0.35      0.00
  -12   -6   10      0.06      0.00
  -12   -6    9      0.19      0.00
  -12   -6    8     -0.75      0.00
  -12   -6    7      0.25      0.00
  -12   -6    6      0.24      0.00
  -12   -6    5      0.87      0.00
  -12   -6    4     -0.73      0.00
  -13   11    4      0.09      0.00
  -13   11    3     -0.47      0.00
  -13   11    2      0.41      0.00
  -13   11    1     -0.11      0.00
  -13   11    0      0.03      0.00
   13  -11    1     -0.05      0.00
   13  -11    2      0.27      0.00
  -13   10    6      0.16      0.00
  -13   10    5     -0.50      0.00
  -13   10    3     -0.56      0.00
  -13   10    2     -0.30      0.00
  -13   10    1      0.55      0.00
  -13   10    0     -0.41      0.00
   13  -10    1      0.13      0.00
   13  -10    2      0.62      0.00
   13  -10    3     -0.28      0.00
   13  -10    4     -0.44      0.00
   13  -10    5      0.10      0.00
  -13    9    7     -0.97      0.00
  -13    9    6      0.37      0.00
  -13    9    5     -0.36      0.00
  -13    9    4      0.36      0.00
  -13    9    3      0.50      0.00
  -13    9    2     -1.06      0.00
  -13    9    1      0.58      0.00
  -13    9    0     -0.03      0.00
   13   -9    1     -0.52      0.00
   13   -9    2      0.26      0.00
   13   -9    3      0.40      0.00
   13   -9    4     -0.01      0.00
   13   -9    5     -1.06      0.00
   13   -9    6      0.81      0.00
  -13    8    8      0.54      0.00
  -13    8    7     -0.13      0.00
  -13    8    6     -0.69      0.00
  -13    8    5      0.67      0.00
  -13    8    4     -0.38      0.00
  -13    8    3      0.25      0.00
  -13    8    2      0.11      0.00
  -13    8    1     -0.44      0.00
  -13    8    0      0.65      0.00
   13   -8    1     -0.26      0.00
   13   -8    2     -0.29      0.00
   13   -8    3      0.01      0.00
   13   -8    4      0.63      0.00
   13   -8    5     -0.98      0.00
   13   -8    6      0.18      0.00
  -13    7   10     -0.34      0.00
  -13    7    9      0.58      0.00
  -13    7    8     -0.86      0.00
  -13    7    7      0.67      0.00
  -13    7    6     -0.60      0.00
  -13    7    5      0.99      0.00
  -13    7    4      0.01      0.00
  -13    7    3     -1.28      0.00
  -13    7    2      1.14      0.00
  -13    7    1     -0.50      0.00
  -13    7    0     -0.20      0.00
   13   -7    1      0.29      0.00
   13   -7    2      0.33      0.00
   13   -7    3     -0.07      0.00
   13   -7    4      0.09      0.00
   13   -7    5     -0.41      0.00
   13   -7    6      0.16      0.00
  -13    6   11     -0.01      0.00
  -13    6   10     -0.74      0.00
  -13    6    9      1.01      0.00
  -13    6    8     -0.05      0.00
  -13    6    7     -0.56      0.00
  -13    6    6     -0.18      0.00
  -13    6    5      0.76      0.00
  -13    6    4      0.37      0.00
  -13    6    3     -1.13      0.00
  -13    6    2      0.35      0.00
  -13    6    1      0.71      0.00
  -13    6    0     -0.98      0.00
   13   -6    1     -0.13      0.00
   13   -6    2      0.44      0.00
   13   -6    3      0.29      0.00
   13   -6    4     -0.21      0.00
   13   -6    5      0.02      0.00
   13   -6    6     -0.13      0.00
  -13    5   12      0.63      0.00
  -13    5   11     -0.50      0.00
  -13    5   10     -0.15      0.00
  -13    5    9     -0.68      0.00
  -13    5    8      1.22      0.00
  -13    5    7     -0.47      0.00
  -13    5    5      0.37      0.00
  -13    5    4     -0.51      0.00
  -13    5    3      0.29      0.00
  -13    5    2     -0.77      0.00
  -13    5    1      0.92      0.00
  -13    5    0     -0.23      0.00
   13   -5    1     -0.17      0.00
   13   -5    2      0.07      0.00
   13   -5    3      0.32      0.00
   13   -5    4     -0.51      0.00
   13   -5    5      0.01      0.00
   13   -5    6      0.01      0.00
  -13    4   13      0.16      0.00
  -13    4   12      1.04      0.00
  -13    4   11     -1.34      0.00
  -13    4   10      1.11      0.00
  -13    4    9     -0.64      0.00
  -13    4    8      0.17      0.00
  -13    4    7     -0.34      0.00
  -13    4    6      0.44      0.00
  -13    4    5      0.71      0.00
  -13    4    4     -1.42      0.00
  -13    4    3      0.87      0.00
  -13    4    2     -0.19      0.00
  -13    4    1     -0.32      0.00
  -13    4    0     -0.10      0.00
   13   -4    1      0.39      0.00
   13   -4    2     -0.09      0.00
   13   -4    3      0.45      0.00
   13   -4    4     -0.24      0.00
   13   -4    5     -0.40      0.00
  -13    3   13     -0.28      0.00
  -13    3   12      1.36      0.00
  -13    3   11     -0.74      0.00
  -13    3   10     -0.18      0.00
  -13    3    9      0.51      0.00
  -13    3    8     -0.08      0.00
  -13    3    7     -0.53      0.00
  -13    3    6      0.17      0.00
  -13    3    5      0.55      0.00
  -13    3    4     -0.58      0.00
  -13    3    3     -0.12      0.00
  -13    3    2      0.79      0.00
  -13    3    1     -0.12      0.00
  -13    3    0     -0.51      0.00
   13   -3    1      0.17      0.00
   13   -3    2     -0.24      0.00
   13   -3    3      0.17      0.00
   13   -3    4      0.31      0.00
   13   -3    5     -0.23      0.00
  -13    2   14     -0.12      0.00
  -13    2   13     -0.10      0.00
  -13    2   12     -0.47      0.00
  -13    2   11      1.00      0.00
  -13    2   10     -0.65      0.00
  -13    2    9      0.46      0.00
  -13    2    8     -0.28      0.00
  -13    2    7     -0.22      0.00
  -13    2    6      0.52      0.00
  -13    2    5     -0.78      0.00
  -13    2    4      0.53      0.00
  -13    2    3     -0.24      0.00
  -13    2    2      0.02      0.00
  -13    2    1      0.38      0.00
  -13    2    0      0.19      0.00
   13   -2    1     -0.35      0.00
   13   -2    2      0.12      0.00
   13   -2    3     -0.45      0.00
   13   -2    4      0.23      0.00
  -13    1   14     -0.51      0.00
  -13    1   13      1.20      0.00
  -13    1   12     -1.22      0.00
  -13    1   11     -0.08      0.00
  -13    1   10      0.20      0.00
  -13    1    9      0.90      0.00
  -13    1    8     -0.51      0.00
  -13    1    7     -0.46      0.00
  -13    1    6      0.68      0.00
  -13    1    5     -0.74      0.00
  -13    1    4      0.07      0.00
  -13    1    3      0.24      0.00
  -13    1    2     -0.25      0.00
  -13    1    1      0.07      0.00
  -13    1    0      0.63      0.00
   13   -1    1     -0.87      0.00
   13   -1    2      0.44      0.00
   13   -1    3      0.22      0.00
  -13    0   14     -0.19      0.00
  -13    0   13     -0.01      0.00
  -13    0   12      0.60      0.00
  -13    0   11     -1.08      0.00
  -13    0   10     -0.04      0.00
  -13    0    9      0.80      0.00
  -13    0    8      0.09      0.00
  -13    0    7      0.06      0.00
  -13    0    6     -0.04      0.00
  -13    0    5     -0.16      0.00
  -13    0    4     -0.08      0.00
  -13    0    3     -0.04      0.00
  -13    0    2     -0.25      0.00
  -13    0    1     -0.05      0.00
   13    0    0      0.73      0.00
   13    0    1     -0.60      0.00
   13    0    2     -0.40      0.00
  -13   -1   14      0.95      0.00
  -13   -1   13     -1.19      0.00
  -13   -1   12      0.61      0.00
  -13   -1   11      0.03      0.00
  -13   -1   10     -0.14      0.00
  -13   -1    9     -0.48      0.00
  -13   -1    8      0.09      0.00
  -13   -1    7      0.62      0.00
  -13   -1    6     -0.10      0.00
  -13   -1    5      0.03      0.00
  -13   -1    4      0.15      0.00
  -13   -1    3      0.16      0.00
  -13   -1    2     -0.37      0.00
  -13   -1    1     -0.44      0.00
   13    1    0      0.72      0.00
   13    1    2     -0.56      0.00
  -13   -2   12     -0.34      0.00
  -13   -2   11      0.53      0.00
  -13   -2   10      0.29      0.00
  -13   -2    9     -0.75      0.00
  -13   -2    8     -0.24      0.00
  -13   -2    7      0.62      0.00
  -13   -2    6     -0.57      0.00
  -13   -2    5     -0.28      0.00
  -13   -2    4      0.61      0.00
  -13   -2    3      0.37      0.00
  -13   -2    2     -0.02      0.00
  -13   -2    1     -0.67      0.00
   13    2    1      0.41      0.00
  -13   -3   13      0.28      0.00
  -13   -3   12     -0.11      0.00
  -13   -3   11      0.39      0.00
  -13   -3   10      0.02      0.00
  -13   -3    9     -0.29      0.00
  -13   -3    8      0.09      0.00
  -13   -3    7      0.61      0.00
  -13   -3    6     -0.46      0.00
  -13   -3    5     -1.34      0.00
  -13   -3    4      0.89      0.00
  -13   -3    3      0.27      0.00
  -13   -4   10     -0.25      0.00
  -13   -4    8      0.91      0.00
  -13   -4    7      0.45      0.00
  -13   -4    5     -1.20      0.00
  -13   -4    4      0.30      0.00
  -14    9    5     -0.66      0.00
  -14    9    4     -0.28      0.00
  -14    9    3      0.74      0.00
   14   -9    1     -0.31      0.00
  -14    8    5     -0.44      0.00
  -14    8    4     -0.43      0.00
  -14    8    3      0.76      0.00
  -14    8    1     -0.42      0.00
  -14    8    0      0.38      0.00
   14   -8    1      0.45      0.00
   14   -8    2     -0.47      0.00
   14   -8    3     -0.49      0.00
  -14    7    8     -0.25      0.00
  -14    7    7      0.43      0.00
  -14    7    6     -0.29      0.00
  -14    7    5     -0.21      0.00
  -14    7    4      0.29      0.00
  -14    7    3     -0.21      0.00
  -14    7    2      0.47      0.00
  -14    7    1     -0.42      0.00
  -14    7    0     -0.15      0.00
   14   -7    1      0.30      0.00
   14   -7    2     -0.03      0.00
   14   -7    3     -0.58      0.00
  -14    6   10     -0.86      0.00
  -14    6    9      0.52      0.00
  -14    6    8     -0.10      0.00
  -14    6    7      0.48      0.00
  -14    6    6     -0.75      0.00
  -14    6    5     -0.52      0.00
  -14    6    4      1.40      0.00
  -14    6    3     -0.61      0.00
  -14    6    2      0.02      0.00
  -14    6    1      0.24      0.00
  -14    6    0      0.03      0.00
   14   -6    1     -0.32      0.00
   14   -6    2     -0.16      0.00
  -14    5   10     -0.85      0.00
  -14    5    9     -0.43      0.00
  -14    5    8      0.17      0.00
  -14    5    7      0.79      0.00
  -14    5    6     -0.55      0.00
  -14    5    5     -0.79      0.00
  -14    5    4      0.99      0.00
  -14    5    3      0.24      0.00
  -14    5    2     -0.68      0.00
  -14    5    1      0.17      0.00
  -14    5    0      0.50      0.00
   14   -5    1     -0.33      0.00
   14   -5    2     -0.20      0.00
   14   -5    3      0.12      0.00
  -14    4   10      0.45      0.00
  -14    4    9     -0.57      0.00
  -14    4    8     -0.02      0.00
  -14    4    7      0.27      0.00
  -14    4    6     -0.28      0.00
  -14    4    5      0.21      0.00
  -14    4    4     -0.24      0.00
  -14    4    3      0.45      0.00
  -14    4    2     -0.07      0.00
  -14    4    1     -0.18      0.00
  -14    4    0      0.01      0.00
   14   -4    1     -0.02      0.00
   14   -4    2     -0.50      0.00
   14   -4    3      0.64      0.00
  -14    3   11     -0.40      0.00
  -14    3   10      0.50      0.00
  -14    3    9     -0.30      0.00
  -14    3    8      0.36      0.00
  -14    3    7     -0.11      0.00
  -14    3    6     -0.88      0.00
  -14    3    5      1.06      0.00
  -14    3    4     -0.21      0.00
  -14    3    3     -0.58      0.00
  -14    3    2      0.39      0.00
  -14    3    1      0.48      0.00
  -14    3    0     -0.45      0.00
   14   -3    1      0.27      0.00
   14   -3    2     -0.60      0.00
  -14    2   12     -0.07      0.00
  -14    2   11      0.11      0.00
  -14    2   10     -0.07      0.00
  -14    2    9      0.10      0.00
  -14    2    8      0.34      0.00
  -14    2    7      0.02      0.00
  -14    2    6     -0.85      0.00
  -14    2    5      0.55      0.00
  -14    2    4      0.35      0.00
  -14    2    3     -0.46      0.00
  -14    2    2     -0.47      0.00
  -14    2    1      0.58      0.00
  -14    2    0     -0.19      0.00
   14   -2    1      0.40      0.00
   14   -2    2      0.02      0.00
  -14    1   12     -0.30      0.00
  -14    1   11      0.24      0.00
  -14    1   10     -0.86      0.00
  -14    1    9      0.31      0.00
  -14    1    8      0.52      0.00
  -14    1    7     -0.11      0.00
  -14    1    6     -0.23      0.00
  -14    1    5      0.08      0.00
  -14    1    4      0.08      0.00
  -14    1    3      0.29      0.00
  -14    1    2     -0.57      0.00
  -14    1    1     -0.09      0.00
  -14    1    0      0.24      0.00
   14   -1    1     -0.24      0.00
  -14    0   12      0.26      0.00
  -14    0   11      0.22      0.00
  -14    0   10     -0.65      0.00
  -14    0    9     -0.16      0.00
  -14    0    8      0.27      0.00
  -14    0    7     -0.12      0.00
  -14    0    6      0.36      0.00
  -14    0    5      0.06      0.00
  -14    0    4     -0.10      0.00
  -14    0    3      0.29      0.00
  -14    0    2     -0.02      0.00
  -14    0    1     -0.60      0.00
   14    0    0      0.55      0.00
  -14   -1   10     -0.02      0.00
  -14   -1    5      0.56      0.00
  -14   -1    4     -0.24      0.00
  -14   -1    3      0.09      0.00
  -14   -1    2      0.36      0.00
  -15    6    5     -0.29      0.00
  -15    6    4      0.10      0.00
  -15    6    2      0.08      0.00
  -15    5    6      0.74      0.00
  -15    5    5     -0.91      0.00
  -15    5    4      0.02      0.00
  -15    5    3      0.12      0.00
  -15    5    2      0.03      0.00
  -15    5    1     -0.23      0.00
  -15    4    7      0.11      0.00
  -15    4    6      0.98      0.00
  -15    4    5     -0.71      0.00
  -15    4    4     -0.20      0.00
  -15    4    3      0.19      0.00
  -15    4    2      0.30      0.00
  -15    4    1     -0.44      0.00
  -15    3    7     -0.01      0.00
  -15    3    6      0.34      0.00
  -15    3    5     -0.25      0.00
  -15    3    4      0.13      0.00
  -15    3    3     -0.32      0.00
  -15    3    2      0.14      0.00
  -15    2    8      0.06      0.00
  -15    2    7      0.56      0.00
  -15    2    6     -0.30      0.00
  -15    2    5     -0.44      0.00
  -15    2    4      0.54      0.00
  -15    2    3      0.03      0.00
  -15    1    5     -0.44      0.00
    1    0    0     25.28      0.00
  -15    1    0     -0.32      0.00
   14    1    0      0.12      0.00
  -15    2    0     -0.30      0.00
   13    2    0      0.30      0.00
   14    2    0     -0.11      0.00
  -15    3    0     -0.11      0.00
   13    3    0     -0.54      0.00
  -15    4    0      0.13      0.00
   12    4    0      0.18      0.00
  -15    5    0      0.22      0.00
   12    5    0      0.35      0.00
  -15    6    0     -0.22      0.00
   11    6    0     -0.56      0.00
  -15    7    0     -0.47      0.00
   10    7    0      0.14      0.00
  -15    8    0     -0.18      0.00
   10    8    0      0.09      0.00
  -15    9    0      0.12      0.00
  -14    9    0      0.27      0.00
    9    9    0      0.21      0.00
  -14   10    0      0.13      0.00
    8   10    0      0.04      0.00
  -14   11    0      0.23      0.00
    6   11    0     -0.36      0.00
    7   11    0      0.11      0.00
  -13   12    0      0.08      0.00
    5   12    0      0.33      0.00
  -12   13    0      0.20      0.00
    3   13    0     -0.73      0.00
    4   13    0      0.24      0.00
  -11   14    0     -0.20      0.00
    1   14    0     -0.22      0.00
    2   14    0     -0.33      0.00
  -10   15    0     -0.36      0.00
   -9   15    0      0.13      0.00
   -8   15    0      0.60      0.00
   -7   15    0     -0.64      0.00
   -6   15    0     -0.32      0.00
   -2   15    0     -0.15      0.00
   -1   15    0      0.23      0.00
    0   15    0      0.03      0.00
   -6   16    0     -0.08      0.00
   -5   16    0      0.55      0.00
    3  -16    1     -0.19      0.00
    4  -16    1     -0.61      0.00
    5  -16    1     -0.42      0.00
    6  -16    1      0.67      0.00
    7  -16    1     -0.16      0.00
   -1  -15    1      0.01      0.00
    0  -15    1     -0.23      0.00
    1  -15    1      0.31      0.00
    8  -15    1     -0.16      0.00
    9  -15    1      0.58      0.00
   10  -15    1      0.54      0.00
   -3  -14    1      0.75      0.00
   -2  -14    1      0.38      0.00
   11  -14    1     -0.14      0.00
   -4  -13    1      0.13      0.00
   12  -13    1     -0.34      0.00
   13  -13    1     -0.07      0.00
   -6  -12    1     -0.04      0.00
   13  -12    1     -0.19      0.00
   -7  -11    1     -0.16      0.00
   14  -11    1     -0.23      0.00
   -8  -10    1     -0.59      0.00
   14  -10    1     -0.32      0.00
   -9   -9    1      0.31      0.00
   15   -9    1      0.20      0.00
  -10   -8    1     -0.43      0.00
   15   -8    1      0.38      0.00
  -11   -7    1      0.34      0.00
   15   -7    1      0.19      0.00
  -12   -6    1      0.04      0.00
   15   -6    1      0.08      0.00
  -12   -5    1     -0.64      0.00
   15   -5    1     -0.05      0.00
  -13   -4    1      0.45      0.00
   15   -4    1      0.09      0.00
  -13   -3    1      0.18      0.00
   15   -3    1      0.38      0.00
  -14   -2    1     -0.44      0.00
   15   -2    1      0.47      0.00
  -14   -1    1     -0.58      0.00
   -1   -1    1   -107.14      0.00
  -15    0    1      0.05      0.00
   -1    0    1    -87.38      0.00
    0    0    1    -44.23      0.00
   14    0    1     -0.20      0.00
  -15    1    1      0.15      0.00
   13    1    1      0.01      0.00
   14    1    1      0.30      0.00
  -15    2    1      0.18      0.00
  -15    3    1      0.13      0.00
   13    3    1      0.42      0.00
   12    4    1     -0.13      0.00
   11    5    1      0.14      0.00
   12    5    1      0.04      0.00
  -15    6    1      0.19      0.00
   11    6    1      0.09      0.00
  -15    7    1      0.13      0.00
   10    7    1     -0.28      0.00
  -15    8    1     -0.04      0.00
    9    8    1      0.01      0.00
  -15    9    1     -0.11      0.00
  -14    9    1     -0.06      0.00
    8    9    1      0.02      0.00
  -14   10    1     -0.20      0.00
    7   10    1      0.02      0.00
  -14   11    1      0.01      0.00
    6   11    1     -0.19      0.00
  -13   12    1     -0.18      0.00
    4   12    1     -0.46      0.00
    5   12    1     -0.10      0.00
  -12   13    1      0.01      0.00
    3   13    1      0.09      0.00
  -11   14    1      0.48      0.00
  -10   14    1      0.52      0.00
    0   14    1      0.08      0.00
    1   14    1     -0.19      0.00
   -9   15    1     -0.53      0.00
   -8   15    1      0.08      0.00
   -7   15    1      0.36      0.00
   -6   15    1     -1.01      0.00
   -5   15    1     -0.07      0.00
   -4   15    1     -0.41      0.00
   -3   15    1     -0.43      0.00
   -2   15    1      0.00      0.00
   -1   15    1      0.07      0.00
    2  -16    2      0.06      0.00
    3  -16    2      0.12      0.00
    4  -16    2      0.72      0.00
    5  -16    2     -0.54      0.00
    6  -16    2     -0.12      0.00
    7  -16    2      0.29      0.00
    8  -16    2      0.02      0.00
   -1  -15    2      0.26      0.00
    0  -15    2      0.27      0.00
    9  -15    2     -0.71      0.00
   10  -15    2     -0.31      0.00
   -3  -14    2     -0.07      0.00
   11  -14    2      0.72      0.00
   12  -14    2      0.25      0.00
   -5  -13    2      0.16      0.00
   -4  -13    2     -0.03      0.00
   -6  -12    2      0.56      0.00
   13  -12    2      0.30      0.00
   -7  -11    2     -0.14      0.00
   14  -11    2     -0.21      0.00
   -9  -10    2     -0.47      0.00
   14  -10    2     -0.01      0.00
   14   -9    2     -0.46      0.00
  -10   -8    2      0.16      0.00
   15   -8    2      0.06      0.00
  -11   -7    2     -0.43      0.00
   15   -7    2      0.38      0.00
  -12   -6    2      0.49      0.00
   15   -6    2      0.58      0.00
   15   -5    2      0.61      0.00
  -13   -4    2     -0.43      0.00
   15   -4    2     -0.08      0.00
  -14   -3    2      0.37      0.00
  -13   -3    2      0.02      0.00
   -1   -3    2    -20.11      0.00
   15   -3    2     -0.33      0.00
  -14   -2    2      0.44      0.00
   -2   -1    2     53.58      0.00
   -1   -1    2     92.10      0.00
   14   -1    2      0.42      0.00
  -15    0    2      0.03      0.00
   14    0    2     -0.19      0.00
  -15    1    2     -0.22      0.00
  -15    2    2     -0.42      0.00
   13    2    2     -0.55      0.00
   12    4    2      0.44      0.00
   11    5    2     -0.26      0.00
   10    6    2      0.34      0.00
  -15    7    2      0.09      0.00
    9    7    2     -0.11      0.00
   10    7    2      0.01      0.00
  -15    8    2      0.19      0.00
  -14    8    2     -0.02      0.00
    8    8    2      0.22      0.00
    9    8    2      0.01      0.00
  -15    9    2      0.23      0.00
  -14    9    2     -0.16      0.00
    7    9    2     -0.33      0.00
    8    9    2      0.25      0.00
  -14   10    2     -0.08      0.00
    6   10    2      0.21      0.00
    7   10    2     -0.17      0.00
  -14   11    2      0.03      0.00
    5   11    2      0.31      0.00
  -13   12    2     -0.01      0.00
    4   12    2     -0.01      0.00
  -12   13    2     -0.32      0.00
  -11   13    2     -0.92      0.00
    2   13    2     -0.33      0.00
  -11   14    2     -0.28      0.00
  -10   14    2      0.53      0.00
   -9   14    2      0.45      0.00
   -1   14    2     -0.24      0.00
    0   14    2      0.05      0.00
   -8   15    2     -0.23      0.00
   -7   15    2      0.58      0.00
   -6   15    2     -0.13      0.00
   -5   15    2     -0.66      0.00
   -4   15    2      0.46      0.00
   -3   15    2     -0.35      0.00
    1  -16    3      0.19      0.00
    2  -16    3      0.25      0.00
    3  -16    3     -0.21      0.00
    4  -16    3     -0.27      0.00
    5  -16    3      0.14      0.00
    6  -16    3     -0.27      0.00
    7  -16    3      0.02      0.00
    8  -16    3      0.47      0.00
   -2  -15    3     -0.13      0.00
   -1  -15    3     -0.50      0.00
    0  -15    3     -0.30      0.00
    9  -15    3      0.50      0.00
   10  -15    3     -0.46      0.00
   -4  -14    3     -0.19      0.00
   -3  -14    3     -0.10      0.00
   11  -14    3     -0.69      0.00
   12  -14    3      0.02      0.00
   -5  -13    3      0.36      0.00
   12  -13    3     -0.16      0.00
   -7  -12    3     -0.20      0.00
   -6  -12    3     -0.34      0.00
   13  -12    3      0.15      0.00
   -8  -11    3      0.01      0.00
   -7  -11    3      0.51      0.00
   13  -11    3     -0.07      0.00
   14  -11    3      0.37      0.00
   -9  -10    3      0.33      0.00
   14  -10    3      0.50      0.00
  -10   -9    3      0.25      0.00
   14   -9    3      0.40      0.00
  -11   -8    3      0.01      0.00
   15   -7    3     -0.31      0.00
  -12   -6    3     -0.48      0.00
   14   -6    3     -0.49      0.00
   15   -6    3     -0.70      0.00
  -13   -5    3      0.01      0.00
   15   -5    3     -0.38      0.00
  -13   -4    3      0.32      0.00
  -14   -3    3     -0.21      0.00
   14   -3    3      0.08      0.00
  -14   -2    3     -0.04      0.00
   14   -2    3     -0.54      0.00
  -15   -1    3     -0.09      0.00
   -2   -1    3    -31.85      0.00
   14   -1    3     -0.10      0.00
  -15    0    3      0.29      0.00
   13    0    3      0.74      0.00
  -15    1    3      0.55      0.00
   13    1    3      0.13      0.00
   12    3    3     -0.43      0.00
  -16    4    3     -0.09      0.00
   11    4    3      0.05      0.00
  -16    5    3     -0.02      0.00
   11    5    3      0.30      0.00
  -16    6    3      0.10      0.00
  -15    6    3     -0.09      0.00
   10    6    3     -0.07      0.00
  -15    7    3     -0.25      0.00
    9    7    3      0.30      0.00
  -15    8    3     -0.23      0.00
    8    8    3     -0.46      0.00
  -15    9    3     -0.18      0.00
    7    9    3      0.21      0.00
  -14   10    3      0.24      0.00
    6   10    3     -0.28      0.00
  -14   11    3     -0.16      0.00
    4   11    3     -0.08      0.00
    5   11    3      0.26      0.00
  -13   12    3      0.08      0.00
    3   12    3     -0.23      0.00
  -12   13    3      0.41      0.00
  -11   13    3      0.15      0.00
    1   13    3     -0.12      0.00
    2   13    3      0.50      0.00
  -10   14    3     -0.41      0.00
   -9   14    3      0.05      0.00
   -8   14    3     -0.29      0.00
   -3   14    3     -0.07      0.00
   -2   14    3      0.40      0.00
   -1   14    3      0.02      0.00
   -7   15    3     -0.08      0.00
   -6   15    3      0.78      0.00
   -5   15    3      0.00      0.00
    0  -16    4     -0.01      0.00
    1  -16    4     -0.12      0.00
    2  -16    4     -0.20      0.00
    3  -16    4      0.34      0.00
    4  -16    4      0.23      0.00
    6  -16    4      0.17      0.00
    7  -16    4     -0.11      0.00
    8  -16    4     -0.47      0.00
   -2  -15    4      0.07      0.00
   -1  -15    4      0.44      0.00
   10  -15    4      0.67      0.00
   -4  -14    4      0.11      0.00
   -3  -14    4     -0.16      0.00
   11  -14    4      0.16      0.00
   -6  -13    4     -0.12      0.00
   -5  -13    4     -0.49      0.00
   12  -13    4     -0.02      0.00
   -7  -12    4     -0.03      0.00
   13  -12    4     -0.51      0.00
   -8  -11    4     -0.48      0.00
   13  -11    4     -0.24      0.00
   -9  -10    4      0.31      0.00
   14  -10    4     -0.50      0.00
  -10   -9    4      0.07      0.00
   14   -9    4      0.12      0.00
  -11   -8    4     -0.03      0.00
   14   -8    4      0.89      0.00
  -12   -7    4      0.18      0.00
   14   -7    4      1.02      0.00
   14   -6    4      0.74      0.00
  -13   -5    4     -0.30      0.00
   14   -5    4     -0.02      0.00
   14   -4    4      0.24      0.00
  -14   -3    4      0.01      0.00
   14   -3    4      0.45      0.00
  -14   -2    4     -0.04      0.00
   14   -2    4      0.17      0.00
  -15   -1    4     -0.16      0.00
   13   -1    4     -0.63      0.00
  -15    0    4     -0.34      0.00
   13    0    4     -0.22      0.00
  -15    1    4     -0.08      0.00
   13    1    4      0.37      0.00
   12    2    4      0.21      0.00
  -16    3    4      0.09      0.00
  -16    4    4     -0.09      0.00
   11    4    4     -0.24      0.00
  -16    5    4     -0.04      0.00
  -16    6    4     -0.08      0.00
    9    6    4     -0.46      0.00
  -15    7    4     -0.35      0.00
    8    7    4      0.29      0.00
    9    7    4     -0.55      0.00
  -15    8    4     -0.54      0.00
    7    8    4     -0.11      0.00
    8    8    4     -0.09      0.00
  -15    9    4     -0.30      0.00
    6    9    4      0.13      0.00
    7    9    4     -0.24      0.00
  -14   10    4      0.20      0.00
  -13   10    4      0.79      0.00
    5   10    4      0.02      0.00
  -14   11    4      0.22      0.00
    4   11    4     -0.10      0.00
  -13   12    4     -0.19      0.00
  -12   12    4     -0.74      0.00
    2   12    4      0.13      0.00
    3   12    4      0.31      0.00
  -11   13    4      0.44      0.00
  -10   13    4      0.39      0.00
    0   13    4      0.24      0.00
    1   13    4     -0.40      0.00
   -9   14    4      0.17      0.00
   -8   14    4      0.19      0.00
   -7   14    4     -0.35      0.00
   -6   14    4     -0.50      0.00
   -5   14    4      0.23      0.00
   -4   14    4      0.07      0.00
   -3   14    4     -0.16      0.00
   -2   14    4      0.00      0.00
    0  -16    5     -0.29      0.00
    1  -16    5     -0.10      0.00
    2  -16    5      0.19      0.00
    6  -16    5     -0.24      0.00
    7  -16    5      0.37      0.00
    8  -16    5      0.08      0.00
   -3  -15    5      0.08      0.00
   -2  -15    5     -0.03      0.00
   -1  -15    5      0.05      0.00
   10  -15    5     -0.18      0.00
   -4  -14    5     -0.09      0.00
   11  -14    5     -0.11      0.00
   -6  -13    5      0.01      0.00
   -5  -13    5      0.21      0.00
   12  -13    5      0.37      0.00
   -7  -12    5     -0.02      0.00
   13  -12    5      0.16      0.00
   -8  -11    5      0.22      0.00
   13  -11    5      0.24      0.00
   -9  -10    5     -0.09      0.00
  -10   -9    5      0.24      0.00
   14   -9    5     -0.15      0.00
  -11   -8    5      0.04      0.00
   14   -8    5     -0.24      0.00
  -12   -7    5     -0.39      0.00
   14   -7    5     -0.27      0.00
  -13   -6    5      0.80      0.00
   14   -6    5      0.07      0.00
  -13   -5    5      0.31      0.00
   14   -5    5      0.02      0.00
  -14   -4    5     -0.50      0.00
   14   -4    5     -0.23      0.00
  -14   -3    5     -0.71      0.00
  -14   -2    5      0.26      0.00
   13   -2    5      0.35      0.00
  -15   -1    5      0.25      0.00
   13   -1    5      0.53      0.00
  -15    0    5     -0.07      0.00
   13    0    5     -0.22      0.00
   12    1    5     -0.82      0.00
  -16    2    5     -0.24      0.00
   12    2    5     -0.06      0.00
  -16    3    5      0.13      0.00
   11    3    5      0.51      0.00
  -16    4    5      0.11      0.00
  -16    5    5      0.25      0.00
   10    5    5     -0.33      0.00
    9    6    5      0.59      0.00
  -15    7    5      0.48      0.00
    8    7    5      0.21      0.00
  -15    8    5      0.52      0.00
    6    8    5      0.30      0.00
    7    8    5      0.46      0.00
  -15    9    5      0.47      0.00
    5    9    5     -0.31      0.00
    6    9    5     -0.04      0.00
  -14   10    5     -0.51      0.00
    4   10    5      0.27      0.00
    5   10    5      0.36      0.00
  -13   11    5      0.35      0.00
    2   11    5     -0.85      0.00
    3   11    5     -0.37      0.00
  -12   12    5      0.27      0.00
    1   12    5      0.19      0.00
    2   12    5      0.11      0.00
  -11   13    5     -0.30      0.00
  -10   13    5     -0.01      0.00
   -9   13    5      0.00      0.00
   -8   13    5      0.07      0.00
   -2   13    5     -0.53      0.00
   -1   13    5      0.02      0.00
   -8   14    5     -0.02      0.00
   -7   14    5      0.22      0.00
   -6   14    5      0.17      0.00
   -5   14    5     -0.08      0.00
   -4   14    5     -0.09      0.00
   -1  -16    6      0.37      0.00
    0  -16    6      0.43      0.00
    1  -16    6      0.03      0.00
    7  -16    6     -0.23      0.00
    8  -16    6     -0.05      0.00
   -3  -15    6      0.17      0.00
   -2  -15    6     -0.52      0.00
    9  -15    6      0.01      0.00
   10  -15    6      0.17      0.00
   -5  -14    6     -0.15      0.00
   -4  -14    6      0.12      0.00
   11  -14    6     -0.09      0.00
   -6  -13    6      0.05      0.00
   11  -13    6     -0.51      0.00
   12  -13    6     -0.23      0.00
   -7  -12    6      0.04      0.00
   12  -12    6      0.11      0.00
   -9  -11    6     -0.16      0.00
   13  -11    6     -0.16      0.00
  -10  -10    6      0.24      0.00
   13  -10    6      0.55      0.00
  -11   -8    6     -0.31      0.00
  -12   -7    6      0.84      0.00
   14   -7    6     -0.08      0.00
  -13   -6    6     -0.71      0.00
   14   -6    6     -0.16      0.00
  -13   -5    6     -0.28      0.00
  -14   -4    6      1.15      0.00
  -13   -4    6     -0.06      0.00
   13   -4    6     -0.02      0.00
  -14   -3    6      0.50      0.00
   13   -3    6     -0.09      0.00
  -15   -2    6     -0.70      0.00
  -14   -2    6     -0.48      0.00
   13   -2    6     -0.26      0.00
  -15   -1    6     -0.25      0.00
  -14   -1    6      0.26      0.00
  -15    0    6      0.13      0.00
   12    0    6      1.09      0.00
  -15    1    6     -0.13      0.00
   12    1    6      0.28      0.00
  -16    2    6      0.28      0.00
   11    2    6     -0.63      0.00
  -16    3    6      0.43      0.00
  -16    4    6      0.36      0.00
   10    4    6      0.58      0.00
  -16    5    6     -0.07      0.00
  -13    5    6     -0.05      0.00
    9    5    6     -0.32      0.00
  -15    6    6      0.21      0.00
  -15    7    6      0.24      0.00
    7    7    6     -0.50      0.00
  -15    8    6      0.25      0.00
  -14    8    6      0.25      0.00
    6    8    6     -0.17      0.00
  -14    9    6      0.62      0.00
    4    9    6     -0.16      0.00
    5    9    6     -0.27      0.00
  -14   10    6      0.12      0.00
    3   10    6      0.20      0.00
    4   10    6     -0.29      0.00
  -13   11    6     -0.43      0.00
    2   11    6     -0.06      0.00
  -12   12    6      0.16      0.00
  -11   12    6      0.13      0.00
    0   12    6     -0.22      0.00
    1   12    6     -0.24      0.00
  -10   13    6     -0.10      0.00
   -9   13    6     -0.05      0.00
   -8   13    6     -0.02      0.00
   -7   13    6     -0.46      0.00
   -6   13    6      0.48      0.00
   -5   13    6      0.33      0.00
   -4   13    6     -0.35      0.00
   -3   13    6      0.36      0.00
   -2   13    6     -0.07      0.00
   -1  -16    7     -0.37      0.00
    0  -16    7     -0.28      0.00
    1  -16    7      0.04      0.00
    7  -16    7      0.15      0.00
    8  -16    7      0.36      0.00
   -3  -15    7     -0.15      0.00
    9  -15    7     -0.43      0.00
   10  -15    7     -0.06      0.00
   -5  -14    7      0.12      0.00
   11  -14    7      0.07      0.00
   -6  -13    7     -0.16      0.00
   11  -13    7      0.04      0.00
   -8  -12    7     -0.19      0.00
   -7  -12    7      0.14      0.00
   12  -12    7     -0.27      0.00
   -9  -11    7     -0.34      0.00
   12  -11    7     -0.42      0.00
  -10  -10    7     -0.41      0.00
   12  -10    7     -0.96      0.00
   13  -10    7     -0.30      0.00
  -11   -9    7      0.63      0.00
   13   -9    7      0.20      0.00
   13   -8    7      0.03      0.00
  -12   -7    7     -0.47      0.00
   13   -7    7     -0.09      0.00
  -13   -6    7      0.32      0.00
   13   -6    7      0.18      0.00
  -13   -5    7      0.66      0.00
   13   -5    7      0.10      0.00
  -14   -4    7     -0.10      0.00
   13   -4    7      0.04      0.00
  -14   -3    7      0.18      0.00
   13   -3    7     -0.06      0.00
  -15   -2    7      0.49      0.00
  -14   -2    7     -0.31      0.00
  -15   -1    7     -0.22      0.00
  -14   -1    7     -0.69      0.00
   12   -1    7     -0.67      0.00
  -15    0    7      0.32      0.00
   12    0    7     -0.49      0.00
  -15    1    7      0.84      0.00
   11    1    7      0.75      0.00
   11    2    7      0.19      0.00
  -16    3    7     -0.92      0.00
   10    3    7     -0.87      0.00
  -16    4    7     -0.44      0.00
    9    4    7      0.02      0.00
  -15    5    7      0.32      0.00
  -15    6    7      0.00      0.00
    8    6    7      0.00      0.00
  -15    7    7     -0.31      0.00
    7    7    7      0.16      0.00
  -15    8    7     -0.39      0.00
  -14    8    7     -0.03      0.00
    5    8    7     -0.15      0.00
    6    8    7     -0.21      0.00
  -14    9    7     -0.18      0.00
    3    9    7      0.00      0.00
    4    9    7      0.58      0.00
  -13   10    7      0.00      0.00
    2   10    7     -0.31      0.00
    3   10    7     -0.19      0.00
  -12   11    7     -0.18      0.00
    1   11    7      0.56      0.00
  -11   12    7      0.20      0.00
  -10   12    7      0.17      0.00
   -7   12    7     -0.07      0.00
   -5   12    7      0.63      0.00
   -3   12    7     -0.48      0.00
   -2   12    7     -0.08      0.00
   -1   12    7      0.00      0.00
   -8   13    7      0.14      0.00
   -7   13    7      0.11      0.00
   -6   13    7     -0.25      0.00
   -5   13    7      0.19      0.00
   -4   13    7     -0.01      0.00
   -1  -16    8      0.01      0.00
    0  -16    8      0.30      0.00
    6  -16    8      0.03      0.00
    7  -16    8     -0.46      0.00
    8  -16    8      0.13      0.00
   -3  -15    8      0.04      0.00
   -2  -15    8     -0.61      0.00
    8  -15    8      0.15      0.00
    9  -15    8      0.07      0.00
   -5  -14    8     -0.18      0.00
    9  -14    8     -0.55      0.00
   10  -14    8     -0.14      0.00
   -7  -13    8     -0.05      0.00
   -6  -13    8      0.03      0.00
   11  -13    8      0.47      0.00
   -8  -12    8     -0.26      0.00
   12  -12    8      0.13      0.00
   -9  -11    8     -0.14      0.00
   12  -11    8      0.51      0.00
  -10  -10    8      0.53      0.00
  -11   -9    8     -0.30      0.00
   13   -9    8     -0.29      0.00
   13   -8    8      0.30      0.00
  -12   -7    8     -0.23      0.00
   13   -7    8      0.14      0.00
  -13   -6    8     -0.35      0.00
   13   -6    8      0.17      0.00
  -13   -5    8      0.49      0.00
   13   -5    8      0.25      0.00
  -14   -4    8     -0.22      0.00
   12   -4    8      0.15      0.00
  -14   -3    8     -0.16      0.00
   12   -3    8     -0.07      0.00
  -15   -2    8      0.41      0.00
  -14   -2    8      0.11      0.00
   12   -2    8      0.00      0.00
  -15   -1    8      0.02      0.00
  -14   -1    8     -0.13      0.00
  -15    0    8     -0.47      0.00
   11    0    8     -0.21      0.00
  -15    1    8     -0.21      0.00
   10    2    8      0.66      0.00
  -15    3    8     -0.24      0.00
    9    3    8      0.48      0.00
  -15    4    8     -0.75      0.00
    9    4    8     -0.17      0.00
  -15    5    8     -0.46      0.00
    8    5    8     -0.16      0.00
  -15    6    8     -0.08      0.00
    7    6    8      0.03      0.00
  -15    7    8     -0.02      0.00
    6    7    8     -0.12      0.00
  -14    8    8      0.56      0.00
    4    8    8     -0.27      0.00
    5    8    8      0.31      0.00
  -14    9    8      0.20      0.00
  -13    9    8      0.53      0.00
    3    9    8     -0.22      0.00
  -13   10    8     -0.09      0.00
    1   10    8     -0.08      0.00
    2   10    8      0.35      0.00
  -12   11    8      0.14      0.00
  -11   11    8     -0.03      0.00
   -2   11    8      0.17      0.00
   -1   11    8     -0.03      0.00
    0   11    8     -0.15      0.00
  -10   12    8     -0.18      0.00
   -9   12    8     -0.26      0.00
   -8   12    8     -0.63      0.00
   -7   12    8      0.04      0.00
   -6   12    8     -0.31      0.00
   -5   12    8     -0.63      0.00
   -4   12    8      0.60      0.00
   -3   12    8      0.15      0.00
   -2   12    8      0.20      0.00
   -1  -16    9      0.04      0.00
    0  -16    9     -0.51      0.00
    1  -16    9      0.03      0.00
    5  -16    9     -0.16      0.00
    6  -16    9      0.16      0.00
    7  -16    9      0.21      0.00
   -3  -15    9      0.26      0.00
    7  -15    9      0.34      0.00
    8  -15    9      0.05      0.00
    9  -15    9      0.03      0.00
   -5  -14    9      0.11      0.00
   10  -14    9     -0.32      0.00
   -7  -13    9     -0.23      0.00
   -6  -13    9      0.20      0.00
   11  -13    9     -0.21      0.00
   -8  -12    9     -0.11      0.00
   11  -12    9     -0.32      0.00
   -9  -11    9      0.32      0.00
   12  -11    9     -0.10      0.00
  -10  -10    9     -0.43      0.00
   12  -10    9      0.32      0.00
  -11   -9    9      0.55      0.00
   12   -9    9     -0.16      0.00
   12   -8    9     -0.40      0.00
  -12   -7    9     -0.03      0.00
   12   -7    9     -0.07      0.00
  -13   -6    9      0.01      0.00
   12   -6    9     -0.36      0.00
  -13   -5    9     -0.72      0.00
   12   -5    9     -0.49      0.00
  -14   -4    9     -0.11      0.00
  -13   -4    9     -0.48      0.00
   12   -4    9     -0.30      0.00
  -14   -3    9      0.28      0.00
   12   -3    9      0.04      0.00
  -15   -2    9     -0.18      0.00
  -14   -2    9      0.18      0.00
  -15   -1    9      0.15      0.00
  -14   -1    9     -0.01      0.00
   11   -1    9     -0.37      0.00
  -15    0    9     -0.21      0.00
  -15    1    9     -0.35      0.00
   10    1    9      0.22      0.00
  -15    2    9     -0.24      0.00
  -15    3    9      0.18      0.00
    9    3    9      0.01      0.00
  -15    4    9      0.23      0.00
    8    4    9     -0.06      0.00
  -15    5    9     -0.07      0.00
    7    5    9      0.06      0.00
  -15    6    9      0.07      0.00
    6    6    9      0.31      0.00
  -14    7    9     -0.10      0.00
    4    7    9     -0.05      0.00
    5    7    9     -0.36      0.00
  -14    8    9     -0.55      0.00
  -13    8    9      0.09      0.00
    3    8    9      0.37      0.00
    4    8    9      0.38      0.00
  -13    9    9      0.15      0.00
    2    9    9      0.10      0.00
  -12   10    9     -0.17      0.00
    0   10    9      0.23      0.00
    1   10    9     -0.31      0.00
  -11   11    9      0.27      0.00
  -10   11    9      0.19      0.00
   -9   11    9      0.54      0.00
   -7   11    9      0.31      0.00
   -4   11    9     -0.51      0.00
   -3   11    9     -0.19      0.00
   -2   11    9     -0.16      0.00
   -1   11    9     -0.19      0.00
   -7   12    9     -0.12      0.00
   -6   12    9      0.29      0.00
   -5   12    9     -0.37      0.00
   -1  -16   10      0.24      0.00
    0  -16   10      0.45      0.00
    1  -16   10     -0.10      0.00
    2  -16   10     -0.05      0.00
    3  -16   10      0.09      0.00
    4  -16   10      0.07      0.00
    5  -16   10      0.20      0.00
    6  -16   10     -0.29      0.00
   -3  -15   10     -0.01      0.00
    7  -15   10     -0.17      0.00
    8  -15   10      0.00      0.00
   -5  -14   10     -0.25      0.00
    9  -14   10      0.09      0.00
   -7  -13   10      0.17      0.00
   10  -13   10      0.05      0.00
   -8  -12   10      0.43      0.00
   -7  -12   10      0.22      0.00
   11  -12   10      0.30      0.00
   -9  -11   10     -0.13      0.00
   -8  -11   10     -0.17      0.00
   11  -11   10      0.04      0.00
  -10  -10   10     -0.12      0.00
   11  -10   10     -0.13      0.00
  -11   -9   10     -0.46      0.00
   12   -9   10      0.06      0.00
   12   -8   10      0.03      0.00
  -12   -7   10      0.17      0.00
   12   -7   10      0.29      0.00
  -13   -6   10     -0.02      0.00
   12   -6   10      0.42      0.00
  -13   -5   10     -0.18      0.00
  -14   -4   10     -0.04      0.00
   11   -4   10     -0.13      0.00
  -14   -3   10      0.18      0.00
   11   -3   10     -0.17      0.00
  -14   -2   10      0.21      0.00
   11   -2   10      0.15      0.00
  -15   -1   10      0.13      0.00
   10   -1   10     -0.04      0.00
  -15    0   10      0.07      0.00
   10    0   10     -0.18      0.00
  -15    1   10     -0.18      0.00
    9    1   10      0.17      0.00
  -15    2   10      0.07      0.00
    9    2   10     -0.07      0.00
  -15    3   10      0.15      0.00
    8    3   10      0.18      0.00
  -15    4   10      0.17      0.00
    7    4   10      0.02      0.00
  -15    5   10      0.04      0.00
    6    5   10     -0.07      0.00
    4    6   10      0.35      0.00
    5    6   10     -0.26      0.00
  -14    7   10      0.20      0.00
    3    7   10     -0.54      0.00
    4    7   10      0.28      0.00
  -13    8   10     -0.08      0.00
    2    8   10     -0.20      0.00
    3    8   10     -0.59      0.00
  -12    9   10      0.09      0.00
    0    9   10     -0.02      0.00
    1    9   10     -0.15      0.00
  -11   10   10     -0.36      0.00
  -10   10   10      0.07      0.00
   -2   10   10      0.14      0.00
   -1   10   10     -0.17      0.00
   -9   11   10     -0.37      0.00
   -8   11   10     -0.26      0.00
   -7   11   10     -0.57      0.00
   -6   11   10     -0.04      0.00
   -5   11   10      0.54      0.00
   -4   11   10     -0.09      0.00
   -1  -16   11     -0.19      0.00
    0  -16   11     -0.17      0.00
    1  -16   11      0.12      0.00
    2  -16   11     -0.03      0.00
    3  -16   11      0.02      0.00
    4  -16   11     -0.09      0.00
    5  -16   11     -0.23      0.00
    6  -16   11      0.06      0.00
   -3  -15   11     -0.06      0.00
   -2  -15   11      0.19      0.00
    6  -15   11      0.32      0.00
    7  -15   11     -0.05      0.00
    8  -15   11     -0.05      0.00
   -5  -14   11      0.63      0.00
    8  -14   11      0.09      0.00
    9  -14   11      0.28      0.00
   -7  -13   11      0.44      0.00
   -6  -13   11      0.19      0.00
    9  -13   11     -0.06      0.00
   -8  -12   11      0.13      0.00
   -7  -12   11      0.39      0.00
   10  -12   11     -0.20      0.00
   -9  -11   11     -0.02      0.00
   10  -11   11     -0.01      0.00
  -10  -10   11      0.03      0.00
   11  -10   11     -0.04      0.00
  -11   -9   11     -0.28      0.00
   11   -9   11     -0.14      0.00
  -11   -8   11     -0.55      0.00
   11   -8   11     -0.12      0.00
  -12   -7   11      0.37      0.00
   11   -7   11     -0.52      0.00
  -13   -6   11      0.16      0.00
   11   -6   11     -0.47      0.00
  -13   -5   11      0.15      0.00
   11   -5   11     -0.09      0.00
  -14   -4   11     -0.09      0.00
  -13   -4   11      0.25      0.00
   11   -4   11      0.11      0.00
  -14   -3   11     -0.22      0.00
   10   -3   11     -0.12      0.00
  -14   -2   11     -0.05      0.00
   10   -2   11     -0.23      0.00
  -15   -1   11      0.05      0.00
  -14   -1   11      0.00      0.00
  -15    0   11      0.54      0.00
    9    0   11      0.06      0.00
  -15    1   11      0.37      0.00
  -15    2   11     -0.34      0.00
    8    2   11      0.10      0.00
  -15    3   11     -0.23      0.00
    7    3   11     -0.22      0.00
  -15    4   11      0.29      0.00
  -14    4   11      0.24      0.00
    6    4   11     -0.23      0.00
  -14    5   11      1.16      0.00
    5    5   11      0.41      0.00
  -14    6   11      0.29      0.00
    3    6   11     -0.12      0.00
    4    6   11     -0.41      0.00
  -13    7   11      0.45      0.00
    3    7   11      0.26      0.00
  -13    8   11     -0.08      0.00
  -12    8   11      0.08      0.00
    1    8   11      0.31      0.00
    2    8   11      0.13      0.00
  -12    9   11      0.39      0.00
  -11    9   11      0.00      0.00
   -2    9   11      0.05      0.00
   -1    9   11      0.42      0.00
    0    9   11      0.14      0.00
  -10   10   11      0.21      0.00
   -9   10   11      0.58      0.00
   -8   10   11      0.36      0.00
   -7   10   11      0.33      0.00
   -6   10   11     -0.38      0.00
   -5   10   11      0.15      0.00
   -4   10   11      0.15      0.00
   -3   10   11     -0.09      0.00
    0  -16   12     -0.12      0.00
    1  -16   12     -0.10      0.00
    2  -16   12      0.17      0.00
    3  -16   12     -0.21      0.00
    4  -16   12      0.29      0.00
    5  -16   12      0.11      0.00
   -3  -15   12     -0.15      0.00
   -2  -15   12      0.13      0.00
    2  -15   12      0.71      0.00
    3  -15   12     -0.28      0.00
    5  -15   12     -0.54      0.00
    6  -15   12     -0.15      0.00
    7  -15   12      0.02      0.00
   -5  -14   12     -0.70      0.00
   -4  -14   12     -0.02      0.00
    7  -14   12      0.28      0.00
    8  -14   12     -0.15      0.00
   -6  -13   12      0.80      0.00
    8  -13   12      0.11      0.00
    9  -13   12      0.09      0.00
   -8  -12   12      0.05      0.00
   -7  -12   12     -0.14      0.00
    9  -12   12     -0.15      0.00
   -9  -11   12      0.20      0.00
   -8  -11   12      0.24      0.00
   10  -11   12     -0.05      0.00
  -10  -10   12      0.36      0.00
   10  -10   12      0.06      0.00
  -11   -9   12      0.07      0.00
  -10   -9   12     -0.17      0.00
   10   -9   12     -0.03      0.00
  -11   -8   12      0.25      0.00
   10   -8   12      0.01      0.00
  -12   -7   12     -0.51      0.00
   10   -7   12      0.35      0.00
  -12   -6   12     -0.14      0.00
   10   -6   12      0.25      0.00
  -13   -5   12      0.07      0.00
   10   -5   12     -0.26      0.00
  -13   -4   12     -0.01      0.00
   10   -4   12     -0.18      0.00
  -14   -3   12     -0.02      0.00
   10   -3   12      0.10      0.00
  -14   -2   12     -0.05      0.00
    9   -2   12     -0.02      0.00
  -14   -1   12      0.12      0.00
    9   -1   12     -0.20      0.00
    8    0   12      0.18      0.00
    8    1   12      0.04      0.00
    7    2   12     -0.18      0.00
  -14    3   12      0.85      0.00
    6    3   12      0.37      0.00
  -14    4   12      0.10      0.00
    5    4   12      0.16      0.00
  -14    5   12     -0.02      0.00
    4    5   12     -0.31      0.00
  -13    6   12     -0.35      0.00
    2    6   12     -0.21      0.00
    3    6   12      0.64      0.00
  -13    7   12     -0.36      0.00
  -12    7   12      0.41      0.00
    1    7   12     -0.02      0.00
    2    7   12     -0.43      0.00
  -12    8   12      0.04      0.00
  -11    8   12     -0.07      0.00
   -1    8   12     -0.39      0.00
    0    8   12     -0.34      0.00
  -10    9   12     -0.41      0.00
   -9    9   12     -0.15      0.00
   -8    9   12     -0.12      0.00
   -7    9   12      0.52      0.00
   -6    9   12     -0.02      0.00
   -5    9   12     -0.29      0.00
   -4    9   12      0.20      0.00
   -3    9   12      0.25      0.00
   -2    9   12     -0.40      0.00
    1  -16   13     -0.16      0.00
    2  -16   13     -0.07      0.00
    3  -16   13      0.16      0.00
   -3  -15   13     -0.18      0.00
   -2  -15   13     -0.25      0.00
   -1  -15   13      0.36      0.00
    0  -15   13      0.06      0.00
    2  -15   13     -0.13      0.00
    3  -15   13      0.38      0.00
    4  -15   13      0.39      0.00
    5  -15   13      0.38      0.00
    6  -15   13     -0.13      0.00
   -5  -14   13      0.62      0.00
   -4  -14   13     -0.25      0.00
    5  -14   13     -0.33      0.00
    6  -14   13     -0.44      0.00
    7  -14   13     -0.15      0.00
   -6  -13   13     -0.81      0.00
    7  -13   13      0.20      0.00
    8  -13   13      0.35      0.00
   -7  -12   13      0.42      0.00
    8  -12   13      0.50      0.00
    9  -12   13     -0.01      0.00
   -9  -11   13      0.02      0.00
   -8  -11   13      0.01      0.00
    9  -11   13      0.05      0.00
   -9  -10   13      0.61      0.00
    9  -10   13      0.03      0.00
  -10   -9   13      0.32      0.00
   10   -9   13      0.04      0.00
  -11   -8   13     -0.31      0.00
  -10   -8   13      0.49      0.00
   10   -8   13     -0.08      0.00
  -12   -7   13     -0.27      0.00
   10   -7   13     -0.10      0.00
  -12   -6   13     -0.30      0.00
   10   -6   13      0.14      0.00
  -13   -5   13     -0.03      0.00
  -12   -5   13     -0.23      0.00
    9   -5   13      0.37      0.00
  -13   -4   13     -0.05      0.00
    9   -4   13     -0.05      0.00
  -14   -3   13      0.03      0.00
    9   -3   13     -0.19      0.00
  -14   -2   13      0.08      0.00
  -13   -2   13      0.00      0.00
    8   -2   13      0.19      0.00
  -14   -1   13     -0.22      0.00
    8   -1   13      0.14      0.00
  -14    0   13      0.20      0.00
  -14    1   13      0.70      0.00
    7    1   13      0.16      0.00
  -14    2   13     -0.93      0.00
    6    2   13      0.28      0.00
  -14    3   13     -1.29      0.00
    4    3   13     -0.08      0.00
    5    3   13     -0.81      0.00
  -14    4   13     -0.38      0.00
    3    4   13      0.14      0.00
    4    4   13      0.62      0.00
  -13    5   13      0.23      0.00
    2    5   13     -0.38      0.00
    3    5   13     -0.38      0.00
  -13    6   13      0.25      0.00
  -12    6   13     -0.30      0.00
    1    6   13      0.13      0.00
    2    6   13     -0.03      0.00
  -12    7   13     -0.23      0.00
  -11    7   13     -0.23      0.00
   -1    7   13      0.60      0.00
    0    7   13      0.08      0.00
  -10    8   13      0.06      0.00
   -9    8   13     -0.08      0.00
   -8    8   13     -0.68      0.00
   -4    8   13     -0.64      0.00
   -3    8   13      0.24      0.00
   -2    8   13      0.35      0.00
   -8    9   13      0.09      0.00
   -7    9   13      0.25      0.00
   -6    9   13      0.51      0.00
   -5    9   13      0.06      0.00
   -2  -15   14      0.04      0.00
   -1  -15   14     -0.07      0.00
    0  -15   14      0.25      0.00
    1  -15   14      0.10      0.00
    2  -15   14     -0.14      0.00
    3  -15   14      0.09      0.00
    4  -15   14     -0.07      0.00
    5  -15   14      0.09      0.00
   -4  -14   14      0.21      0.00
   -3  -14   14     -0.31      0.00
    5  -14   14      0.28      0.00
    6  -14   14      0.13      0.00
   -6  -13   14      0.34      0.00
   -5  -13   14      0.35      0.00
    6  -13   14      0.08      0.00
    7  -13   14     -0.63      0.00
   -7  -12   14     -0.29      0.00
    7  -12   14     -0.07      0.00
    8  -12   14      0.00      0.00
   -8  -11   14      0.05      0.00
    8  -11   14      0.04      0.00
   -9  -10   14     -0.10      0.00
    9  -10   14     -0.14      0.00
  -10   -9   14     -0.40      0.00
   -9   -9   14      0.27      0.00
    8   -9   14     -0.42      0.00
    9   -9   14     -0.21      0.00
  -11   -8   14     -0.16      0.00
    9   -8   14      0.06      0.00
  -11   -7   14     -0.32      0.00
    9   -7   14      0.11      0.00
  -12   -6   14      0.21      0.00
    9   -6   14     -0.37      0.00
  -12   -5   14      0.50      0.00
  -11   -5   14     -0.08      0.00
    9   -5   14     -0.19      0.00
  -13   -4   14     -0.03      0.00
    8   -4   14      0.39      0.00
  -13   -3   14     -0.56      0.00
    8   -3   14      0.16      0.00
  -13   -2   14      0.22      0.00
  -14   -1   14      0.41      0.00
    7   -1   14     -0.02      0.00
  -14    0   14     -0.43      0.00
    6    0   14     -0.09      0.00
  -14    1   14     -0.13      0.00
    5    1   14     -0.55      0.00
    6    1   14     -0.48      0.00
  -14    2   14      0.88      0.00
    4    2   14      0.65      0.00
    5    2   14      0.35      0.00
  -13    3   14     -0.72      0.00
    3    3   14     -0.53      0.00
    4    3   14      0.00      0.00
  -13    4   14     -0.47      0.00
    2    4   14      0.33      0.00
    3    4   14     -0.44      0.00
  -12    5   14      0.56      0.00
    1    5   14     -0.04      0.00
    2    5   14      0.34      0.00
  -12    6   14      0.38      0.00
  -11    6   14      0.34      0.00
   -1    6   14     -0.37      0.00
    0    6   14     -0.06      0.00
  -10    7   14      0.11      0.00
   -9    7   14      0.62      0.00
   -4    7   14      0.28      0.00
   -3    7   14     -0.45      0.00
   -2    7   14     -0.51      0.00
   -8    8   14      0.15      0.00
   -7    8   14     -0.43      0.00
   -6    8   14     -0.22      0.00
   -5    8   14      0.35      0.00
    0  -15   15     -0.01      0.00
    1  -15   15      0.30      0.00
    2  -15   15     -0.21      0.00
    3  -15   15     -0.19      0.00
   -3  -14   15      0.44      0.00
   -2  -14   15     -0.49      0.00
    1  -14   15      0.61      0.00
    2  -14   15     -0.19      0.00
    3  -14   15      0.16      0.00
    4  -14   15      0.07      0.00
    5  -14   15     -0.27      0.00
   -5  -13   15     -0.01      0.00
   -4  -13   15     -0.17      0.00
    2  -13   15     -0.09      0.00
    3  -13   15      0.75      0.00
    5  -13   15     -0.65      0.00
    6  -13   15      0.03      0.00
   -7  -12   15      0.12      0.00
   -6  -12   15      0.63      0.00
    4  -12   15      0.40      0.00
    5  -12   15     -1.01      0.00
    7  -12   15     -0.07      0.00
   -8  -11   15     -0.53      0.00
   -7  -11   15     -0.06      0.00
    5  -11   15     -0.21      0.00
    6  -11   15     -0.22      0.00
    7  -11   15      0.15      0.00
   -9  -10   15     -0.53      0.00
   -8  -10   15     -0.49      0.00
   -7  -10   15     -0.59      0.00
    7  -10   15      0.61      0.00
    8  -10   15      0.30      0.00
  -10   -9   15     -0.03      0.00
   -9   -9   15     -0.09      0.00
    8   -9   15      0.15      0.00
  -10   -8   15     -0.20      0.00
    8   -8   15     -0.28      0.00
  -11   -7   15      0.18      0.00
    8   -7   15     -0.02      0.00
  -12   -6   15     -0.05      0.00
  -11   -6   15      0.67      0.00
    8   -6   15      0.46      0.00
  -12   -5   15     -0.28      0.00
    8   -5   15      0.00      0.00
  -12   -4   15     -0.25      0.00
    7   -4   15     -0.42      0.00
  -13   -3   15      0.38      0.00
    7   -3   15      0.09      0.00
  -13   -2   15     -0.34      0.00
  -12   -2   15      0.07      0.00
  -13   -1   15     -0.38      0.00
    6   -1   15     -0.01      0.00
  -13    0   15      0.40      0.00
    5    0   15      0.57      0.00
  -13    1   15      0.15      0.00
    4    1   15     -0.25      0.00
    5    1   15      0.37      0.00
  -13    2   15      0.13      0.00
    3    2   15      0.36      0.00
    4    2   15     -0.46      0.00
  -13    3   15      0.28      0.00
  -12    3   15      0.08      0.00
    2    3   15      0.19      0.00
    3    3   15      0.58      0.00
  -12    4   15     -0.25      0.00
  -11    4   15      0.74      0.00
    1    4   15     -0.13      0.00
    2    4   15     -0.22      0.00
  -11    5   15      0.45      0.00
   -1    5   15      0.12      0.00
    0    5   15      0.05      0.00
  -10    6   15     -0.47      0.00
   -9    6   15     -0.84      0.00
   -4    6   15      0.08      0.00
   -3    6   15      0.40      0.00
   -2    6   15      0.60      0.00
   -8    7   15     -0.10      0.00
   -7    7   15      0.14      0.00
   -6    7   15     -0.11      0.00
   -5    7   15     -0.33      0.00
   -4    7   15      0.26      0.00
   -2  -14   16      0.37      0.00
   -1  -14   16      0.17      0.00
    0  -14   16     -0.42      0.00
    1  -14   16      0.00      0.00
    2  -14   16     -0.12      0.00
    3  -14   16     -0.57      0.00
   -5  -13   16      0.18      0.00
   -4  -13   16      0.33      0.00
   -3  -13   16     -0.62      0.00
    4  -13   16      0.16      0.00
    5  -13   16      0.54      0.00
   -6  -12   16     -0.44      0.00
   -5  -12   16      0.14      0.00
    5  -12   16      0.42      0.00
    6  -12   16     -0.11      0.00
   -7  -11   16      0.09      0.00
    6  -11   16     -0.46      0.00
   -8  -10   16      0.02      0.00
    7  -10   16     -0.25      0.00
   -9   -9   16     -0.77      0.00
    7   -9   16      0.17      0.00
  -10   -8   16      0.59      0.00
    7   -8   16      0.28      0.00
  -11   -7   16      0.08      0.00
    7   -7   16     -0.07      0.00
  -11   -6   16     -0.59      0.00
    6   -6   16     -0.01      0.00
    7   -6   16     -0.09      0.00
  -12   -5   16      0.04      0.00
    6   -5   16      0.33      0.00
    7   -5   16      0.27      0.00
  -12   -4   16      0.39      0.00
    6   -4   16      0.09      0.00
  -12   -3   16     -0.12      0.00
    5   -3   16      0.13      0.00
    6   -3   16     -0.27      0.00
  -12   -2   16     -0.25      0.00
    5   -2   16     -0.14      0.00
    4   -1   16     -0.08      0.00
    5   -1   16     -0.11      0.00
  -12    0   16      0.34      0.00
    4    0   16     -0.14      0.00
  -12    1   16      0.38      0.00
    3    1   16     -0.06      0.00
  -12    2   16      0.04      0.00
    2    2   16     -0.53      0.00
  -12    3   16      0.03      0.00
  -11    3   16     -0.14      0.00
  -10    3   16     -0.08      0.00
   -1    3   16     -0.44      0.00
    0    3   16     -0.32      0.00
    1    3   16      0.22      0.00
  -11    4   16     -0.36      0.00
  -10    4   16     -0.08      0.00
   -2    4   16     -0.24      0.00
   -1    4   16      0.10      0.00
    0    4   16      0.05      0.00
  -10    5   16      0.60      0.00
   -9    5   16      0.02      0.00
   -8    5   16     -0.60      0.00
   -5    5   16      0.41      0.00
   -4    5   16      0.00      0.00
   -3    5   16     -0.26      0.00
   -2    5   16     -0.33      0.00
   -7    6   16      0.09      0.00
   -6    6   16      0.24      0.00
   -5    6   16     -0.03      0.00
   -3  -13   17      0.47      0.00
   -2  -13   17      0.17      0.00
   -1  -13   17     -0.01      0.00
    0  -13   17     -0.02      0.00
    1  -13   17     -0.52      0.00
    2  -13   17      0.08      0.00
    3  -13   17      0.30      0.00
   -5  -12   17      0.04      0.00
   -4  -12   17     -0.47      0.00
   -3  -12   17     -0.33      0.00
    3  -12   17     -0.10      0.00
    4  -12   17      0.06      0.00
   -7  -11   17      0.03      0.00
   -6  -11   17      0.08      0.00
   -5  -11   17      0.15      0.00
    4  -11   17      0.30      0.00
    5  -11   17      0.31      0.00
   -8  -10   17     -0.14      0.00
   -7  -10   17     -0.22      0.00
   -6  -10   17     -0.23      0.00
    5  -10   17      0.18      0.00
    6  -10   17      0.01      0.00
   -9   -9   17      0.91      0.00
   -8   -9   17      0.50      0.00
    5   -9   17     -0.31      0.00
    6   -9   17     -0.18      0.00
   -9   -8   17     -0.19      0.00
    5   -8   17     -0.27      0.00
    6   -8   17     -0.11      0.00
  -10   -7   17      0.06      0.00
    5   -7   17     -0.03      0.00
    6   -7   17     -0.05      0.00
  -11   -6   17      0.37      0.00
    5   -6   17     -0.08      0.00
    6   -6   17     -0.17      0.00
  -11   -5   17     -0.47      0.00
    5   -5   17     -0.19      0.00
  -11   -4   17     -0.49      0.00
    5   -4   17     -0.04      0.00
  -12   -3   17      0.27      0.00
  -11   -3   17      0.21      0.00
    4   -3   17      0.22      0.00
    5   -3   17      0.14      0.00
  -12   -2   17     -0.08      0.00
  -10   -2   17     -0.12      0.00
    3   -2   17     -0.14      0.00
    4   -2   17      0.29      0.00
  -12   -1   17     -0.34      0.00
    2   -1   17      0.10      0.00
    3   -1   17     -0.41      0.00
    4   -1   17      0.08      0.00
  -12    0   17     -0.27      0.00
  -11    0   17      0.11      0.00
    2    0   17      0.56      0.00
    3    0   17     -0.18      0.00
  -11    1   17      0.09      0.00
    1    1   17      0.26      0.00
    2    1   17      0.47      0.00
  -11    2   17      0.01      0.00
  -10    2   17     -0.41      0.00
   -9    2   17     -0.10      0.00
    0    2   17      0.23      0.00
    1    2   17     -0.23      0.00
  -10    3   17     -0.09      0.00
   -9    3   17      0.21      0.00
   -7    3   17     -0.28      0.00
   -6    3   17     -0.35      0.00
   -5    3   17     -0.19      0.00
   -3    3   17      0.41      0.00
   -2    3   17      0.18      0.00
   -1    3   17     -0.09      0.00
   -9    4   17      0.46      0.00
   -8    4   17      0.31      0.00
   -7    4   17      0.07      0.00
   -6    4   17     -0.30      0.00
   -5    4   17     -0.21      0.00
   -4    4   17     -0.10      0.00
   -3    4   17      0.22      0.00
   -2    4   17     -0.06      0.00
   -1  -13   18     -0.21      0.00
    0  -13   18      0.43      0.00
   -4  -12   18      0.44      0.00
   -3  -12   18     -0.05      0.00
   -2  -12   18      0.62      0.00
   -1  -12   18     -0.02      0.00
    0  -12   18      0.08      0.00
    1  -12   18      0.01      0.00
    2  -12   18      0.21      0.00
    3  -12   18     -0.09      0.00
   -6  -11   18      0.36      0.00
   -5  -11   18     -0.34      0.00
   -4  -11   18     -0.35      0.00
    2  -11   18      0.30      0.00
    3  -11   18     -0.19      0.00
    4  -11   18     -0.24      0.00
   -7  -10   18     -0.12      0.00
   -6  -10   18      0.69      0.00
    2  -10   18      0.42      0.00
    3  -10   18     -0.02      0.00
    4  -10   18      0.01      0.00
   -8   -9   18      0.24      0.00
   -7   -9   18     -0.34      0.00
   -2   -9   18      0.07      0.00
    4   -9   18      0.19      0.00
   -9   -8   18      0.42      0.00
   -8   -8   18      0.53      0.00
    4   -8   18      0.13      0.00
    5   -8   18      0.07      0.00
   -9   -7   18      0.23      0.00
    1   -7   18     -0.24      0.00
    2   -7   18      0.56      0.00
    4   -7   18      0.04      0.00
    5   -7   18      0.03      0.00
  -10   -6   18     -0.17      0.00
    1   -6   18     -0.48      0.00
    2   -6   18     -0.17      0.00
    3   -6   18     -0.24      0.00
    4   -6   18      0.01      0.00
  -10   -5   18      0.07      0.00
    3   -5   18     -0.35      0.00
    4   -5   18      0.13      0.00
  -11   -4   18      0.06      0.00
  -10   -4   18     -0.12      0.00
    3   -4   18      0.20      0.00
    4   -4   18      0.14      0.00
  -11   -3   18     -0.19      0.00
  -10   -3   18      0.18      0.00
   -9   -3   18      0.44      0.00
    2   -3   18      0.41      0.00
    3   -3   18     -0.16      0.00
  -11   -2   18     -0.05      0.00
  -10   -2   18      0.06      0.00
    2   -2   18      0.17      0.00
    3   -2   18      0.03      0.00
  -11   -1   18     -0.12      0.00
  -10   -1   18     -0.29      0.00
    1   -1   18     -0.55      0.00
    2   -1   18      0.02      0.00
  -10    0   18     -0.10      0.00
   -5    0   18     -0.30      0.00
    0    0   18      0.01      0.00
    1    0   18     -0.47      0.00
  -10    1   18      0.07      0.00
   -9    1   18      0.00      0.00
   -4    1   18      0.23      0.00
   -3    1   18      0.05      0.00
   -2    1   18     -0.56      0.00
   -1    1   18     -0.38      0.00
    0    1   18      0.12      0.00
   -9    2   18     -0.09      0.00
   -8    2   18      0.47      0.00
   -7    2   18      0.08      0.00
   -6    2   18      0.35      0.00
   -5    2   18      0.29      0.00
   -4    2   18     -0.14      0.00
   -3    2   18     -0.17      0.00
   -2    2   18     -0.12      0.00
   -1    2   18      0.06      0.00
   -8    3   18      0.13      0.00
   -7    3   18      0.07      0.00
   -6    3   18      0.23      0.00
   -5    3   18      0.17      0.00
   -4    3   18     -0.25      0.00
   -3    3   18     -0.07      0.00
   -4  -11   19      0.49      0.00
   -3  -11   19      0.11      0.00
   -2  -11   19     -0.33      0.00
   -1  -11   19      0.70      0.00
    0  -11   19      0.25      0.00
    1  -11   19     -0.25      0.00
    2  -11   19     -0.06      0.00
   -6  -10   19     -0.40      0.00
   -5  -10   19      0.50      0.00
   -4  -10   19      0.17      0.00
    0  -10   19     -0.14      0.00
    1  -10   19     -0.16      0.00
    2  -10   19     -0.04      0.00
   -7   -9   19      0.48      0.00
   -6   -9   19     -0.07      0.00
   -5   -9   19     -0.02      0.00
    2   -9   19      0.09      0.00
    3   -9   19      0.00      0.00
   -8   -8   19     -0.34      0.00
   -7   -8   19      0.33      0.00
    2   -8   19     -0.21      0.00
    3   -8   19     -0.05      0.00
   -8   -7   19     -0.36      0.00
    2   -7   19     -0.30      0.00
    3   -7   19      0.00      0.00
   -9   -6   19      0.54      0.00
   -8   -6   19     -0.09      0.00
    1   -6   19      0.53      0.00
    2   -6   19      0.28      0.00
    3   -6   19      0.18      0.00
   -9   -5   19      0.72      0.00
    0   -5   19      0.08      0.00
    1   -5   19      0.07      0.00
    2   -5   19     -0.19      0.00
    3   -5   19     -0.12      0.00
   -9   -4   19      0.08      0.00
   -8   -4   19     -0.19      0.00
    0   -4   19     -0.16      0.00
    1   -4   19     -0.33      0.00
    2   -4   19     -0.46      0.00
  -10   -3   19     -0.45      0.00
   -9   -3   19     -0.09      0.00
    0   -3   19     -0.14      0.00
    1   -3   19      0.02      0.00
    2   -3   19     -0.03      0.00
  -10   -2   19      0.13      0.00
   -9   -2   19      0.11      0.00
   -2   -2   19     -0.56      0.00
   -1   -2   19     -0.18      0.00
    0   -2   19      0.15      0.00
    1   -2   19      0.32      0.00
   -9   -1   19     -0.33      0.00
   -8   -1   19     -0.19      0.00
   -3   -1   19      0.12      0.00
   -2   -1   19     -0.13      0.00
   -1   -1   19      0.05      0.00
    0   -1   19      0.32      0.00
   -9    0   19     -0.20      0.00
   -8    0   19      0.52      0.00
   -7    0   19      0.47      0.00
   -6    0   19      0.58      0.00
   -4    0   19     -0.01      0.00
   -3    0   19      0.51      0.00
   -2    0   19      0.31      0.00
   -1    0   19      0.05      0.00
   -8    1   19      0.15      0.00
   -7    1   19     -0.03      0.00
   -6    1   19     -0.17      0.00
   -5    1   19     -0.05      0.00
   -4    1   19     -0.09      0.00
   -3    1   19      0.09      0.00
   -3  -10   20      0.14      0.00
   -2  -10   20      0.14      0.00
   -1  -10   20      0.11      0.00
   -5   -9   20      0.11      0.00
   -4   -9   20      0.25      0.00
   -3   -9   20     -0.17      0.00
   -2   -9   20      0.09      0.00
   -1   -9   20      0.02      0.00
    0   -9   20     -0.06      0.00
   -6   -8   20      0.30      0.00
   -5   -8   20      0.17      0.00
   -4   -8   20      0.08      0.00
   -3   -8   20     -0.38      0.00
   -2   -8   20     -0.07      0.00
   -1   -8   20     -0.11      0.00
    0   -8   20     -0.31      0.00
    1   -8   20      0.21      0.00
   -7   -7   20     -0.18      0.00
   -6   -7   20      0.25      0.00
   -5   -7   20     -0.07      0.00
   -4   -7   20      0.04      0.00
   -1   -7   20      0.05      0.00
    0   -7   20     -0.45      0.00
    1   -7   20      0.04      0.00
   -7   -6   20     -0.10      0.00
   -6   -6   20      0.32      0.00
   -2   -6   20      0.28      0.00
   -1   -6   20      0.03      0.00
    0   -6   20     -0.15      0.00
    1   -6   20      0.11      0.00
   -8   -5   20      0.40      0.00
   -7   -5   20     -0.48      0.00
   -6   -5   20      0.05      0.00
   -3   -5   20     -0.28      0.00
   -2   -5   20     -0.45      0.00
   -1   -5   20     -0.11      0.00
    0   -5   20      0.09      0.00
    1   -5   20      0.39      0.00
   -8   -4   20      0.16      0.00
   -7   -4   20     -1.03      0.00
   -6   -4   20     -0.17      0.00
   -5   -4   20      0.01      0.00
   -4   -4   20      0.12      0.00
   -3   -4   20     -0.28      0.00
   -2   -4   20     -0.27      0.00
   -1   -4   20      0.09      0.00
    0   -4   20     -0.04      0.00
   -8   -3   20      0.20      0.00
   -7   -3   20     -0.30      0.00
   -6   -3   20      0.25      0.00
   -5   -3   20     -0.16      0.00
   -4   -3   20      0.19      0.00
   -3   -3   20      0.38      0.00
   -2   -3   20      0.22      0.00
   -1   -3   20      0.05      0.00
   -8   -2   20      0.60      0.00
   -7   -2   20      0.27      0.00
   -6   -2   20      0.32      0.00
   -5   -2   20     -0.09      0.00
   -4   -2   20      0.03      0.00
   -3   -2   20      0.20      0.00
   -2   -2   20     -0.08      0.00
   -1   -2   20     -0.20      0.00
   -7   -1   20     -0.17      0.00
   -6   -1   20     -0.07      0.00
   -5   -1   20     -0.01      0.00
   -4   -1   20     -0.30      0.00
   -3   -1   20     -0.32      0.00
   -4   -6   21     -0.09      0.00
   -3   -6   21      0.15      0.00
   -4   -5   21      0.02      0.00
   -3   -5   21      0.26      0.00
    0    0    0      0.00      0.00
# SQUEEZE RESULTS (Version = 130220)
# Note: Data are Listed for all Voids in the P1 Unit Cell
# i.e. Centre of Gravity, Solvent Accessible Volume,
# Recovered number of Electrons in the Void and
# Details about the Squeezed Material
loop_
  _platon_squeeze_void_nr
  _platon_squeeze_void_average_x
  _platon_squeeze_void_average_y
  _platon_squeeze_void_average_z
  _platon_squeeze_void_volume
  _platon_squeeze_void_count_electrons
  _platon_squeeze_void_content
   1  0.000  0.000  0.500       655       146 ' '
# Missing Reflections Below sin(th)/lambda = 0.25
loop_
  _platon_missing_refln_index_h
  _platon_missing_refln_index_k
  _platon_missing_refln_index_l
  _platon_missing_refln_theta
    1    0    0     3.907
   -1   -1    1     5.674
   -1    0    1     4.097
    0    0    1     3.075
   -1   -3    2    12.033
   -2   -1    2     9.150
   -1   -1    2     6.569
   -2   -1    3    10.295
_platon_squeeze_void_probe_radius                  1.20
_platon_squeeze_details
)
TITL tx2499_a.res in P-1
CELL   12.3458   12.9810   16.1260    109.23    102.94    103.84
SPGR P-1
# Solvent Accessible Volume =       653
# Electrons Found in S.A.V. =       146
# Note: Atoms in Void are Labelled as Cxxx and Qxxx for all Others
C101 0.189 0.773 0.459 !       4.37 eA-3
C102 0.079 0.752 0.387 !       3.38 eA-3
C103 0.783 0.827 0.249 !       2.77 eA-3
C104 0.783 0.169 0.446 !       2.56 eA-3
C105 0.622 0.074 0.292 !       2.54 eA-3
C106 0.797 0.728 0.204 !       2.41 eA-3
C107 0.660 0.148 0.371 !       2.29 eA-3
C108 0.999 0.747 0.327 !       2.23 eA-3
C109 0.633 0.115 0.234 !       2.15 eA-3
C110 0.870 0.673 0.269 !       1.95 eA-3
C111 0.701 0.916 0.269 !       1.92 eA-3
Q112 0.451 0.014 0.469 !       1.30 eA-3
Q113 0.501 0.956 0.450 !       1.19 eA-3
C114 0.959 0.667 0.282 !       1.11 eA-3
Q115 0.624 0.454 0.278 !       1.02 eA-3
Q116 0.440 0.425 0.156 !       0.97 eA-3
Q117 0.580 0.369 0.107 !       0.95 eA-3
Q118 0.465 0.522 0.326 !       0.93 eA-3
Q119 0.778 0.439 0.396 !       0.92 eA-3
Q120 0.662 0.524 0.462 !       0.87 eA-3
Q121 0.498 0.464 0.267 !       0.85 eA-3
Q122 0.686 0.491 0.370 !       0.83 eA-3
Q123 0.204 0.487 0.440 !       0.81 eA-3
Q124 0.642 0.408 0.196 !       0.79 eA-3
Q125 0.313 0.118 0.406 !       0.79 eA-3
Q126 0.418 0.951 0.392 !       0.78 eA-3
Q127 0.249 0.207 0.292 !       0.78 eA-3
Q128 0.312 0.460 0.152 !       0.78 eA-3
Q129 0.202 0.543 0.216 !       0.78 eA-3
Q130 0.637 0.207 0.015 !       0.78 eA-3
Q131 0.535 0.873 0.450 !       0.78 eA-3
Q132 0.291 0.460 0.467 !       0.76 eA-3
Q133 0.380 0.175 0.497 !       0.76 eA-3
Q134 0.096 0.466 0.127 !       0.75 eA-3
Q135 0.123 0.162 0.388 !       0.73 eA-3
Q136 0.301 0.507 0.239 !       0.72 eA-3
Q137 0.111 0.403 0.065 !       0.71 eA-3
Q138 0.731 0.412 0.031 !       0.69 eA-3
Q139 0.389 0.864 0.325 !       0.69 eA-3
Q140 0.469 0.375 0.101 !       0.68 eA-3
Q141 0.228 0.378 0.068 !       0.67 eA-3
Q142 0.395 0.575 0.311 !       0.65 eA-3
Q143 0.827 0.468 0.481 !       0.65 eA-3
Q144 0.469 0.804 0.379 !       0.64 eA-3
Q145 0.046 0.184 0.348 !       0.64 eA-3
Q146 0.460 0.820 0.031 !       0.64 eA-3
Q147 0.230 0.154 0.378 !       0.64 eA-3
Q148 0.047 0.219 0.270 !       0.64 eA-3
Q149 0.610 0.718 0.417 !       0.64 eA-3
Q150 0.285 0.834 0.236 !       0.63 eA-3
Q151 0.161 0.221 0.249 !       0.63 eA-3
Q152 0.488 0.691 0.315 !       0.59 eA-3
Q153 0.626 0.313 0.034 !       0.58 eA-3
Q154 0.247 0.922 0.262 !       0.58 eA-3
Q155 0.395 0.607 0.038 !       0.58 eA-3
Q156 0.311 1.007 0.336 !       0.55 eA-3
Q157 0.372 0.224 0.276 !       0.55 eA-3
Q158 0.092 0.113 0.455 !       0.55 eA-3
Q159 0.564 0.596 0.417 !       0.54 eA-3
Q160 0.973 0.250 0.214 !       0.53 eA-3
Q161 0.064 0.031-0.005 !       0.51 eA-3
Q162 0.720 0.499 0.455 !       0.51 eA-3
)
;
_shelx_fab_checksum              14280
_olex2_submission_special_instructions 'No special instructions were received'
_oxdiff_exptl_absorpt_empirical_details
;
Empirical correction (ABSPACK) includes:
- Absorption correction using spherical harmonics
- Frame scaling
;
_oxdiff_exptl_absorpt_empirical_full_max 1.539
_oxdiff_exptl_absorpt_empirical_full_min 0.678
loop_
_space_group_symop_operation_xyz
'x, y, z'
'-x, -y, -z'
loop_
_atom_site_label
_atom_site_type_symbol
_atom_site_fract_x
_atom_site_fract_y
_atom_site_fract_z
_atom_site_U_iso_or_equiv
_atom_site_adp_type
_atom_site_occupancy
_atom_site_site_symmetry_order
_atom_site_calc_flag
_atom_site_refinement_flags_posn
_atom_site_refinement_flags_adp
_atom_site_refinement_flags_occupancy
_atom_site_disorder_assembly
_atom_site_disorder_group
Ni1 Ni 0.500000 1.000000 0.500000 0.03988(16) Uani 1 2 d S T P . .
O1 O 0.0682(3) 0.9448(3) 0.2404(3) 0.0609(9) Uani 0.5 1 d . . . A 1
O2 O 0.0945(3) 0.8186(3) 0.1278(2) 0.0637(9) Uani 0.5 1 d . . . A 1
N1 N 0.39825(15) 0.95798(14) 0.38723(11) 0.0394(4) Uani 1 1 d . . . . .
N2 N 0.53206(14) 0.86900(14) 0.44976(11) 0.0383(4) Uani 1 1 d . . . . .
N3 N 0.1290(3) 0.8918(3) 0.2089(2) 0.0432(8) Uani 0.5 1 d . . . A 1
N4 N 0.46703(13) 0.51246(12) 0.33437(11) 0.0336(3) Uani 1 1 d . . . . .
C1 C 0.31688(15) 1.00035(15) 0.35800(12) 0.0330(4) Uani 1 1 d . . . . .
C2 C 0.24722(17) 0.91659(18) 0.26576(14) 0.0413(4) Uani 1 1 d . . . . .
H2 H 0.182886 0.922077 0.226725 0.050 Uiso 0.5 1 calc R . . A 2
C3 C 0.29142(17) 0.82556(17) 0.24397(13) 0.0387(4) Uani 1 1 d . . . . .
H3 H 0.263135 0.760230 0.188210 0.046 Uiso 1 1 calc R . . . .
C4 C 0.38657(17) 0.85154(15) 0.32222(13) 0.0359(4) Uani 1 1 d . . . . .
C5 C 0.46797(16) 0.80438(15) 0.36131(12) 0.0347(4) Uani 1 1 d . . . . .
C6 C 0.49528(15) 0.69521(15) 0.32880(12) 0.0322(4) Uani 1 1 d . . . . .
H6 H 0.517349 0.683656 0.272548 0.039 Uiso 1 1 calc R . . . .
C7 C 0.60035(15) 0.71120(15) 0.41288(12) 0.0322(4) Uani 1 1 d . . . . .
H7 H 0.672912 0.720361 0.396602 0.039 Uiso 1 1 calc R . . . .
C8 C 0.61185(16) 0.82548(15) 0.49050(13) 0.0335(4) Uani 1 1 d . . . . .
C9 C 0.39748(16) 0.58454(15) 0.31698(13) 0.0340(4) Uani 1 1 d . . . . .
H9 H 0.363609 0.606159 0.366925 0.041 Uiso 1 1 calc R . . . .
C10 C 0.29815(16) 0.52167(16) 0.22567(14) 0.0369(4) Uani 1 1 d . . . . .
C11 C 0.19132(17) 0.54126(18) 0.21456(15) 0.0435(4) Uani 1 1 d . . . . .
H11 H 0.180355 0.594797 0.263982 0.052 Uiso 1 1 calc R . . . .
C12 C 0.10034(18) 0.4808(2) 0.12936(17) 0.0512(5) Uani 1 1 d . . . . .
H12 H 0.029236 0.495098 0.121270 0.061 Uiso 1 1 calc R . . . .
C13 C 0.11637(19) 0.3994(2) 0.05700(17) 0.0521(5) Uani 1 1 d . . . . .
H13 H 0.055197 0.357932 0.000476 0.063 Uiso 1 1 calc R . . . .
C14 C 0.22250(18) 0.37910(19) 0.06785(15) 0.0457(5) Uani 1 1 d . . . . .
H14 H 0.231738 0.323227 0.018897 0.055 Uiso 1 1 calc R . . . .
C15 C 0.31624(17) 0.44197(16) 0.15197(14) 0.0379(4) Uani 1 1 d . . . . .
C16 C 0.43348(16) 0.42855(15) 0.16738(13) 0.0360(4) Uani 1 1 d . . . . .
C17 C 0.47319(18) 0.38153(17) 0.09392(14) 0.0400(4) Uani 1 1 d . . . . .
H17 H 0.423787 0.357524 0.033346 0.048 Uiso 1 1 calc R . . . .
C18 C 0.58396(19) 0.36910(18) 0.10773(15) 0.0421(4) Uani 1 1 d . . . . .
C19 C 0.65379(18) 0.40345(18) 0.19884(14) 0.0411(4) Uani 1 1 d . . . . .
H19 H 0.727602 0.394718 0.209742 0.049 Uiso 1 1 calc R . . . .
C20 C 0.61833(17) 0.45070(16) 0.27524(14) 0.0368(4) Uani 1 1 d . . . . .
C21 C 0.68895(17) 0.47838(16) 0.37133(14) 0.0380(4) Uani 1 1 d . . . . .
C22 C 0.7817(2) 0.4370(2) 0.39215(16) 0.0484(5) Uani 1 1 d . . . . .
H22 H 0.805683 0.396819 0.344407 0.058 Uiso 1 1 calc R . . . .
C23 C 0.8381(2) 0.4549(2) 0.48231(18) 0.0525(5) Uani 1 1 d . . . . .
H23 H 0.901917 0.429784 0.495442 0.063 Uiso 1 1 calc R . . . .
C24 C 0.7996(2) 0.51027(19) 0.55332(16) 0.0474(5) Uani 1 1 d . . . . .
H24 H 0.834865 0.518979 0.613716 0.057 Uiso 1 1 calc R . . . .
C25 C 0.70848(19) 0.55259(16) 0.53415(14) 0.0414(4) Uani 1 1 d . . . . .
H25 H 0.682459 0.589426 0.581825 0.050 Uiso 1 1 calc R . . . .
C26 C 0.65571(17) 0.54056(15) 0.44451(14) 0.0362(4) Uani 1 1 d . . . . .
C27 C 0.56097(16) 0.59186(15) 0.42384(13) 0.0342(4) Uani 1 1 d . . . . .
H27 H 0.525669 0.602878 0.473423 0.041 Uiso 1 1 calc R . . . .
C28 C 0.50757(16) 0.46554(15) 0.25942(13) 0.0336(4) Uani 1 1 d . . . . .
C29 C 0.6254(2) 0.3171(2) 0.02520(16) 0.0498(5) Uani 1 1 d . . . . .
C30 C 0.6043(11) 0.3783(10) -0.0392(8) 0.073(3) Uani 0.494(14) 1 d . . . B 1
H30A H 0.525314 0.380548 -0.051138 0.109 Uiso 0.494(14) 1 calc GR . . B 1
H30B H 0.614423 0.337108 -0.096842 0.109 Uiso 0.494(14) 1 calc GR . . B 1
H30C H 0.659792 0.456062 -0.010480 0.109 Uiso 0.494(14) 1 calc GR . . B 1
C31 C 0.5452(11) 0.1861(6) -0.0294(7) 0.078(3) Uani 0.494(14) 1 d . . . B 1
H31A H 0.558516 0.144971 0.009480 0.117 Uiso 0.494(14) 1 calc GR . . B 1
H31B H 0.564466 0.152908 -0.084414 0.117 Uiso 0.494(14) 1 calc GR . . B 1
H31C H 0.463698 0.180464 -0.046556 0.117 Uiso 0.494(14) 1 calc GR . . B 1
C32 C 0.7478(8) 0.3179(12) 0.0519(5) 0.078(3) Uani 0.494(14) 1 d . . . B 1
H32A H 0.800508 0.396269 0.088510 0.118 Uiso 0.494(14) 1 calc GR . . B 1
H32B H 0.767577 0.285859 -0.003049 0.118 Uiso 0.494(14) 1 calc GR . . B 1
H32C H 0.755142 0.272278 0.087773 0.118 Uiso 0.494(14) 1 calc GR . . B 1
C33 C 0.68466(15) 0.88494(15) 0.58142(12) 0.0326(4) Uani 1 1 d . . . . .
C34 C 0.77038(15) 0.84081(15) 0.62723(13) 0.0336(4) Uani 1 1 d . . . . .
C35 C 0.87647(17) 0.84568(17) 0.60826(15) 0.0408(4) Uani 1 1 d . . . . .
C36 C 0.95829(19) 0.8121(2) 0.65764(18) 0.0506(5) Uani 1 1 d . . . . .
H36 H 1.027557 0.813365 0.643641 0.061 Uiso 1 1 calc R . . . .
C37 C 0.9401(2) 0.7767(2) 0.72739(17) 0.0500(5) Uani 1 1 d . . . . .
C38 C 0.8349(2) 0.77242(18) 0.74552(15) 0.0453(5) Uani 1 1 d . . . . .
H38 H 0.821112 0.748053 0.791525 0.054 Uiso 1 1 calc R . . . .
C39 C 0.74942(17) 0.80359(16) 0.69679(13) 0.0378(4) Uani 1 1 d . . . . .
C40 C 0.9060(2) 0.8921(2) 0.53875(17) 0.0509(5) Uani 1 1 d . . . . .
H40A H 0.877487 0.829589 0.478277 0.076 Uiso 1 1 calc GR . . . .
H40B H 0.990103 0.927309 0.556952 0.076 Uiso 1 1 calc GR . . . .
H40C H 0.869145 0.948930 0.536788 0.076 Uiso 1 1 calc GR . . . .
C41 C 0.63515(19) 0.79404(19) 0.71700(15) 0.0455(5) Uani 1 1 d . . . . .
H41A H 0.628895 0.869786 0.741021 0.068 Uiso 1 1 calc GR . . . .
H41B H 0.633508 0.761069 0.762152 0.068 Uiso 1 1 calc GR . . . .
H41C H 0.570091 0.745170 0.660721 0.068 Uiso 1 1 calc GR . . . .
C42 C 1.0310(3) 0.7414(3) 0.7805(2) 0.0693(7) Uani 1 1 d . . . . .
H42A H 1.035502 0.670807 0.739596 0.104 Uiso 1 1 calc GR . . . .
H42B H 1.008602 0.729483 0.830855 0.104 Uiso 1 1 calc GR . . . .
H42C H 1.106698 0.801569 0.804990 0.104 Uiso 1 1 calc GR . . . .
C43 C 0.2714(4) 1.0530(4) 0.0113(3) 0.0974(11) Uani 1 1 d . . . . .
H43A H 0.255347 1.026528 -0.054645 0.146 Uiso 1 1 calc GR . . . .
H43B H 0.335057 1.030832 0.037849 0.146 Uiso 1 1 calc GR . . . .
H43C H 0.293297 1.135982 0.038599 0.146 Uiso 1 1 calc GR . . . .
C44 C 0.1616(3) 0.9988(3) 0.0307(2) 0.0773(8) Uani 1 1 d . . . . .
H44A H 0.142341 0.915244 0.005124 0.093 Uiso 1 1 calc R . . . .
H44B H 0.179253 1.025371 0.097497 0.093 Uiso 1 1 calc R . . . .
C45 C 0.0546(3) 1.0265(3) -0.0092(2) 0.0726(8) Uani 1 1 d . . . . .
H45A H 0.074031 1.110116 0.016473 0.087 Uiso 1 1 calc R . . . .
H45B H 0.037287 1.000195 -0.075934 0.087 Uiso 1 1 calc R . . . .
C31A C 0.6250(12) 0.1986(7) 0.0165(7) 0.085(3) Uani 0.506(14) 1 d . . . B 2
H31D H 0.686179 0.205168 0.068588 0.128 Uiso 0.506(14) 1 calc GR . . B 2
H31E H 0.638875 0.160027 -0.040102 0.128 Uiso 0.506(14) 1 calc GR . . B 2
H31F H 0.549749 0.154473 0.015264 0.128 Uiso 0.506(14) 1 calc GR . . B 2
C32A C 0.7596(8) 0.3916(12) 0.0500(6) 0.100(4) Uani 0.506(14) 1 d . . . B 2
H32D H 0.765146 0.468373 0.054517 0.151 Uiso 0.506(14) 1 calc GR . . B 2
H32E H 0.789322 0.355453 0.002139 0.151 Uiso 0.506(14) 1 calc GR . . B 2
H32F H 0.805426 0.395888 0.108429 0.151 Uiso 0.506(14) 1 calc GR . . B 2
C30A C 0.5578(14) 0.3182(15) -0.0626(7) 0.098(4) Uani 0.506(14) 1 d . . . B 2
H30D H 0.480411 0.260684 -0.086943 0.146 Uiso 0.506(14) 1 calc GR . . B 2
H30E H 0.598304 0.301354 -0.107000 0.146 Uiso 0.506(14) 1 calc GR . . B 2
H30F H 0.550724 0.393417 -0.050689 0.146 Uiso 0.506(14) 1 calc GR . . B 2
loop_
_atom_site_aniso_label
_atom_site_aniso_U_11
_atom_site_aniso_U_22
_atom_site_aniso_U_33
_atom_site_aniso_U_23
_atom_site_aniso_U_13
_atom_site_aniso_U_12
Ni1 0.0457(3) 0.0285(3) 0.0311(3) 0.00116(19) 0.00066(19) 0.0148(2)
O1 0.0379(15) 0.0417(16) 0.074(2) 0.0001(15) 0.0004(15) 0.0136(13)
O2 0.061(2) 0.055(2) 0.0408(17) -0.0034(15) -0.0088(14) 0.0170(16)
N1 0.0440(9) 0.0290(8) 0.0340(8) 0.0041(6) 0.0062(7) 0.0117(7)
N2 0.0410(8) 0.0298(8) 0.0330(8) 0.0051(6) 0.0061(6) 0.0095(6)
N3 0.0370(16) 0.0300(16) 0.0427(18) 0.0053(14) -0.0005(14) 0.0037(13)
N4 0.0337(7) 0.0251(7) 0.0346(8) 0.0067(6) 0.0130(6) 0.0038(6)
C1 0.0326(8) 0.0286(8) 0.0311(9) 0.0091(7) 0.0076(7) 0.0061(7)
C2 0.0362(9) 0.0423(10) 0.0333(9) 0.0059(8) 0.0049(8) 0.0120(8)
C3 0.0374(9) 0.0354(9) 0.0296(9) 0.0035(7) 0.0083(7) 0.0053(7)
C4 0.0407(9) 0.0250(8) 0.0307(9) 0.0034(7) 0.0082(7) 0.0064(7)
C5 0.0384(9) 0.0270(8) 0.0307(9) 0.0059(7) 0.0108(7) 0.0062(7)
C6 0.0332(8) 0.0260(8) 0.0318(9) 0.0071(7) 0.0117(7) 0.0062(7)
C7 0.0331(8) 0.0253(8) 0.0324(9) 0.0077(7) 0.0112(7) 0.0052(7)
C8 0.0339(8) 0.0267(8) 0.0345(9) 0.0085(7) 0.0114(7) 0.0066(7)
C9 0.0332(9) 0.0269(8) 0.0363(9) 0.0069(7) 0.0155(7) 0.0051(7)
C10 0.0327(9) 0.0292(9) 0.0413(10) 0.0098(7) 0.0140(8) 0.0026(7)
C11 0.0347(9) 0.0387(10) 0.0476(11) 0.0096(9) 0.0152(8) 0.0056(8)
C12 0.0312(9) 0.0502(12) 0.0572(13) 0.0134(10) 0.0104(9) 0.0043(9)
C13 0.0369(10) 0.0470(12) 0.0487(12) 0.0078(10) 0.0044(9) -0.0010(9)
C14 0.0413(10) 0.0377(10) 0.0402(11) 0.0044(8) 0.0100(8) 0.0028(8)
C15 0.0355(9) 0.0300(9) 0.0394(10) 0.0091(7) 0.0125(8) 0.0031(7)
C16 0.0370(9) 0.0261(8) 0.0382(9) 0.0083(7) 0.0141(7) 0.0044(7)
C17 0.0445(10) 0.0334(9) 0.0372(10) 0.0094(8) 0.0153(8) 0.0101(8)
C18 0.0492(11) 0.0366(10) 0.0437(11) 0.0143(8) 0.0232(9) 0.0154(8)
C19 0.0441(10) 0.0402(10) 0.0445(11) 0.0172(8) 0.0214(9) 0.0171(8)
C20 0.0396(9) 0.0301(9) 0.0405(10) 0.0131(8) 0.0165(8) 0.0100(7)
C21 0.0401(9) 0.0315(9) 0.0431(10) 0.0155(8) 0.0175(8) 0.0091(7)
C22 0.0514(12) 0.0508(12) 0.0513(12) 0.0220(10) 0.0222(10) 0.0243(10)
C23 0.0514(12) 0.0553(13) 0.0592(14) 0.0284(11) 0.0181(10) 0.0252(10)
C24 0.0553(12) 0.0393(10) 0.0432(11) 0.0179(9) 0.0106(9) 0.0124(9)
C25 0.0492(11) 0.0292(9) 0.0408(10) 0.0132(8) 0.0146(8) 0.0067(8)
C26 0.0386(9) 0.0245(8) 0.0420(10) 0.0127(7) 0.0147(8) 0.0044(7)
C27 0.0379(9) 0.0271(8) 0.0334(9) 0.0090(7) 0.0144(7) 0.0059(7)
C28 0.0366(9) 0.0235(8) 0.0375(9) 0.0093(7) 0.0165(7) 0.0050(7)
C29 0.0581(13) 0.0555(13) 0.0434(11) 0.0176(10) 0.0273(10) 0.0254(11)
C30 0.104(7) 0.092(6) 0.066(6) 0.046(5) 0.060(6) 0.057(5)
C31 0.102(6) 0.053(3) 0.073(5) 0.004(3) 0.049(5) 0.029(4)
C32 0.068(4) 0.114(8) 0.053(3) 0.015(4) 0.031(3) 0.047(5)
C33 0.0321(8) 0.0259(8) 0.0338(9) 0.0087(7) 0.0109(7) 0.0044(7)
C34 0.0324(8) 0.0251(8) 0.0362(9) 0.0086(7) 0.0097(7) 0.0046(7)
C35 0.0363(9) 0.0354(9) 0.0479(11) 0.0153(8) 0.0149(8) 0.0087(8)
C36 0.0383(10) 0.0484(12) 0.0655(14) 0.0231(11) 0.0165(10) 0.0158(9)
C37 0.0488(11) 0.0407(11) 0.0526(12) 0.0162(9) 0.0060(9) 0.0153(9)
C38 0.0545(12) 0.0361(10) 0.0404(10) 0.0160(8) 0.0099(9) 0.0112(9)
C39 0.0416(10) 0.0277(8) 0.0376(10) 0.0098(7) 0.0120(8) 0.0067(7)
C40 0.0427(11) 0.0567(13) 0.0615(14) 0.0299(11) 0.0255(10) 0.0145(10)
C41 0.0499(11) 0.0405(10) 0.0454(11) 0.0173(9) 0.0224(9) 0.0080(9)
C42 0.0645(15) 0.0641(16) 0.0740(18) 0.0298(14) 0.0039(13) 0.0280(13)
C43 0.103(3) 0.081(2) 0.102(3) 0.030(2) 0.038(2) 0.027(2)
C44 0.098(2) 0.0587(16) 0.0638(17) 0.0161(13) 0.0209(16) 0.0252(16)
C45 0.098(2) 0.0544(15) 0.0554(15) 0.0168(12) 0.0198(15) 0.0207(15)
C31A 0.116(8) 0.067(4) 0.086(6) 0.015(4) 0.060(6) 0.050(5)
C32A 0.082(5) 0.111(7) 0.079(5) 0.006(5) 0.059(4) -0.001(5)
C30A 0.132(10) 0.154(12) 0.050(5) 0.042(7) 0.051(6) 0.101(9)
loop_
_atom_type_symbol
_atom_type_description
_atom_type_scat_dispersion_real
_atom_type_scat_dispersion_imag
_atom_type_scat_source
C C 0.0181 0.0091 'International Tables Vol C Tables 4.2.6.8 and 6.1.1.4'
H H 0.0000 0.0000 'International Tables Vol C Tables 4.2.6.8 and 6.1.1.4'
N N 0.0311 0.0180 'International Tables Vol C Tables 4.2.6.8 and 6.1.1.4'
Ni Ni -3.0029 0.5091 'International Tables Vol C Tables 4.2.6.8 and 6.1.1.4'
O O 0.0492 0.0322 'International Tables Vol C Tables 4.2.6.8 and 6.1.1.4'
loop_
_geom_angle_atom_site_label_1
_geom_angle_atom_site_label_2
_geom_angle_atom_site_label_3
_geom_angle
_geom_angle_site_symmetry_1
_geom_angle_site_symmetry_3
_geom_angle_publ_flag
N1 Ni1 N1 180.0 . 2_676 ?
N1 Ni1 N2 86.20(7) 2_676 2_676 ?
N1 Ni1 N2 93.80(7) 2_676 . ?
N1 Ni1 N2 93.80(7) . 2_676 ?
N1 Ni1 N2 86.20(7) . . ?
N2 Ni1 N2 180.0 2_676 . ?
C1 N1 Ni1 131.20(13) . . ?
C1 N1 C4 112.79(16) . . ?
C4 N1 Ni1 114.89(13) . . ?
C5 N2 Ni1 114.36(14) . . ?
C5 N2 C8 115.86(16) . . ?
C8 N2 Ni1 129.77(13) . . ?
O1 N3 O2 122.7(4) . . ?
O1 N3 C2 119.7(3) . . ?
O2 N3 C2 117.5(3) . . ?
C9 N4 C27 102.90(14) . . ?
C28 N4 C9 112.13(15) . . ?
C28 N4 C27 115.19(14) . . ?
N1 C1 C2 105.09(16) . . ?
N1 C1 C33 120.63(16) . 2_676 ?
C2 C1 C33 134.25(17) . 2_676 ?
C1 C2 N3 132.0(2) . . ?
C3 C2 N3 115.6(2) . . ?
C3 C2 C1 108.93(17) . . ?
C2 C3 C4 106.59(17) . . ?
N1 C4 C3 106.57(17) . . ?
N1 C4 C5 110.20(16) . . ?
C3 C4 C5 142.93(17) . . ?
N2 C5 C4 114.17(16) . . ?
N2 C5 C6 109.98(16) . . ?
C4 C5 C6 135.74(16) . . ?
C5 C6 C7 104.24(14) . . ?
C5 C6 C9 114.66(15) . . ?
C9 C6 C7 102.73(14) . . ?
C6 C7 C27 103.17(13) . . ?
C8 C7 C6 103.53(14) . . ?
C8 C7 C27 120.29(15) . . ?
N2 C8 C7 105.96(15) . . ?
C33 C8 N2 121.59(16) . . ?
C33 C8 C7 132.38(17) . . ?
N4 C9 C6 101.74(14) . . ?
N4 C9 C10 112.10(15) . . ?
C10 C9 C6 117.31(15) . . ?
C11 C10 C9 121.29(17) . . ?
C11 C10 C15 120.69(18) . . ?
C15 C10 C9 118.02(17) . . ?
C10 C11 C12 120.03(19) . . ?
C13 C12 C11 119.6(2) . . ?
C12 C13 C14 120.6(2) . . ?
C13 C14 C15 120.5(2) . . ?
C10 C15 C14 118.49(18) . . ?
C10 C15 C16 117.92(17) . . ?
C14 C15 C16 123.59(18) . . ?
C17 C16 C15 122.09(18) . . ?
C17 C16 C28 119.29(18) . . ?
C28 C16 C15 118.62(16) . . ?
C18 C17 C16 122.54(19) . . ?
C17 C18 C29 121.31(19) . . ?
C19 C18 C17 116.95(18) . . ?
C19 C18 C29 121.72(19) . . ?
C18 C19 C20 122.98(19) . . ?
C19 C20 C21 122.60(18) . . ?
C19 C20 C28 118.86(18) . . ?
C28 C20 C21 118.42(16) . . ?
C22 C21 C20 122.67(18) . . ?
C22 C21 C26 118.48(19) . . ?
C26 C21 C20 118.63(17) . . ?
C23 C22 C21 121.1(2) . . ?
C22 C23 C24 119.9(2) . . ?
C25 C24 C23 119.8(2) . . ?
C24 C25 C26 120.5(2) . . ?
C21 C26 C27 119.05(17) . . ?
C25 C26 C21 120.00(18) . . ?
C25 C26 C27 120.94(17) . . ?
N4 C27 C7 104.00(14) . . ?
N4 C27 C26 110.67(15) . . ?
C26 C27 C7 116.74(14) . . ?
C16 C28 N4 119.46(16) . . ?
C20 C28 N4 121.16(17) . . ?
C20 C28 C16 119.33(16) . . ?
C18 C29 C31 107.5(3) . . ?
C18 C29 C32A 108.4(3) . . ?
C30 C29 C18 108.3(4) . . ?
C30 C29 C31 107.9(5) . . ?
C32 C29 C18 114.4(3) . . ?
C32 C29 C30 112.4(6) . . ?
C32 C29 C31 106.1(5) . . ?
C31A C29 C18 108.3(3) . . ?
C31A C29 C32A 105.6(6) . . ?
C30A C29 C18 113.7(5) . . ?
C30A C29 C31A 113.2(6) . . ?
C30A C29 C32A 107.3(7) . . ?
C8 C33 C1 122.07(17) . 2_676 ?
C8 C33 C34 123.01(16) . . ?
C34 C33 C1 114.92(15) . 2_676 ?
C35 C34 C33 120.86(17) . . ?
C35 C34 C39 119.61(18) . . ?
C39 C34 C33 119.26(16) . . ?
C34 C35 C40 121.41(18) . . ?
C36 C35 C34 119.18(19) . . ?
C36 C35 C40 119.35(19) . . ?
C35 C36 C37 122.1(2) . . ?
C36 C37 C42 121.0(2) . . ?
C38 C37 C36 118.1(2) . . ?
C38 C37 C42 120.9(2) . . ?
C37 C38 C39 121.8(2) . . ?
C34 C39 C41 120.98(18) . . ?
C38 C39 C34 119.15(18) . . ?
C38 C39 C41 119.85(18) . . ?
C45 C44 C43 114.2(3) . . ?
C45 C45 C44 114.8(3) 2_575 . ?
loop_
_geom_bond_atom_site_label_1
_geom_bond_atom_site_label_2
_geom_bond_distance
_geom_bond_site_symmetry_2
_geom_bond_publ_flag
Ni1 N1 1.7827(17) . ?
Ni1 N1 1.7827(17) 2_676 ?
Ni1 N2 1.8062(16) 2_676 ?
Ni1 N2 1.8063(16) . ?
O1 N3 1.217(5) . ?
O2 N3 1.238(5) . ?
N1 C1 1.325(2) . ?
N1 C4 1.383(2) . ?
N2 C5 1.324(2) . ?
N2 C8 1.393(2) . ?
N3 C2 1.434(4) . ?
N4 C9 1.463(2) . ?
N4 C27 1.479(2) . ?
N4 C28 1.419(2) . ?
C1 C2 1.431(3) . ?
C1 C33 1.495(2) 2_676 ?
C2 C3 1.392(3) . ?
C3 C4 1.397(3) . ?
C4 C5 1.431(3) . ?
C5 C6 1.488(2) . ?
C6 C7 1.569(3) . ?
C6 C9 1.564(2) . ?
C7 C8 1.544(2) . ?
C7 C27 1.589(2) . ?
C8 C33 1.373(3) . ?
C9 C10 1.503(3) . ?
C10 C11 1.386(3) . ?
C10 C15 1.397(3) . ?
C11 C12 1.394(3) . ?
C12 C13 1.381(3) . ?
C13 C14 1.382(3) . ?
C14 C15 1.400(3) . ?
C15 C16 1.475(3) . ?
C16 C17 1.394(3) . ?
C16 C28 1.408(3) . ?
C17 C18 1.392(3) . ?
C18 C19 1.385(3) . ?
C18 C29 1.538(3) . ?
C19 C20 1.399(3) . ?
C20 C21 1.473(3) . ?
C20 C28 1.405(3) . ?
C21 C22 1.397(3) . ?
C21 C26 1.400(3) . ?
C22 C23 1.379(3) . ?
C23 C24 1.386(3) . ?
C24 C25 1.384(3) . ?
C25 C26 1.385(3) . ?
C26 C27 1.506(3) . ?
C29 C30 1.517(11) . ?
C29 C31 1.569(8) . ?
C29 C32 1.472(8) . ?
C29 C31A 1.497(8) . ?
C29 C32A 1.588(8) . ?
C29 C30A 1.480(11) . ?
C33 C34 1.488(3) . ?
C34 C35 1.402(3) . ?
C34 C39 1.409(3) . ?
C35 C36 1.387(3) . ?
C35 C40 1.508(3) . ?
C36 C37 1.390(4) . ?
C37 C38 1.386(3) . ?
C37 C42 1.509(3) . ?
C38 C39 1.392(3) . ?
C39 C41 1.504(3) . ?
C43 C44 1.520(5) . ?
C44 C45 1.513(5) . ?
C45 C45 1.499(7) 2_575 ?
