#------------------------------------------------------------------------------
#$Date: 2022-05-17 00:55:14 +0300 (Tue, 17 May 2022) $
#$Revision: 275455 $
#$URL: file:///home/coder/svn-repositories/cod/cif/7/13/00/7130097.cif $
#------------------------------------------------------------------------------
#
# This file is available in the Crystallography Open Database (COD),
# http://www.crystallography.net/
#
# All data on this site have been placed in the public domain by the
# contributors.
#
data_7130097
loop_
_publ_author_name
'Li, Sha'
'Sun, Yahan'
'Li, Xiaofang'
'Smaga, Oskar'
'Koniarz, Sebastian'
'St\;epie\'n, Marcin'
'Chmielewski, Piotr J.'
_publ_section_title
;
 1,3-Dipolar cycloaddition of polycyclic azomethine ylide to norcorroles:
 towards dibenzoullazine-fused derivatives
;
_journal_name_full               'Chemical Communications'
_journal_paper_doi               10.1039/D2CC02071H
_journal_year                    2022
_chemical_formula_moiety         'C60 H51 N5 Ni'
_chemical_formula_sum            'C60 H51 N5 Ni'
_chemical_formula_weight         900.77
_space_group_crystal_system      monoclinic
_space_group_IT_number           14
_space_group_name_Hall           '-P 2yn'
_space_group_name_H-M_alt        'P 1 21/n 1'
_atom_sites_solution_hydrogens   mixed
_audit_creation_date             2021-05-27
_audit_creation_method
;
Olex2 1.2
(compiled 2018.05.29 svn.r3508 for OlexSys, GUI svn.r5506)
;
_audit_update_record
;
2021-10-20 deposited with the CCDC.	2022-05-16 downloaded from the CCDC.
;
_cell_angle_alpha                90
_cell_angle_beta                 105.144(3)
_cell_angle_gamma                90
_cell_formula_units_Z            4
_cell_length_a                   10.9639(3)
_cell_length_b                   27.0997(6)
_cell_length_c                   16.6678(5)
_cell_measurement_reflns_used    20173
_cell_measurement_temperature    99.99(10)
_cell_measurement_theta_max      74.9900
_cell_measurement_theta_min      3.1460
_cell_volume                     4780.3(2)
_computing_cell_refinement       'CrysAlisPro 1.171.41.75a (Rigaku OD, 2020)'
_computing_data_collection       'CrysAlisPro 1.171.41.75a (Rigaku OD, 2020)'
_computing_data_reduction        'CrysAlisPro 1.171.41.75a (Rigaku OD, 2020)'
_computing_molecular_graphics    'Olex2 (Dolomanov et al., 2009)'
_computing_publication_material  'Olex2 (Dolomanov et al., 2009)'
_computing_structure_refinement  'ShelXL (Sheldrick, 2015)'
_diffrn_ambient_environment      N~2~
_diffrn_ambient_temperature      99.99(10)
_diffrn_detector                 'Hybrid Pixel Array Detector'
_diffrn_detector_area_resol_mean 10.0000
_diffrn_detector_type            'HyPix-Arc 150'
_diffrn_measured_fraction_theta_full 0.996
_diffrn_measured_fraction_theta_max 0.996
_diffrn_measurement_details
;
List of Runs (angles in degrees, time in seconds):

  # Type    Start    End  Width  t~exp~   \w     \q     \k     \f   Frames
#--------------------------------------------------------------------------
  1  \w     10.00  35.00   0.50   34.00    --   59.64 -30.00  30.00   50
  2  \w     12.00  37.00   0.50   34.00    --   59.64 -30.00-150.00   50
  3  \w     62.00  97.00   0.50   34.00    --   59.64  30.00  90.00   70
  4  \w     10.00  35.00   0.50   34.00    --   59.64 -30.00 -30.00   50
  5  \w     10.00  35.00   0.50   34.00    --   59.64 -30.00-120.00   50
  6  \w     63.00 109.00   0.50   34.00    --   59.64  30.00-180.00   92
  7  \w     45.00  80.00   0.50   34.00    --   74.25 -95.00-180.00   70
  8  \w     47.00  81.00   0.50   34.00    --   74.25 -95.00 -90.00   68
  9  \w   -121.00 -94.00   0.50   34.00    --  -75.31-125.00  60.00   54
 10  \w   -112.00 -77.00   0.50   34.00    --  -75.31-125.00   0.00   70
 11  \w   -121.00 -96.00   0.50   34.00    --  -75.31-125.00-120.00   50
 12  \w     79.00 105.00   0.50   34.00    --   79.20 125.00 -60.00   52
 13  \w     40.00  74.00   0.50   34.00    --   79.20 -95.00  30.00   68
 14  \w     40.00  66.00   0.50   34.00    --   79.20 -95.00   0.00   52
 15  \w     41.00  71.00   0.50   34.00    --   79.20 -95.00-120.00   60
 16  \w     33.00  68.00   0.50   34.00    --   79.20-125.00-180.00   70
 17  \w     79.00 104.00   0.50   34.00    --   79.20 125.00-180.00   50
 18  \w     95.00 120.00   0.50   34.00    --   79.20  30.00-180.00   50
 19  \w     89.00 115.00   0.50   34.00    --   79.20  30.00-120.00   52
 20  \w     80.00 115.00   0.50   34.00    --   79.20  30.00-150.00   70
 21  \w     79.00 104.00   0.50   34.00    --   79.20 125.00 -30.00   50
 22  \w     85.00 110.00   0.50   34.00    --   79.20-125.00-180.00   50
 23  \w     67.00 108.00   0.50   34.00    --   82.00-118.00 108.61   82
 24  \w     77.00 122.00   0.50   34.00    --   83.00   1.00-108.21   90
 25  \w     44.00  70.00   0.50   34.00    --   83.00   1.00-108.21   52
 26  \w     99.00 126.00   0.50   34.00    --   83.00  22.00  38.06   54
 27  \w     64.00  92.00   0.50   34.00    --   83.00  22.00  38.06   56
 28  \w     72.00  98.00   0.50   34.00    --   83.00-170.00 -21.80   52
 29  \w     72.00 127.00   0.50   34.00    --   83.00  22.00 154.18  110
 30  \w     99.00 125.00   0.50   34.00    --   83.00   7.00 -46.88   52
 31  \w     55.00  86.00   0.50   34.00    --   83.00   7.00 -46.88   62
 32  \w     39.00  65.00   0.50   34.00    --   83.00 -55.00 138.65   52
 33  \w     85.00 118.00   0.50   34.00    --   83.00  15.00-143.33   66
 34  \w     79.00 114.00   0.50   34.00    --   83.00  20.00  97.49   70
 35  \w     97.00 126.00   0.50   34.00    --   83.00  44.00  84.89   58
 36  \w     87.00 128.00   0.50   34.00    --   83.00 111.00-155.00   82
 37  \w     52.00  76.50   0.50   34.00    --   83.00 -83.00 134.50   49
;
_diffrn_measurement_device       'four-circle diffractometer'
_diffrn_measurement_device_type  'XtaLAB Synergy R, DW system, HyPix-Arc 150'
_diffrn_measurement_method       '\w scans'
_diffrn_orient_matrix_type
'CrysAlisPro convention (1999,Acta A55,543-557)'
_diffrn_orient_matrix_UB_11      -0.0861614000
_diffrn_orient_matrix_UB_12      0.0458140000
_diffrn_orient_matrix_UB_13      -0.0122193000
_diffrn_orient_matrix_UB_21      0.0397245000
_diffrn_orient_matrix_UB_22      0.0095511000
_diffrn_orient_matrix_UB_23      0.0943568000
_diffrn_orient_matrix_UB_31      0.1103493000
_diffrn_orient_matrix_UB_32      0.0323419000
_diffrn_orient_matrix_UB_33      -0.0104853000
_diffrn_radiation_monochromator  mirror
_diffrn_radiation_probe          x-ray
_diffrn_radiation_type           CuK\a
_diffrn_radiation_wavelength     1.54184
_diffrn_reflns_av_R_equivalents  0.0919
_diffrn_reflns_av_unetI/netI     0.0426
_diffrn_reflns_Laue_measured_fraction_full 0.996
_diffrn_reflns_Laue_measured_fraction_max 0.996
_diffrn_reflns_limit_h_max       12
_diffrn_reflns_limit_h_min       -12
_diffrn_reflns_limit_k_max       31
_diffrn_reflns_limit_k_min       -30
_diffrn_reflns_limit_l_max       19
_diffrn_reflns_limit_l_min       -19
_diffrn_reflns_number            38217
_diffrn_reflns_point_group_measured_fraction_full 0.996
_diffrn_reflns_point_group_measured_fraction_max 0.996
_diffrn_reflns_theta_full        62.493
_diffrn_reflns_theta_max         62.493
_diffrn_reflns_theta_min         3.194
_diffrn_source                   'Rotating-anode X-ray tube'
_diffrn_source_type              'Rigaku (Cu) X-ray Source'
_exptl_absorpt_coefficient_mu    0.925
_exptl_absorpt_correction_T_max  0.921
_exptl_absorpt_correction_T_min  0.831
_exptl_absorpt_correction_type   analytical
_exptl_absorpt_process_details
;
CrysAlisPro 1.171.41.75a (Rigaku Oxford Diffraction, 2020)
Analytical numeric absorption correction using a multifaceted crystal
model based on expressions derived by R.C. Clark & J.S. Reid.
(Clark, R. C. & Reid, J. S. (1995). Acta Cryst. A51, 887-897)
Empirical absorption correction using spherical harmonics,
implemented in SCALE3 ABSPACK scaling algorithm.
;
_exptl_crystal_colour            brown
_exptl_crystal_density_diffrn    1.252
_exptl_crystal_description       block
_exptl_crystal_F_000             1896
_exptl_crystal_size_max          0.284
_exptl_crystal_size_mid          0.237
_exptl_crystal_size_min          0.118
_refine_diff_density_max         1.311
_refine_diff_density_min         -0.641
_refine_diff_density_rms         0.076
_refine_ls_extinction_method     none
_refine_ls_goodness_of_fit_ref   1.067
_refine_ls_hydrogen_treatment    mixed
_refine_ls_matrix_type           full
_refine_ls_number_parameters     607
_refine_ls_number_reflns         7595
_refine_ls_number_restraints     0
_refine_ls_restrained_S_all      1.067
_refine_ls_R_factor_all          0.0963
_refine_ls_R_factor_gt           0.0834
_refine_ls_shift/su_max          0.001
_refine_ls_shift/su_mean         0.000
_refine_ls_structure_factor_coef Fsqd
_refine_ls_weighting_details
'w=1/[\s^2^(Fo^2^)+(0.0722P)^2^+15.5526P] where P=(Fo^2^+2Fc^2^)/3'
_refine_ls_weighting_scheme      calc
_refine_ls_wR_factor_gt          0.1930
_refine_ls_wR_factor_ref         0.2029
_reflns_Friedel_coverage         0.000
_reflns_number_gt                6373
_reflns_number_total             7595
_reflns_threshold_expression     'I > 2\s(I)'
_cod_data_source_file            d2cc02071h3.cif
_cod_data_source_block           1abs_sq
_cod_original_cell_volume        4780.4(2)
_cod_database_code               7130097
_shelx_shelxl_version_number     2018/3
_chemical_oxdiff_formula         'C H N Ni'
_shelx_space_group_comment
;
The symmetry employed for this shelxl refinement is uniquely defined
by the following loop, which should always be used as a source of
symmetry information in preference to the above space-group names.
They are only intended as comments.
;
_reflns_odcompleteness_completeness 98.05
_reflns_odcompleteness_iscentric 1
_reflns_odcompleteness_theta     74.33
_olex2_refinement_description
;
1. Fixed Uiso
 At 1.2 times of:
  All C(H) groups
 At 1.5 times of:
  All C(H,H,H) groups
2.a Ternary CH refined with riding coordinates:
 C2(H2), C3(H3), C21(H21), C44(H44)
2.b Aromatic/amide H refined with riding coordinates:
 C23(H23), C7(H7), C8(H8), C11(H11), C12(H12), C17(H17), C24(H24), C25(H25),
 C26(H26), C31(H31), C33(H33), C39(H39), C40(H40), C41(H41), C42(H42), C53(H53),
  C55(H55), C143(H143), C145(H145)
2.c Idealised Me refined as rotating group:
 C35(H35A,H35B,H35C), C36(H36A,H36B,H36C), C37(H37A,H37B,H37C), C57(H57A,H57B,
 H57C), C58(H58A,H58B,H58C), C59(H59A,H59B,H59C), C147(H14A,H14B,H14C),
 C148(H14D,H14E,H14F), C149(H14G,H14H,H14I)
;
_shelx_res_file
;
TITL 2os307_a.res in P2(1)/n
    1abs_sq.res
    created by SHELXL-2018/3 at 11:33:20 on 27-May-2021
REM Old TITL 2os307 in P2(1)/n
REM SHELXT solution in P2(1)/n
REM R1 0.186, Rweak 0.028, Alpha 0.056, Orientation as input
REM Formula found by SHELXT: C65 N5 Ni
CELL 1.54184 10.963914 27.099694 16.667836 90 105.1436 90
ZERR 4 0.00029 0.000571 0.00046 0 0.0029 0
LATT 1
SYMM 0.5-X,0.5+Y,0.5-Z
SFAC C H N Ni
UNIT 240 204 20 4

L.S. 10 0 41
PLAN  5
TEMP -173
CONF
BOND $H
MORE -1
ABIN
fmap 2
acta
OMIT -4 125
OMIT 0 0 4
OMIT 0 0 2
OMIT -11 10 10
OMIT -3 20 1
OMIT 2 14 4
OMIT 8 5 9
OMIT 7 0 5
REM <olex2.extras>
REM <HklSrc "%.\\1abs_sq.hkl">
REM </olex2.extras>

WGHT    0.072200   15.552600
FVAR       1.25744
NI1   4    0.565245    0.584514    0.681611    11.00000    0.02567    0.02287 =
         0.05962    0.00538    0.01433   -0.00040
N20   3    0.584000    0.795574    0.620659    11.00000    0.02556    0.02359 =
         0.04397    0.00201    0.00920    0.00033
N21   3    0.555853    0.644801    0.635775    11.00000    0.02382    0.02502 =
         0.05035    0.00376    0.01084   -0.00127
N22   3    0.399554    0.575934    0.659310    11.00000    0.02926    0.02418 =
         0.05414   -0.00101    0.02001   -0.00282
N23   3    0.574125    0.523328    0.721643    11.00000    0.03367    0.02535 =
         0.05290    0.00540    0.01373    0.00015
N24   3    0.730974    0.589947    0.696311    11.00000    0.02351    0.02613 =
         0.04922    0.00353    0.01218   -0.00021
C23   1    0.858358    0.746286    0.782294    11.00000    0.03618    0.03429 =
         0.04559    0.00496    0.01374    0.00206
AFIX  43
H23   2    0.818532    0.720663    0.805006    11.00000   -1.20000
AFIX   0
C1    1    0.665910    0.664406    0.634602    11.00000    0.02668    0.02236 =
         0.05134    0.00034    0.01150   -0.00129
C2    1    0.645600    0.714673    0.598050    11.00000    0.02886    0.02301 =
         0.05157    0.00390    0.01311   -0.00085
AFIX  13
H2    2    0.698048    0.721384    0.558365    11.00000   -1.20000
AFIX   0
C3    1    0.500167    0.717327    0.555793    11.00000    0.02397    0.02469 =
         0.04697    0.00155    0.01311   -0.00070
AFIX  13
H3    2    0.483628    0.714099    0.494115    11.00000   -1.20000
AFIX   0
C4    1    0.448346    0.671816    0.592299    11.00000    0.03002    0.02064 =
         0.04759    0.00361    0.00736   -0.00093
C5    1    0.329819    0.653089    0.583669    11.00000    0.02630    0.02503 =
         0.04067   -0.00107    0.01174   -0.00157
C6    1    0.303986    0.604791    0.616868    11.00000    0.02840    0.02555 =
         0.04443   -0.00521    0.01481   -0.00103
C7    1    0.191269    0.576985    0.608349    11.00000    0.02396    0.03133 =
         0.04687    0.00018    0.00929   -0.00471
AFIX  43
H7    2    0.108001    0.587596    0.581566    11.00000   -1.20000
AFIX   0
C8    1    0.224850    0.531463    0.646277    11.00000    0.02900    0.02880 =
         0.05545   -0.00242    0.01419   -0.00721
AFIX  43
H8    2    0.168769    0.505384    0.650159    11.00000   -1.20000
AFIX   0
C9    1    0.356215    0.531116    0.677630    11.00000    0.03283    0.02509 =
         0.05036   -0.00010    0.01802   -0.00129
C10   1    0.464576    0.499673    0.713729    11.00000    0.03577    0.02933 =
         0.05146    0.00203    0.01903   -0.00576
C11   1    0.494948    0.448695    0.736173    11.00000    0.03530    0.03056 =
         0.06428    0.01213    0.01053   -0.00482
AFIX  43
H11   2    0.436609    0.423279    0.739136    11.00000   -1.20000
AFIX   0
C12   1    0.622417    0.443945    0.752218    11.00000    0.03865    0.02828 =
         0.05354    0.00990    0.00641   -0.00042
AFIX  43
H12   2    0.668616    0.414258    0.767791    11.00000   -1.20000
AFIX   0
C13   1    0.676118    0.491312    0.741752    11.00000    0.03326    0.02800 =
         0.04552    0.00258    0.01298   -0.00124
C14   1    0.797881    0.506250    0.741527    11.00000    0.03169    0.02395 =
         0.03962    0.00038    0.00802   -0.00031
C15   1    0.825786    0.556683    0.720312    11.00000    0.02891    0.02571 =
         0.03999   -0.00026    0.01151   -0.00026
C16   1    0.937339    0.580214    0.712353    11.00000    0.02689    0.02914 =
         0.04333   -0.00054    0.01045    0.00193
C17   1    0.904433    0.628118    0.681733    11.00000    0.02563    0.02897 =
         0.04875   -0.00174    0.01111   -0.00553
AFIX  43
H17   2    0.959812    0.652526    0.670338    11.00000   -1.20000
AFIX   0
C18   1    0.773866    0.632755    0.671342    11.00000    0.02881    0.02097 =
         0.05459   -0.00184    0.01163   -0.00204
C21   1    0.660568    0.755399    0.666951    11.00000    0.03095    0.02623 =
         0.04609    0.00351    0.01128    0.00001
AFIX  13
H21   2    0.618774    0.743323    0.709867    11.00000   -1.20000
AFIX   0
C22   1    0.792942    0.770573    0.710141    11.00000    0.03060    0.02868 =
         0.03943    0.00220    0.00889    0.00300
C24   1    0.982453    0.759776    0.820943    11.00000    0.03329    0.03729 =
         0.04239    0.00012    0.00886    0.00816
AFIX  43
H24   2    1.028814    0.742779    0.869138    11.00000   -1.20000
AFIX   0
C25   1    1.037231    0.798123    0.788384    11.00000    0.02612    0.03512 =
         0.04679   -0.00166    0.00212    0.00349
AFIX  43
H25   2    1.120835    0.808232    0.815418    11.00000   -1.20000
AFIX   0
C26   1    0.971828    0.821823    0.717144    11.00000    0.03394    0.02734 =
         0.04371   -0.00017    0.00730    0.00261
AFIX  43
H26   2    1.011546    0.847910    0.695446    11.00000   -1.20000
AFIX   0
C27   1    0.848702    0.808443    0.676103    11.00000    0.02563    0.02403 =
         0.04367   -0.00155    0.00929    0.00181
C28   1    0.776150    0.831772    0.598240    11.00000    0.02779    0.02269 =
         0.04015   -0.00208    0.00735   -0.00092
C29   1    0.644197    0.823274    0.570559    11.00000    0.03061    0.02126 =
         0.04075   -0.00294    0.01226   -0.00235
C30   1    0.575394    0.844888    0.495810    11.00000    0.02951    0.02272 =
         0.03557   -0.00329    0.00612   -0.00022
C31   1    0.638421    0.873978    0.450849    11.00000    0.03252    0.02527 =
         0.03605    0.00325    0.00602    0.00237
AFIX  43
H31   2    0.591845    0.887321    0.399218    11.00000   -1.20000
AFIX   0
C32   1    0.767735    0.884449    0.478471    11.00000    0.03074    0.02302 =
         0.04052   -0.00422    0.00902   -0.00134
C33   1    0.832389    0.862633    0.551861    11.00000    0.02965    0.02490 =
         0.04227   -0.00163    0.01028   -0.00242
AFIX  43
H33   2    0.920301    0.869053    0.571849    11.00000   -1.20000
AFIX   0
C34   1    0.830712    0.917842    0.425581    11.00000    0.03378    0.03205 =
         0.04473    0.00509    0.01247   -0.00109
C35   1    0.759194    0.967288    0.407153    11.00000    0.04495    0.03271 =
         0.06281    0.00337    0.02012   -0.00467
AFIX 137
H35A  2    0.670954    0.961011    0.377369    11.00000   -1.50000
H35B  2    0.798840    0.987977    0.372835    11.00000   -1.50000
H35C  2    0.762344    0.984292    0.459546    11.00000   -1.50000
AFIX   0
C36   1    0.825167    0.891124    0.344208    11.00000    0.04661    0.04376 =
         0.05003    0.00498    0.01665   -0.00305
AFIX 137
H36A  2    0.869601    0.859504    0.356087    11.00000   -1.50000
H36B  2    0.865565    0.911473    0.309865    11.00000   -1.50000
H36C  2    0.736771    0.885222    0.314368    11.00000   -1.50000
AFIX   0
C37   1    0.968557    0.929064    0.470822    11.00000    0.03488    0.03849 =
         0.06002    0.00360    0.01148   -0.00703
AFIX 137
H37A  2    0.972068    0.944840    0.524284    11.00000   -1.50000
H37B  2    1.004760    0.951281    0.436746    11.00000   -1.50000
H37C  2    1.016968    0.898246    0.480358    11.00000   -1.50000
AFIX   0
C38   1    0.437206    0.837618    0.470038    11.00000    0.03036    0.02265 =
         0.04155   -0.00416    0.00789    0.00039
C39   1    0.358362    0.866678    0.408131    11.00000    0.03469    0.02980 =
         0.03871   -0.00396    0.00724    0.00049
AFIX  43
H39   2    0.394889    0.890835    0.380230    11.00000   -1.20000
AFIX   0
C40   1    0.228579    0.860909    0.386849    11.00000    0.02722    0.04001 =
         0.04818   -0.00282    0.00201    0.00549
AFIX  43
H40   2    0.176656    0.881326    0.345373    11.00000   -1.20000
AFIX   0
C41   1    0.174637    0.825327    0.426133    11.00000    0.02463    0.03308 =
         0.06284   -0.00525    0.00754    0.00137
AFIX  43
H41   2    0.085775    0.820373    0.410518    11.00000   -1.20000
AFIX   0
C42   1    0.250923    0.797036    0.488256    11.00000    0.02949    0.02908 =
         0.05909    0.00194    0.01150   -0.00051
AFIX  43
H42   2    0.213526    0.773495    0.516755    11.00000   -1.20000
AFIX   0
C43   1    0.382010    0.802456    0.509853    11.00000    0.02525    0.02667 =
         0.04896   -0.00425    0.00599    0.00205
C44   1    0.462380    0.771091    0.579700    11.00000    0.02534    0.02427 =
         0.04736   -0.00070    0.01016   -0.00184
AFIX  13
H44   2    0.414143    0.767049    0.622580    11.00000   -1.20000
AFIX   0
C51   1    0.210908    0.679408    0.538583    11.00000    0.02714    0.02284 =
         0.04939    0.00058    0.00612   -0.00686
C52   1    0.166893    0.676889    0.452480    11.00000    0.03763    0.02762 =
         0.05063   -0.00287    0.00798   -0.00925
C53   1    0.048966    0.699136    0.414611    11.00000    0.04316    0.03551 =
         0.04498   -0.00009   -0.00331   -0.01408
AFIX  43
H53   2    0.018003    0.698138    0.355816    11.00000   -1.20000
AFIX   0
C54   1   -0.022193    0.722220    0.460759    11.00000    0.03081    0.03133 =
         0.05384    0.00056    0.00416   -0.00613
C55   1    0.023750    0.724022    0.545581    11.00000    0.02959    0.03201 =
         0.05221    0.00107    0.01122   -0.00515
AFIX  43
H55   2   -0.024540    0.740073    0.577624    11.00000   -1.20000
AFIX   0
C56   1    0.139595    0.702882    0.586005    11.00000    0.02370    0.02596 =
         0.05188    0.00119    0.00772   -0.00204
C57   1    0.241651    0.652361    0.400355    11.00000    0.04990    0.04220 =
         0.05013   -0.00593    0.01238   -0.01169
AFIX 137
H57A  2    0.307561    0.674909    0.392664    11.00000   -1.50000
H57B  2    0.185475    0.643831    0.346066    11.00000   -1.50000
H57C  2    0.280862    0.622284    0.428208    11.00000   -1.50000
AFIX   0
C58   1   -0.149348    0.744884    0.418937    11.00000    0.03841    0.04743 =
         0.06810    0.00042   -0.00364    0.00359
AFIX 137
H58A  2   -0.156433    0.749176    0.359513    11.00000   -1.50000
H58B  2   -0.156831    0.777052    0.444088    11.00000   -1.50000
H58C  2   -0.216967    0.723070    0.426180    11.00000   -1.50000
AFIX   0
C59   1    0.188610    0.707552    0.678799    11.00000    0.03084    0.04205 =
         0.04854   -0.00067    0.01221    0.00276
AFIX 137
H59A  2    0.208524    0.674707    0.703326    11.00000   -1.50000
H59B  2    0.124106    0.723075    0.701515    11.00000   -1.50000
H59C  2    0.265134    0.727915    0.692011    11.00000   -1.50000
AFIX   0
C141  1    0.903245    0.470405    0.759711    11.00000    0.02671    0.02594 =
         0.04550    0.00550    0.00474   -0.00360
C142  1    0.953956    0.453388    0.841449    11.00000    0.03715    0.03154 =
         0.05057    0.00681    0.00271   -0.00953
C143  1    1.056514    0.420937    0.857172    11.00000    0.03618    0.04011 =
         0.06800    0.02422   -0.00506   -0.00505
AFIX  43
H143  2    1.091703    0.409784    0.912418    11.00000   -1.20000
AFIX   0
C144  1    1.108081    0.404648    0.794973    11.00000    0.03513    0.03943 =
         0.08884    0.02522    0.01464    0.00464
C145  1    1.055402    0.420868    0.715233    11.00000    0.03739    0.02893 =
         0.08078    0.00385    0.02429   -0.00143
AFIX  43
H145  2    1.089480    0.409263    0.671851    11.00000   -1.20000
AFIX   0
C146  1    0.953998    0.453658    0.695576    11.00000    0.02966    0.02465 =
         0.05577    0.00042    0.01009   -0.00444
C147  1    0.899706    0.469799    0.910731    11.00000    0.07039    0.04938 =
         0.04241    0.00790    0.00339   -0.00536
AFIX 137
H14A  2    0.880668    0.505159    0.905056    11.00000   -1.50000
H14B  2    0.961034    0.463610    0.964158    11.00000   -1.50000
H14C  2    0.821925    0.451366    0.908305    11.00000   -1.50000
AFIX   0
C148  1    1.220135    0.370016    0.813801    11.00000    0.04583    0.07673 =
         0.16406    0.06622    0.04593    0.02901
AFIX 137
H14D  2    1.235466    0.358412    0.761606    11.00000   -1.50000
H14E  2    1.202487    0.341720    0.845624    11.00000   -1.50000
H14F  2    1.295062    0.387473    0.846373    11.00000   -1.50000
AFIX   0
C149  1    0.900247    0.469144    0.607179    11.00000    0.04750    0.04220 =
         0.04921   -0.01069    0.01113    0.00060
AFIX 137
H14G  2    0.807826    0.467318    0.593418    11.00000   -1.50000
H14H  2    0.931622    0.447146    0.570370    11.00000   -1.50000
H14I  2    0.926102    0.503109    0.599874    11.00000   -1.50000
AFIX   0
H16   2    1.021192    0.563329    0.723264    11.00000   -1.20000
HKLF 4




REM  2os307_a.res in P2(1)/n
REM wR2 = 0.2029, GooF = S = 1.067, Restrained GooF = 1.067 for all data
REM R1 = 0.0834 for 6373 Fo > 4sig(Fo) and 0.0963 for all 7595 data
REM 607 parameters refined using 0 restraints

END

WGHT      0.0722     15.5525

REM Highest difference peak  1.311,  deepest hole -0.641,  1-sigma level  0.076
Q1    1   0.5370  0.5740  0.6192  11.00000  0.05    1.31
Q2    1   0.5004  0.6138  0.6835  11.00000  0.05    0.38
Q3    1   0.6221  0.5529  0.6826  11.00000  0.05    0.34
Q4    1   0.4971  0.5519  0.6841  11.00000  0.05    0.34
Q5    1   0.6207  0.5914  0.7627  11.00000  0.05    0.33
;
_shelx_res_checksum              5616
_shelx_fab_file
;
    0    0    2    133.27      0.00
    0    0    4     74.84      0.00
    0    0    6     24.87      0.00
    0    0    8     -4.52      0.00
    0    0   10    -15.86      0.00
    0    0   12    -15.63      0.00
    0    0   14    -11.16      0.00
    0    0   16     -4.48      0.00
    0    0   18      1.44      0.00
    0    1    1    132.12      0.00
    0    1    2    -29.74      0.00
    0    1    3     91.55      0.00
    0    1    4    -40.65      0.00
    0    1    5     43.42      0.00
    0    1    6    -35.26      0.00
    0    1    7      9.82      0.00
    0    1    8    -23.43      0.00
    0    1    9     -7.44      0.00
    0    1   10    -10.95      0.00
    0    1   11    -12.29      0.00
    0    1   12     -2.25      0.00
    0    1   13    -10.93      0.00
    0    1   14      2.20      0.00
    0    1   15     -6.89      0.00
    0    1   16      4.05      0.00
    0    1   17     -1.28      0.00
    0    1   18      3.14      0.00
    0    2    0     79.83      0.00
    0    2    1    -25.74      0.00
    0    2    2     68.53      0.00
    0    2    3    -59.44      0.00
    0    2    4     44.32      0.00
    0    2    5    -62.50      0.00
    0    2    6     22.60      0.00
    0    2    7    -48.46      0.00
    0    2    8      8.70      0.00
    0    2    9    -28.91      0.00
    0    2   10      1.07      0.00
    0    2   11    -11.54      0.00
    0    2   12     -2.74      0.00
    0    2   13     -1.05      0.00
    0    2   14     -4.03      0.00
    0    2   15      4.49      0.00
    0    2   16     -2.79      0.00
    0    2   17      5.80      0.00
    0    2   18     -0.56      0.00
    0    3    1     11.72      0.00
    0    3    2    -44.40      0.00
    0    3    3     15.01      0.00
    0    3    4    -62.25      0.00
    0    3    5     17.70      0.00
    0    3    6    -56.92      0.00
    0    3    7     18.67      0.00
    0    3    8    -41.36      0.00
    0    3    9     17.11      0.00
    0    3   10    -23.10      0.00
    0    3   11     11.69      0.00
    0    3   12     -9.04      0.00
    0    3   13      5.02      0.00
    0    3   14     -0.59      0.00
    0    3   15      0.49      0.00
    0    3   16      4.05      0.00
    0    3   17     -1.51      0.00
    0    3   18      4.14      0.00
    0    4    0    -40.96      0.00
    0    4    1    -14.63      0.00
    0    4    2    -29.84      0.00
    0    4    3    -34.92      0.00
    0    4    4     -7.47      0.00
    0    4    5    -39.72      0.00
    0    4    6     11.53      0.00
    0    4    7    -35.26      0.00
    0    4    8     22.86      0.00
    0    4    9    -26.28      0.00
    0    4   10     23.81      0.00
    0    4   11    -16.33      0.00
    0    4   12     16.19      0.00
    0    4   13     -8.45      0.00
    0    4   14      7.62      0.00
    0    4   15     -2.49      0.00
    0    4   16      1.45      0.00
    0    4   17      1.06      0.00
    0    4   18     -1.80      0.00
    0    5    1    -57.74      0.00
    0    5    2     -3.75      0.00
    0    5    3    -35.11      0.00
    0    5    4     -7.32      0.00
    0    5    5     -8.18      0.00
    0    5    6    -10.63      0.00
    0    5    7     12.61      0.00
    0    5    8    -13.49      0.00
    0    5    9     23.42      0.00
    0    5   10    -14.82      0.00
    0    5   11     21.67      0.00
    0    5   12    -13.43      0.00
    0    5   13     13.56      0.00
    0    5   14     -9.69      0.00
    0    5   15      6.21      0.00
    0    5   16     -5.19      0.00
    0    5   17      0.84      0.00
    0    5   18     -1.57      0.00
    0    6    0    -51.20      0.00
    0    6    1      7.88      0.00
    0    6    2    -42.10      0.00
    0    6    3     17.50      0.00
    0    6    4    -22.93      0.00
    0    6    5     16.72      0.00
    0    6    6     -4.40      0.00
    0    6    7      9.24      0.00
    0    6    8      9.62      0.00
    0    6    9     -1.60      0.00
    0    6   10     15.21      0.00
    0    6   11    -10.31      0.00
    0    6   12     12.65      0.00
    0    6   13    -12.54      0.00
    0    6   14      7.99      0.00
    0    6   15    -10.18      0.00
    0    6   16      3.96      0.00
    0    6   17     -6.06      0.00
    0    6   18      0.94      0.00
    0    7    1    -23.74      0.00
    0    7    2     20.66      0.00
    0    7    3    -19.05      0.00
    0    7    4     28.80      0.00
    0    7    5    -12.63      0.00
    0    7    6     25.57      0.00
    0    7    7     -5.95      0.00
    0    7    8     14.67      0.00
    0    7    9     -0.26      0.00
    0    7   10      0.51      0.00
    0    7   11      2.73      0.00
    0    7   12     -8.51      0.00
    0    7   13      3.64      0.00
    0    7   14    -10.15      0.00
    0    7   15      3.77      0.00
    0    7   16     -8.12      0.00
    0    7   17      3.00      0.00
    0    7   18     -4.39      0.00
    0    8    0      2.20      0.00
    0    8    1      9.08      0.00
    0    8    2     -0.49      0.00
    0    8    3     21.50      0.00
    0    8    4     -5.97      0.00
    0    8    5     24.42      0.00
    0    8    6    -10.71      0.00
    0    8    7     20.31      0.00
    0    8    8    -12.93      0.00
    0    8    9     10.30      0.00
    0    8   10    -11.02      0.00
    0    8   11     -0.08      0.00
    0    8   12     -5.87      0.00
    0    8   13     -4.92      0.00
    0    8   14     -0.81      0.00
    0    8   15     -5.53      0.00
    0    8   16      2.29      0.00
    0    8   17     -4.23      0.00
    0    9    1     15.84      0.00
    0    9    2      6.53      0.00
    0    9    3      7.11      0.00
    0    9    4      9.92      0.00
    0    9    5     -4.04      0.00
    0    9    6     10.89      0.00
    0    9    7    -13.88      0.00
    0    9    8      9.37      0.00
    0    9    9    -18.54      0.00
    0    9   10      5.43      0.00
    0    9   11    -14.93      0.00
    0    9   12      2.00      0.00
    0    9   13     -7.29      0.00
    0    9   14      0.29      0.00
    0    9   15     -1.08      0.00
    0    9   16     -0.67      0.00
    0    9   17      2.24      0.00
    0   10    0     17.56      0.00
    0   10    1     -1.84      0.00
    0   10    2     13.22      0.00
    0   10    3     -4.45      0.00
    0   10    4      3.85      0.00
    0   10    5     -4.53      0.00
    0   10    6     -6.38      0.00
    0   10    7     -1.83      0.00
    0   10    8    -14.86      0.00
    0   10    9      2.22      0.00
    0   10   10    -16.50      0.00
    0   10   11      5.15      0.00
    0   10   12    -11.05      0.00
    0   10   13      5.59      0.00
    0   10   14     -4.43      0.00
    0   10   15      4.17      0.00
    0   10   16      0.08      0.00
    0   10   17      2.10      0.00
    0   11    1      7.00      0.00
    0   11    2     -9.02      0.00
    0   11    3      3.69      0.00
    0   11    4    -13.65      0.00
    0   11    5     -0.73      0.00
    0   11    6    -12.82      0.00
    0   11    7     -5.74      0.00
    0   11    8     -6.64      0.00
    0   11    9     -9.24      0.00
    0   11   10      1.77      0.00
    0   11   11     -8.36      0.00
    0   11   12      6.79      0.00
    0   11   13     -4.75      0.00
    0   11   14      7.08      0.00
    0   11   15     -1.42      0.00
    0   11   16      5.03      0.00
    0   11   17      0.62      0.00
    0   12    0     -5.40      0.00
    0   12    1     -4.88      0.00
    0   12    2     -4.67      0.00
    0   12    3    -12.08      0.00
    0   12    4     -2.67      0.00
    0   12    5    -14.54      0.00
    0   12    6     -0.60      0.00
    0   12    7    -11.75      0.00
    0   12    8      0.07      0.00
    0   12    9     -4.13      0.00
    0   12   10     -0.40      0.00
    0   12   11      3.32      0.00
    0   12   12     -0.79      0.00
    0   12   13      6.19      0.00
    0   12   14     -0.57      0.00
    0   12   15      5.62      0.00
    0   12   16     -0.01      0.00
    0   12   17      3.59      0.00
    0   13    1    -13.76      0.00
    0   13    2     -4.71      0.00
    0   13    3     -9.21      0.00
    0   13    4     -7.38      0.00
    0   13    5     -2.41      0.00
    0   13    6     -7.83      0.00
    0   13    7      3.78      0.00
    0   13    8     -5.32      0.00
    0   13    9      6.50      0.00
    0   13   10     -0.78      0.00
    0   13   11      5.14      0.00
    0   13   12      2.43      0.00
    0   13   13      2.51      0.00
    0   13   14      3.34      0.00
    0   13   15      0.88      0.00
    0   13   16      2.97      0.00
    0   14    0    -16.00      0.00
    0   14    1      0.57      0.00
    0   14    2    -13.22      0.00
    0   14    3      1.49      0.00
    0   14    4     -6.54      0.00
    0   14    5      1.40      0.00
    0   14    6      1.25      0.00
    0   14    7      0.34      0.00
    0   14    8      7.13      0.00
    0   14    9     -0.52      0.00
    0   14   10      8.22      0.00
    0   14   11     -0.63      0.00
    0   14   12      5.55      0.00
    0   14   13     -0.13      0.00
    0   14   14      2.70      0.00
    0   14   15      0.64      0.00
    0   14   16      0.84      0.00
    0   15    1    -10.27      0.00
    0   15    2      5.52      0.00
    0   15    3     -7.05      0.00
    0   15    4      8.45      0.00
    0   15    5     -2.16      0.00
    0   15    6      7.77      0.00
    0   15    7      2.85      0.00
    0   15    8      4.20      0.00
    0   15    9      5.79      0.00
    0   15   10      0.10      0.00
    0   15   11      5.48      0.00
    0   15   12     -1.98      0.00
    0   15   13      3.63      0.00
    0   15   14     -1.72      0.00
    0   15   15      1.84      0.00
    0   15   16     -0.72      0.00
    0   16    0     -2.22      0.00
    0   16    1      3.63      0.00
    0   16    2     -2.16      0.00
    0   16    3      9.11      0.00
    0   16    4     -1.87      0.00
    0   16    5     10.72      0.00
    0   16    6     -0.95      0.00
    0   16    7      8.39      0.00
    0   16    8      0.49      0.00
    0   16    9      3.54      0.00
    0   16   10      1.61      0.00
    0   16   11     -0.71      0.00
    0   16   12      2.03      0.00
    0   16   13     -2.23      0.00
    0   16   14      1.78      0.00
    0   16   15     -1.84      0.00
    0   17    1      4.70      0.00
    0   17    2      4.89      0.00
    0   17    3      2.11      0.00
    0   17    4      7.66      0.00
    0   17    5     -1.02      0.00
    0   17    6      7.74      0.00
    0   17    7     -2.93      0.00
    0   17    8      5.41      0.00
    0   17    9     -3.04      0.00
    0   17   10      1.99      0.00
    0   17   11     -1.68      0.00
    0   17   12     -0.50      0.00
    0   17   13     -0.10      0.00
    0   17   14     -1.45      0.00
    0   17   15      0.44      0.00
    0   18    0      8.17      0.00
    0   18    1      0.66      0.00
    0   18    2      6.02      0.00
    0   18    3      1.90      0.00
    0   18    4      1.41      0.00
    0   18    5      2.83      0.00
    0   18    6     -2.67      0.00
    0   18    7      3.20      0.00
    0   18    8     -4.84      0.00
    0   18    9      2.75      0.00
    0   18   10     -4.72      0.00
    0   18   11      1.66      0.00
    0   18   12     -2.90      0.00
    0   18   13      0.32      0.00
    0   18   14     -1.12      0.00
    0   18   15     -0.72      0.00
    0   19    1      6.14      0.00
    0   19    2     -1.98      0.00
    0   19    3      2.95      0.00
    0   19    4     -2.37      0.00
    0   19    5     -0.81      0.00
    0   19    6     -1.29      0.00
    0   19    7     -3.45      0.00
    0   19    8      0.40      0.00
    0   19    9     -4.69      0.00
    0   19   10      1.82      0.00
    0   19   11     -4.36      0.00
    0   19   12      1.96      0.00
    0   19   13     -2.90      0.00
    0   19   14      0.79      0.00
    0   20    0      2.33      0.00
    0   20    1     -1.97      0.00
    0   20    2      1.48      0.00
    0   20    3     -4.44      0.00
    0   20    4     -0.21      0.00
    0   20    5     -4.36      0.00
    0   20    6     -1.47      0.00
    0   20    7     -2.71      0.00
    0   20    8     -2.34      0.00
    0   20    9     -0.26      0.00
    0   20   10     -3.09      0.00
    0   20   11      1.82      0.00
    0   20   12     -3.22      0.00
    0   20   13      2.06      0.00
    0   20   14     -2.36      0.00
    0   21    1     -1.92      0.00
    0   21    2     -3.08      0.00
    0   21    3     -1.67      0.00
    0   21    4     -4.12      0.00
    0   21    5     -1.14      0.00
    0   21    6     -3.59      0.00
    0   21    7     -0.47      0.00
    0   21    8     -2.16      0.00
    0   21    9     -0.45      0.00
    0   21   10      0.11      0.00
    0   21   11     -1.41      0.00
    0   21   12      1.90      0.00
    0   21   13     -2.14      0.00
    0   22    0     -4.19      0.00
    0   22    1     -0.76      0.00
    0   22    2     -3.54      0.00
    0   22    3     -1.65      0.00
    0   22    4     -2.15      0.00
    0   22    5     -1.74      0.00
    0   22    6     -0.58      0.00
    0   22    7     -1.68      0.00
    0   22    8      0.85      0.00
    0   22    9     -1.01      0.00
    0   22   10      0.91      0.00
    0   22   11      0.55      0.00
    0   22   12     -0.51      0.00
    0   22   13      1.66      0.00
    0   23    1     -3.60      0.00
    0   23    2      0.56      0.00
    0   23    3     -2.62      0.00
    0   23    4      0.87      0.00
    0   23    5     -1.45      0.00
    0   23    6      0.62      0.00
    0   23    7      0.07      0.00
    0   23    8     -0.08      0.00
    0   23    9      1.46      0.00
    0   23   10     -0.27      0.00
    0   23   11      1.09      0.00
    0   23   12      0.47      0.00
    0   24    0     -1.38      0.00
    0   24    1      0.92      0.00
    0   24    2     -1.25      0.00
    0   24    3      2.18      0.00
    0   24    4     -1.17      0.00
    0   24    5      2.39      0.00
    0   24    6     -0.94      0.00
    0   24    7      1.73      0.00
    0   24    8      0.12      0.00
    0   24    9      0.43      0.00
    0   24   10      0.95      0.00
    0   24   11     -0.38      0.00
    0   25    1      1.47      0.00
    0   25    2      1.72      0.00
    0   25    3      0.71      0.00
    0   25    4      2.30      0.00
    0   25    5     -0.37      0.00
    0   25    6      2.16      0.00
    0   25    7     -0.89      0.00
    0   25    8      1.34      0.00
    0   25    9     -0.50      0.00
    0   25   10     -0.13      0.00
    0   25   11     -0.12      0.00
    0   26    0      3.77      0.00
    0   26    1      0.53      0.00
    0   26    2      3.03      0.00
    0   26    3      0.98      0.00
    0   26    4      1.42      0.00
    0   26    5      0.80      0.00
    0   26    6     -0.14      0.00
    0   26    7      0.66      0.00
    0   26    8     -1.11      0.00
    0   26    9      0.09      0.00
    0   26   10     -1.13      0.00
    0   27    1      4.28      0.00
    0   27    2     -0.21      0.00
    0   27    3      2.89      0.00
    0   27    4     -0.84      0.00
    0   27    5      1.37      0.00
    0   27    6     -1.20      0.00
    0   27    7     -0.02      0.00
    0   27    8     -0.96      0.00
    0   27    9     -1.03      0.00
    0   28    0      3.81      0.00
    0   28    1     -0.46      0.00
    0   28    2      3.12      0.00
    0   28    3     -1.44      0.00
    0   28    4      2.02      0.00
    0   28    5     -2.34      0.00
    0   28    6      1.25      0.00
    0   28    7     -2.46      0.00
    0   28    8      0.36      0.00
    0   29    1      2.22      0.00
    0   29    2     -1.01      0.00
    0   29    3      1.55      0.00
    0   29    4     -1.92      0.00
    0   29    5      1.29      0.00
    0   29    6     -2.64      0.00
    0   30    0      0.98      0.00
    0   30    1     -0.30      0.00
    0   30    2      0.72      0.00
    0   30    3     -0.77      0.00
    0   30    4      0.48      0.00
    0   30    5     -1.37      0.00
    0   31    1      0.17      0.00
   -1    0   17      2.62      0.00
   -1    0   15     -0.94      0.00
   -1    0   13     -5.31      0.00
   -1    0   11    -10.58      0.00
   -1    0    9    -18.98      0.00
   -1    0    7    -24.81      0.00
   -1    0    5    -17.87      0.00
   -1    0    3     10.10      0.00
   -1    0    1     54.73      0.00
    1    0    1     88.50      0.00
    1    0    3     88.75      0.00
    1    0    5     66.25      0.00
    1    0    7     40.42      0.00
    1    0    9     17.16      0.00
    1    0   11      0.75      0.00
    1    0   13     -6.04      0.00
    1    0   15     -6.78      0.00
    1    0   17     -4.22      0.00
   -1    1   18      1.92      0.00
   -1    1   17      1.10      0.00
   -1    1   16     -0.01      0.00
   -1    1   15      3.31      0.00
   -1    1   14     -3.65      0.00
   -1    1   13      4.75      0.00
   -1    1   12     -6.72      0.00
   -1    1   11      5.42      0.00
   -1    1   10    -11.30      0.00
   -1    1    9      2.56      0.00
   -1    1    8    -16.55      0.00
   -1    1    7     -7.16      0.00
   -1    1    6    -14.99      0.00
   -1    1    5    -23.79      0.00
   -1    1    4      1.06      0.00
   -1    1    3    -42.64      0.00
   -1    1    2     33.59      0.00
   -1    1    1    -50.69      0.00
    1    1    0     68.21      0.00
    1    1    1     38.01      0.00
    1    1    2     80.66      0.00
    1    1    3     14.49      0.00
    1    1    4     67.46      0.00
    1    1    5     -3.86      0.00
    1    1    6     45.63      0.00
    1    1    7    -13.02      0.00
    1    1    8     24.93      0.00
    1    1    9    -14.50      0.00
    1    1   10      7.66      0.00
    1    1   11    -10.12      0.00
    1    1   12     -2.28      0.00
    1    1   13     -4.48      0.00
    1    1   14     -5.36      0.00
    1    1   15     -0.31      0.00
    1    1   16     -4.74      0.00
    1    1   17      2.20      0.00
    1    1   18     -2.07      0.00
   -1    2   18      0.36      0.00
   -1    2   17     -1.70      0.00
   -1    2   16      3.42      0.00
   -1    2   15     -3.93      0.00
   -1    2   14      5.63      0.00
   -1    2   13     -4.66      0.00
   -1    2   12      6.66      0.00
   -1    2   11     -3.55      0.00
   -1    2   10      5.03      0.00
   -1    2    9     -1.94      0.00
   -1    2    8     -5.14      0.00
   -1    2    7      2.09      0.00
   -1    2    6    -26.39      0.00
   -1    2    5     12.24      0.00
   -1    2    4    -55.28      0.00
   -1    2    3     28.61      0.00
   -1    2    2    -78.10      0.00
   -1    2    1     45.08      0.00
    1    2    0     73.57      0.00
    1    2    1     51.57      0.00
    1    2    2     41.40      0.00
    1    2    3     44.62      0.00
    1    2    4      6.53      0.00
    1    2    5     32.09      0.00
    1    2    6    -15.03      0.00
    1    2    7     20.95      0.00
    1    2    8    -23.71      0.00
    1    2    9     11.31      0.00
    1    2   10    -21.04      0.00
    1    2   11      3.68      0.00
    1    2   12    -12.13      0.00
    1    2   13     -0.44      0.00
    1    2   14     -4.12      0.00
    1    2   15     -1.84      0.00
    1    2   16      1.42      0.00
    1    2   17     -1.62      0.00
    1    2   18      3.74      0.00
   -1    3   18     -3.56      0.00
   -1    3   17      1.75      0.00
   -1    3   16     -5.52      0.00
   -1    3   15      3.38      0.00
   -1    3   14     -4.90      0.00
   -1    3   13      3.17      0.00
   -1    3   12     -0.45      0.00
   -1    3   11      1.70      0.00
   -1    3   10      7.82      0.00
   -1    3    9     -4.84      0.00
   -1    3    8     18.23      0.00
   -1    3    7    -20.99      0.00
   -1    3    6     29.38      0.00
   -1    3    5    -45.40      0.00
   -1    3    4     38.53      0.00
   -1    3    3    -70.29      0.00
   -1    3    2     38.58      0.00
   -1    3    1    -78.16      0.00
    1    3    0     26.95      0.00
    1    3    1     56.93      0.00
    1    3    2     12.39      0.00
    1    3    3     21.51      0.00
    1    3    4      4.17      0.00
    1    3    5     -6.04      0.00
    1    3    6      2.85      0.00
    1    3    7    -20.86      0.00
    1    3    8      4.64      0.00
    1    3    9    -24.16      0.00
    1    3   10      5.84      0.00
    1    3   11    -17.65      0.00
    1    3   12      4.85      0.00
    1    3   13     -8.76      0.00
    1    3   14      2.98      0.00
    1    3   15     -2.10      0.00
    1    3   16      1.33      0.00
    1    3   17      2.22      0.00
   -1    4   18      0.75      0.00
   -1    4   17     -5.91      0.00
   -1    4   16      0.44      0.00
   -1    4   15     -5.40      0.00
   -1    4   14     -1.91      0.00
   -1    4   13     -0.50      0.00
   -1    4   12     -5.65      0.00
   -1    4   11      9.73      0.00
   -1    4   10    -10.41      0.00
   -1    4    9     24.24      0.00
   -1    4    8    -18.90      0.00
   -1    4    7     37.95      0.00
   -1    4    6    -31.69      0.00
   -1    4    5     46.15      0.00
   -1    4    4    -45.14      0.00
   -1    4    3     41.96      0.00
   -1    4    2    -51.96      0.00
   -1    4    1     20.08      0.00
    1    4    0     43.74      0.00
    1    4    1     -7.31      0.00
    1    4    2     22.94      0.00
    1    4    3    -21.34      0.00
    1    4    4      2.73      0.00
    1    4    5    -19.76      0.00
    1    4    6    -10.19      0.00
    1    4    7    -10.64      0.00
    1    4    8    -16.38      0.00
    1    4    9     -0.06      0.00
    1    4   10    -15.37      0.00
    1    4   11      6.14      0.00
    1    4   12     -9.90      0.00
    1    4   13      6.49      0.00
    1    4   14     -4.92      0.00
    1    4   15      4.62      0.00
    1    4   16     -1.22      0.00
    1    4   17      2.08      0.00
   -1    5   18     -3.77      0.00
   -1    5   17     -0.90      0.00
   -1    5   16     -4.00      0.00
   -1    5   15     -5.23      0.00
   -1    5   14     -0.28      0.00
   -1    5   13    -11.65      0.00
   -1    5   12      7.79      0.00
   -1    5   11    -17.95      0.00
   -1    5   10     20.64      0.00
   -1    5    9    -22.18      0.00
   -1    5    8     33.93      0.00
   -1    5    7    -24.40      0.00
   -1    5    6     41.16      0.00
   -1    5    5    -24.12      0.00
   -1    5    4     38.30      0.00
   -1    5    3    -19.63      0.00
   -1    5    2     20.22      0.00
   -1    5    1    -11.70      0.00
    1    5    0     -8.74      0.00
    1    5    1      4.02      0.00
    1    5    2    -29.55      0.00
    1    5    3     -0.80      0.00
    1    5    4    -32.18      0.00
    1    5    5     -3.10      0.00
    1    5    6    -23.52      0.00
    1    5    7     -4.53      0.00
    1    5    8    -10.31      0.00
    1    5    9     -5.28      0.00
    1    5   10      1.60      0.00
    1    5   11     -4.86      0.00
    1    5   12      6.22      0.00
    1    5   13     -3.98      0.00
    1    5   14      5.53      0.00
    1    5   15     -3.13      0.00
    1    5   16      3.61      0.00
    1    5   17     -1.76      0.00
   -1    6   18     -0.64      0.00
   -1    6   17     -0.55      0.00
   -1    6   16     -5.46      0.00
   -1    6   15      1.90      0.00
   -1    6   14    -12.90      0.00
   -1    6   13      6.79      0.00
   -1    6   12    -21.09      0.00
   -1    6   11     14.02      0.00
   -1    6   10    -25.65      0.00
   -1    6    9     22.12      0.00
   -1    6    8    -22.88      0.00
   -1    6    7     26.04      0.00
   -1    6    6    -13.90      0.00
   -1    6    5     22.87      0.00
   -1    6    4     -0.40      0.00
   -1    6    3     12.16      0.00
   -1    6    2     14.27      0.00
   -1    6    1     -5.75      0.00
    1    6    0    -20.94      0.00
    1    6    1    -22.43      0.00
    1    6    2    -15.97      0.00
    1    6    3    -27.95      0.00
    1    6    4     -6.48      0.00
    1    6    5    -23.80      0.00
    1    6    6      1.09      0.00
    1    6    7    -15.14      0.00
    1    6    8      4.91      0.00
    1    6    9     -4.67      0.00
    1    6   10      4.18      0.00
    1    6   11      2.22      0.00
    1    6   12      0.91      0.00
    1    6   13      3.34      0.00
    1    6   14     -1.77      0.00
    1    6   15      2.58      0.00
    1    6   16     -2.88      0.00
    1    6   17      1.54      0.00
   -1    7   18      2.79      0.00
   -1    7   17     -3.76      0.00
   -1    7   16      5.05      0.00
   -1    7   15    -10.02      0.00
   -1    7   14      7.90      0.00
   -1    7   13    -17.55      0.00
   -1    7   12     10.13      0.00
   -1    7   11    -23.21      0.00
   -1    7   10     10.76      0.00
   -1    7    9    -21.15      0.00
   -1    7    8      8.78      0.00
   -1    7    7    -10.21      0.00
   -1    7    6      3.25      0.00
   -1    7    5      5.20      0.00
   -1    7    4     -4.22      0.00
   -1    7    3     21.72      0.00
   -1    7    2    -10.87      0.00
   -1    7    1     32.30      0.00
    1    7    0    -14.85      0.00
    1    7    1    -28.64      0.00
    1    7    2    -14.95      0.00
    1    7    3    -15.31      0.00
    1    7    4    -12.27      0.00
    1    7    5     -2.20      0.00
    1    7    6     -9.10      0.00
    1    7    7      7.18      0.00
    1    7    8     -5.45      0.00
    1    7    9     10.32      0.00
    1    7   10     -1.92      0.00
    1    7   11      6.64      0.00
    1    7   12     -0.59      0.00
    1    7   13      1.53      0.00
    1    7   14     -0.52      0.00
    1    7   15     -1.50      0.00
    1    7   16      0.06      0.00
    1    7   17     -2.52      0.00
   -1    8   18     -2.14      0.00
   -1    8   17      6.91      0.00
   -1    8   16     -5.85      0.00
   -1    8   15      9.13      0.00
   -1    8   14    -10.45      0.00
   -1    8   13      9.24      0.00
   -1    8   12    -14.37      0.00
   -1    8   11      5.08      0.00
   -1    8   10    -14.14      0.00
   -1    8    9     -2.98      0.00
   -1    8    8     -6.51      0.00
   -1    8    7    -11.84      0.00
   -1    8    6      5.40      0.00
   -1    8    5    -18.99      0.00
   -1    8    4     17.03      0.00
   -1    8    3    -21.26      0.00
   -1    8    2     25.85      0.00
   -1    8    1    -15.95      0.00
    1    8    0    -26.60      0.00
    1    8    1     -6.51      0.00
    1    8    2    -18.12      0.00
    1    8    3      0.50      0.00
    1    8    4     -7.20      0.00
    1    8    5      2.65      0.00
    1    8    6      2.14      0.00
    1    8    7      1.17      0.00
    1    8    8      8.43      0.00
    1    8    9     -1.66      0.00
    1    8   10      8.33      0.00
    1    8   11     -3.58      0.00
    1    8   12      3.90      0.00
    1    8   13     -3.74      0.00
    1    8   14      0.51      0.00
    1    8   15     -2.42      0.00
    1    8   16     -1.11      0.00
    1    8   17     -0.63      0.00
   -1    9   18      6.26      0.00
   -1    9   17     -2.74      0.00
   -1    9   16      8.49      0.00
   -1    9   15     -4.17      0.00
   -1    9   14      8.28      0.00
   -1    9   13     -4.40      0.00
   -1    9   12      3.70      0.00
   -1    9   11     -2.95      0.00
   -1    9   10     -6.34      0.00
   -1    9    9      0.93      0.00
   -1    9    8    -17.63      0.00
   -1    9    7      6.67      0.00
   -1    9    6    -25.03      0.00
   -1    9    5     11.07      0.00
   -1    9    4    -26.84      0.00
   -1    9    3     12.83      0.00
   -1    9    2    -20.69      0.00
   -1    9    1     12.42      0.00
    1    9    0     -7.28      0.00
    1    9    1     -9.46      0.00
    1    9    2      4.97      0.00
    1    9    3     -5.55      0.00
    1    9    4     10.06      0.00
    1    9    5     -2.24      0.00
    1    9    6      8.68      0.00
    1    9    7      1.36      0.00
    1    9    8      2.90      0.00
    1    9    9      3.67      0.00
    1    9   10     -3.21      0.00
    1    9   11      2.75      0.00
    1    9   12     -5.34      0.00
    1    9   13      1.05      0.00
    1    9   14     -4.07      0.00
    1    9   15      0.36      0.00
    1    9   16     -1.84      0.00
    1    9   17     -0.24      0.00
   -1   10   17      5.90      0.00
   -1   10   16     -0.68      0.00
   -1   10   15      5.59      0.00
   -1   10   14      1.72      0.00
   -1   10   13      2.24      0.00
   -1   10   12      6.10      0.00
   -1   10   11     -5.10      0.00
   -1   10   10      9.86      0.00
   -1   10    9    -14.80      0.00
   -1   10    8     10.89      0.00
   -1   10    7    -21.55      0.00
   -1   10    6      8.96      0.00
   -1   10    5    -23.13      0.00
   -1   10    4      4.18      0.00
   -1   10    3    -19.85      0.00
   -1   10    2     -1.51      0.00
   -1   10    1    -10.59      0.00
    1   10    0      4.51      0.00
    1   10    1      1.16      0.00
    1   10    2      3.42      0.00
    1   10    3      8.32      0.00
    1   10    4     -0.22      0.00
    1   10    5      9.51      0.00
    1   10    6     -3.25      0.00
    1   10    7      5.98      0.00
    1   10    8     -3.55      0.00
    1   10    9     -0.37      0.00
    1   10   10     -2.13      0.00
    1   10   11     -4.43      0.00
    1   10   12     -0.70      0.00
    1   10   13     -3.99      0.00
    1   10   14      0.51      0.00
    1   10   15     -2.00      0.00
    1   10   16      0.96      0.00
    1   10   17     -0.43      0.00
   -1   11   17      0.54      0.00
   -1   11   16      2.22      0.00
   -1   11   15      3.49      0.00
   -1   11   14     -0.62      0.00
   -1   11   13      8.86      0.00
   -1   11   12     -4.71      0.00
   -1   11   11     14.24      0.00
   -1   11   10     -9.27      0.00
   -1   11    9     14.89      0.00
   -1   11    8    -12.61      0.00
   -1   11    7      9.99      0.00
   -1   11    6    -12.96      0.00
   -1   11    5      2.15      0.00
   -1   11    4    -11.38      0.00
   -1   11    3     -6.74      0.00
   -1   11    2     -8.39      0.00
   -1   11    1    -13.10      0.00
    1   11    0     -3.30      0.00
    1   11    1     12.60      0.00
    1   11    2      1.27      0.00
    1   11    3      6.15      0.00
    1   11    4      3.11      0.00
    1   11    5     -1.74      0.00
    1   11    6      2.90      0.00
    1   11    7     -6.96      0.00
    1   11    8      0.68      0.00
    1   11    9     -7.22      0.00
    1   11   10     -2.07      0.00
    1   11   11     -3.96      0.00
    1   11   12     -2.30      0.00
    1   11   13     -0.64      0.00
    1   11   14     -0.81      0.00
    1   11   15      1.18      0.00
    1   11   16      0.08      0.00
   -1   12   17     -0.22      0.00
   -1   12   16      3.05      0.00
   -1   12   15     -2.92      0.00
   -1   12   14      7.04      0.00
   -1   12   13     -5.92      0.00
   -1   12   12     11.81      0.00
   -1   12   11     -6.51      0.00
   -1   12   10     13.77      0.00
   -1   12    9     -4.80      0.00
   -1   12    8     10.12      0.00
   -1   12    7     -2.35      0.00
   -1   12    6      3.09      0.00
   -1   12    5     -0.47      0.00
   -1   12    4     -4.58      0.00
   -1   12    3     -0.54      0.00
   -1   12    2    -11.67      0.00
   -1   12    1     -2.17      0.00
    1   12    0     14.41      0.00
    1   12    1     -3.70      0.00
    1   12    2     10.33      0.00
    1   12    3     -4.64      0.00
    1   12    4      2.53      0.00
    1   12    5     -4.34      0.00
    1   12    6     -4.69      0.00
    1   12    7     -2.66      0.00
    1   12    8     -8.04      0.00
    1   12    9     -1.15      0.00
    1   12   10     -6.20      0.00
    1   12   11     -0.10      0.00
    1   12   12     -2.15      0.00
    1   12   13      1.07      0.00
    1   12   14      0.57      0.00
    1   12   15      1.42      0.00
    1   12   16      1.45      0.00
   -1   13   17      2.06      0.00
   -1   13   16     -3.34      0.00
   -1   13   15      4.33      0.00
   -1   13   14     -6.03      0.00
   -1   13   13      6.45      0.00
   -1   13   12     -6.08      0.00
   -1   13   11      7.44      0.00
   -1   13   10     -1.94      0.00
   -1   13    9      5.96      0.00
   -1   13    8      3.29      0.00
   -1   13    7      2.34      0.00
   -1   13    6      6.49      0.00
   -1   13    5     -1.26      0.00
   -1   13    4      6.65      0.00
   -1   13    3     -4.71      0.00
   -1   13    2      3.14      0.00
   -1   13    1     -7.87      0.00
    1   13    0     -2.77      0.00
    1   13    1      7.85      0.00
    1   13    2     -7.81      0.00
    1   13    3      4.07      0.00
    1   13    4     -9.68      0.00
    1   13    5     -0.68      0.00
    1   13    6     -7.60      0.00
    1   13    7     -4.21      0.00
    1   13    8     -3.04      0.00
    1   13    9     -4.81      0.00
    1   13   10      0.82      0.00
    1   13   11     -2.49      0.00
    1   13   12      2.62      0.00
    1   13   13     -0.02      0.00
    1   13   14      2.82      0.00
    1   13   15      1.02      0.00
    1   13   16      1.74      0.00
   -1   14   16      2.28      0.00
   -1   14   15     -4.19      0.00
   -1   14   14      2.50      0.00
   -1   14   13     -4.66      0.00
   -1   14   12      1.02      0.00
   -1   14   11     -1.77      0.00
   -1   14   10     -0.77      0.00
   -1   14    9      3.21      0.00
   -1   14    8     -1.67      0.00
   -1   14    7      6.73      0.00
   -1   14    6     -1.19      0.00
   -1   14    5      7.70      0.00
   -1   14    4      0.34      0.00
   -1   14    3      6.09      0.00
   -1   14    2      0.84      0.00
   -1   14    1      1.18      0.00
    1   14    0      0.22      0.00
    1   14    1     -5.31      0.00
    1   14    2      0.80      0.00
    1   14    3     -9.47      0.00
    1   14    4      0.59      0.00
    1   14    5     -9.32      0.00
    1   14    6      0.24      0.00
    1   14    7     -5.32      0.00
    1   14    8     -0.34      0.00
    1   14    9     -0.21      0.00
    1   14   10     -0.41      0.00
    1   14   11      2.85      0.00
    1   14   12      0.31      0.00
    1   14   13      3.42      0.00
    1   14   14      0.70      0.00
    1   14   15      2.53      0.00
    1   14   16      0.62      0.00
   -1   15   16     -2.02      0.00
   -1   15   15      0.59      0.00
   -1   15   14     -1.85      0.00
   -1   15   13     -1.81      0.00
   -1   15   12     -0.53      0.00
   -1   15   11     -5.02      0.00
   -1   15   10      1.50      0.00
   -1   15    9     -5.92      0.00
   -1   15    8      2.82      0.00
   -1   15    7     -3.81      0.00
   -1   15    6      2.88      0.00
   -1   15    5      0.35      0.00
   -1   15    4      2.74      0.00
   -1   15    3      4.70      0.00
   -1   15    2      1.89      0.00
   -1   15    1      6.32      0.00
    1   15    0     -1.29      0.00
    1   15    1     -4.59      0.00
    1   15    2     -5.04      0.00
    1   15    3     -1.42      0.00
    1   15    4     -6.36      0.00
    1   15    5      1.81      0.00
    1   15    6     -4.68      0.00
    1   15    7      3.65      0.00
    1   15    8     -1.32      0.00
    1   15    9      3.24      0.00
    1   15   10      1.67      0.00
    1   15   11      2.05      0.00
    1   15   12      2.82      0.00
    1   15   13      1.17      0.00
    1   15   14      2.46      0.00
    1   15   15      0.40      0.00
   -1   16   16     -0.39      0.00
   -1   16   15      0.20      0.00
   -1   16   14     -1.99      0.00
   -1   16   13      1.63      0.00
   -1   16   12     -4.84      0.00
   -1   16   11      1.67      0.00
   -1   16   10     -6.46      0.00
   -1   16    9     -0.19      0.00
   -1   16    8     -5.20      0.00
   -1   16    7     -2.77      0.00
   -1   16    6     -1.80      0.00
   -1   16    5     -4.07      0.00
   -1   16    4      2.81      0.00
   -1   16    3     -2.79      0.00
   -1   16    2      6.68      0.00
   -1   16    1     -0.90      0.00
    1   16    0     -7.06      0.00
    1   16    1     -0.87      0.00
    1   16    2     -3.76      0.00
    1   16    3     -1.47      0.00
    1   16    4      0.92      0.00
    1   16    5     -1.12      0.00
    1   16    6      4.69      0.00
    1   16    7     -0.31      0.00
    1   16    8      5.76      0.00
    1   16    9      0.60      0.00
    1   16   10      4.37      0.00
    1   16   11      1.34      0.00
    1   16   12      2.48      0.00
    1   16   13      1.41      0.00
    1   16   14      0.92      0.00
    1   16   15      0.94      0.00
   -1   17   15     -1.61      0.00
   -1   17   14      2.44      0.00
   -1   17   13     -2.75      0.00
   -1   17   12      2.77      0.00
   -1   17   11     -3.41      0.00
   -1   17   10     -0.18      0.00
   -1   17    9     -2.94      0.00
   -1   17    8     -4.79      0.00
   -1   17    7     -1.71      0.00
   -1   17    6     -8.35      0.00
   -1   17    5     -0.01      0.00
   -1   17    4     -8.45      0.00
   -1   17    3      2.33      0.00
   -1   17    2     -4.70      0.00
   -1   17    1      4.03      0.00
    1   17    0     -0.48      0.00
    1   17    1     -3.04      0.00
    1   17    2      1.56      0.00
    1   17    3      0.38      0.00
    1   17    4      2.32      0.00
    1   17    5      3.86      0.00
    1   17    6      2.19      0.00
    1   17    7      5.64      0.00
    1   17    8      1.09      0.00
    1   17    9      5.33      0.00
    1   17   10      0.20      0.00
    1   17   11      3.74      0.00
    1   17   12     -0.07      0.00
    1   17   13      1.92      0.00
    1   17   14     -0.20      0.00
    1   17   15      0.32      0.00
   -1   18   15      1.64      0.00
   -1   18   14     -1.24      0.00
   -1   18   13      2.54      0.00
   -1   18   12     -0.18      0.00
   -1   18   11      0.81      0.00
   -1   18   10      1.14      0.00
   -1   18    9     -3.28      0.00
   -1   18    8      1.38      0.00
   -1   18    7     -7.45      0.00
   -1   18    6      0.35      0.00
   -1   18    5     -9.58      0.00
   -1   18    4     -1.00      0.00
   -1   18    3     -7.77      0.00
   -1   18    2     -1.38      0.00
   -1   18    1     -2.91      0.00
    1   18    0      1.17      0.00
    1   18    1      1.27      0.00
    1   18    2      2.06      0.00
    1   18    3      3.16      0.00
    1   18    4      3.64      0.00
    1   18    5      3.48      0.00
    1   18    6      4.36      0.00
    1   18    7      2.30      0.00
    1   18    8      4.20      0.00
    1   18    9      0.30      0.00
    1   18   10      3.60      0.00
    1   18   11     -1.08      0.00
    1   18   12      2.49      0.00
    1   18   13     -1.53      0.00
    1   18   14      1.05      0.00
   -1   19   15     -0.49      0.00
   -1   19   14      1.15      0.00
   -1   19   13      1.13      0.00
   -1   19   12      0.55      0.00
   -1   19   11      3.64      0.00
   -1   19   10     -1.39      0.00
   -1   19    9      4.55      0.00
   -1   19    8     -3.81      0.00
   -1   19    7      3.00      0.00
   -1   19    6     -5.78      0.00
   -1   19    5     -0.36      0.00
   -1   19    4     -6.02      0.00
   -1   19    3     -3.89      0.00
   -1   19    2     -3.66      0.00
   -1   19    1     -5.34      0.00
    1   19    0     -0.30      0.00
    1   19    1      5.06      0.00
    1   19    2      1.79      0.00
    1   19    3      4.72      0.00
    1   19    4      2.38      0.00
    1   19    5      3.95      0.00
    1   19    6      2.08      0.00
    1   19    7      2.58      0.00
    1   19    8      0.76      0.00
    1   19    9      1.88      0.00
    1   19   10     -1.07      0.00
    1   19   11      1.72      0.00
    1   19   12     -2.30      0.00
    1   19   13      1.21      0.00
    1   19   14     -2.31      0.00
   -1   20   14      1.16      0.00
   -1   20   13     -0.54      0.00
   -1   20   12      3.55      0.00
   -1   20   11     -1.08      0.00
   -1   20   10      5.17      0.00
   -1   20    9     -1.12      0.00
   -1   20    8      4.52      0.00
   -1   20    7     -1.10      0.00
   -1   20    6      1.82      0.00
   -1   20    5     -1.01      0.00
   -1   20    4     -2.32      0.00
   -1   20    3     -0.51      0.00
   -1   20    2     -5.76      0.00
   -1   20    1      0.25      0.00
    1   20    0      6.49      0.00
    1   20    1      0.65      0.00
    1   20    2      5.56      0.00
    1   20    3      0.43      0.00
    1   20    4      4.25      0.00
    1   20    5      0.09      0.00
    1   20    6      2.11      0.00
    1   20    7     -0.08      0.00
    1   20    8      0.20      0.00
    1   20    9     -0.84      0.00
    1   20   10     -0.13      0.00
    1   20   11     -2.16      0.00
    1   20   12      0.32      0.00
    1   20   13     -2.74      0.00
   -1   21   14     -1.08      0.00
   -1   21   13      2.33      0.00
   -1   21   12     -1.66      0.00
   -1   21   11      3.47      0.00
   -1   21   10     -0.57      0.00
   -1   21    9      3.36      0.00
   -1   21    8      1.22      0.00
   -1   21    7      2.16      0.00
   -1   21    6      2.78      0.00
   -1   21    5     -0.10      0.00
   -1   21    4      3.77      0.00
   -1   21    3     -2.96      0.00
   -1   21    2      3.34      0.00
   -1   21    1     -4.54      0.00
    1   21    0      1.66      0.00
    1   21    1      4.33      0.00
    1   21    2     -0.17      0.00
    1   21    3      3.50      0.00
    1   21    4     -1.63      0.00
    1   21    5      2.09      0.00
    1   21    6     -2.05      0.00
    1   21    7     -0.13      0.00
    1   21    8     -1.62      0.00
    1   21    9     -1.52      0.00
    1   21   10     -1.72      0.00
    1   21   11     -1.13      0.00
    1   21   12     -2.27      0.00
    1   21   13     -0.07      0.00
   -1   22   13     -1.82      0.00
   -1   22   12      1.46      0.00
   -1   22   11     -1.07      0.00
   -1   22   10      0.82      0.00
   -1   22    9      1.12      0.00
   -1   22    8      0.27      0.00
   -1   22    7      3.33      0.00
   -1   22    6     -0.08      0.00
   -1   22    5      5.26      0.00
   -1   22    4     -0.59      0.00
   -1   22    3      5.81      0.00
   -1   22    2     -0.99      0.00
   -1   22    1      3.97      0.00
    1   22    0      0.96      0.00
    1   22    1      1.12      0.00
    1   22    2      0.86      0.00
    1   22    3     -1.37      0.00
    1   22    4      0.78      0.00
    1   22    5     -3.00      0.00
    1   22    6     -0.07      0.00
    1   22    7     -2.96      0.00
    1   22    8     -1.49      0.00
    1   22    9     -1.88      0.00
    1   22   10     -1.86      0.00
    1   22   11     -1.39      0.00
    1   22   12     -0.81      0.00
   -1   23   12     -1.24      0.00
   -1   23   11     -1.02      0.00
   -1   23   10      0.19      0.00
   -1   23    9     -1.96      0.00
   -1   23    8      1.85      0.00
   -1   23    7     -1.62      0.00
   -1   23    6      3.49      0.00
   -1   23    5     -0.53      0.00
   -1   23    4      4.93      0.00
   -1   23    3      1.06      0.00
   -1   23    2      4.70      0.00
   -1   23    1      2.37      0.00
    1   23    0      2.69      0.00
    1   23    1     -2.58      0.00
    1   23    2      0.35      0.00
    1   23    3     -1.94      0.00
    1   23    4     -1.76      0.00
    1   23    5     -1.25      0.00
    1   23    6     -2.95      0.00
    1   23    7     -1.15      0.00
    1   23    8     -2.27      0.00
    1   23    9     -1.36      0.00
    1   23   10     -0.86      0.00
    1   23   11     -0.90      0.00
    1   23   12     -0.30      0.00
   -1   24   12     -1.13      0.00
   -1   24   11     -0.20      0.00
   -1   24   10     -2.78      0.00
   -1   24    9      0.29      0.00
   -1   24    8     -2.73      0.00
   -1   24    7      0.71      0.00
   -1   24    6     -1.44      0.00
   -1   24    5      1.60      0.00
   -1   24    4      0.82      0.00
   -1   24    3      2.46      0.00
   -1   24    2      3.44      0.00
   -1   24    1      2.44      0.00
    1   24    0     -4.73      0.00
    1   24    1      1.65      0.00
    1   24    2     -4.37      0.00
    1   24    3      0.44      0.00
    1   24    4     -3.33      0.00
    1   24    5     -0.95      0.00
    1   24    6     -1.98      0.00
    1   24    7     -1.44      0.00
    1   24    8     -0.85      0.00
    1   24    9     -0.53      0.00
    1   24   10     -0.27      0.00
    1   24   11      0.37      0.00
   -1   25   11     -1.79      0.00
   -1   25   10     -0.17      0.00
   -1   25    9     -2.32      0.00
   -1   25    8     -1.06      0.00
   -1   25    7     -1.55      0.00
   -1   25    6     -1.41      0.00
   -1   25    5      0.02      0.00
   -1   25    4     -0.96      0.00
   -1   25    3      2.41      0.00
   -1   25    2      0.09      0.00
   -1   25    1      4.41      0.00
    1   25    0      1.17      0.00
    1   25    1     -4.86      0.00
    1   25    2      1.67      0.00
    1   25    3     -4.41      0.00
    1   25    4      1.36      0.00
    1   25    5     -3.38      0.00
    1   25    6      0.74      0.00
    1   25    7     -1.55      0.00
    1   25    8      0.55      0.00
    1   25    9     -0.01      0.00
    1   25   10      0.76      0.00
   -1   26   10     -0.65      0.00
   -1   26    9     -1.13      0.00
   -1   26    8     -0.50      0.00
   -1   26    7     -2.47      0.00
   -1   26    6      0.08      0.00
   -1   26    5     -2.92      0.00
   -1   26    4      1.18      0.00
   -1   26    3     -2.32      0.00
   -1   26    2      2.55      0.00
   -1   26    1     -0.57      0.00
    1   26    0     -3.27      0.00
    1   26    1      1.24      0.00
    1   26    2     -3.44      0.00
    1   26    3      2.19      0.00
    1   26    4     -3.46      0.00
    1   26    5      2.47      0.00
    1   26    6     -2.59      0.00
    1   26    7      2.23      0.00
    1   26    8     -0.88      0.00
    1   26    9      1.50      0.00
   -1   27    9      0.97      0.00
   -1   27    8     -1.62      0.00
   -1   27    7      0.82      0.00
   -1   27    6     -2.54      0.00
   -1   27    5      0.83      0.00
   -1   27    3      0.98      0.00
   -1   27    2     -1.77      0.00
   -1   27    1      1.03      0.00
    1   27    0      0.07      0.00
    1   27    1     -1.14      0.00
    1   27    2      1.50      0.00
    1   27    3     -1.72      0.00
    1   27    4      2.36      0.00
    1   27    5     -2.24      0.00
    1   27    6      2.90      0.00
    1   27    7     -1.81      0.00
    1   27    8      2.37      0.00
   -1   28    8      1.41      0.00
   -1   28    7     -0.78      0.00
   -1   28    6      0.89      0.00
   -1   28    5     -1.21      0.00
   -1   28    4      0.48      0.00
   -1   28    3     -1.15      0.00
   -1   28    2     -0.26      0.00
   -1   28    1     -0.31      0.00
    1   28    0      0.87      0.00
    1   28    1      0.55      0.00
    1   28    2      0.56      0.00
    1   28    3      1.06      0.00
    1   28    4     -0.44      0.00
    1   28    5      1.79      0.00
    1   28    6     -1.37      0.00
    1   28    7      2.19      0.00
   -1   29    7      0.66      0.00
   -1   29    6      0.69      0.00
   -1   29    5      0.32      0.00
   -1   29    4      0.55      0.00
   -1   29    3     -0.30      0.00
   -1   29    2      0.61      0.00
   -1   29    1     -1.40      0.00
    1   29    0      0.53      0.00
    1   29    1      1.86      0.00
    1   29    2      0.13      0.00
    1   29    3      1.30      0.00
    1   29    4      0.10      0.00
    1   29    5      0.16      0.00
    1   29    6      0.72      0.00
   -1   30    5      1.65      0.00
   -1   30    4     -0.13      0.00
   -1   30    3      1.77      0.00
   -1   30    2     -0.77      0.00
   -1   30    1      1.46      0.00
    1   30    0      1.63      0.00
    1   30    1      0.36      0.00
    1   30    2      1.81      0.00
    1   30    3     -0.65      0.00
    1   30    4      1.28      0.00
   -1   31    1     -0.66      0.00
    1   31    0      1.27      0.00
   -2    0   18     -3.29      0.00
   -2    0   16     -2.82      0.00
   -2    0   14     -1.27      0.00
   -2    0   12      1.96      0.00
   -2    0   10      5.26      0.00
   -2    0    8      4.33      0.00
   -2    0    6     -0.32      0.00
   -2    0    4     -4.97      0.00
   -2    0    2     -6.22      0.00
    2    0    0     -0.35      0.00
    2    0    2      9.74      0.00
    2    0    4     16.02      0.00
    2    0    6     17.11      0.00
    2    0    8     14.32      0.00
    2    0   10      6.91      0.00
    2    0   12     -0.76      0.00
    2    0   14     -3.70      0.00
    2    0   16     -3.53      0.00
   -2    1   19     -2.56      0.00
   -2    1   18     -1.54      0.00
   -2    1   17     -3.19      0.00
   -2    1   16     -2.42      0.00
   -2    1   15     -2.69      0.00
   -2    1   14     -2.51      0.00
   -2    1   13     -0.81      0.00
   -2    1   12     -1.97      0.00
   -2    1   11      2.58      0.00
   -2    1   10      0.40      0.00
   -2    1    9      4.23      0.00
   -2    1    8      4.02      0.00
   -2    1    7      2.39      0.00
   -2    1    6      5.69      0.00
   -2    1    5     -0.07      0.00
   -2    1    4      2.90      0.00
   -2    1    3     -0.95      0.00
   -2    1    2     -4.63      0.00
   -2    1    1      1.47      0.00
    2    1    0     12.46      0.00
    2    1    1      7.87      0.00
    2    1    2     13.95      0.00
    2    1    3     13.69      0.00
    2    1    4      9.45      0.00
    2    1    5     15.54      0.00
    2    1    6      4.19      0.00
    2    1    7     14.50      0.00
    2    1    8     -0.07      0.00
    2    1    9      9.77      0.00
    2    1   10     -2.73      0.00
    2    1   11      2.39      0.00
    2    1   12     -2.48      0.00
    2    1   13     -2.31      0.00
    2    1   14     -0.78      0.00
    2    1   15     -3.08      0.00
    2    1   16      0.45      0.00
    2    1   17     -2.52      0.00
   -2    2   19     -1.15      0.00
   -2    2   18     -2.45      0.00
   -2    2   17     -3.04      0.00
   -2    2   16     -3.58      0.00
   -2    2   15     -3.96      0.00
   -2    2   14     -3.62      0.00
   -2    2   13     -4.12      0.00
   -2    2   12     -1.82      0.00
   -2    2   11     -2.38      0.00
   -2    2   10      0.64      0.00
   -2    2    9      2.30      0.00
   -2    2    8      2.25      0.00
   -2    2    7      6.04      0.00
   -2    2    6      4.78      0.00
   -2    2    5      4.42      0.00
   -2    2    4      9.58      0.00
   -2    2    3     -3.91      0.00
   -2    2    2     13.97      0.00
   -2    2    1    -16.07      0.00
    2    2    0     15.55      0.00
    2    2    1     22.83      0.00
    2    2    2     14.59      0.00
    2    2    3     18.87      0.00
    2    2    4     12.59      0.00
    2    2    5     10.36      0.00
    2    2    6     10.89      0.00
    2    2    7      2.86      0.00
    2    2    8      8.44      0.00
    2    2    9     -3.00      0.00
    2    2   10      3.94      0.00
    2    2   11     -4.79      0.00
    2    2   12     -0.13      0.00
    2    2   13     -2.48      0.00
    2    2   14     -1.44      0.00
    2    2   15      0.02      0.00
    2    2   16     -1.32      0.00
    2    2   17      1.37      0.00
   -2    3   18     -1.46      0.00
   -2    3   17     -2.85      0.00
   -2    3   16     -3.06      0.00
   -2    3   15     -4.66      0.00
   -2    3   14     -4.27      0.00
   -2    3   13     -4.77      0.00
   -2    3   12     -4.76      0.00
   -2    3   11     -3.29      0.00
   -2    3   10     -2.59      0.00
   -2    3    9     -0.47      0.00
   -2    3    8      0.31      0.00
   -2    3    7      5.29      0.00
   -2    3    6     -0.84      0.00
   -2    3    5     15.16      0.00
   -2    3    4     -6.80      0.00
   -2    3    3     25.46      0.00
   -2    3    2    -15.69      0.00
   -2    3    1     28.61      0.00
    2    3    0     22.69      0.00
    2    3    1     22.23      0.00
    2    3    2     21.41      0.00
    2    3    3     12.89      0.00
    2    3    4     13.59      0.00
    2    3    5      7.13      0.00
    2    3    6      5.64      0.00
    2    3    7      4.43      0.00
    2    3    8     -1.09      0.00
    2    3    9      2.28      0.00
    2    3   10     -5.05      0.00
    2    3   11      0.72      0.00
    2    3   12     -3.86      0.00
    2    3   13      0.24      0.00
    2    3   14     -0.72      0.00
    2    3   15      0.28      0.00
    2    3   16      1.02      0.00
    2    3   17      0.10      0.00
   -2    4   18     -1.23      0.00
   -2    4   17     -0.49      0.00
   -2    4   16     -3.48      0.00
   -2    4   15     -2.13      0.00
   -2    4   14     -4.77      0.00
   -2    4   13     -4.45      0.00
   -2    4   12     -4.36      0.00
   -2    4   11     -6.04      0.00
   -2    4   10     -2.12      0.00
   -2    4    9     -6.68      0.00
   -2    4    8      3.88      0.00
   -2    4    7     -9.63      0.00
   -2    4    6     14.52      0.00
   -2    4    5    -15.15      0.00
   -2    4    4     27.16      0.00
   -2    4    3    -19.33      0.00
   -2    4    2     34.74      0.00
   -2    4    1    -20.05      0.00
    2    4    0     30.18      0.00
    2    4    1     16.77      0.00
    2    4    2     17.06      0.00
    2    4    3     10.50      0.00
    2    4    4      6.36      0.00
    2    4    5      4.56      0.00
    2    4    6      1.36      0.00
    2    4    7     -0.16      0.00
    2    4    8     -0.72      0.00
    2    4    9     -3.74      0.00
    2    4   10     -0.51      0.00
    2    4   11     -3.85      0.00
    2    4   12      0.88      0.00
    2    4   13     -1.17      0.00
    2    4   14      1.40      0.00
    2    4   15      0.64      0.00
    2    4   16      1.07      0.00
    2    4   17      1.09      0.00
   -2    5   18      1.59      0.00
   -2    5   17     -1.45      0.00
   -2    5   16      0.70      0.00
   -2    5   15     -2.57      0.00
   -2    5   14     -1.98      0.00
   -2    5   13     -2.18      0.00
   -2    5   12     -6.00      0.00
   -2    5   11     -0.43      0.00
   -2    5   10    -10.39      0.00
   -2    5    9      4.20      0.00
   -2    5    8    -16.00      0.00
   -2    5    7     12.54      0.00
   -2    5    6    -22.73      0.00
   -2    5    5     22.01      0.00
   -2    5    4    -25.90      0.00
   -2    5    3     29.02      0.00
   -2    5    2    -21.44      0.00
   -2    5    1     28.53      0.00
    2    5    0     12.05      0.00
    2    5    1     18.81      0.00
    2    5    2      3.68      0.00
    2    5    3      7.41      0.00
    2    5    4     -0.76      0.00
    2    5    5      0.88      0.00
    2    5    6     -2.52      0.00
    2    5    7     -2.08      0.00
    2    5    8     -3.35      0.00
    2    5    9     -2.14      0.00
    2    5   10     -2.83      0.00
    2    5   11      0.37      0.00
    2    5   12     -0.91      0.00
    2    5   13      1.86      0.00
    2    5   14      0.45      0.00
    2    5   15      1.39      0.00
    2    5   16      0.49      0.00
    2    5   17      0.63      0.00
   -2    6   18     -0.09      0.00
   -2    6   17      2.11      0.00
   -2    6   16     -0.13      0.00
   -2    6   15      0.34      0.00
   -2    6   14      1.18      0.00
   -2    6   13     -3.78      0.00
   -2    6   12      3.66      0.00
   -2    6   11     -9.79      0.00
   -2    6   10      7.21      0.00
   -2    6    9    -17.09      0.00
   -2    6    8     12.52      0.00
   -2    6    7    -24.32      0.00
   -2    6    6     17.12      0.00
   -2    6    5    -28.12      0.00
   -2    6    4     18.48      0.00
   -2    6    3    -23.91      0.00
   -2    6    2     16.91      0.00
   -2    6    1    -11.78      0.00
    2    6    0     12.06      0.00
    2    6    1     -0.54      0.00
    2    6    2      5.37      0.00
    2    6    3     -6.32      0.00
    2    6    4      0.84      0.00
    2    6    5     -6.77      0.00
    2    6    6     -1.42      0.00
    2    6    7     -5.12      0.00
    2    6    8     -2.13      0.00
    2    6    9     -2.40      0.00
    2    6   10     -0.25      0.00
    2    6   11     -0.04      0.00
    2    6   12      1.79      0.00
    2    6   13      0.58      0.00
    2    6   14      1.42      0.00
    2    6   15      0.04      0.00
    2    6   16      0.39      0.00
    2    6   17     -0.49      0.00
   -2    7   18      1.56      0.00
   -2    7   17      1.24      0.00
   -2    7   16      0.73      0.00
   -2    7   15      3.35      0.00
   -2    7   14     -2.19      0.00
   -2    7   13      7.10      0.00
   -2    7   12     -7.13      0.00
   -2    7   11     10.96      0.00
   -2    7   10    -13.74      0.00
   -2    7    9     14.11      0.00
   -2    7    8    -19.95      0.00
   -2    7    7     14.98      0.00
   -2    7    6    -22.91      0.00
   -2    7    5     11.13      0.00
   -2    7    4    -20.67      0.00
   -2    7    3      4.51      0.00
   -2    7    2    -11.94      0.00
   -2    7    1     -0.36      0.00
    2    7    0     -0.02      0.00
    2    7    1     -2.20      0.00
    2    7    2     -7.71      0.00
    2    7    3     -2.01      0.00
    2    7    4     -9.06      0.00
    2    7    5     -1.22      0.00
    2    7    6     -7.15      0.00
    2    7    7     -0.84      0.00
    2    7    8     -3.26      0.00
    2    7    9      0.14      0.00
    2    7   10      0.51      0.00
    2    7   11      1.51      0.00
    2    7   12      1.16      0.00
    2    7   13      1.27      0.00
    2    7   14     -0.19      0.00
    2    7   15      0.07      0.00
    2    7   16     -1.06      0.00
    2    7   17     -0.36      0.00
   -2    8   18      1.75      0.00
   -2    8   17     -0.51      0.00
   -2    8   16      3.76      0.00
   -2    8   15     -2.56      0.00
   -2    8   14      7.70      0.00
   -2    8   13     -5.56      0.00
   -2    8   12     12.27      0.00
   -2    8   11     -9.21      0.00
   -2    8   10     14.89      0.00
   -2    8    9    -12.68      0.00
   -2    8    8     13.79      0.00
   -2    8    7    -13.40      0.00
   -2    8    6      7.87      0.00
   -2    8    5    -11.03      0.00
   -2    8    4     -1.70      0.00
   -2    8    3     -6.83      0.00
   -2    8    2     -9.59      0.00
   -2    8    1     -0.68      0.00
    2    8    0    -11.12      0.00
    2    8    1     -5.13      0.00
    2    8    2     -7.62      0.00
    2    8    3     -7.30      0.00
    2    8    4     -3.37      0.00
    2    8    5     -6.64      0.00
    2    8    6     -0.56      0.00
    2    8    7     -3.94      0.00
    2    8    8      1.00      0.00
    2    8    9      0.07      0.00
    2    8   10      1.50      0.00
    2    8   11      1.64      0.00
    2    8   12      0.80      0.00
    2    8   13      0.07      0.00
    2    8   14     -0.30      0.00
    2    8   15     -1.29      0.00
    2    8   16     -0.61      0.00
   -2    9   18     -1.81      0.00
   -2    9   17      3.37      0.00
   -2    9   16     -3.80      0.00
   -2    9   15      6.05      0.00
   -2    9   14     -5.90      0.00
   -2    9   13      9.80      0.00
   -2    9   12     -6.70      0.00
   -2    9   11     12.36      0.00
   -2    9   10     -6.27      0.00
   -2    9    9     11.09      0.00
   -2    9    8     -4.19      0.00
   -2    9    7      5.44      0.00
   -2    9    6     -0.26      0.00
   -2    9    5     -3.00      0.00
   -2    9    4      2.56      0.00
   -2    9    3    -11.24      0.00
   -2    9    2      3.00      0.00
   -2    9    1    -14.80      0.00
    2    9    0     -3.15      0.00
    2    9    1    -11.95      0.00
    2    9    2     -3.42      0.00
    2    9    3     -6.54      0.00
    2    9    4     -3.39      0.00
    2    9    5     -2.20      0.00
    2    9    6     -2.75      0.00
    2    9    7      0.65      0.00
    2    9    8     -0.64      0.00
    2    9    9      1.51      0.00
    2    9   10      1.16      0.00
    2    9   11      0.32      0.00
    2    9   12      0.38      0.00
    2    9   13     -0.89      0.00
    2    9   14     -1.06      0.00
    2    9   15     -0.88      0.00
    2    9   16     -1.31      0.00
   -2   10   18      2.91      0.00
   -2   10   17     -4.19      0.00
   -2   10   16      4.18      0.00
   -2   10   15     -6.35      0.00
   -2   10   14      5.59      0.00
   -2   10   13     -6.36      0.00
   -2   10   12      6.51      0.00
   -2   10   11     -3.28      0.00
   -2   10   10      5.46      0.00
   -2   10    9      1.44      0.00
   -2   10    8      1.40      0.00
   -2   10    7      6.67      0.00
   -2   10    6     -4.02      0.00
   -2   10    5     10.25      0.00
   -2   10    4     -8.77      0.00
   -2   10    3      9.23      0.00
   -2   10    2    -11.75      0.00
   -2   10    1      4.88      0.00
    2   10    0    -11.19      0.00
    2   10    1     -1.27      0.00
    2   10    2     -7.59      0.00
    2   10    3     -0.02      0.00
    2   10    4     -4.02      0.00
    2   10    5     -0.30      0.00
    2   10    6     -1.23      0.00
    2   10    7     -0.47      0.00
    2   10    8      0.56      0.00
    2   10    9     -0.02      0.00
    2   10   10      0.01      0.00
    2   10   11     -0.14      0.00
    2   10   12     -1.33      0.00
    2   10   13     -0.80      0.00
    2   10   14     -1.17      0.00
    2   10   15     -0.86      0.00
    2   10   16     -0.35      0.00
   -2   11   17      2.98      0.00
   -2   11   16     -5.27      0.00
   -2   11   15      2.56      0.00
   -2   11   14     -5.73      0.00
   -2   11   13      0.67      0.00
   -2   11   12     -2.80      0.00
   -2   11   11     -1.77      0.00
   -2   11   10      2.58      0.00
   -2   11    9     -4.49      0.00
   -2   11    8      8.02      0.00
   -2   11    7     -7.00      0.00
   -2   11    6     11.93      0.00
   -2   11    5     -7.57      0.00
   -2   11    4     12.34      0.00
   -2   11    3     -6.79      0.00
   -2   11    2      8.20      0.00
   -2   11    1     -6.12      0.00
    2   11    0     -2.42      0.00
    2   11    1     -5.03      0.00
    2   11    2      0.91      0.00
    2   11    3     -3.84      0.00
    2   11    4      1.19      0.00
    2   11    5     -2.91      0.00
    2   11    6      0.18      0.00
    2   11    7     -1.48      0.00
    2   11    8     -0.83      0.00
    2   11    9     -0.68      0.00
    2   11   10     -1.34      0.00
    2   11   11     -1.19      0.00
    2   11   12     -1.19      0.00
    2   11   13     -1.04      0.00
    2   11   14     -0.59      0.00
    2   11   15     -0.14      0.00
    2   11   16     -0.21      0.00
   -2   12   17     -3.10      0.00
   -2   12   16      1.33      0.00
   -2   12   15     -3.40      0.00
   -2   12   14     -2.04      0.00
   -2   12   13     -1.74      0.00
   -2   12   12     -6.72      0.00
   -2   12   11      1.65      0.00
   -2   12   10     -9.90      0.00
   -2   12    9      5.25      0.00
   -2   12    8    -10.92      0.00
   -2   12    7      7.93      0.00
   -2   12    6     -9.30      0.00
   -2   12    5      9.21      0.00
   -2   12    4     -5.15      0.00
   -2   12    3      8.14      0.00
   -2   12    2     -1.64      0.00
   -2   12    1      4.39      0.00
    2   12    0     -0.78      0.00
    2   12    1     -0.57      0.00
    2   12    2     -1.59      0.00
    2   12    3      0.62      0.00
    2   12    4     -2.90      0.00
    2   12    5      0.03      0.00
    2   12    6     -3.19      0.00
    2   12    7     -1.02      0.00
    2   12    8     -2.05      0.00
    2   12    9     -2.00      0.00
    2   12   10     -1.02      0.00
    2   12   11     -1.93      0.00
    2   12   12     -0.32      0.00
    2   12   13     -0.83      0.00
    2   12   14      0.54      0.00
    2   12   15     -0.04      0.00
    2   12   16      0.64      0.00
   -2   13   17      0.74      0.00
   -2   13   16     -0.63      0.00
   -2   13   15     -1.90      0.00
   -2   13   14      0.89      0.00
   -2   13   13     -6.97      0.00
   -2   13   12      2.11      0.00
   -2   13   11    -11.29      0.00
   -2   13   10      2.27      0.00
   -2   13    9    -12.79      0.00
   -2   13    8      2.00      0.00
   -2   13    7    -11.54      0.00
   -2   13    6      2.07      0.00
   -2   13    5     -7.33      0.00
   -2   13    4      2.84      0.00
   -2   13    3     -1.80      0.00
   -2   13    2      3.13      0.00
   -2   13    1      1.24      0.00
    2   13    0     -1.86      0.00
    2   13    1      0.62      0.00
    2   13    2     -0.86      0.00
    2   13    3     -1.70      0.00
    2   13    4     -1.01      0.00
    2   13    5     -3.46      0.00
    2   13    6     -1.26      0.00
    2   13    7     -3.23      0.00
    2   13    8     -1.60      0.00
    2   13    9     -1.49      0.00
    2   13   10     -1.83      0.00
    2   13   11      0.26      0.00
    2   13   12     -1.06      0.00
    2   13   13      1.40      0.00
    2   13   14     -0.16      0.00
    2   13   15      1.48      0.00
   -2   14   17      1.00      0.00
   -2   14   16     -1.15      0.00
   -2   14   15      3.11      0.00
   -2   14   14     -4.32      0.00
   -2   14   13      4.23      0.00
   -2   14   12     -7.85      0.00
   -2   14   11      2.20      0.00
   -2   14   10    -10.04      0.00
   -2   14    9     -1.31      0.00
   -2   14    8    -10.74      0.00
   -2   14    7     -3.86      0.00
   -2   14    6     -9.46      0.00
   -2   14    5     -4.16      0.00
   -2   14    4     -5.60      0.00
   -2   14    3     -2.06      0.00
   -2   14    2     -1.27      0.00
   -2   14    1      0.21      0.00
    2   14    0      0.25      0.00
    2   14    1     -1.04      0.00
    2   14    2     -1.13      0.00
    2   14    3     -1.47      0.00
    2   14    4     -2.93      0.00
    2   14    5     -1.41      0.00
    2   14    6     -3.34      0.00
    2   14    7     -0.78      0.00
    2   14    8     -2.10      0.00
    2   14    9     -0.57      0.00
    2   14   10     -0.05      0.00
    2   14   11     -0.42      0.00
    2   14   12      1.61      0.00
    2   14   13      0.04      0.00
    2   14   14      2.04      0.00
    2   14   15     -0.01      0.00
   -2   15   16      3.41      0.00
   -2   15   15     -1.98      0.00
   -2   15   14      5.41      0.00
   -2   15   13     -2.97      0.00
   -2   15   12      4.10      0.00
   -2   15   11     -3.81      0.00
   -2   15   10     -0.30      0.00
   -2   15    9     -5.57      0.00
   -2   15    8     -4.72      0.00
   -2   15    7     -7.68      0.00
   -2   15    6     -7.32      0.00
   -2   15    5     -8.09      0.00
   -2   15    4     -6.95      0.00
   -2   15    3     -5.94      0.00
   -2   15    2     -3.99      0.00
   -2   15    1     -3.23      0.00
    2   15    0      1.25      0.00
    2   15    1     -2.48      0.00
    2   15    2     -0.05      0.00
    2   15    3     -3.03      0.00
    2   15    4     -0.37      0.00
    2   15    5     -2.97      0.00
    2   15    6      0.25      0.00
    2   15    7     -2.09      0.00
    2   15    8      0.97      0.00
    2   15    9     -0.76      0.00
    2   15   10      1.04      0.00
    2   15   11      0.81      0.00
    2   15   12      0.98      0.00
    2   15   13      1.69      0.00
    2   15   14      0.61      0.00
    2   15   15      1.39      0.00
   -2   16   16     -0.93      0.00
   -2   16   15      4.38      0.00
   -2   16   14     -0.17      0.00
   -2   16   13      4.72      0.00
   -2   16   12      1.53      0.00
   -2   16   11      2.32      0.00
   -2   16   10      1.18      0.00
   -2   16    9     -1.22      0.00
   -2   16    8     -2.08      0.00
   -2   16    7     -4.55      0.00
   -2   16    6     -5.83      0.00
   -2   16    5     -6.72      0.00
   -2   16    4     -7.69      0.00
   -2   16    3     -6.40      0.00
   -2   16    2     -6.87      0.00
   -2   16    1     -4.35      0.00
    2   16    0     -5.09      0.00
    2   16    1      2.76      0.00
    2   16    2     -4.12      0.00
    2   16    3      2.15      0.00
    2   16    4     -3.16      0.00
    2   16    5      2.09      0.00
    2   16    6     -1.84      0.00
    2   16    7      2.30      0.00
    2   16    8     -0.99      0.00
    2   16    9      2.34      0.00
    2   16   10     -0.23      0.00
    2   16   11      2.20      0.00
    2   16   12      0.64      0.00
    2   16   13      1.76      0.00
    2   16   14      0.78      0.00
   -2   17   16      2.49      0.00
   -2   17   15      0.36      0.00
   -2   17   14      3.22      0.00
   -2   17   13      3.04      0.00
   -2   17   12      3.00      0.00
   -2   17   11      5.00      0.00
   -2   17   10      2.37      0.00
   -2   17    9      3.39      0.00
   -2   17    8      0.97      0.00
   -2   17    7     -0.53      0.00
   -2   17    6     -1.44      0.00
   -2   17    5     -4.45      0.00
   -2   17    4     -3.66      0.00
   -2   17    3     -6.61      0.00
   -2   17    2     -4.58      0.00
   -2   17    1     -6.25      0.00
    2   17    0      4.62      0.00
    2   17    1     -4.94      0.00
    2   17    2      4.64      0.00
    2   17    3     -3.68      0.00
    2   17    4      4.49      0.00
    2   17    5     -2.07      0.00
    2   17    6      3.80      0.00
    2   17    7     -0.93      0.00
    2   17    8      3.09      0.00
    2   17    9     -0.62      0.00
    2   17   10      2.90      0.00
    2   17   11     -0.22      0.00
    2   17   12      2.73      0.00
    2   17   13     -0.02      0.00
    2   17   14      1.82      0.00
   -2   18   15      1.49      0.00
   -2   18   14      1.93      0.00
   -2   18   13      1.56      0.00
   -2   18   12      4.33      0.00
   -2   18   11      2.85      0.00
   -2   18   10      4.88      0.00
   -2   18    9      4.34      0.00
   -2   18    8      3.20      0.00
   -2   18    7      4.08      0.00
   -2   18    6      0.51      0.00
   -2   18    5      2.18      0.00
   -2   18    4     -2.26      0.00
   -2   18    3     -0.50      0.00
   -2   18    2     -3.71      0.00
   -2   18    1     -3.10      0.00
    2   18    0     -3.60      0.00
    2   18    1      4.90      0.00
    2   18    2     -3.04      0.00
    2   18    3      5.74      0.00
    2   18    4     -2.21      0.00
    2   18    5      5.21      0.00
    2   18    6     -1.09      0.00
    2   18    7      3.74      0.00
    2   18    8     -0.49      0.00
    2   18    9      2.97      0.00
    2   18   10     -0.31      0.00
    2   18   11      2.97      0.00
    2   18   12     -0.31      0.00
    2   18   13      2.40      0.00
    2   18   14     -0.76      0.00
   -2   19   15      0.70      0.00
   -2   19   14      0.35      0.00
   -2   19   13      1.71      0.00
   -2   19   12      1.16      0.00
   -2   19   11      2.46      0.00
   -2   19   10      3.72      0.00
   -2   19    9      2.75      0.00
   -2   19    8      5.63      0.00
   -2   19    7      2.64      0.00
   -2   19    6      5.87      0.00
   -2   19    5      1.93      0.00
   -2   19    4      4.43      0.00
   -2   19    3      1.01      0.00
   -2   19    2      1.27      0.00
   -2   19    1      0.38      0.00
    2   19    0      2.17      0.00
    2   19    1     -0.25      0.00
    2   19    2      4.43      0.00
    2   19    3     -0.88      0.00
    2   19    4      5.14      0.00
    2   19    5     -0.88      0.00
    2   19    6      4.15      0.00
    2   19    7     -0.32      0.00
    2   19    8      2.88      0.00
    2   19    9      0.08      0.00
    2   19   10      2.61      0.00
    2   19   11     -0.05      0.00
    2   19   12      2.26      0.00
    2   19   13     -0.73      0.00
   -2   20   14      0.04      0.00
   -2   20   13      0.07      0.00
   -2   20   12     -0.50      0.00
   -2   20   11      1.33      0.00
   -2   20   10     -0.31      0.00
   -2   20    9      3.32      0.00
   -2   20    8      0.98      0.00
   -2   20    7      4.85      0.00
   -2   20    6      2.42      0.00
   -2   20    5      5.60      0.00
   -2   20    4      3.70      0.00
   -2   20    3      4.48      0.00
   -2   20    2      4.46      0.00
   -2   20    1      1.61      0.00
    2   20    0      3.81      0.00
    2   20    1      1.20      0.00
    2   20    2      2.14      0.00
    2   20    3      2.95      0.00
    2   20    4      0.68      0.00
    2   20    5      3.34      0.00
    2   20    6      0.24      0.00
    2   20    7      2.57      0.00
    2   20    8      0.51      0.00
    2   20    9      2.00      0.00
    2   20   10      0.38      0.00
    2   20   11      1.65      0.00
    2   20   12     -0.48      0.00
    2   20   13      0.74      0.00
   -2   21   14      0.38      0.00
   -2   21   13     -1.46      0.00
   -2   21   12      0.13      0.00
   -2   21   11     -2.51      0.00
   -2   21   10      0.38      0.00
   -2   21    9     -1.75      0.00
   -2   21    8      1.19      0.00
   -2   21    7      0.12      0.00
   -2   21    6      2.51      0.00
   -2   21    5      2.57      0.00
   -2   21    4      3.40      0.00
   -2   21    3      5.38      0.00
   -2   21    2      2.88      0.00
   -2   21    1      6.55      0.00
    2   21    0     -1.45      0.00
    2   21    1      5.29      0.00
    2   21    2      0.01      0.00
    2   21    3      3.22      0.00
    2   21    4      1.14      0.00
    2   21    5      1.73      0.00
    2   21    6      1.42      0.00
    2   21    7      1.15      0.00
    2   21    8      1.10      0.00
    2   21    9      0.75      0.00
    2   21   10      0.76      0.00
    2   21   11     -0.31      0.00
    2   21   12      0.14      0.00
   -2   22   13      0.57      0.00
   -2   22   12     -2.18      0.00
   -2   22   11     -0.60      0.00
   -2   22   10     -2.60      0.00
   -2   22    9     -1.65      0.00
   -2   22    8     -1.72      0.00
   -2   22    7     -1.51      0.00
   -2   22    6      0.01      0.00
   -2   22    5     -0.63      0.00
   -2   22    4      3.03      0.00
   -2   22    3      0.34      0.00
   -2   22    2      5.92      0.00
   -2   22    1      1.24      0.00
    2   22    0      6.42      0.00
    2   22    1     -1.52      0.00
    2   22    2      5.05      0.00
    2   22    3     -1.05      0.00
    2   22    4      3.47      0.00
    2   22    5     -0.47      0.00
    2   22    6      2.21      0.00
    2   22    7     -0.33      0.00
    2   22    8      1.21      0.00
    2   22    9     -0.44      0.00
    2   22   10     -0.08      0.00
    2   22   11     -0.57      0.00
   -2   23   12      0.20      0.00
   -2   23   11     -1.05      0.00
   -2   23   10     -1.99      0.00
   -2   23    9     -1.18      0.00
   -2   23    8     -3.45      0.00
   -2   23    7     -0.88      0.00
   -2   23    6     -3.81      0.00
   -2   23    5      0.52      0.00
   -2   23    4     -3.39      0.00
   -2   23    3      2.98      0.00
   -2   23    2     -1.63      0.00
   -2   23    1      4.67      0.00
    2   23    0     -0.58      0.00
    2   23    1      4.76      0.00
    2   23    2     -1.69      0.00
    2   23    3      4.05      0.00
    2   23    4     -1.89      0.00
    2   23    5      3.03      0.00
    2   23    6     -1.93      0.00
    2   23    7      1.79      0.00
    2   23    8     -1.86      0.00
    2   23    9      0.38      0.00
    2   23   10     -1.48      0.00
    2   23   11     -0.99      0.00
   -2   24   12      0.99      0.00
   -2   24   11     -0.67      0.00
   -2   24   10      1.10      0.00
   -2   24    9     -2.83      0.00
   -2   24    8      0.53      0.00
   -2   24    7     -4.14      0.00
   -2   24    6      0.24      0.00
   -2   24    5     -4.85      0.00
   -2   24    4      0.76      0.00
   -2   24    3     -4.16      0.00
   -2   24    2      1.66      0.00
   -2   24    1     -1.72      0.00
    2   24    0      2.40      0.00
    2   24    1     -0.61      0.00
    2   24    2      2.78      0.00
    2   24    3     -1.90      0.00
    2   24    4      2.63      0.00
    2   24    5     -2.73      0.00
    2   24    6      1.92      0.00
    2   24    7     -2.99      0.00
    2   24    8      0.89      0.00
    2   24    9     -2.39      0.00
    2   24   10     -0.25      0.00
   -2   25   11      2.94      0.00
   -2   25   10     -1.07      0.00
   -2   25    9      2.69      0.00
   -2   25    8     -2.39      0.00
   -2   25    7      1.66      0.00
   -2   25    6     -3.35      0.00
   -2   25    5      0.75      0.00
   -2   25    4     -3.80      0.00
   -2   25    3     -0.08      0.00
   -2   25    2     -2.84      0.00
   -2   25    1     -0.30      0.00
    2   25    0      0.95      0.00
    2   25    1      0.33      0.00
    2   25    2     -0.72      0.00
    2   25    3      0.91      0.00
    2   25    4     -2.19      0.00
    2   25    5      1.01      0.00
    2   25    6     -3.15      0.00
    2   25    7      0.87      0.00
    2   25    8     -2.84      0.00
    2   25    9      0.51      0.00
   -2   26   10      3.68      0.00
   -2   26    9     -0.36      0.00
   -2   26    8      2.91      0.00
   -2   26    7     -0.72      0.00
   -2   26    6      1.72      0.00
   -2   26    5     -1.07      0.00
   -2   26    4      0.19      0.00
   -2   26    3     -1.29      0.00
   -2   26    2     -1.34      0.00
   -2   26    1     -1.13      0.00
    2   26    0     -1.70      0.00
    2   26    1      0.48      0.00
    2   26    2     -1.19      0.00
    2   26    3     -0.79      0.00
    2   26    4     -0.70      0.00
    2   26    5     -2.17      0.00
    2   26    6     -0.04      0.00
    2   26    7     -2.47      0.00
    2   26    8      0.65      0.00
   -2   27    9      2.75      0.00
   -2   27    8      1.08      0.00
   -2   27    7      1.92      0.00
   -2   27    6      1.52      0.00
   -2   27    5      0.92      0.00
   -2   27    4      1.58      0.00
   -2   27    3     -0.55      0.00
   -2   27    2      0.71      0.00
   -2   27    1     -1.84      0.00
    2   27    0      0.41      0.00
    2   27    1     -2.30      0.00
    2   27    2      0.40      0.00
    2   27    3     -2.23      0.00
    2   27    4     -0.62      0.00
    2   27    5     -1.46      0.00
    2   27    6     -1.32      0.00
    2   27    7     -0.02      0.00
   -2   28    8      0.97      0.00
   -2   28    7      2.29      0.00
   -2   28    6      0.59      0.00
   -2   28    5      3.16      0.00
   -2   28    4      0.30      0.00
   -2   28    3      2.96      0.00
   -2   28    2     -0.45      0.00
   -2   28    1      1.22      0.00
    2   28    0     -1.55      0.00
    2   28    1      0.39      0.00
    2   28    2     -2.49      0.00
    2   28    3      0.51      0.00
    2   28    4     -2.44      0.00
    2   28    5      0.02      0.00
    2   28    6     -1.06      0.00
   -2   29    6      2.48      0.00
   -2   29    5     -0.15      0.00
   -2   29    4      3.32      0.00
   -2   29    3      0.56      0.00
   -2   29    2      2.72      0.00
   -2   29    1      0.28      0.00
    2   29    0     -0.82      0.00
    2   29    1     -1.11      0.00
    2   29    2      0.50      0.00
    2   29    3     -2.17      0.00
    2   29    4      0.81      0.00
    2   29    5     -1.65      0.00
   -2   30    4      0.00      0.00
   -2   30    3      2.29      0.00
   -2   30    2      1.26      0.00
   -2   30    1      1.79      0.00
    2   30    0      0.88      0.00
    2   30    1     -0.44      0.00
    2   30    2     -0.66      0.00
    2   30    3      0.63      0.00
   -3    0   19     -2.77      0.00
   -3    0   17     -6.64      0.00
   -3    0   15     -8.82      0.00
   -3    0   13     -8.68      0.00
   -3    0   11     -6.37      0.00
   -3    0    9     -1.09      0.00
   -3    0    7      6.05      0.00
   -3    0    5     14.32      0.00
   -3    0    3     21.55      0.00
   -3    0    1     22.30      0.00
    3    0    1     16.99      0.00
    3    0    3     11.13      0.00
    3    0    5      5.60      0.00
    3    0    7      0.47      0.00
    3    0    9     -2.72      0.00
    3    0   11     -5.33      0.00
    3    0   13     -7.07      0.00
    3    0   15     -5.61      0.00
   -3    1   19      2.25      0.00
   -3    1   18     -4.14      0.00
   -3    1   17      2.00      0.00
   -3    1   16     -6.91      0.00
   -3    1   15      0.36      0.00
   -3    1   14     -7.52      0.00
   -3    1   13     -1.66      0.00
   -3    1   12     -6.18      0.00
   -3    1   11     -4.39      0.00
   -3    1   10     -2.68      0.00
   -3    1    9     -6.98      0.00
   -3    1    8      2.54      0.00
   -3    1    7     -7.87      0.00
   -3    1    6      8.79      0.00
   -3    1    5     -6.88      0.00
   -3    1    4     15.93      0.00
   -3    1    3     -3.62      0.00
   -3    1    2     20.08      0.00
   -3    1    1      0.96      0.00
    3    1    0     17.69      0.00
    3    1    1     -4.01      0.00
    3    1    2     12.31      0.00
    3    1    3     -5.40      0.00
    3    1    4      7.40      0.00
    3    1    5     -6.00      0.00
    3    1    6      2.70      0.00
    3    1    7     -5.02      0.00
    3    1    8     -0.90      0.00
    3    1    9     -3.44      0.00
    3    1   10     -3.41      0.00
    3    1   11     -2.48      0.00
    3    1   12     -5.71      0.00
    3    1   13     -1.03      0.00
    3    1   14     -5.89      0.00
    3    1   15      0.61      0.00
    3    1   16     -3.60      0.00
   -3    2   19     -1.90      0.00
   -3    2   18      3.74      0.00
   -3    2   17     -3.50      0.00
   -3    2   16      2.06      0.00
   -3    2   15     -4.10      0.00
   -3    2   14     -0.98      0.00
   -3    2   13     -2.94      0.00
   -3    2   12     -4.82      0.00
   -3    2   11     -0.45      0.00
   -3    2   10     -9.35      0.00
   -3    2    9      2.15      0.00
   -3    2    8    -12.24      0.00
   -3    2    7      4.40      0.00
   -3    2    6    -12.60      0.00
   -3    2    5      7.77      0.00
   -3    2    4     -9.86      0.00
   -3    2    3     11.74      0.00
   -3    2    2     -3.03      0.00
   -3    2    1     12.62      0.00
    3    2    0     -4.16      0.00
    3    2    1      9.80      0.00
    3    2    2     -8.06      0.00
    3    2    3      6.26      0.00
    3    2    4     -9.90      0.00
    3    2    5      3.52      0.00
    3    2    6     -9.53      0.00
    3    2    7      1.34      0.00
    3    2    8     -6.93      0.00
    3    2    9     -0.65      0.00
    3    2   10     -4.89      0.00
    3    2   11     -2.69      0.00
    3    2   12     -3.01      0.00
    3    2   13     -3.77      0.00
    3    2   14      0.00      0.00
    3    2   15     -3.02      0.00
    3    2   16      1.76      0.00
   -3    3   19      3.32      0.00
   -3    3   18     -1.25      0.00
   -3    3   17      3.08      0.00
   -3    3   16     -0.68      0.00
   -3    3   15      0.47      0.00
   -3    3   14      0.83      0.00
   -3    3   13     -3.13      0.00
   -3    3   12      3.52      0.00
   -3    3   11     -7.46      0.00
   -3    3   10      5.32      0.00
   -3    3    9    -11.09      0.00
   -3    3    8      4.60      0.00
   -3    3    7    -13.02      0.00
   -3    3    6      3.38      0.00
   -3    3    5    -13.24      0.00
   -3    3    4      3.57      0.00
   -3    3    3     -8.97      0.00
   -3    3    2      4.18      0.00
   -3    3    1     -0.42      0.00
    3    3    0      3.81      0.00
    3    3    1     -6.63      0.00
    3    3    2      2.40      0.00
    3    3    3    -10.12      0.00
    3    3    4      1.65      0.00
    3    3    5    -10.98      0.00
    3    3    6      2.11      0.00
    3    3    7     -8.94      0.00
    3    3    8      1.94      0.00
    3    3    9     -6.24      0.00
    3    3   10      0.55      0.00
    3    3   11     -4.37      0.00
    3    3   12     -0.41      0.00
    3    3   13     -1.41      0.00
    3    3   14     -0.52      0.00
    3    3   15      1.58      0.00
    3    3   16     -0.50      0.00
   -3    4   19     -0.98      0.00
   -3    4   18      2.02      0.00
   -3    4   17      0.58      0.00
   -3    4   16      0.80      0.00
   -3    4   15      2.89      0.00
   -3    4   14     -1.63      0.00
   -3    4   13      6.05      0.00
   -3    4   12     -4.46      0.00
   -3    4   11      8.73      0.00
   -3    4   10     -6.75      0.00
   -3    4    9      8.00      0.00
   -3    4    8     -8.38      0.00
   -3    4    7      4.77      0.00
   -3    4    6    -10.54      0.00
   -3    4    5      1.54      0.00
   -3    4    4    -10.95      0.00
   -3    4    3     -1.20      0.00
   -3    4    2     -5.94      0.00
   -3    4    1     -2.61      0.00
    3    4    0     -1.69      0.00
    3    4    1     -2.54      0.00
    3    4    2     -6.76      0.00
    3    4    3     -1.81      0.00
    3    4    4     -8.56      0.00
    3    4    5      0.56      0.00
    3    4    6     -7.77      0.00
    3    4    7      2.94      0.00
    3    4    8     -5.71      0.00
    3    4    9      2.88      0.00
    3    4   10     -4.11      0.00
    3    4   11      2.31      0.00
    3    4   12     -2.11      0.00
    3    4   13      2.55      0.00
    3    4   14      0.66      0.00
    3    4   15      1.85      0.00
    3    4   16      1.97      0.00
   -3    5   18     -0.18      0.00
   -3    5   17     -0.62      0.00
   -3    5   16      2.29      0.00
   -3    5   15     -1.77      0.00
   -3    5   14      5.56      0.00
   -3    5   13     -2.98      0.00
   -3    5   12      9.09      0.00
   -3    5   11     -3.24      0.00
   -3    5   10     10.26      0.00
   -3    5    9     -2.82      0.00
   -3    5    8      8.40      0.00
   -3    5    7     -4.18      0.00
   -3    5    6      5.24      0.00
   -3    5    5     -7.00      0.00
   -3    5    4      0.59      0.00
   -3    5    3     -6.97      0.00
   -3    5    2     -4.09      0.00
   -3    5    1     -2.84      0.00
    3    5    0     -5.50      0.00
    3    5    1     -1.76      0.00
    3    5    2     -4.47      0.00
    3    5    3     -3.80      0.00
    3    5    4     -1.77      0.00
    3    5    5     -3.55      0.00
    3    5    6      1.89      0.00
    3    5    7     -2.72      0.00
    3    5    8      3.49      0.00
    3    5    9     -2.08      0.00
    3    5   10      3.36      0.00
    3    5   11     -1.07      0.00
    3    5   12      4.14      0.00
    3    5   13      0.38      0.00
    3    5   14      4.18      0.00
    3    5   15      1.24      0.00
    3    5   16      2.19      0.00
   -3    6   18     -2.11      0.00
   -3    6   17      0.34      0.00
   -3    6   16     -3.20      0.00
   -3    6   15      2.68      0.00
   -3    6   14     -3.55      0.00
   -3    6   13      5.92      0.00
   -3    6   12     -2.67      0.00
   -3    6   11      8.58      0.00
   -3    6   10     -0.37      0.00
   -3    6    9      9.46      0.00
   -3    6    8      0.57      0.00
   -3    6    7      9.20      0.00
   -3    6    6     -1.24      0.00
   -3    6    5      6.53      0.00
   -3    6    4     -3.07      0.00
   -3    6    3      0.80      0.00
   -3    6    2     -2.87      0.00
   -3    6    1     -3.63      0.00
    3    6    0      1.36      0.00
    3    6    1     -4.04      0.00
    3    6    2      0.49      0.00
    3    6    3     -2.28      0.00
    3    6    4      1.17      0.00
    3    6    5      0.52      0.00
    3    6    6      1.73      0.00
    3    6    7      2.54      0.00
    3    6    8      1.24      0.00
    3    6    9      2.83      0.00
    3    6   10      1.25      0.00
    3    6   11      3.56      0.00
    3    6   12      1.67      0.00
    3    6   13      4.57      0.00
    3    6   14      1.11      0.00
    3    6   15      3.45      0.00
    3    6   16      0.27      0.00
   -3    7   18     -0.62      0.00
   -3    7   17     -3.99      0.00
   -3    7   16     -0.22      0.00
   -3    7   15     -4.78      0.00
   -3    7   14      1.36      0.00
   -3    7   13     -4.21      0.00
   -3    7   12      3.79      0.00
   -3    7   11     -1.80      0.00
   -3    7   10      6.27      0.00
   -3    7    9      0.63      0.00
   -3    7    8      8.95      0.00
   -3    7    7      1.05      0.00
   -3    7    6     10.15      0.00
   -3    7    5      0.78      0.00
   -3    7    4      7.24      0.00
   -3    7    3      0.52      0.00
   -3    7    2      2.45      0.00
   -3    7    1     -0.54      0.00
    3    7    0      0.16      0.00
    3    7    1      1.92      0.00
    3    7    2      0.33      0.00
    3    7    3      3.60      0.00
    3    7    4      1.19      0.00
    3    7    5      4.89      0.00
    3    7    6      1.73      0.00
    3    7    7      4.37      0.00
    3    7    8      1.65      0.00
    3    7    9      3.59      0.00
    3    7   10      1.93      0.00
    3    7   11      3.60      0.00
    3    7   12      2.87      0.00
    3    7   13      2.29      0.00
    3    7   14      2.87      0.00
    3    7   15      0.05      0.00
    3    7   16      1.58      0.00
   -3    8   18     -3.02      0.00
   -3    8   17     -1.03      0.00
   -3    8   16     -4.71      0.00
   -3    8   15     -1.64      0.00
   -3    8   14     -5.48      0.00
   -3    8   13     -0.97      0.00
   -3    8   12     -4.79      0.00
   -3    8   11      0.93      0.00
   -3    8   10     -2.99      0.00
   -3    8    9      4.41      0.00
   -3    8    8     -1.57      0.00
   -3    8    7      8.15      0.00
   -3    8    6      0.19      0.00
   -3    8    5      9.16      0.00
   -3    8    4      2.31      0.00
   -3    8    3      7.37      0.00
   -3    8    2      2.02      0.00
   -3    8    1      5.58      0.00
    3    8    0      0.50      0.00
    3    8    1      4.93      0.00
    3    8    2      2.98      0.00
    3    8    3      4.29      0.00
    3    8    4      4.81      0.00
    3    8    5      2.80      0.00
    3    8    6      5.17      0.00
    3    8    7      1.18      0.00
    3    8    8      4.49      0.00
    3    8    9      0.66      0.00
    3    8   10      4.40      0.00
    3    8   11      0.88      0.00
    3    8   12      3.51      0.00
    3    8   13      0.84      0.00
    3    8   14      0.82      0.00
    3    8   15      0.60      0.00
    3    8   16     -1.05      0.00
   -3    9   17     -2.97      0.00
   -3    9   16     -1.62      0.00
   -3    9   15     -4.73      0.00
   -3    9   14     -2.80      0.00
   -3    9   13     -6.25      0.00
   -3    9   12     -2.90      0.00
   -3    9   11     -6.76      0.00
   -3    9   10     -1.14      0.00
   -3    9    9     -6.42      0.00
   -3    9    8      2.28      0.00
   -3    9    7     -4.45      0.00
   -3    9    6      5.09      0.00
   -3    9    5     -0.52      0.00
   -3    9    4      6.63      0.00
   -3    9    3      2.00      0.00
   -3    9    2      7.84      0.00
   -3    9    1      0.96      0.00
    3    9    0      8.40      0.00
    3    9    1      1.11      0.00
    3    9    2      7.61      0.00
    3    9    3      2.41      0.00
    3    9    4      5.23      0.00
    3    9    5      2.99      0.00
    3    9    6      2.15      0.00
    3    9    7      3.00      0.00
    3    9    8      0.45      0.00
    3    9    9      3.17      0.00
    3    9   10      0.04      0.00
    3    9   11      3.00      0.00
    3    9   12     -0.67      0.00
    3    9   13      1.28      0.00
    3    9   14     -1.01      0.00
    3    9   15     -0.66      0.00
   -3   10   18     -1.13      0.00
   -3   10   17      0.23      0.00
   -3   10   16     -2.43      0.00
   -3   10   15     -1.27      0.00
   -3   10   14     -4.86      0.00
   -3   10   13     -2.87      0.00
   -3   10   12     -7.50      0.00
   -3   10   11     -3.92      0.00
   -3   10   10     -9.44      0.00
   -3   10    9     -3.27      0.00
   -3   10    8     -9.33      0.00
   -3   10    7     -1.61      0.00
   -3   10    6     -6.09      0.00
   -3   10    5      0.75      0.00
   -3   10    4     -2.06      0.00
   -3   10    3      4.51      0.00
   -3   10    2     -0.47      0.00
   -3   10    1      7.76      0.00
    3   10    0      0.67      0.00
    3   10    1      8.31      0.00
    3   10    2      0.46      0.00
    3   10    3      6.45      0.00
    3   10    4     -0.15      0.00
    3   10    5      3.32      0.00
    3   10    6     -0.23      0.00
    3   10    7      0.89      0.00
    3   10    8      0.31      0.00
    3   10    9      0.09      0.00
    3   10   10      0.65      0.00
    3   10   11     -0.70      0.00
    3   10   12      0.11      0.00
    3   10   13     -1.59      0.00
    3   10   14     -0.69      0.00
    3   10   15     -1.05      0.00
   -3   11   17     -0.52      0.00
   -3   11   16      1.44      0.00
   -3   11   15     -2.03      0.00
   -3   11   14      0.21      0.00
   -3   11   13     -4.78      0.00
   -3   11   12     -2.37      0.00
   -3   11   11     -8.13      0.00
   -3   11   10     -4.95      0.00
   -3   11    9    -10.60      0.00
   -3   11    8     -6.31      0.00
   -3   11    7    -10.16      0.00
   -3   11    6     -5.86      0.00
   -3   11    5     -7.37      0.00
   -3   11    4     -2.39      0.00
   -3   11    3     -4.76      0.00
   -3   11    2      2.54      0.00
   -3   11    1     -2.93      0.00
    3   11    0      5.05      0.00
    3   11    1      0.89      0.00
    3   11    2      4.45      0.00
    3   11    3     -1.49      0.00
    3   11    4      2.44      0.00
    3   11    5     -2.91      0.00
    3   11    6      0.58      0.00
    3   11    7     -2.68      0.00
    3   11    8     -0.10      0.00
    3   11    9     -2.01      0.00
    3   11   10     -0.30      0.00
    3   11   11     -1.95      0.00
    3   11   12     -0.87      0.00
    3   11   13     -1.74      0.00
    3   11   14     -0.78      0.00
    3   11   15     -1.04      0.00
   -3   12   17      2.93      0.00
   -3   12   16     -0.04      0.00
   -3   12   15      3.34      0.00
   -3   12   14     -1.07      0.00
   -3   12   13      1.61      0.00
   -3   12   12     -3.37      0.00
   -3   12   11     -2.16      0.00
   -3   12   10     -6.95      0.00
   -3   12    9     -6.19      0.00
   -3   12    8     -9.60      0.00
   -3   12    7     -8.78      0.00
   -3   12    6     -9.85      0.00
   -3   12    5     -8.16      0.00
   -3   12    4     -8.68      0.00
   -3   12    3     -4.42      0.00
   -3   12    2     -6.57      0.00
   -3   12    1     -1.08      0.00
    3   12    0      3.42      0.00
    3   12    1     -0.52      0.00
    3   12    2     -0.21      0.00
    3   12    3     -1.34      0.00
    3   12    4     -3.07      0.00
    3   12    5     -1.79      0.00
    3   12    6     -3.98      0.00
    3   12    7     -1.44      0.00
    3   12    8     -3.42      0.00
    3   12    9     -0.73      0.00
    3   12   10     -3.02      0.00
    3   12   11     -0.27      0.00
    3   12   12     -2.62      0.00
    3   12   13      0.14      0.00
    3   12   14     -1.51      0.00
    3   12   15      0.57      0.00
   -3   13   17      0.42      0.00
   -3   13   16      4.29      0.00
   -3   13   15      1.01      0.00
   -3   13   14      4.46      0.00
   -3   13   13      1.28      0.00
   -3   13   12      2.20      0.00
   -3   13   11     -0.65      0.00
   -3   13   10     -1.89      0.00
   -3   13    9     -4.44      0.00
   -3   13    8     -6.39      0.00
   -3   13    7     -7.40      0.00
   -3   13    6     -9.16      0.00
   -3   13    5     -8.73      0.00
   -3   13    4     -8.83      0.00
   -3   13    3     -8.37      0.00
   -3   13    2     -7.04      0.00
   -3   13    1     -5.85      0.00
    3   13    0     -6.34      0.00
    3   13    1      2.25      0.00
    3   13    2     -6.57      0.00
    3   13    3     -0.99      0.00
    3   13    4     -5.95      0.00
    3   13    5     -2.77      0.00
    3   13    6     -4.09      0.00
    3   13    7     -2.82      0.00
    3   13    8     -2.09      0.00
    3   13    9     -2.26      0.00
    3   13   10     -0.64      0.00
    3   13   11     -1.88      0.00
    3   13   12      0.46      0.00
    3   13   13     -1.22      0.00
    3   13   14      1.07      0.00
    3   13   15     -0.57      0.00
   -3   14   17      3.26      0.00
   -3   14   16      1.19      0.00
   -3   14   15      4.45      0.00
   -3   14   14      3.10      0.00
   -3   14   13      4.35      0.00
   -3   14   12      4.07      0.00
   -3   14   11      2.75      0.00
   -3   14   10      2.04      0.00
   -3   14    9     -0.79      0.00
   -3   14    8     -1.39      0.00
   -3   14    7     -5.22      0.00
   -3   14    6     -4.15      0.00
   -3   14    5     -8.17      0.00
   -3   14    4     -5.83      0.00
   -3   14    3     -9.33      0.00
   -3   14    2     -5.61      0.00
   -3   14    1    -10.07      0.00
    3   14    0      3.60      0.00
    3   14    1    -10.66      0.00
    3   14    2      1.33      0.00
    3   14    3     -9.87      0.00
    3   14    4     -0.06      0.00
    3   14    5     -7.13      0.00
    3   14    6     -0.43      0.00
    3   14    7     -3.77      0.00
    3   14    8     -0.11      0.00
    3   14    9     -1.40      0.00
    3   14   10      0.23      0.00
    3   14   11     -0.02      0.00
    3   14   12      0.40      0.00
    3   14   13      0.76      0.00
    3   14   14      0.30      0.00
   -3   15   16      2.67      0.00
   -3   15   15      2.48      0.00
   -3   15   14      3.28      0.00
   -3   15   13      4.85      0.00
   -3   15   12      4.04      0.00
   -3   15   11      5.58      0.00
   -3   15   10      3.56      0.00
   -3   15    9      4.27      0.00
   -3   15    8      0.34      0.00
   -3   15    7      2.37      0.00
   -3   15    6     -3.74      0.00
   -3   15    5      0.34      0.00
   -3   15    4     -6.84      0.00
   -3   15    3     -1.39      0.00
   -3   15    2     -9.41      0.00
   -3   15    1     -1.95      0.00
    3   15    0    -11.30      0.00
    3   15    1      1.89      0.00
    3   15    2    -11.26      0.00
    3   15    3      2.08      0.00
    3   15    4     -8.78      0.00
    3   15    5      2.45      0.00
    3   15    6     -4.96      0.00
    3   15    7      2.57      0.00
    3   15    8     -1.86      0.00
    3   15    9      2.47      0.00
    3   15   10     -0.39      0.00
    3   15   11      2.28      0.00
    3   15   12      0.07      0.00
    3   15   13      1.76      0.00
    3   15   14     -0.01      0.00
   -3   16   16      1.37      0.00
   -3   16   15      1.04      0.00
   -3   16   14      3.12      0.00
   -3   16   13      1.93      0.00
   -3   16   12      4.82      0.00
   -3   16   11      3.64      0.00
   -3   16   10      6.02      0.00
   -3   16    9      3.24      0.00
   -3   16    8      6.69      0.00
   -3   16    7      0.50      0.00
   -3   16    6      6.32      0.00
   -3   16    5     -2.20      0.00
   -3   16    4      4.70      0.00
   -3   16    3     -4.79      0.00
   -3   16    2      2.51      0.00
   -3   16    1     -7.59      0.00
    3   16    0     -0.19      0.00
    3   16    1     -8.88      0.00
    3   16    2      2.19      0.00
    3   16    3     -7.56      0.00
    3   16    4      4.12      0.00
    3   16    5     -4.61      0.00
    3   16    6      4.73      0.00
    3   16    7     -1.77      0.00
    3   16    8      4.10      0.00
    3   16    9     -0.32      0.00
    3   16   10      3.24      0.00
    3   16   11     -0.15      0.00
    3   16   12      2.58      0.00
    3   16   13     -0.51      0.00
    3   16   14      1.70      0.00
   -3   17   16     -0.34      0.00
   -3   17   15      1.48      0.00
   -3   17   14     -0.60      0.00
   -3   17   13      2.22      0.00
   -3   17   12      0.60      0.00
   -3   17   11      3.80      0.00
   -3   17   10      1.82      0.00
   -3   17    9      6.50      0.00
   -3   17    8      1.29      0.00
   -3   17    7      8.44      0.00
   -3   17    6      0.52      0.00
   -3   17    5      8.46      0.00
   -3   17    4      0.08      0.00
   -3   17    3      6.94      0.00
   -3   17    2     -1.50      0.00
   -3   17    1      3.93      0.00
    3   17    0     -3.37      0.00
    3   17    1      0.17      0.00
    3   17    2     -3.46      0.00
    3   17    3      3.73      0.00
    3   17    4     -2.11      0.00
    3   17    5      5.28      0.00
    3   17    6     -0.76      0.00
    3   17    7      4.68      0.00
    3   17    8     -0.11      0.00
    3   17    9      3.21      0.00
    3   17   10     -0.08      0.00
    3   17   11      2.22      0.00
    3   17   12     -0.38      0.00
    3   17   13      1.73      0.00
   -3   18   15     -1.51      0.00
   -3   18   14      0.73      0.00
   -3   18   13     -1.93      0.00
   -3   18   12      0.85      0.00
   -3   18   11     -1.58      0.00
   -3   18   10      3.15      0.00
   -3   18    9     -1.21      0.00
   -3   18    8      6.16      0.00
   -3   18    7     -0.35      0.00
   -3   18    6      7.52      0.00
   -3   18    5      1.56      0.00
   -3   18    4      7.64      0.00
   -3   18    3      2.84      0.00
   -3   18    2      6.30      0.00
   -3   18    1      2.46      0.00
    3   18    0     -2.51      0.00
    3   18    1      1.87      0.00
    3   18    2      1.87      0.00
    3   18    3      1.81      0.00
    3   18    4      4.08      0.00
    3   18    5      1.41      0.00
    3   18    6      3.77      0.00
    3   18    7      0.47      0.00
    3   18    8      2.35      0.00
    3   18    9     -0.21      0.00
    3   18   10      1.30      0.00
    3   18   11     -0.21      0.00
    3   18   12      1.01      0.00
    3   18   13     -0.18      0.00
   -3   19   15      0.67      0.00
   -3   19   14     -2.25      0.00
   -3   19   13     -0.02      0.00
   -3   19   12     -3.34      0.00
   -3   19   11      0.24      0.00
   -3   19   10     -3.96      0.00
   -3   19    9      2.13      0.00
   -3   19    8     -2.98      0.00
   -3   19    7      3.41      0.00
   -3   19    6     -0.26      0.00
   -3   19    5      4.06      0.00
   -3   19    4      2.85      0.00
   -3   19    3      4.78      0.00
   -3   19    2      4.95      0.00
   -3   19    1      3.44      0.00
    3   19    0      5.66      0.00
    3   19    1      0.08      0.00
    3   19    2      5.27      0.00
    3   19    3      2.30      0.00
    3   19    4      3.83      0.00
    3   19    5      1.84      0.00
    3   19    6      1.70      0.00
    3   19    7      0.60      0.00
    3   19    8     -0.05      0.00
    3   19    9      0.16      0.00
    3   19   10     -0.41      0.00
    3   19   11      0.40      0.00
    3   19   12      0.12      0.00
   -3   20   14      0.79      0.00
   -3   20   13     -2.58      0.00
   -3   20   12     -0.02      0.00
   -3   20   11     -4.18      0.00
   -3   20   10     -0.30      0.00
   -3   20    9     -4.38      0.00
   -3   20    8     -0.45      0.00
   -3   20    7     -2.41      0.00
   -3   20    6     -0.67      0.00
   -3   20    5      0.28      0.00
   -3   20    4      0.32      0.00
   -3   20    3      3.16      0.00
   -3   20    2      1.26      0.00
   -3   20    1      5.79      0.00
    3   20    0     -0.08      0.00
    3   20    1      6.48      0.00
    3   20    2      1.29      0.00
    3   20    3      4.98      0.00
    3   20    4      0.39      0.00
    3   20    5      2.71      0.00
    3   20    6     -1.29      0.00
    3   20    7      0.79      0.00
    3   20    8     -1.35      0.00
    3   20    9     -0.16      0.00
    3   20   10     -0.10      0.00
    3   20   11     -0.01      0.00
    3   20   12      0.57      0.00
   -3   21   14     -1.25      0.00
   -3   21   13      1.24      0.00
   -3   21   12     -2.12      0.00
   -3   21   11      0.07      0.00
   -3   21   10     -3.11      0.00
   -3   21    9     -1.70      0.00
   -3   21    8     -2.50      0.00
   -3   21    7     -3.22      0.00
   -3   21    6     -1.30      0.00
   -3   21    5     -3.37      0.00
   -3   21    4      0.05      0.00
   -3   21    3     -2.31      0.00
   -3   21    2      2.72      0.00
   -3   21    1     -1.71      0.00
    3   21    0      4.90      0.00
    3   21    1      1.60      0.00
    3   21    2      4.26      0.00
    3   21    3      0.32      0.00
    3   21    4      2.38      0.00
    3   21    5     -1.86      0.00
    3   21    6      1.35      0.00
    3   21    7     -2.52      0.00
    3   21    8      0.88      0.00
    3   21    9     -0.95      0.00
    3   21   10      0.41      0.00
    3   21   11      0.67      0.00
   -3   22   13     -0.31      0.00
   -3   22   12      1.55      0.00
   -3   22   11     -0.43      0.00
   -3   22   10     -0.43      0.00
   -3   22    9     -0.48      0.00
   -3   22    8     -2.83      0.00
   -3   22    7     -0.44      0.00
   -3   22    6     -3.98      0.00
   -3   22    5     -0.92      0.00
   -3   22    4     -4.08      0.00
   -3   22    3     -0.24      0.00
   -3   22    2     -3.78      0.00
   -3   22    1      1.86      0.00
    3   22    0      2.85      0.00
    3   22    1      2.32      0.00
    3   22    2      1.19      0.00
    3   22    3      0.96      0.00
    3   22    4     -0.80      0.00
    3   22    5      0.66      0.00
    3   22    6     -2.07      0.00
    3   22    7      1.56      0.00
    3   22    8     -1.52      0.00
    3   22    9      1.60      0.00
    3   22   10      0.14      0.00
    3   22   11      0.37      0.00
   -3   23   12      1.15      0.00
   -3   23   11      1.25      0.00
   -3   23   10      1.89      0.00
   -3   23    9     -0.87      0.00
   -3   23    8      1.80      0.00
   -3   23    7     -2.32      0.00
   -3   23    6      0.67      0.00
   -3   23    5     -3.00      0.00
   -3   23    4     -0.42      0.00
   -3   23    3     -3.89      0.00
   -3   23    2     -0.11      0.00
   -3   23    1     -3.82      0.00
    3   23    0      0.35      0.00
    3   23    1      2.19      0.00
    3   23    2     -0.41      0.00
    3   23    3      0.66      0.00
    3   23    4     -0.62      0.00
    3   23    5     -0.21      0.00
    3   23    6      0.94      0.00
    3   23    7     -0.69      0.00
    3   23    8      2.26      0.00
    3   23    9     -0.40      0.00
    3   23   10      1.42      0.00
   -3   24   12      1.46      0.00
   -3   24   11      2.68      0.00
   -3   24   10      0.60      0.00
   -3   24    9      3.56      0.00
   -3   24    8     -0.49      0.00
   -3   24    7      2.92      0.00
   -3   24    6     -0.86      0.00
   -3   24    5      1.62      0.00
   -3   24    4     -1.87      0.00
   -3   24    3      0.53      0.00
   -3   24    2     -3.12      0.00
   -3   24    1     -0.31      0.00
    3   24    0      2.66      0.00
    3   24    1     -1.09      0.00
    3   24    2      1.60      0.00
    3   24    3     -1.29      0.00
    3   24    4      1.44      0.00
    3   24    5     -0.16      0.00
    3   24    6      1.09      0.00
    3   24    7      1.56      0.00
    3   24    8      0.10      0.00
    3   24    9      1.93      0.00
   -3   25   11      0.41      0.00
   -3   25   10      3.64      0.00
   -3   25    9      0.05      0.00
   -3   25    8      4.07      0.00
   -3   25    7      0.21      0.00
   -3   25    6      3.51      0.00
   -3   25    5      0.23      0.00
   -3   25    4      2.63      0.00
   -3   25    3     -0.92      0.00
   -3   25    2      0.98      0.00
   -3   25    1     -1.87      0.00
    3   25    0     -0.77      0.00
    3   25    1      1.86      0.00
    3   25    2     -1.25      0.00
    3   25    3      2.10      0.00
    3   25    4     -0.65      0.00
    3   25    5      2.27      0.00
    3   25    6      0.36      0.00
    3   25    7      1.19      0.00
    3   25    8      1.20      0.00
   -3   26   10     -0.82      0.00
   -3   26    9      3.62      0.00
   -3   26    8     -0.36      0.00
   -3   26    7      3.77      0.00
   -3   26    6      0.59      0.00
   -3   26    5      3.76      0.00
   -3   26    4      0.92      0.00
   -3   26    3      2.91      0.00
   -3   26    2      0.09      0.00
   -3   26    1      0.78      0.00
    3   26    0      1.12      0.00
    3   26    1     -0.66      0.00
    3   26    2      2.01      0.00
    3   26    3     -0.67      0.00
    3   26    4      2.33      0.00
    3   26    5     -0.40      0.00
    3   26    6      1.64      0.00
    3   26    7     -0.02      0.00
    3   26    8      0.22      0.00
   -3   27    9     -1.69      0.00
   -3   27    8      2.60      0.00
   -3   27    7     -0.62      0.00
   -3   27    6      2.85      0.00
   -3   27    5      0.85      0.00
   -3   27    4      3.31      0.00
   -3   27    3      1.56      0.00
   -3   27    2      2.54      0.00
   -3   27    1      0.63      0.00
    3   27    0      0.75      0.00
    3   27    1      1.09      0.00
    3   27    2     -0.36      0.00
    3   27    3      1.77      0.00
    3   27    4     -0.83      0.00
    3   27    5      1.20      0.00
    3   27    6     -0.95      0.00
   -3   28    8     -1.90      0.00
   -3   28    7      0.89      0.00
   -3   28    6     -0.60      0.00
   -3   28    5      1.53      0.00
   -3   28    4      1.13      0.00
   -3   28    3      2.55      0.00
   -3   28    2      1.83      0.00
   -3   28    1      2.25      0.00
    3   28    0     -0.62      0.00
    3   28    1      0.68      0.00
    3   28    2      0.63      0.00
    3   28    3     -0.89      0.00
    3   28    4      0.46      0.00
    3   28    5     -1.59      0.00
   -3   29    6     -0.78      0.00
   -3   29    5     -0.47      0.00
   -3   29    4      0.47      0.00
   -3   29    3      1.14      0.00
   -3   29    2      2.05      0.00
   -3   29    1      1.72      0.00
    3   29    0      1.86      0.00
    3   29    1     -0.97      0.00
    3   29    2     -0.10      0.00
    3   29    3     -0.52      0.00
   -3   30    3      0.01      0.00
   -3   30    2      0.91      0.00
   -3   30    1      1.56      0.00
    3   30    0     -1.70      0.00
    3   30    1      0.95      0.00
   -4    0   18      3.08      0.00
   -4    0   16      1.37      0.00
   -4    0   14     -0.52      0.00
   -4    0   12     -2.69      0.00
   -4    0   10     -6.09      0.00
   -4    0    8     -8.14      0.00
   -4    0    6     -6.44      0.00
   -4    0    4      0.00      0.00
   -4    0    2      9.68      0.00
    4    0    0     17.06      0.00
    4    0    2     19.20      0.00
    4    0    4     16.93      0.00
    4    0    6     10.31      0.00
    4    0    8      2.43      0.00
    4    0   10     -2.25      0.00
    4    0   12     -4.70      0.00
    4    0   14     -5.94      0.00
   -4    1   19      2.12      0.00
   -4    1   18      1.82      0.00
   -4    1   17      1.56      0.00
   -4    1   16      3.24      0.00
   -4    1   15     -0.03      0.00
   -4    1   14      3.90      0.00
   -4    1   13     -1.20      0.00
   -4    1   12      4.36      0.00
   -4    1   11     -3.02      0.00
   -4    1   10      3.33      0.00
   -4    1    9     -4.92      0.00
   -4    1    8      0.03      0.00
   -4    1    7     -4.68      0.00
   -4    1    6     -4.39      0.00
   -4    1    5     -1.06      0.00
   -4    1    4     -8.56      0.00
   -4    1    3      6.00      0.00
   -4    1    2    -10.10      0.00
   -4    1    1     13.26      0.00
    4    1    0      7.85      0.00
    4    1    1     16.57      0.00
    4    1    2      3.66      0.00
    4    1    3     15.87      0.00
    4    1    4     -0.97      0.00
    4    1    5     11.67      0.00
    4    1    6     -4.62      0.00
    4    1    7      4.72      0.00
    4    1    8     -5.54      0.00
    4    1    9     -0.92      0.00
    4    1   10     -4.82      0.00
    4    1   11     -3.59      0.00
    4    1   12     -4.03      0.00
    4    1   13     -5.08      0.00
    4    1   14     -2.40      0.00
    4    1   15     -4.80      0.00
   -4    2   19      1.38      0.00
   -4    2   18     -0.42      0.00
   -4    2   17      4.01      0.00
   -4    2   16     -1.00      0.00
   -4    2   15      5.50      0.00
   -4    2   14     -0.97      0.00
   -4    2   13      6.29      0.00
   -4    2   12     -0.15      0.00
   -4    2   11      5.94      0.00
   -4    2   10      0.95      0.00
   -4    2    9      2.32      0.00
   -4    2    8      2.37      0.00
   -4    2    7     -3.83      0.00
   -4    2    6      4.45      0.00
   -4    2    5    -10.56      0.00
   -4    2    4      7.45      0.00
   -4    2    3    -15.19      0.00
   -4    2    2     10.36      0.00
   -4    2    1    -14.13      0.00
    4    2    0     11.22      0.00
    4    2    1      8.32      0.00
    4    2    2      9.81      0.00
    4    2    3      1.06      0.00
    4    2    4      7.11      0.00
    4    2    5     -5.89      0.00
    4    2    6      3.18      0.00
    4    2    7     -9.46      0.00
    4    2    8     -0.82      0.00
    4    2    9     -8.84      0.00
    4    2   10     -3.00      0.00
    4    2   11     -7.38      0.00
    4    2   12     -3.63      0.00
    4    2   13     -5.46      0.00
    4    2   14     -3.44      0.00
    4    2   15     -2.15      0.00
   -4    3   19     -2.90      0.00
   -4    3   18      2.36      0.00
   -4    3   17     -3.48      0.00
   -4    3   16      4.22      0.00
   -4    3   15     -2.46      0.00
   -4    3   14      4.87      0.00
   -4    3   13      0.16      0.00
   -4    3   12      4.83      0.00
   -4    3   11      4.52      0.00
   -4    3   10      2.66      0.00
   -4    3    9      9.15      0.00
   -4    3    8     -2.04      0.00
   -4    3    7     12.24      0.00
   -4    3    6     -7.67      0.00
   -4    3    5     13.40      0.00
   -4    3    4    -12.62      0.00
   -4    3    3     11.95      0.00
   -4    3    2    -13.56      0.00
   -4    3    1      7.80      0.00
    4    3    0      8.95      0.00
    4    3    1      2.99      0.00
    4    3    2      2.02      0.00
    4    3    3     -0.67      0.00
    4    3    4     -5.05      0.00
    4    3    5     -2.65      0.00
    4    3    6    -10.18      0.00
    4    3    7     -3.31      0.00
    4    3    8    -10.69      0.00
    4    3    9     -3.44      0.00
    4    3   10     -8.66      0.00
    4    3   11     -2.97      0.00
    4    3   12     -6.83      0.00
    4    3   13     -1.71      0.00
    4    3   14     -3.94      0.00
    4    3   15     -0.63      0.00
   -4    4   18     -5.47      0.00
   -4    4   17      1.26      0.00
   -4    4   16     -4.74      0.00
   -4    4   15      1.19      0.00
   -4    4   14     -1.54      0.00
   -4    4   13      0.47      0.00
   -4    4   12      4.10      0.00
   -4    4   11     -0.88      0.00
   -4    4   10     11.25      0.00
   -4    4    9     -2.98      0.00
   -4    4    8     16.52      0.00
   -4    4    7     -5.08      0.00
   -4    4    6     18.29      0.00
   -4    4    5     -6.67      0.00
   -4    4    4     15.80      0.00
   -4    4    3     -6.54      0.00
   -4    4    2      8.38      0.00
   -4    4    1     -3.28      0.00
    4    4    0     -0.56      0.00
    4    4    1     -1.57      0.00
    4    4    2     -6.90      0.00
    4    4    3     -5.85      0.00
    4    4    4     -9.33      0.00
    4    4    5     -9.10      0.00
    4    4    6     -7.95      0.00
    4    4    7     -9.80      0.00
    4    4    8     -5.09      0.00
    4    4    9     -7.78      0.00
    4    4   10     -3.11      0.00
    4    4   11     -5.60      0.00
    4    4   12     -1.00      0.00
    4    4   13     -3.74      0.00
    4    4   14      1.11      0.00
    4    4   15     -1.36      0.00
   -4    5   18     -0.78      0.00
   -4    5   17     -5.64      0.00
   -4    5   16     -2.55      0.00
   -4    5   15     -3.32      0.00
   -4    5   14     -4.54      0.00
   -4    5   13      1.51      0.00
   -4    5   12     -6.44      0.00
   -4    5   11      8.41      0.00
   -4    5   10     -7.19      0.00
   -4    5    9     14.59      0.00
   -4    5    8     -5.98      0.00
   -4    5    7     17.43      0.00
   -4    5    6     -3.25      0.00
   -4    5    5     16.27      0.00
   -4    5    4      0.79      0.00
   -4    5    3      9.77      0.00
   -4    5    2      5.64      0.00
   -4    5    1     -0.36      0.00
    4    5    0     -9.31      0.00
    4    5    1     -8.57      0.00
    4    5    2    -10.32      0.00
    4    5    3    -12.31      0.00
    4    5    4     -9.43      0.00
    4    5    5    -11.37      0.00
    4    5    6     -7.64      0.00
    4    5    7     -7.16      0.00
    4    5    8     -5.25      0.00
    4    5    9     -3.46      0.00
    4    5   10     -2.83      0.00
    4    5   11     -1.04      0.00
    4    5   12     -1.19      0.00
    4    5   13      1.62      0.00
    4    5   14     -0.34      0.00
    4    5   15      2.70      0.00
   -4    6   18     -3.75      0.00
   -4    6   17     -4.01      0.00
   -4    6   16     -3.10      0.00
   -4    6   15     -7.53      0.00
   -4    6   14     -0.39      0.00
   -4    6   13    -10.53      0.00
   -4    6   12      3.87      0.00
   -4    6   11    -11.75      0.00
   -4    6   10      8.27      0.00
   -4    6    9     -9.44      0.00
   -4    6    8     10.72      0.00
   -4    6    7     -4.19      0.00
   -4    6    6     10.62      0.00
   -4    6    5      3.05      0.00
   -4    6    4      7.09      0.00
   -4    6    3     11.17      0.00
   -4    6    2     -0.01      0.00
   -4    6    1     16.42      0.00
    4    6    0     -6.87      0.00
    4    6    1    -16.25      0.00
    4    6    2    -10.26      0.00
    4    6    3    -12.18      0.00
    4    6    4    -10.14      0.00
    4    6    5     -6.85      0.00
    4    6    6     -7.09      0.00
    4    6    7     -2.59      0.00
    4    6    8     -3.23      0.00
    4    6    9      0.05      0.00
    4    6   10     -0.71      0.00
    4    6   11      1.90      0.00
    4    6   12      1.37      0.00
    4    6   13      2.33      0.00
    4    6   14      2.97      0.00
    4    6   15      1.17      0.00
   -4    7   18     -2.99      0.00
   -4    7   17     -0.47      0.00
   -4    7   16     -7.17      0.00
   -4    7   15      0.19      0.00
   -4    7   14    -10.83      0.00
   -4    7   13      1.17      0.00
   -4    7   12    -13.12      0.00
   -4    7   11      1.88      0.00
   -4    7   10    -11.99      0.00
   -4    7    9      1.88      0.00
   -4    7    8     -7.02      0.00
   -4    7    7      1.22      0.00
   -4    7    6      0.50      0.00
   -4    7    5     -0.43      0.00
   -4    7    4      9.88      0.00
   -4    7    3     -3.36      0.00
   -4    7    2     17.49      0.00
   -4    7    1     -5.85      0.00
    4    7    0    -18.70      0.00
    4    7    1     -6.12      0.00
    4    7    2    -14.31      0.00
    4    7    3     -4.83      0.00
    4    7    4     -7.60      0.00
    4    7    5     -3.05      0.00
    4    7    6     -1.57      0.00
    4    7    7     -1.06      0.00
    4    7    8      1.87      0.00
    4    7    9      0.59      0.00
    4    7   10      3.73      0.00
    4    7   11      1.72      0.00
    4    7   12      4.60      0.00
    4    7   13      2.53      0.00
    4    7   14      3.13      0.00
    4    7   15      2.36      0.00
   -4    8   18      2.44      0.00
   -4    8   17     -4.56      0.00
   -4    8   16      2.64      0.00
   -4    8   15     -7.64      0.00
   -4    8   14      1.53      0.00
   -4    8   13    -10.03      0.00
   -4    8   12     -0.99      0.00
   -4    8   11    -10.66      0.00
   -4    8   10     -4.45      0.00
   -4    8    9     -8.17      0.00
   -4    8    8     -7.21      0.00
   -4    8    7     -2.97      0.00
   -4    8    6     -8.90      0.00
   -4    8    5      4.37      0.00
   -4    8    4     -9.65      0.00
   -4    8    3     11.79      0.00
   -4    8    2     -8.07      0.00
   -4    8    1     14.65      0.00
    4    8    0     -3.97      0.00
    4    8    1    -11.86      0.00
    4    8    2      0.40      0.00
    4    8    3     -6.70      0.00
    4    8    4      2.89      0.00
    4    8    5     -1.56      0.00
    4    8    6      3.31      0.00
    4    8    7      2.05      0.00
    4    8    8      3.04      0.00
    4    8    9      3.87      0.00
    4    8   10      3.02      0.00
    4    8   11      4.87      0.00
    4    8   12      2.67      0.00
    4    8   13      4.23      0.00
    4    8   14      1.84      0.00
    4    8   15      1.67      0.00
   -4    9   18     -2.10      0.00
   -4    9   17      4.55      0.00
   -4    9   16     -3.38      0.00
   -4    9   15      3.41      0.00
   -4    9   14     -4.40      0.00
   -4    9   13     -0.07      0.00
   -4    9   12     -5.41      0.00
   -4    9   11     -5.60      0.00
   -4    9   10     -5.60      0.00
   -4    9    9    -10.87      0.00
   -4    9    8     -4.03      0.00
   -4    9    7    -13.88      0.00
   -4    9    6     -0.56      0.00
   -4    9    5    -14.61      0.00
   -4    9    4      3.73      0.00
   -4    9    3    -11.76      0.00
   -4    9    2      5.82      0.00
   -4    9    1     -4.96      0.00
    4    9    0     -4.26      0.00
    4    9    1      2.24      0.00
    4    9    2     -1.48      0.00
    4    9    3      6.51      0.00
    4    9    4      0.46      0.00
    4    9    5      7.23      0.00
    4    9    6      1.84      0.00
    4    9    7      5.83      0.00
    4    9    8      2.93      0.00
    4    9    9      4.51      0.00
    4    9   10      3.57      0.00
    4    9   11      3.42      0.00
    4    9   12      3.35      0.00
    4    9   13      1.71      0.00
    4    9   14      1.81      0.00
    4    9   15      0.52      0.00
   -4   10   18      4.33      0.00
   -4   10   17     -0.55      0.00
   -4   10   16      4.33      0.00
   -4   10   15      0.40      0.00
   -4   10   14      2.05      0.00
   -4   10   13      0.76      0.00
   -4   10   12     -2.67      0.00
   -4   10   11     -0.19      0.00
   -4   10   10     -8.76      0.00
   -4   10    9     -1.67      0.00
   -4   10    8    -13.29      0.00
   -4   10    7     -2.18      0.00
   -4   10    6    -14.93      0.00
   -4   10    5     -1.87      0.00
   -4   10    4    -12.98      0.00
   -4   10    3     -2.62      0.00
   -4   10    2     -6.60      0.00
   -4   10    1     -4.91      0.00
    4   10    0      1.21      0.00
    4   10    1      6.57      0.00
    4   10    2      6.13      0.00
    4   10    3      5.78      0.00
    4   10    4      7.50      0.00
    4   10    5      3.64      0.00
    4   10    6      6.64      0.00
    4   10    7      2.36      0.00
    4   10    8      5.03      0.00
    4   10    9      2.06      0.00
    4   10   10      3.57      0.00
    4   10   11      1.54      0.00
    4   10   12      1.77      0.00
    4   10   13      0.63      0.00
    4   10   14      0.15      0.00
   -4   11   17      3.45      0.00
   -4   11   16      2.39      0.00
   -4   11   15      2.80      0.00
   -4   11   14      4.33      0.00
   -4   11   13      0.69      0.00
   -4   11   12      4.68      0.00
   -4   11   11     -3.38      0.00
   -4   11   10      2.60      0.00
   -4   11    9     -7.91      0.00
   -4   11    8     -0.59      0.00
   -4   11    7    -10.41      0.00
   -4   11    6     -3.41      0.00
   -4   11    5     -9.78      0.00
   -4   11    4     -6.88      0.00
   -4   11    3     -5.64      0.00
   -4   11    2    -11.07      0.00
   -4   11    1      0.21      0.00
    4   11    0     13.28      0.00
    4   11    1      3.89      0.00
    4   11    2     11.72      0.00
    4   11    3      4.37      0.00
    4   11    4      7.53      0.00
    4   11    5      3.85      0.00
    4   11    6      3.54      0.00
    4   11    7      3.26      0.00
    4   11    8      1.43      0.00
    4   11    9      2.26      0.00
    4   11   10      0.26      0.00
    4   11   11      0.90      0.00
    4   11   12     -0.71      0.00
    4   11   13     -0.29      0.00
    4   11   14     -0.85      0.00
   -4   12   17      2.11      0.00
   -4   12   16      1.94      0.00
   -4   12   15      4.33      0.00
   -4   12   14      1.85      0.00
   -4   12   13      5.97      0.00
   -4   12   12      1.02      0.00
   -4   12   11      5.50      0.00
   -4   12   10     -1.14      0.00
   -4   12    9      2.23      0.00
   -4   12    8     -3.24      0.00
   -4   12    7     -2.09      0.00
   -4   12    6     -3.41      0.00
   -4   12    5     -6.73      0.00
   -4   12    4     -1.35      0.00
   -4   12    3    -11.99      0.00
   -4   12    2      1.52      0.00
   -4   12    1    -15.39      0.00
    4   12    0      2.63      0.00
    4   12    1     14.50      0.00
    4   12    2      1.01      0.00
    4   12    3     10.42      0.00
    4   12    4     -0.86      0.00
    4   12    5      5.69      0.00
    4   12    6     -0.93      0.00
    4   12    7      2.05      0.00
    4   12    8     -0.57      0.00
    4   12    9     -0.05      0.00
    4   12   10     -1.03      0.00
    4   12   11     -1.15      0.00
    4   12   12     -1.41      0.00
    4   12   13     -1.19      0.00
    4   12   14     -1.03      0.00
   -4   13   17      0.82      0.00
   -4   13   16      2.50      0.00
   -4   13   15      1.20      0.00
   -4   13   14      3.83      0.00
   -4   13   13      2.15      0.00
   -4   13   12      4.71      0.00
   -4   13   11      3.00      0.00
   -4   13   10      3.42      0.00
   -4   13    9      3.08      0.00
   -4   13    8     -0.21      0.00
   -4   13    7      3.19      0.00
   -4   13    6     -4.40      0.00
   -4   13    5      4.18      0.00
   -4   13    4     -8.78      0.00
   -4   13    3      4.89      0.00
   -4   13    2    -12.39      0.00
   -4   13    1      3.45      0.00
    4   13    0     12.60      0.00
    4   13    1     -0.33      0.00
    4   13    2      9.59      0.00
    4   13    3     -4.19      0.00
    4   13    4      6.06      0.00
    4   13    5     -5.36      0.00
    4   13    6      2.93      0.00
    4   13    7     -4.16      0.00
    4   13    8      0.34      0.00
    4   13    9     -3.14      0.00
    4   13   10     -0.94      0.00
    4   13   11     -2.68      0.00
    4   13   12     -0.78      0.00
    4   13   13     -1.77      0.00
    4   13   14      0.01      0.00
   -4   14   17      0.84      0.00
   -4   14   16      0.42      0.00
   -4   14   15      0.98      0.00
   -4   14   14      1.22      0.00
   -4   14   13      1.29      0.00
   -4   14   12      3.14      0.00
   -4   14   11      1.41      0.00
   -4   14   10      5.54      0.00
   -4   14    9     -0.04      0.00
   -4   14    8      7.09      0.00
   -4   14    7     -2.41      0.00
   -4   14    6      7.89      0.00
   -4   14    5     -4.44      0.00
   -4   14    4      7.89      0.00
   -4   14    3     -6.33      0.00
   -4   14    2      5.41      0.00
   -4   14    1     -6.94      0.00
    4   14    0      0.31      0.00
    4   14    1      5.23      0.00
    4   14    2     -4.84      0.00
    4   14    3      3.19      0.00
    4   14    4     -7.36      0.00
    4   14    5      2.18      0.00
    4   14    6     -6.72      0.00
    4   14    7      0.84      0.00
    4   14    8     -4.68      0.00
    4   14    9     -0.47      0.00
    4   14   10     -3.05      0.00
    4   14   11     -0.30      0.00
    4   14   12     -1.91      0.00
    4   14   13      0.63      0.00
   -4   15   16     -0.54      0.00
   -4   15   15      0.44      0.00
   -4   15   14     -1.55      0.00
   -4   15   13      1.45      0.00
   -4   15   12     -2.10      0.00
   -4   15   11      4.03      0.00
   -4   15   10     -2.23      0.00
   -4   15    9      6.81      0.00
   -4   15    8     -2.25      0.00
   -4   15    7      7.92      0.00
   -4   15    6     -1.59      0.00
   -4   15    5      7.84      0.00
   -4   15    4     -0.60      0.00
   -4   15    3      6.18      0.00
   -4   15    2     -0.10      0.00
   -4   15    1      1.60      0.00
    4   15    0     -0.71      0.00
    4   15    1     -3.79      0.00
    4   15    2     -1.49      0.00
    4   15    3     -6.66      0.00
    4   15    4     -0.68      0.00
    4   15    5     -6.65      0.00
    4   15    6      0.50      0.00
    4   15    7     -4.87      0.00
    4   15    8      0.32      0.00
    4   15    9     -2.47      0.00
    4   15   10      0.12      0.00
    4   15   11     -0.84      0.00
    4   15   12      0.79      0.00
    4   15   13     -0.49      0.00
   -4   16   16      0.34      0.00
   -4   16   15     -2.11      0.00
   -4   16   14      0.53      0.00
   -4   16   13     -3.93      0.00
   -4   16   12      1.49      0.00
   -4   16   11     -4.75      0.00
   -4   16   10      3.55      0.00
   -4   16    9     -3.64      0.00
   -4   16    8      4.59      0.00
   -4   16    7     -0.91      0.00
   -4   16    6      4.20      0.00
   -4   16    5      2.34      0.00
   -4   16    4      3.74      0.00
   -4   16    3      4.77      0.00
   -4   16    2      1.70      0.00
   -4   16    1      5.84      0.00
    4   16    0     -2.38      0.00
    4   16    1     -5.69      0.00
    4   16    2     -4.87      0.00
    4   16    3     -3.86      0.00
    4   16    4     -4.40      0.00
    4   16    5     -0.89      0.00
    4   16    6     -3.04      0.00
    4   16    7      1.01      0.00
    4   16    8     -1.27      0.00
    4   16    9      1.11      0.00
    4   16   10      0.58      0.00
    4   16   11      0.79      0.00
    4   16   12      0.92      0.00
    4   16   13      0.61      0.00
   -4   17   15      0.67      0.00
   -4   17   14     -3.00      0.00
   -4   17   13      0.52      0.00
   -4   17   12     -4.86      0.00
   -4   17   11      0.50      0.00
   -4   17   10     -4.51      0.00
   -4   17    9      0.22      0.00
   -4   17    8     -1.25      0.00
   -4   17    7     -0.99      0.00
   -4   17    6      2.76      0.00
   -4   17    5     -1.32      0.00
   -4   17    4      5.90      0.00
   -4   17    3     -0.71      0.00
   -4   17    2      7.86      0.00
   -4   17    1     -1.82      0.00
    4   17    0     -7.80      0.00
    4   17    1     -3.20      0.00
    4   17    2     -5.36      0.00
    4   17    3     -1.93      0.00
    4   17    4     -1.87      0.00
    4   17    5      0.08      0.00
    4   17    6      1.07      0.00
    4   17    7      0.82      0.00
    4   17    8      2.25      0.00
    4   17    9      1.47      0.00
    4   17   10      1.51      0.00
    4   17   11      1.84      0.00
    4   17   12      0.19      0.00
   -4   18   15     -1.04      0.00
   -4   18   14      0.89      0.00
   -4   18   13     -2.38      0.00
   -4   18   12     -0.26      0.00
   -4   18   11     -3.02      0.00
   -4   18   10     -2.43      0.00
   -4   18    9     -0.84      0.00
   -4   18    8     -4.90      0.00
   -4   18    7      2.59      0.00
   -4   18    6     -5.92      0.00
   -4   18    5      4.66      0.00
   -4   18    4     -4.45      0.00
   -4   18    3      6.15      0.00
   -4   18    2     -2.75      0.00
   -4   18    1      6.83      0.00
    4   18    0     -2.13      0.00
    4   18    1     -4.65      0.00
    4   18    2     -0.33      0.00
    4   18    3     -1.04      0.00
    4   18    4      2.52      0.00
    4   18    5      1.35      0.00
    4   18    6      3.37      0.00
    4   18    7      2.53      0.00
    4   18    8      2.33      0.00
    4   18    9      2.36      0.00
    4   18   10      1.51      0.00
    4   18   11      0.66      0.00
    4   18   12      1.02      0.00
   -4   19   15      1.05      0.00
   -4   19   14      0.27      0.00
   -4   19   13      0.40      0.00
   -4   19   12      0.19      0.00
   -4   19   11     -2.29      0.00
   -4   19   10      1.13      0.00
   -4   19    9     -5.84      0.00
   -4   19    8      3.15      0.00
   -4   19    7     -7.58      0.00
   -4   19    6      3.61      0.00
   -4   19    5     -6.49      0.00
   -4   19    4      3.00      0.00
   -4   19    3     -4.08      0.00
   -4   19    2      3.32      0.00
   -4   19    1     -1.84      0.00
    4   19    0     -2.16      0.00
    4   19    1      0.61      0.00
    4   19    2      1.26      0.00
    4   19    3      3.38      0.00
    4   19    4      2.99      0.00
    4   19    5      4.70      0.00
    4   19    6      2.43      0.00
    4   19    7      3.35      0.00
    4   19    8      1.94      0.00
    4   19    9      1.02      0.00
    4   19   10      1.15      0.00
    4   19   11     -0.06      0.00
   -4   20   14      0.57      0.00
   -4   20   13      2.50      0.00
   -4   20   12     -0.88      0.00
   -4   20   11      3.54      0.00
   -4   20   10     -4.08      0.00
   -4   20    9      4.33      0.00
   -4   20    8     -6.15      0.00
   -4   20    7      3.60      0.00
   -4   20    6     -5.35      0.00
   -4   20    5      1.20      0.00
   -4   20    4     -3.55      0.00
   -4   20    3     -0.22      0.00
   -4   20    2     -1.57      0.00
   -4   20    1     -1.01      0.00
    4   20    0      1.20      0.00
    4   20    1      3.62      0.00
    4   20    2      3.51      0.00
    4   20    3      5.29      0.00
    4   20    4      4.12      0.00
    4   20    5      3.30      0.00
    4   20    6      3.21      0.00
    4   20    7      0.80      0.00
    4   20    8      1.05      0.00
    4   20    9      0.26      0.00
    4   20   10     -0.87      0.00
    4   20   11      0.25      0.00
   -4   21   13     -0.29      0.00
   -4   21   12      4.32      0.00
   -4   21   11     -1.61      0.00
   -4   21   10      5.04      0.00
   -4   21    9     -3.09      0.00
   -4   21    8      3.79      0.00
   -4   21    7     -2.33      0.00
   -4   21    6      0.96      0.00
   -4   21    5     -0.78      0.00
   -4   21    4     -1.56      0.00
   -4   21    3     -0.06      0.00
   -4   21    2     -3.09      0.00
   -4   21    1      1.71      0.00
    4   21    0      5.05      0.00
    4   21    1      3.69      0.00
    4   21    2      6.51      0.00
    4   21    3      3.07      0.00
    4   21    4      4.62      0.00
    4   21    5      1.37      0.00
    4   21    6      0.67      0.00
    4   21    7      0.41      0.00
    4   21    8     -1.28      0.00
    4   21    9     -0.65      0.00
    4   21   10     -0.58      0.00
   -4   22   13      2.91      0.00
   -4   22   12     -0.42      0.00
   -4   22   11      4.14      0.00
   -4   22   10     -0.34      0.00
   -4   22    9      3.34      0.00
   -4   22    8      0.62      0.00
   -4   22    7      0.90      0.00
   -4   22    6      2.25      0.00
   -4   22    5     -1.20      0.00
   -4   22    4      2.49      0.00
   -4   22    3     -2.92      0.00
   -4   22    2      2.64      0.00
   -4   22    1     -4.98      0.00
    4   22    0      3.78      0.00
    4   22    1      6.08      0.00
    4   22    2      2.70      0.00
    4   22    3      4.64      0.00
    4   22    4     -0.42      0.00
    4   22    5      1.27      0.00
    4   22    6     -1.47      0.00
    4   22    7     -1.55      0.00
    4   22    8     -0.63      0.00
    4   22    9     -1.81      0.00
    4   22   10     -0.37      0.00
   -4   23   12      1.87      0.00
   -4   23   11      0.69      0.00
   -4   23   10      1.92      0.00
   -4   23    9      2.28      0.00
   -4   23    8      0.35      0.00
   -4   23    7      3.87      0.00
   -4   23    6     -0.87      0.00
   -4   23    5      4.33      0.00
   -4   23    4     -1.52      0.00
   -4   23    3      3.81      0.00
   -4   23    2     -3.34      0.00
   -4   23    1      3.70      0.00
    4   23    0      4.60      0.00
    4   23    1      2.52      0.00
    4   23    2      3.21      0.00
    4   23    3     -0.86      0.00
    4   23    4      0.93      0.00
    4   23    5     -2.91      0.00
    4   23    6     -0.75      0.00
    4   23    7     -1.53      0.00
    4   23    8     -1.67      0.00
    4   23    9      0.37      0.00
   -4   24   11      0.06      0.00
   -4   24   10      2.22      0.00
   -4   24    9     -0.58      0.00
   -4   24    8      3.89      0.00
   -4   24    7     -1.16      0.00
   -4   24    6      4.43      0.00
   -4   24    5     -0.64      0.00
   -4   24    4      4.18      0.00
   -4   24    3     -1.12      0.00
   -4   24    2      3.61      0.00
   -4   24    1     -2.48      0.00
    4   24    0      2.05      0.00
    4   24    1      1.59      0.00
    4   24    2     -0.76      0.00
    4   24    3     -0.31      0.00
    4   24    4     -2.77      0.00
    4   24    5     -0.52      0.00
    4   24    6     -2.04      0.00
    4   24    7     -0.40      0.00
    4   24    8      0.27      0.00
   -4   25   10     -1.45      0.00
   -4   25    9      2.78      0.00
   -4   25    8     -1.71      0.00
   -4   25    7      3.31      0.00
   -4   25    6     -0.82      0.00
   -4   25    5      3.21      0.00
   -4   25    4      0.18      0.00
   -4   25    3      3.17      0.00
   -4   25    2     -0.21      0.00
   -4   25    1      1.78      0.00
    4   25    0      0.14      0.00
    4   25    1     -0.80      0.00
    4   25    2     -1.12      0.00
    4   25    3     -2.05      0.00
    4   25    4     -0.90      0.00
    4   25    5     -1.30      0.00
    4   25    6      0.45      0.00
    4   25    7      0.23      0.00
   -4   26    9     -2.08      0.00
   -4   26    8      1.90      0.00
   -4   26    7     -1.48      0.00
   -4   26    6      1.58      0.00
   -4   26    5      0.02      0.00
   -4   26    4      1.88      0.00
   -4   26    3      1.05      0.00
   -4   26    2      1.68      0.00
   -4   26    1      1.37      0.00
    4   26    0     -0.34      0.00
    4   26    1     -1.50      0.00
    4   26    2     -1.48      0.00
    4   26    3     -0.85      0.00
    4   26    4     -0.34      0.00
    4   26    5      0.66      0.00
    4   26    6      0.83      0.00
   -4   27    8     -1.94      0.00
   -4   27    7      0.32      0.00
   -4   27    6     -0.90      0.00
   -4   27    5      0.13      0.00
   -4   27    4      0.63      0.00
   -4   27    3      0.90      0.00
   -4   27    2      1.96      0.00
   -4   27    1      0.58      0.00
    4   27    0     -2.06      0.00
    4   27    1     -0.39      0.00
    4   27    2     -0.67      0.00
    4   27    3      0.25      0.00
    4   27    4      0.91      0.00
    4   27    5      1.28      0.00
   -4   28    7     -1.49      0.00
   -4   28    6     -0.96      0.00
   -4   28    5     -0.61      0.00
   -4   28    4     -0.55      0.00
   -4   28    3      0.88      0.00
   -4   28    2      0.62      0.00
   -4   28    1      2.01      0.00
    4   28    0      1.00      0.00
    4   28    1     -1.03      0.00
    4   28    2      1.12      0.00
    4   28    3      0.81      0.00
    4   28    4      1.29      0.00
   -4   29    5     -1.38      0.00
   -4   29    4     -0.79      0.00
   -4   29    3     -0.40      0.00
   -4   29    2      0.46      0.00
   -4   29    1      1.24      0.00
    4   29    0     -1.00      0.00
    4   29    1      2.01      0.00
   -5    0   17      2.29      0.00
   -5    0   15      3.19      0.00
   -5    0   13      3.93      0.00
   -5    0   11      4.17      0.00
   -5    0    9      3.07      0.00
   -5    0    7      2.22      0.00
   -5    0    5      3.08      0.00
   -5    0    3      4.85      0.00
   -5    0    1      6.56      0.00
    5    0    1      8.21      0.00
    5    0    3      9.60      0.00
    5    0    5      8.93      0.00
    5    0    7      5.23      0.00
    5    0    9      1.58      0.00
    5    0   11      0.52      0.00
    5    0   13      0.24      0.00
    5    0   15     -0.31      0.00
   -5    1   18      1.08      0.00
   -5    1   17     -2.27      0.00
   -5    1   16      2.07      0.00
   -5    1   15     -1.66      0.00
   -5    1   14      2.69      0.00
   -5    1   13     -0.70      0.00
   -5    1   12      3.20      0.00
   -5    1   11      1.04      0.00
   -5    1   10      2.85      0.00
   -5    1    9      2.94      0.00
   -5    1    8      2.21      0.00
   -5    1    7      3.55      0.00
   -5    1    6      3.10      0.00
   -5    1    5      2.44      0.00
   -5    1    4      5.18      0.00
   -5    1    3      0.19      0.00
   -5    1    2      6.90      0.00
   -5    1    1     -2.10      0.00
    5    1    0      7.96      0.00
    5    1    1      3.24      0.00
    5    1    2      8.76      0.00
    5    1    3      2.33      0.00
    5    1    4      8.77      0.00
    5    1    5     -0.12      0.00
    5    1    6      6.38      0.00
    5    1    7     -2.12      0.00
    5    1    8      2.44      0.00
    5    1    9     -2.42      0.00
    5    1   10      0.20      0.00
    5    1   11     -2.21      0.00
    5    1   12     -0.08      0.00
    5    1   13     -2.20      0.00
    5    1   14     -0.33      0.00
   -5    2   18     -3.68      0.00
   -5    2   17      0.00      0.00
   -5    2   16     -3.29      0.00
   -5    2   15      0.24      0.00
   -5    2   14     -2.02      0.00
   -5    2   13      0.61      0.00
   -5    2   12      0.09      0.00
   -5    2   11      0.72      0.00
   -5    2   10      2.95      0.00
   -5    2    9      1.06      0.00
   -5    2    8      4.58      0.00
   -5    2    7      3.08      0.00
   -5    2    6      3.80      0.00
   -5    2    5      6.55      0.00
   -5    2    4      1.16      0.00
   -5    2    3      9.17      0.00
   -5    2    2     -2.29      0.00
   -5    2    1      9.55      0.00
    5    2    0      4.91      0.00
    5    2    1      8.50      0.00
    5    2    2      4.87      0.00
    5    2    3      7.06      0.00
    5    2    4      1.61      0.00
    5    2    5      5.06      0.00
    5    2    6     -2.76      0.00
    5    2    7      2.05      0.00
    5    2    8     -4.74      0.00
    5    2    9     -0.62      0.00
    5    2   10     -4.34      0.00
    5    2   11     -1.49      0.00
    5    2   12     -3.94      0.00
    5    2   13     -1.22      0.00
    5    2   14     -3.30      0.00
   -5    3   18     -1.45      0.00
   -5    3   17     -3.68      0.00
   -5    3   16     -2.30      0.00
   -5    3   15     -2.83      0.00
   -5    3   14     -2.27      0.00
   -5    3   13     -1.27      0.00
   -5    3   12     -1.98      0.00
   -5    3   11      0.90      0.00
   -5    3   10     -1.06      0.00
   -5    3    9      2.30      0.00
   -5    3    8      1.87      0.00
   -5    3    7      1.71      0.00
   -5    3    6      6.66      0.00
   -5    3    5     -0.10      0.00
   -5    3    4     10.87      0.00
   -5    3    3     -2.35      0.00
   -5    3    2     11.88      0.00
   -5    3    1     -4.53      0.00
    5    3    0      9.56      0.00
    5    3    1      5.24      0.00
    5    3    2      5.75      0.00
    5    3    3      2.89      0.00
    5    3    4      2.26      0.00
    5    3    5     -1.98      0.00
    5    3    6     -0.26      0.00
    5    3    7     -5.88      0.00
    5    3    8     -1.96      0.00
    5    3    9     -6.31      0.00
    5    3   10     -2.91      0.00
    5    3   11     -5.19      0.00
    5    3   12     -2.70      0.00
    5    3   13     -4.24      0.00
    5    3   14     -1.55      0.00
   -5    4   18     -2.17      0.00
   -5    4   17     -3.45      0.00
   -5    4   16     -2.37      0.00
   -5    4   15     -4.23      0.00
   -5    4   14     -1.92      0.00
   -5    4   13     -3.85      0.00
   -5    4   12     -1.27      0.00
   -5    4   11     -2.65      0.00
   -5    4   10     -1.36      0.00
   -5    4    9      0.42      0.00
   -5    4    8     -2.86      0.00
   -5    4    7      5.23      0.00
   -5    4    6     -4.39      0.00
   -5    4    5      9.89      0.00
   -5    4    4     -4.56      0.00
   -5    4    3     11.96      0.00
   -5    4    2     -3.98      0.00
   -5    4    1     10.03      0.00
    5    4    0      3.28      0.00
    5    4    1      5.16      0.00
    5    4    2      1.56      0.00
    5    4    3     -0.15      0.00
    5    4    4     -1.87      0.00
    5    4    5     -3.54      0.00
    5    4    6     -5.67      0.00
    5    4    7     -4.34      0.00
    5    4    8     -7.15      0.00
    5    4    9     -4.05      0.00
    5    4   10     -6.05      0.00
    5    4   11     -3.65      0.00
    5    4   12     -4.40      0.00
    5    4   13     -2.38      0.00
    5    4   14     -2.74      0.00
   -5    5   18     -2.71      0.00
   -5    5   17     -0.51      0.00
   -5    5   16     -4.22      0.00
   -5    5   15     -1.42      0.00
   -5    5   14     -4.07      0.00
   -5    5   13     -2.44      0.00
   -5    5   12     -2.73      0.00
   -5    5   11     -4.26      0.00
   -5    5   10      0.03      0.00
   -5    5    9     -7.14      0.00
   -5    5    8      3.87      0.00
   -5    5    7     -9.30      0.00
   -5    5    6      7.12      0.00
   -5    5    5     -8.50      0.00
   -5    5    4      8.56      0.00
   -5    5    3     -4.97      0.00
   -5    5    2      7.35      0.00
   -5    5    1     -1.03      0.00
    5    5    0      3.34      0.00
    5    5    1     -1.92      0.00
    5    5    2     -1.93      0.00
    5    5    3     -4.13      0.00
    5    5    4     -5.96      0.00
    5    5    5     -5.87      0.00
    5    5    6     -6.89      0.00
    5    5    7     -6.63      0.00
    5    5    8     -5.39      0.00
    5    5    9     -5.85      0.00
    5    5   10     -3.84      0.00
    5    5   11     -4.00      0.00
    5    5   12     -2.51      0.00
    5    5   13     -2.15      0.00
    5    5   14     -0.79      0.00
   -5    6   18      1.38      0.00
   -5    6   17     -2.37      0.00
   -5    6   16     -0.02      0.00
   -5    6   15     -2.33      0.00
   -5    6   14     -2.31      0.00
   -5    6   13     -1.17      0.00
   -5    6   12     -5.36      0.00
   -5    6   11      0.95      0.00
   -5    6   10     -9.25      0.00
   -5    6    9      3.53      0.00
   -5    6    8    -12.04      0.00
   -5    6    7      4.72      0.00
   -5    6    6    -11.29      0.00
   -5    6    5      3.77      0.00
   -5    6    4     -6.58      0.00
   -5    6    3      1.58      0.00
   -5    6    2     -0.12      0.00
   -5    6    1     -1.38      0.00
    5    6    0     -5.07      0.00
    5    6    1     -4.75      0.00
    5    6    2     -7.54      0.00
    5    6    3     -7.42      0.00
    5    6    4     -7.58      0.00
    5    6    5     -8.11      0.00
    5    6    6     -6.24      0.00
    5    6    7     -6.45      0.00
    5    6    8     -4.60      0.00
    5    6    9     -3.90      0.00
    5    6   10     -2.86      0.00
    5    6   11     -1.92      0.00
    5    6   12     -1.02      0.00
    5    6   13     -0.37      0.00
    5    6   14      0.08      0.00
   -5    7   18     -0.29      0.00
   -5    7   17      0.94      0.00
   -5    7   16      0.46      0.00
   -5    7   15     -1.42      0.00
   -5    7   14      1.53      0.00
   -5    7   13     -4.65      0.00
   -5    7   12      2.77      0.00
   -5    7   11     -8.65      0.00
   -5    7   10      3.89      0.00
   -5    7    9    -11.64      0.00
   -5    7    8      3.38      0.00
   -5    7    7    -10.99      0.00
   -5    7    6      0.19      0.00
   -5    7    5     -6.36      0.00
   -5    7    4     -4.21      0.00
   -5    7    3      0.43      0.00
   -5    7    2     -7.62      0.00
   -5    7    1      6.53      0.00
    5    7    0     -9.31      0.00
    5    7    1     -9.56      0.00
    5    7    2     -9.41      0.00
    5    7    3     -9.17      0.00
    5    7    4     -8.26      0.00
    5    7    5     -6.58      0.00
    5    7    6     -6.29      0.00
    5    7    7     -3.54      0.00
    5    7    8     -3.77      0.00
    5    7    9     -1.24      0.00
    5    7   10     -1.30      0.00
    5    7   11      0.47      0.00
    5    7   12      0.39      0.00
    5    7   13      1.37      0.00
    5    7   14      1.06      0.00
   -5    8   18      0.44      0.00
   -5    8   17      2.58      0.00
   -5    8   16     -1.04      0.00
   -5    8   15      4.02      0.00
   -5    8   14     -3.14      0.00
   -5    8   13      4.64      0.00
   -5    8   12     -5.93      0.00
   -5    8   11      4.42      0.00
   -5    8   10     -8.46      0.00
   -5    8    9      2.52      0.00
   -5    8    8     -7.92      0.00
   -5    8    7     -1.83      0.00
   -5    8    6     -3.58      0.00
   -5    8    5     -7.59      0.00
   -5    8    4      2.34      0.00
   -5    8    3    -12.11      0.00
   -5    8    2      7.34      0.00
   -5    8    1    -13.49      0.00
    5    8    0     -9.57      0.00
    5    8    1    -11.86      0.00
    5    8    2     -8.62      0.00
    5    8    3     -8.67      0.00
    5    8    4     -5.98      0.00
    5    8    5     -5.51      0.00
    5    8    6     -2.89      0.00
    5    8    7     -3.04      0.00
    5    8    8     -0.09      0.00
    5    8    9     -0.81      0.00
    5    8   10      1.90      0.00
    5    8   11      0.99      0.00
    5    8   12      2.73      0.00
    5    8   13      1.51      0.00
    5    8   14      2.04      0.00
   -5    9   18      3.21      0.00
   -5    9   17     -1.66      0.00
   -5    9   16      4.99      0.00
   -5    9   15     -2.24      0.00
   -5    9   14      5.34      0.00
   -5    9   13     -2.81      0.00
   -5    9   12      4.43      0.00
   -5    9   11     -3.79      0.00
   -5    9   10      1.77      0.00
   -5    9    9     -3.29      0.00
   -5    9    8     -3.06      0.00
   -5    9    7      0.41      0.00
   -5    9    6     -8.81      0.00
   -5    9    5      5.40      0.00
   -5    9    4    -13.30      0.00
   -5    9    3      8.68      0.00
   -5    9    2    -14.64      0.00
   -5    9    1      8.90      0.00
    5    9    0    -12.52      0.00
    5    9    1     -6.48      0.00
    5    9    2     -8.74      0.00
    5    9    3     -3.37      0.00
    5    9    4     -5.09      0.00
    5    9    5     -1.21      0.00
    5    9    6     -2.35      0.00
    5    9    7      0.65      0.00
    5    9    8     -0.30      0.00
    5    9    9      2.64      0.00
    5    9   10      1.27      0.00
    5    9   11      3.68      0.00
    5    9   12      1.71      0.00
    5    9   13      3.05      0.00
    5    9   14      0.92      0.00
   -5   10   17      4.44      0.00
   -5   10   16     -2.22      0.00
   -5   10   15      4.40      0.00
   -5   10   14     -0.99      0.00
   -5   10   13      3.19      0.00
   -5   10   12      0.17      0.00
   -5   10   11      0.78      0.00
   -5   10   10      1.42      0.00
   -5   10    9     -3.69      0.00
   -5   10    8      4.20      0.00
   -5   10    7     -8.91      0.00
   -5   10    6      7.96      0.00
   -5   10    5    -12.29      0.00
   -5   10    4      9.90      0.00
   -5   10    3    -12.63      0.00
   -5   10    2      8.42      0.00
   -5   10    1    -10.11      0.00
    5   10    0     -4.44      0.00
    5   10    1     -6.52      0.00
    5   10    2     -0.27      0.00
    5   10    3     -3.95      0.00
    5   10    4      1.75      0.00
    5   10    5     -2.13      0.00
    5   10    6      2.13      0.00
    5   10    7     -0.17      0.00
    5   10    8      2.92      0.00
    5   10    9      1.41      0.00
    5   10   10      3.83      0.00
    5   10   11      1.66      0.00
    5   10   12      3.42      0.00
    5   10   13      0.67      0.00
   -5   11   17     -2.10      0.00
   -5   11   16      2.75      0.00
   -5   11   15     -0.48      0.00
   -5   11   14      0.98      0.00
   -5   11   13      1.82      0.00
   -5   11   12     -0.92      0.00
   -5   11   11      4.17      0.00
   -5   11   10     -3.94      0.00
   -5   11    9      6.73      0.00
   -5   11    8     -8.05      0.00
   -5   11    7      9.10      0.00
   -5   11    6    -10.34      0.00
   -5   11    5      9.71      0.00
   -5   11    4     -9.23      0.00
   -5   11    3      7.29      0.00
   -5   11    2     -5.75      0.00
   -5   11    1      2.65      0.00
    5   11    0     -2.01      0.00
    5   11    1      1.79      0.00
    5   11    2     -0.58      0.00
    5   11    3      4.10      0.00
    5   11    4     -1.02      0.00
    5   11    5      4.12      0.00
    5   11    6     -0.45      0.00
    5   11    7      3.58      0.00
    5   11    8      1.22      0.00
    5   11    9      3.44      0.00
    5   11   10      1.60      0.00
    5   11   11      2.92      0.00
    5   11   12      0.41      0.00
    5   11   13      1.84      0.00
   -5   12   17      1.50      0.00
   -5   12   16     -0.14      0.00
   -5   12   15     -0.71      0.00
   -5   12   14      1.73      0.00
   -5   12   13     -2.77      0.00
   -5   12   12      4.02      0.00
   -5   12   11     -4.41      0.00
   -5   12   10      6.76      0.00
   -5   12    9     -6.56      0.00
   -5   12    8      8.55      0.00
   -5   12    7     -7.68      0.00
   -5   12    6      7.96      0.00
   -5   12    5     -5.66      0.00
   -5   12    4      4.89      0.00
   -5   12    3     -1.42      0.00
   -5   12    2      0.40      0.00
   -5   12    1      2.56      0.00
    5   12    0      3.34      0.00
    5   12    1      3.92      0.00
    5   12    2      4.87      0.00
    5   12    3      1.98      0.00
    5   12    4      4.86      0.00
    5   12    5      0.09      0.00
    5   12    6      4.27      0.00
    5   12    7      0.69      0.00
    5   12    8      3.19      0.00
    5   12    9      1.44      0.00
    5   12   10      1.82      0.00
    5   12   11      0.41      0.00
    5   12   12      0.85      0.00
    5   12   13     -0.89      0.00
   -5   13   17      0.44      0.00
   -5   13   16     -1.00      0.00
   -5   13   15      1.52      0.00
   -5   13   14     -3.26      0.00
   -5   13   13      2.43      0.00
   -5   13   12     -4.70      0.00
   -5   13   11      4.22      0.00
   -5   13   10     -5.29      0.00
   -5   13    9      5.96      0.00
   -5   13    8     -4.79      0.00
   -5   13    7      5.09      0.00
   -5   13    6     -2.15      0.00
   -5   13    5      1.70      0.00
   -5   13    4      2.12      0.00
   -5   13    3     -2.33      0.00
   -5   13    2      5.78      0.00
   -5   13    1     -5.16      0.00
    5   13    0      7.02      0.00
    5   13    1      5.29      0.00
    5   13    2      5.14      0.00
    5   13    3      4.06      0.00
    5   13    4      1.95      0.00
    5   13    5      3.66      0.00
    5   13    6      0.58      0.00
    5   13    7      2.98      0.00
    5   13    8      0.89      0.00
    5   13    9      0.91      0.00
    5   13   10      0.50      0.00
    5   13   11     -0.62      0.00
    5   13   12     -0.54      0.00
    5   13   13     -0.45      0.00
   -5   14   16      1.61      0.00
   -5   14   15     -2.02      0.00
   -5   14   14      1.51      0.00
   -5   14   13     -3.53      0.00
   -5   14   12      1.33      0.00
   -5   14   11     -4.05      0.00
   -5   14   10      1.96      0.00
   -5   14    9     -2.59      0.00
   -5   14    8      1.35      0.00
   -5   14    7      0.77      0.00
   -5   14    6     -1.54      0.00
   -5   14    5      4.70      0.00
   -5   14    4     -4.72      0.00
   -5   14    3      7.51      0.00
   -5   14    2     -6.59      0.00
   -5   14    1      8.00      0.00
    5   14    0      5.98      0.00
    5   14    1      6.19      0.00
    5   14    2      3.31      0.00
    5   14    3      3.38      0.00
    5   14    4      1.82      0.00
    5   14    5      1.19      0.00
    5   14    6      1.91      0.00
    5   14    7      0.25      0.00
    5   14    8      0.52      0.00
    5   14    9      0.04      0.00
    5   14   10     -1.61      0.00
    5   14   11     -0.05      0.00
    5   14   12     -1.69      0.00
   -5   15   16     -0.34      0.00
   -5   15   15      1.49      0.00
   -5   15   14     -0.98      0.00
   -5   15   13      0.23      0.00
   -5   15   12     -1.73      0.00
   -5   15   11     -1.10      0.00
   -5   15   10     -0.87      0.00
   -5   15    9     -2.35      0.00
   -5   15    8      2.41      0.00
   -5   15    7     -4.37      0.00
   -5   15    6      5.92      0.00
   -5   15    5     -6.23      0.00
   -5   15    4      7.80      0.00
   -5   15    3     -6.81      0.00
   -5   15    2      7.56      0.00
   -5   15    1     -5.87      0.00
    5   15    0      5.29      0.00
    5   15    1      3.06      0.00
    5   15    2      2.73      0.00
    5   15    3      0.32      0.00
    5   15    4      1.27      0.00
    5   15    5     -0.01      0.00
    5   15    6      0.04      0.00
    5   15    7      0.03      0.00
    5   15    8     -0.86      0.00
    5   15    9     -1.42      0.00
    5   15   10     -0.32      0.00
    5   15   11     -2.15      0.00
    5   15   12      0.61      0.00
   -5   16   16      1.45      0.00
   -5   16   15      1.19      0.00
   -5   16   14      0.59      0.00
   -5   16   13      1.36      0.00
   -5   16   12     -1.57      0.00
   -5   16   11      1.42      0.00
   -5   16   10     -4.14      0.00
   -5   16    9      3.21      0.00
   -5   16    8     -6.04      0.00
   -5   16    7      5.66      0.00
   -5   16    6     -6.60      0.00
   -5   16    5      6.51      0.00
   -5   16    4     -5.84      0.00
   -5   16    3      5.88      0.00
   -5   16    2     -4.34      0.00
   -5   16    1      3.73      0.00
    5   16    0      2.10      0.00
    5   16    1      0.88      0.00
    5   16    2     -0.42      0.00
    5   16    3     -0.13      0.00
    5   16    4     -1.49      0.00
    5   16    5     -0.16      0.00
    5   16    6     -0.96      0.00
    5   16    7     -1.22      0.00
    5   16    8     -0.75      0.00
    5   16    9     -1.28      0.00
    5   16   10     -1.14      0.00
    5   16   11      0.43      0.00
    5   16   12     -1.12      0.00
   -5   17   15      0.88      0.00
   -5   17   14      3.26      0.00
   -5   17   13     -0.54      0.00
   -5   17   12      3.93      0.00
   -5   17   11     -3.24      0.00
   -5   17   10      4.22      0.00
   -5   17    9     -5.58      0.00
   -5   17    8      4.71      0.00
   -5   17    7     -5.54      0.00
   -5   17    6      4.23      0.00
   -5   17    5     -3.86      0.00
   -5   17    4      3.10      0.00
   -5   17    3     -2.04      0.00
   -5   17    2      1.76      0.00
   -5   17    1     -0.17      0.00
    5   17    0     -0.61      0.00
    5   17    1     -1.43      0.00
    5   17    2     -1.97      0.00
    5   17    3     -2.02      0.00
    5   17    4     -1.00      0.00
    5   17    5     -1.64      0.00
    5   17    6     -0.72      0.00
    5   17    7     -0.59      0.00
    5   17    8     -1.48      0.00
    5   17    9      0.37      0.00
    5   17   10     -0.57      0.00
    5   17   11      0.25      0.00
   -5   18   15      3.05      0.00
   -5   18   14      0.00      0.00
   -5   18   13      4.82      0.00
   -5   18   12     -1.37      0.00
   -5   18   11      5.19      0.00
   -5   18   10     -3.18      0.00
   -5   18    9      4.03      0.00
   -5   18    8     -3.08      0.00
   -5   18    7      1.99      0.00
   -5   18    6     -1.03      0.00
   -5   18    5      0.24      0.00
   -5   18    4      0.54      0.00
   -5   18    3     -0.51      0.00
   -5   18    2      1.73      0.00
   -5   18    1     -1.56      0.00
    5   18    0     -2.78      0.00
    5   18    1     -2.78      0.00
    5   18    2     -2.34      0.00
    5   18    3     -1.90      0.00
    5   18    4     -1.28      0.00
    5   18    5     -0.15      0.00
    5   18    6     -0.53      0.00
    5   18    7     -0.20      0.00
    5   18    8      0.89      0.00
    5   18    9     -0.73      0.00
    5   18   10      1.74      0.00
    5   18   11     -0.23      0.00
   -5   19   14      3.51      0.00
   -5   19   13     -0.59      0.00
   -5   19   12      4.67      0.00
   -5   19   11     -0.73      0.00
   -5   19   10      3.49      0.00
   -5   19    9     -0.12      0.00
   -5   19    8      0.45      0.00
   -5   19    7      1.90      0.00
   -5   19    6     -1.79      0.00
   -5   19    5      3.11      0.00
   -5   19    4     -2.15      0.00
   -5   19    3      3.09      0.00
   -5   19    2     -2.17      0.00
   -5   19    1      3.49      0.00
    5   19    0     -2.55      0.00
    5   19    1     -2.66      0.00
    5   19    2     -1.78      0.00
    5   19    3     -0.38      0.00
    5   19    4      0.20      0.00
    5   19    5      0.51      0.00
    5   19    6      1.34      0.00
    5   19    7      0.74      0.00
    5   19    8      0.69      0.00
    5   19   10     -0.43      0.00
   -5   20   14     -0.90      0.00
   -5   20   13      2.45      0.00
   -5   20   12      0.06      0.00
   -5   20   11      2.16      0.00
   -5   20   10      1.86      0.00
   -5   20    9     -0.49      0.00
   -5   20    8      3.92      0.00
   -5   20    7     -2.90      0.00
   -5   20    6      4.83      0.00
   -5   20    5     -2.75      0.00
   -5   20    4      3.93      0.00
   -5   20    3     -2.02      0.00
   -5   20    2      3.19      0.00
   -5   20    1     -1.81      0.00
    5   20    0     -2.27      0.00
    5   20    1     -0.71      0.00
    5   20    2      0.40      0.00
    5   20    3      1.01      0.00
    5   20    4      2.20      0.00
    5   20    5      2.09      0.00
    5   20    6      1.37      0.00
    5   20    7      2.14      0.00
    5   20    8      0.73      0.00
    5   20    9      0.78      0.00
    5   20   10      0.88      0.00
   -5   21   13     -0.39      0.00
   -5   21   12      0.08      0.00
   -5   21   11      1.95      0.00
   -5   21   10     -1.31      0.00
   -5   21    9      4.40      0.00
   -5   21    8     -3.24      0.00
   -5   21    7      5.07      0.00
   -5   21    6     -2.81      0.00
   -5   21    5      3.83      0.00
   -5   21    4     -1.20      0.00
   -5   21    3      2.37      0.00
   -5   21    2     -0.69      0.00
   -5   21    1      1.08      0.00
    5   21    0      0.49      0.00
    5   21    1      1.32      0.00
    5   21    2      2.36      0.00
    5   21    3      3.42      0.00
    5   21    4      2.64      0.00
    5   21    5      2.67      0.00
    5   21    6      2.25      0.00
    5   21    7      0.40      0.00
    5   21    8      1.76      0.00
    5   21    9     -0.61      0.00
   -5   22   12      0.90      0.00
   -5   22   11     -2.03      0.00
   -5   22   10      3.36      0.00
   -5   22    9     -2.94      0.00
   -5   22    8      4.15      0.00
   -5   22    7     -2.50      0.00
   -5   22    6      2.69      0.00
   -5   22    5     -0.50      0.00
   -5   22    4      1.14      0.00
   -5   22    3      0.59      0.00
   -5   22    2     -0.27      0.00
   -5   22    1      1.49      0.00
    5   22    0      2.51      0.00
    5   22    1      3.36      0.00
    5   22    2      4.09      0.00
    5   22    3      3.44      0.00
    5   22    4      3.29      0.00
    5   22    5      1.75      0.00
    5   22    6      0.82      0.00
    5   22    7      1.19      0.00
    5   22    8     -1.31      0.00
   -5   23   12     -1.94      0.00
   -5   23   11      1.63      0.00
   -5   23   10     -2.22      0.00
   -5   23    9      2.61      0.00
   -5   23    8     -1.65      0.00
   -5   23    7      1.31      0.00
   -5   23    6     -0.03      0.00
   -5   23    5     -0.31      0.00
   -5   23    4      1.37      0.00
   -5   23    3     -1.30      0.00
   -5   23    2      2.27      0.00
   -5   23    1     -3.27      0.00
    5   23    0      3.60      0.00
    5   23    1      4.58      0.00
    5   23    2      3.72      0.00
    5   23    3      3.07      0.00
    5   23    4      1.54      0.00
    5   23    5      0.65      0.00
    5   23    6      0.00      0.00
    5   23    7     -1.10      0.00
    5   23    8      0.42      0.00
   -5   24   11     -1.08      0.00
   -5   24   10      0.99      0.00
   -5   24    9     -0.51      0.00
   -5   24    8      0.27      0.00
   -5   24    7      0.64      0.00
   -5   24    6     -1.29      0.00
   -5   24    5      1.61      0.00
   -5   24    4     -1.98      0.00
   -5   24    3      2.57      0.00
   -5   24    2     -3.13      0.00
   -5   24    1      3.52      0.00
    5   24    0      4.39      0.00
    5   24    1      3.14      0.00
    5   24    2      2.67      0.00
    5   24    3      1.05      0.00
    5   24    4     -0.23      0.00
    5   24    5     -0.70      0.00
    5   24    6     -1.23      0.00
    5   24    7     -0.58      0.00
   -5   25   10      0.51      0.00
   -5   25    9     -0.46      0.00
   -5   25    8      1.33      0.00
   -5   25    7     -1.54      0.00
   -5   25    6      1.76      0.00
   -5   25    5     -2.14      0.00
   -5   25    4      2.26      0.00
   -5   25    3     -2.43      0.00
   -5   25    2      3.23      0.00
   -5   25    1     -3.01      0.00
    5   25    0      2.52      0.00
    5   25    1      1.84      0.00
    5   25    2      0.07      0.00
    5   25    3     -0.95      0.00
    5   25    4     -1.30      0.00
    5   25    5     -1.84      0.00
    5   25    6     -0.93      0.00
   -5   26    9      1.62      0.00
   -5   26    8     -1.43      0.00
   -5   26    7      1.80      0.00
   -5   26    6     -1.81      0.00
   -5   26    5      1.64      0.00
   -5   26    4     -1.73      0.00
   -5   26    3      2.32      0.00
   -5   26    2     -1.34      0.00
   -5   26    1      2.13      0.00
    5   26    0      0.17      0.00
    5   26    1     -0.42      0.00
    5   26    2     -1.66      0.00
    5   26    3     -1.96      0.00
    5   26    4     -2.13      0.00
    5   26    5     -0.96      0.00
   -5   27    7     -1.31      0.00
   -5   27    6      1.01      0.00
   -5   27    5     -1.10      0.00
   -5   27    4      0.94      0.00
   -5   27    3     -0.39      0.00
   -5   27    2      1.22      0.00
   -5   27    1      1.33      0.00
    5   27    0     -0.21      0.00
    5   27    1     -2.75      0.00
    5   27    2     -1.82      0.00
    5   27    3     -2.25      0.00
   -5   28    5     -0.17      0.00
   -5   28    4     -0.03      0.00
   -5   28    3     -0.19      0.00
   -5   28    2      1.47      0.00
   -5   28    1     -0.36      0.00
    5   28    0     -3.24      0.00
    5   28    1     -0.91      0.00
   -6    0   18     -2.50      0.00
   -6    0   16     -2.86      0.00
   -6    0   14     -3.04      0.00
   -6    0   12     -3.60      0.00
   -6    0   10     -2.99      0.00
   -6    0    8     -0.89      0.00
   -6    0    6      1.98      0.00
   -6    0    4      5.48      0.00
   -6    0    2      8.09      0.00
    6    0    0      8.84      0.00
    6    0    2      9.25      0.00
    6    0    4      9.37      0.00
    6    0    6      7.20      0.00
    6    0    8      3.30      0.00
    6    0   10      0.46      0.00
    6    0   12     -0.17      0.00
   -6    1   18     -0.17      0.00
   -6    1   17     -2.24      0.00
   -6    1   16     -0.33      0.00
   -6    1   15     -2.17      0.00
   -6    1   14     -0.05      0.00
   -6    1   13     -2.34      0.00
   -6    1   11     -2.54      0.00
   -6    1   10     -1.82      0.00
   -6    1    9     -1.73      0.00
   -6    1    8     -2.65      0.00
   -6    1    7      0.19      0.00
   -6    1    6     -3.49      0.00
   -6    1    5      3.18      0.00
   -6    1    4     -4.70      0.00
   -6    1    3      6.25      0.00
   -6    1    2     -5.22      0.00
   -6    1    1      7.55      0.00
    6    1    0      4.73      0.00
    6    1    1      7.65      0.00
    6    1    2      3.46      0.00
    6    1    3      7.90      0.00
    6    1    4      1.11      0.00
    6    1    5      7.18      0.00
    6    1    6     -1.35      0.00
    6    1    7      4.47      0.00
    6    1    8     -2.30      0.00
    6    1    9      1.45      0.00
    6    1   10     -1.67      0.00
    6    1   11      0.01      0.00
    6    1   12     -0.54      0.00
    6    1   13      0.08      0.00
   -6    2   18     -0.75      0.00
   -6    2   17     -0.71      0.00
   -6    2   16     -0.72      0.00
   -6    2   15     -0.49      0.00
   -6    2   14     -0.15      0.00
   -6    2   13     -0.29      0.00
   -6    2   12      0.04      0.00
   -6    2   11     -1.55      0.00
   -6    2   10     -0.52      0.00
   -6    2    9     -3.19      0.00
   -6    2    8     -0.70      0.00
   -6    2    7     -4.76      0.00
   -6    2    6      0.84      0.00
   -6    2    5     -7.11      0.00
   -6    2    4      3.43      0.00
   -6    2    3     -8.89      0.00
   -6    2    2      4.86      0.00
   -6    2    1     -8.79      0.00
    6    2    0      4.60      0.00
    6    2    1      7.32      0.00
    6    2    2      4.02      0.00
    6    2    3      4.27      0.00
    6    2    4      3.65      0.00
    6    2    5     -0.13      0.00
    6    2    6      2.80      0.00
    6    2    7     -3.35      0.00
    6    2    8      1.43      0.00
    6    2    9     -3.71      0.00
    6    2   10      0.39      0.00
    6    2   11     -2.21      0.00
    6    2   12      0.04      0.00
    6    2   13     -0.56      0.00
   -6    3   18     -0.81      0.00
   -6    3   17      0.73      0.00
   -6    3   16     -1.16      0.00
   -6    3   15      1.30      0.00
   -6    3   14     -0.60      0.00
   -6    3   13      2.42      0.00
   -6    3   12     -0.50      0.00
   -6    3   11      2.28      0.00
   -6    3   10     -1.53      0.00
   -6    3    9      0.65      0.00
   -6    3    8     -3.41      0.00
   -6    3    7      0.22      0.00
   -6    3    6     -6.51      0.00
   -6    3    5      1.65      0.00
   -6    3    4     -9.61      0.00
   -6    3    3      2.58      0.00
   -6    3    2    -10.51      0.00
   -6    3    1      1.86      0.00
    6    3    0      9.44      0.00
    6    3    1      0.33      0.00
    6    3    2      6.96      0.00
    6    3    3     -1.13      0.00
    6    3    4      2.68      0.00
    6    3    5     -1.72      0.00
    6    3    6     -1.93      0.00
    6    3    7     -1.30      0.00
    6    3    8     -4.25      0.00
    6    3    9     -0.52      0.00
    6    3   10     -3.92      0.00
    6    3   11      0.00      0.00
    6    3   12     -2.34      0.00
    6    3   13     -0.03      0.00
   -6    4   18      1.52      0.00
   -6    4   17     -1.34      0.00
   -6    4   16      1.86      0.00
   -6    4   15     -1.31      0.00
   -6    4   14      2.89      0.00
   -6    4   13     -0.58      0.00
   -6    4   12      3.93      0.00
   -6    4   11      0.06      0.00
   -6    4   10      3.03      0.00
   -6    4    9     -0.72      0.00
   -6    4    8      1.76      0.00
   -6    4    7     -3.64      0.00
   -6    4    6      2.11      0.00
   -6    4    5     -7.31      0.00
   -6    4    4      2.26      0.00
   -6    4    3     -9.19      0.00
   -6    4    2      0.79      0.00
   -6    4    1     -8.81      0.00
    6    4    0     -1.47      0.00
    6    4    1      7.15      0.00
    6    4    2     -4.14      0.00
    6    4    3      4.22      0.00
    6    4    4     -6.14      0.00
    6    4    5      0.45      0.00
    6    4    6     -5.86      0.00
    6    4    7     -2.53      0.00
    6    4    8     -3.68      0.00
    6    4    9     -3.72      0.00
    6    4   10     -1.40      0.00
    6    4   11     -3.46      0.00
    6    4   12     -0.19      0.00
    6    4   13     -2.28      0.00
   -6    5   18     -1.17      0.00
   -6    5   17      1.65      0.00
   -6    5   16     -1.41      0.00
   -6    5   15      2.12      0.00
   -6    5   14     -1.41      0.00
   -6    5   13      3.27      0.00
   -6    5   12     -0.33      0.00
   -6    5   11      3.84      0.00
   -6    5   10      0.59      0.00
   -6    5    9      3.59      0.00
   -6    5    8     -0.82      0.00
   -6    5    7      3.97      0.00
   -6    5    6     -3.67      0.00
   -6    5    5      3.90      0.00
   -6    5    4     -5.40      0.00
   -6    5    3      1.79      0.00
   -6    5    2     -5.46      0.00
   -6    5    1     -1.25      0.00
    6    5    0      4.58      0.00
    6    5    1     -4.42      0.00
    6    5    2      2.92      0.00
    6    5    3     -7.66      0.00
    6    5    4      1.03      0.00
    6    5    5     -8.99      0.00
    6    5    6     -0.48      0.00
    6    5    7     -7.38      0.00
    6    5    8     -1.58      0.00
    6    5    9     -4.33      0.00
    6    5   10     -2.37      0.00
    6    5   11     -1.63      0.00
    6    5   12     -2.55      0.00
    6    5   13     -0.17      0.00
   -6    6   18      0.70      0.00
   -6    6   17     -1.01      0.00
   -6    6   16      1.11      0.00
   -6    6   15     -1.67      0.00
   -6    6   14      1.76      0.00
   -6    6   13     -1.79      0.00
   -6    6   12      2.63      0.00
   -6    6   11     -0.64      0.00
   -6    6   10      3.60      0.00
   -6    6    9     -0.37      0.00
   -6    6    8      4.95      0.00
   -6    6    7     -1.35      0.00
   -6    6    6      5.50      0.00
   -6    6    5     -1.36      0.00
   -6    6    4      3.64      0.00
   -6    6    3     -0.49      0.00
   -6    6    2      0.33      0.00
   -6    6    1      0.06      0.00
    6    6    0     -2.98      0.00
    6    6    1     -0.65      0.00
    6    6    2     -6.35      0.00
    6    6    3     -1.06      0.00
    6    6    4     -8.71      0.00
    6    6    5     -0.50      0.00
    6    6    6     -8.66      0.00
    6    6    7      0.22      0.00
    6    6    8     -6.64      0.00
    6    6    9      0.04      0.00
    6    6   10     -3.90      0.00
    6    6   11     -0.77      0.00
    6    6   12     -1.37      0.00
    6    6   13     -1.21      0.00
   -6    7   18     -0.64      0.00
   -6    7   17      0.16      0.00
   -6    7   16     -1.36      0.00
   -6    7   15      0.79      0.00
   -6    7   14     -2.58      0.00
   -6    7   13      1.21      0.00
   -6    7   12     -2.71      0.00
   -6    7   11      2.06      0.00
   -6    7   10     -2.20      0.00
   -6    7    9      3.83      0.00
   -6    7    8     -1.77      0.00
   -6    7    7      4.97      0.00
   -6    7    6      0.29      0.00
   -6    7    5      3.92      0.00
   -6    7    4      3.58      0.00
   -6    7    3      1.42      0.00
   -6    7    2      5.29      0.00
   -6    7    1     -1.29      0.00
    6    7    0     -5.31      0.00
    6    7    1     -3.99      0.00
    6    7    2     -4.61      0.00
    6    7    3     -6.09      0.00
    6    7    4     -2.68      0.00
    6    7    5     -6.72      0.00
    6    7    6     -0.16      0.00
    6    7    7     -6.15      0.00
    6    7    8      1.32      0.00
    6    7    9     -4.85      0.00
    6    7   10      1.42      0.00
    6    7   11     -2.87      0.00
    6    7   12      0.75      0.00
    6    7   13     -0.82      0.00
   -6    8   17     -1.02      0.00
   -6    8   16      0.52      0.00
   -6    8   15     -2.47      0.00
   -6    8   14      0.77      0.00
   -6    8   13     -3.61      0.00
   -6    8   12      0.73      0.00
   -6    8   11     -3.92      0.00
   -6    8   10      1.69      0.00
   -6    8    9     -3.50      0.00
   -6    8    8      2.45      0.00
   -6    8    7     -0.75      0.00
   -6    8    6      1.43      0.00
   -6    8    5      4.48      0.00
   -6    8    4     -0.10      0.00
   -6    8    3      8.57      0.00
   -6    8    2     -1.06      0.00
   -6    8    1      9.46      0.00
    6    8    0     -2.15      0.00
    6    8    1     -8.26      0.00
    6    8    2     -3.20      0.00
    6    8    3     -5.58      0.00
    6    8    4     -3.42      0.00
    6    8    5     -2.22      0.00
    6    8    6     -3.32      0.00
    6    8    7      0.34      0.00
    6    8    8     -3.29      0.00
    6    8    9      1.75      0.00
    6    8   10     -2.79      0.00
    6    8   11      2.25      0.00
    6    8   12     -1.60      0.00
    6    8   13      1.75      0.00
   -6    9   17      0.92      0.00
   -6    9   16     -1.98      0.00
   -6    9   15      1.12      0.00
   -6    9   14     -3.07      0.00
   -6    9   13      0.33      0.00
   -6    9   12     -3.77      0.00
   -6    9   11      0.05      0.00
   -6    9   10     -3.96      0.00
   -6    9    9     -0.10      0.00
   -6    9    8     -2.03      0.00
   -6    9    7     -2.10      0.00
   -6    9    6      2.92      0.00
   -6    9    5     -4.16      0.00
   -6    9    4      8.21      0.00
   -6    9    3     -3.76      0.00
   -6    9    2     10.85      0.00
   -6    9    1     -2.33      0.00
    6    9    0    -10.51      0.00
    6    9    1     -1.43      0.00
    6    9    2     -7.92      0.00
    6    9    3     -0.71      0.00
    6    9    4     -4.47      0.00
    6    9    5     -0.36      0.00
    6    9    6     -1.82      0.00
    6    9    7     -0.60      0.00
    6    9    8     -0.01      0.00
    6    9    9     -0.82      0.00
    6    9   10      1.64      0.00
    6    9   11     -0.80      0.00
    6    9   12      2.41      0.00
   -6   10   17     -1.33      0.00
   -6   10   16      1.81      0.00
   -6   10   15     -1.80      0.00
   -6   10   14      0.48      0.00
   -6   10   13     -1.99      0.00
   -6   10   12     -0.85      0.00
   -6   10   11     -2.33      0.00
   -6   10   10     -1.62      0.00
   -6   10    9     -1.34      0.00
   -6   10    8     -4.14      0.00
   -6   10    7      1.99      0.00
   -6   10    6     -7.71      0.00
   -6   10    5      5.95      0.00
   -6   10    4     -8.14      0.00
   -6   10    3      8.66      0.00
   -6   10    2     -5.19      0.00
   -6   10    1      9.59      0.00
    6   10    0     -1.83      0.00
    6   10    1     -8.39      0.00
    6   10    2      0.47      0.00
    6   10    3     -5.82      0.00
    6   10    4      1.37      0.00
    6   10    5     -3.70      0.00
    6   10    6      1.22      0.00
    6   10    7     -2.27      0.00
    6   10    8      1.26      0.00
    6   10    9     -0.49      0.00
    6   10   10      1.28      0.00
    6   10   11      1.27      0.00
    6   10   12      0.52      0.00
   -6   11   17      2.41      0.00
   -6   11   16     -0.43      0.00
   -6   11   15      0.83      0.00
   -6   11   14      0.36      0.00
   -6   11   13     -1.31      0.00
   -6   11   12      0.39      0.00
   -6   11   11     -2.48      0.00
   -6   11   10      0.89      0.00
   -6   11    9     -4.40      0.00
   -6   11    8      3.15      0.00
   -6   11    7     -8.24      0.00
   -6   11    6      5.13      0.00
   -6   11    5    -10.54      0.00
   -6   11    4      5.51      0.00
   -6   11    3     -8.67      0.00
   -6   11    2      5.67      0.00
   -6   11    1     -4.41      0.00
    6   11    0     -5.79      0.00
    6   11    1     -0.41      0.00
    6   11    2     -5.19      0.00
    6   11    3      1.56      0.00
    6   11    4     -4.40      0.00
    6   11    5      1.63      0.00
    6   11    6     -3.65      0.00
    6   11    7      1.94      0.00
    6   11    8     -2.29      0.00
    6   11    9      2.84      0.00
    6   11   10     -0.59      0.00
    6   11   11      2.42      0.00
    6   11   12      0.50      0.00
   -6   12   17      0.41      0.00
   -6   12   16      1.07      0.00
   -6   12   15      2.27      0.00
   -6   12   14     -1.24      0.00
   -6   12   13      3.02      0.00
   -6   12   12     -2.85      0.00
   -6   12   11      3.09      0.00
   -6   12   10     -4.14      0.00
   -6   12    9      4.82      0.00
   -6   12    8     -6.61      0.00
   -6   12    7      6.30      0.00
   -6   12    6     -9.05      0.00
   -6   12    5      4.63      0.00
   -6   12    4     -9.11      0.00
   -6   12    3      1.99      0.00
   -6   12    2     -6.51      0.00
   -6   12    1      1.24      0.00
    6   12    0     -2.66      0.00
    6   12    1     -1.95      0.00
    6   12    2      0.24      0.00
    6   12    3     -3.13      0.00
    6   12    4      1.01      0.00
    6   12    5     -3.63      0.00
    6   12    6      1.39      0.00
    6   12    7     -2.71      0.00
    6   12    8      2.84      0.00
    6   12    9     -1.46      0.00
    6   12   10      3.49      0.00
    6   12   11     -0.83      0.00
    6   12   12      2.07      0.00
   -6   13   16      2.92      0.00
   -6   13   15     -0.87      0.00
   -6   13   14      4.64      0.00
   -6   13   13     -2.31      0.00
   -6   13   12      4.56      0.00
   -6   13   11     -3.53      0.00
   -6   13   10      5.28      0.00
   -6   13    9     -4.95      0.00
   -6   13    8      6.94      0.00
   -6   13    7     -5.77      0.00
   -6   13    6      5.57      0.00
   -6   13    5     -5.67      0.00
   -6   13    4      1.19      0.00
   -6   13    3     -5.05      0.00
   -6   13    2     -2.00      0.00
   -6   13    1     -3.55      0.00
    6   13    0      2.16      0.00
    6   13    1     -1.48      0.00
    6   13    2      0.06      0.00
    6   13    3     -0.25      0.00
    6   13    4     -1.97      0.00
    6   13    5      0.45      0.00
    6   13    6     -1.83      0.00
    6   13    7      1.84      0.00
    6   13    8     -0.78      0.00
    6   13    9      3.04      0.00
    6   13   10     -0.90      0.00
    6   13   11      2.54      0.00
   -6   14   16     -0.67      0.00
   -6   14   15      4.50      0.00
   -6   14   14     -1.23      0.00
   -6   14   13      4.99      0.00
   -6   14   12     -1.98      0.00
   -6   14   11      4.80      0.00
   -6   14   10     -3.43      0.00
   -6   14    9      5.64      0.00
   -6   14    8     -3.40      0.00
   -6   14    7      5.31      0.00
   -6   14    6     -1.48      0.00
   -6   14    5      1.89      0.00
   -6   14    4     -0.44      0.00
   -6   14    3     -2.18      0.00
   -6   14    2     -0.92      0.00
   -6   14    1     -4.09      0.00
    6   14    0     -1.24      0.00
    6   14    1      3.13      0.00
    6   14    2     -1.02      0.00
    6   14    3      0.71      0.00
    6   14    4     -0.33      0.00
    6   14    5     -0.13      0.00
    6   14    6      0.91      0.00
    6   14    7      0.70      0.00
    6   14    8      1.80      0.00
    6   14    9      0.42      0.00
    6   14   10      1.70      0.00
    6   14   11     -0.89      0.00
   -6   15   16      2.93      0.00
   -6   15   15     -0.52      0.00
   -6   15   14      3.92      0.00
   -6   15   13     -0.15      0.00
   -6   15   12      3.92      0.00
   -6   15   11     -1.25      0.00
   -6   15   10      3.68      0.00
   -6   15    9     -1.89      0.00
   -6   15    8      3.00      0.00
   -6   15    7      0.66      0.00
   -6   15    6      1.10      0.00
   -6   15    5      3.59      0.00
   -6   15    4     -1.40      0.00
   -6   15    3      3.59      0.00
   -6   15    2     -3.33      0.00
   -6   15    1      1.82      0.00
    6   15    0      3.77      0.00
    6   15    1      0.18      0.00
    6   15    2      2.52      0.00
    6   15    3     -0.23      0.00
    6   15    4      1.47      0.00
    6   15    5      0.61      0.00
    6   15    6      1.91      0.00
    6   15    7      0.96      0.00
    6   15    8      1.95      0.00
    6   15    9      0.31      0.00
    6   15   10      0.53      0.00
    6   15   11      0.14      0.00
   -6   16   15      1.77      0.00
   -6   16   14      0.67      0.00
   -6   16   13      2.26      0.00
   -6   16   12      0.82      0.00
   -6   16   11      2.20      0.00
   -6   16   10     -0.06      0.00
   -6   16    9      0.69      0.00
   -6   16    8      1.28      0.00
   -6   16    7     -1.30      0.00
   -6   16    6      4.67      0.00
   -6   16    5     -2.15      0.00
   -6   16    4      6.28      0.00
   -6   16    3     -2.25      0.00
   -6   16    2      5.22      0.00
   -6   16    1     -2.42      0.00
    6   16    0      3.01      0.00
    6   16    1      2.23      0.00
    6   16    2      1.24      0.00
    6   16    3      1.84      0.00
    6   16    4      1.05      0.00
    6   16    5      2.11      0.00
    6   16    6      1.03      0.00
    6   16    7      2.37      0.00
    6   16    8     -0.34      0.00
    6   16    9      1.72      0.00
    6   16   10     -1.10      0.00
   -6   17   15      0.48      0.00
   -6   17   14      0.01      0.00
   -6   17   13      1.32      0.00
   -6   17   12      0.62      0.00
   -6   17   11      1.48      0.00
   -6   17   10     -0.34      0.00
   -6   17    9      1.94      0.00
   -6   17    8     -2.95      0.00
   -6   17    7      3.92      0.00
   -6   17    6     -3.88      0.00
   -6   17    5      5.77      0.00
   -6   17    4     -2.61      0.00
   -6   17    3      6.04      0.00
   -6   17    2     -1.45      0.00
   -6   17    1      4.96      0.00
    6   17    0      0.96      0.00
    6   17    1      3.09      0.00
    6   17    2      0.87      0.00
    6   17    3      1.94      0.00
    6   17    4      1.25      0.00
    6   17    5      1.61      0.00
    6   17    6      1.47      0.00
    6   17    7      0.21      0.00
    6   17    8      1.42      0.00
    6   17    9     -1.41      0.00
    6   17   10      1.46      0.00
   -6   18   14      0.58      0.00
   -6   18   13     -1.30      0.00
   -6   18   12      1.44      0.00
   -6   18   11     -1.08      0.00
   -6   18   10      2.40      0.00
   -6   18    9     -2.86      0.00
   -6   18    8      3.21      0.00
   -6   18    7     -4.42      0.00
   -6   18    6      3.74      0.00
   -6   18    5     -3.43      0.00
   -6   18    4      4.15      0.00
   -6   18    3     -1.71      0.00
   -6   18    2      4.28      0.00
   -6   18    1     -0.56      0.00
    6   18    0      3.47      0.00
    6   18    1     -0.08      0.00
    6   18    2      2.34      0.00
    6   18    3      0.06      0.00
    6   18    4      1.87      0.00
    6   18    5      0.20      0.00
    6   18    6      1.11      0.00
    6   18    7      0.00      0.00
    6   18    8     -0.42      0.00
    6   18    9      0.68      0.00
   -6   19   14     -2.46      0.00
   -6   19   13      0.39      0.00
   -6   19   12     -2.20      0.00
   -6   19   11      1.73      0.00
   -6   19   10     -2.37      0.00
   -6   19    9      2.64      0.00
   -6   19    8     -3.31      0.00
   -6   19    7      2.10      0.00
   -6   19    6     -3.09      0.00
   -6   19    5      1.58      0.00
   -6   19    4     -2.03      0.00
   -6   19    3      1.97      0.00
   -6   19    2     -1.14      0.00
   -6   19    1      2.01      0.00
    6   19    0      0.10      0.00
    6   19    1      1.47      0.00
    6   19    2     -0.43      0.00
    6   19    3      1.29      0.00
    6   19    4     -0.40      0.00
    6   19    5      1.26      0.00
    6   19    6     -0.95      0.00
    6   19    7      0.74      0.00
    6   19    8     -0.89      0.00
    6   19    9      0.04      0.00
   -6   20   13     -2.80      0.00
   -6   20   12      0.55      0.00
   -6   20   11     -2.43      0.00
   -6   20   10      1.62      0.00
   -6   20    9     -1.97      0.00
   -6   20    8      1.13      0.00
   -6   20    7     -1.63      0.00
   -6   20    6     -0.12      0.00
   -6   20    5     -1.45      0.00
   -6   20    4     -0.07      0.00
   -6   20    3     -1.45      0.00
   -6   20    2      0.19      0.00
   -6   20    1     -0.84      0.00
    6   20    0     -0.15      0.00
    6   20    1      0.02      0.00
    6   20    2      0.06      0.00
    6   20    3     -0.11      0.00
    6   20    4      0.65      0.00
    6   20    5     -0.60      0.00
    6   20    6      0.94      0.00
    6   20    7     -1.48      0.00
    6   20    8      1.04      0.00
   -6   21   12     -2.34      0.00
   -6   21   11      0.60      0.00
   -6   21   10     -1.31      0.00
   -6   21    9      0.43      0.00
   -6   21    8     -0.18      0.00
   -6   21    7     -0.78      0.00
   -6   21    6     -0.24      0.00
   -6   21    5     -1.05      0.00
   -6   21    4     -1.02      0.00
   -6   21    3     -0.67      0.00
   -6   21    2     -1.13      0.00
   -6   21    1     -1.12      0.00
    6   21    0      0.65      0.00
    6   21    1     -1.02      0.00
    6   21    2      0.60      0.00
    6   21    3      0.00      0.00
    6   21    4      0.42      0.00
    6   21    5      0.54      0.00
    6   21    6     -0.64      0.00
    6   21    7      0.96      0.00
    6   21    8     -1.50      0.00
   -6   22   12      0.38      0.00
   -6   22   11     -0.87      0.00
   -6   22   10      0.02      0.00
   -6   22    9      0.60      0.00
   -6   22    8     -0.79      0.00
   -6   22    7      0.93      0.00
   -6   22    6     -1.11      0.00
   -6   22    5     -0.21      0.00
   -6   22    4     -0.64      0.00
   -6   22    3     -0.80      0.00
   -6   22    2     -0.88      0.00
   -6   22    1     -0.72      0.00
    6   22    0     -1.12      0.00
    6   22    1      1.10      0.00
    6   22    2     -0.15      0.00
    6   22    3      1.26      0.00
    6   22    4      0.49      0.00
    6   22    5      0.41      0.00
    6   22    6      0.43      0.00
    6   22    7     -0.75      0.00
   -6   23   11      0.14      0.00
   -6   23   10      0.90      0.00
   -6   23    9     -0.53      0.00
   -6   23    8      1.65      0.00
   -6   23    7     -0.66      0.00
   -6   23    6      0.69      0.00
   -6   23    5     -0.20      0.00
   -6   23    4     -0.25      0.00
   -6   23    3     -0.05      0.00
   -6   23    2     -0.29      0.00
   -6   23    1     -0.21      0.00
    6   23    0      1.02      0.00
    6   23    1      0.34      0.00
    6   23    2      1.66      0.00
    6   23    3      0.86      0.00
    6   23    4      0.86      0.00
    6   23    5      0.37      0.00
    6   23    6     -0.22      0.00
   -6   24   10     -0.14      0.00
   -6   24    9      1.78      0.00
   -6   24    8     -0.20      0.00
   -6   24    7      1.41      0.00
   -6   24    6      0.33      0.00
   -6   24    5      0.38      0.00
   -6   24    4      0.67      0.00
   -6   24    3      0.16      0.00
   -6   24    2      0.94      0.00
   -6   24    1     -0.44      0.00
    6   24    0      1.36      0.00
    6   24    1      1.51      0.00
    6   24    2      1.32      0.00
    6   24    3      0.90      0.00
    6   24    4      0.54      0.00
    6   24    5     -0.44      0.00
   -6   25    9      0.01      0.00
   -6   25    8      1.52      0.00
   -6   25    7      0.56      0.00
   -6   25    6      0.89      0.00
   -6   25    5      1.06      0.00
   -6   25    4      0.44      0.00
   -6   25    3      1.60      0.00
   -6   25    2      0.06      0.00
   -6   25    1      2.35      0.00
    6   25    0      0.80      0.00
    6   25    1      1.91      0.00
    6   25    2      0.58      0.00
    6   25    3      0.44      0.00
    6   25    4     -0.83      0.00
   -6   26    7      0.85      0.00
   -6   26    6      1.00      0.00
   -6   26    5      0.50      0.00
   -6   26    4      1.60      0.00
   -6   26    3      0.15      0.00
   -6   26    2      2.57      0.00
   -6   26    1     -0.10      0.00
    6   26    0      2.44      0.00
    6   26    1     -0.25      0.00
    6   26    2      0.42      0.00
   -6   27    5      1.16      0.00
   -6   27    4     -0.04      0.00
   -6   27    3      1.96      0.00
   -6   27    2     -0.01      0.00
   -6   27    1      2.21      0.00
    6   27    0     -1.01      0.00
   -7    0   17      1.53      0.00
   -7    0   15      2.48      0.00
   -7    0   13      1.56      0.00
   -7    0   11     -2.54      0.00
   -7    0    9     -6.37      0.00
   -7    0    7     -8.42      0.00
   -7    0    5    -10.27      0.00
   -7    0    1     -8.95      0.00
    7    0    1     -4.65      0.00
    7    0    3      0.47      0.00
    7    0    5      4.06      0.00
    7    0    7      4.77      0.00
    7    0    9      3.51      0.00
    7    0   11      1.34      0.00
   -7    1   18      0.84      0.00
   -7    1   17      1.10      0.00
   -7    1   16      1.46      0.00
   -7    1   15      2.49      0.00
   -7    1   14      1.95      0.00
   -7    1   13      4.63      0.00
   -7    1   12      0.13      0.00
   -7    1   11      5.28      0.00
   -7    1   10     -3.20      0.00
   -7    1    9      3.63      0.00
   -7    1    8     -5.44      0.00
   -7    1    7      1.41      0.00
   -7    1    6     -7.04      0.00
   -7    1    5     -1.13      0.00
   -7    1    3     -4.27      0.00
   -7    1    2     -8.25      0.00
   -7    1    1     -6.68      0.00
    7    1    0     -5.87      0.00
    7    1    1      7.38      0.00
    7    1    2     -2.00      0.00
    7    1    3      6.48      0.00
    7    1    4      1.71      0.00
    7    1    5      4.06      0.00
    7    1    6      3.47      0.00
    7    1    7      1.13      0.00
    7    1    8      3.26      0.00
    7    1    9     -1.15      0.00
    7    1   10      2.02      0.00
    7    1   11     -2.00      0.00
    7    1   12      0.51      0.00
   -7    2   18      1.06      0.00
   -7    2   17     -0.07      0.00
   -7    2   16      2.42      0.00
   -7    2   15      0.37      0.00
   -7    2   14      5.22      0.00
   -7    2   13      0.96      0.00
   -7    2   12      7.92      0.00
   -7    2   11      0.81      0.00
   -7    2   10      7.31      0.00
   -7    2    9      0.05      0.00
   -7    2    8      4.40      0.00
   -7    2    7     -0.72      0.00
   -7    2    6      0.86      0.00
   -7    2    5     -1.61      0.00
   -7    2    4     -3.98      0.00
   -7    2    3     -2.57      0.00
   -7    2    2     -8.88      0.00
   -7    2    1     -2.96      0.00
    7    2    0     11.50      0.00
    7    2    1     -2.39      0.00
    7    2    2     11.51      0.00
    7    2    3     -1.13      0.00
    7    2    4      8.87      0.00
    7    2    5     -0.13      0.00
    7    2    6      4.40      0.00
    7    2    7      0.29      0.00
    7    2    8      0.05      0.00
    7    2    9      0.58      0.00
    7    2   10     -2.70      0.00
    7    2   11      0.83      0.00
    7    2   12     -2.79      0.00
   -7    3   18     -1.07      0.00
   -7    3   17      1.29      0.00
   -7    3   16     -1.28      0.00
   -7    3   15      2.86      0.00
   -7    3   14     -0.56      0.00
   -7    3   13      5.59      0.00
   -7    3   12      1.81      0.00
   -7    3   11      7.17      0.00
   -7    3   10      4.15      0.00
   -7    3    9      6.08      0.00
   -7    3    8      5.20      0.00
   -7    3    7      3.49      0.00
   -7    3    6      5.79      0.00
   -7    3    5     -0.68      0.00
   -7    3    4      5.61      0.00
   -7    3    3     -6.09      0.00
   -7    3    2      3.71      0.00
   -7    3    1    -10.16      0.00
    7    3    0      1.01      0.00
    7    3    1     11.62      0.00
    7    3    2     -1.34      0.00
    7    3    3     10.53      0.00
    7    3    4     -3.17      0.00
    7    3    5      7.09      0.00
    7    3    6     -3.96      0.00
    7    3    7      2.67      0.00
    7    3    8     -3.23      0.00
    7    3    9     -1.06      0.00
    7    3   10     -1.22      0.00
    7    3   11     -2.86      0.00
    7    3   12      0.77      0.00
   -7    4   17     -1.74      0.00
   -7    4   16      0.35      0.00
   -7    4   15     -1.81      0.00
   -7    4   14      1.01      0.00
   -7    4   13      0.15      0.00
   -7    4   12      2.47      0.00
   -7    4   11      4.15      0.00
   -7    4   10      3.70      0.00
   -7    4    9      7.40      0.00
   -7    4    8      3.63      0.00
   -7    4    7      9.70      0.00
   -7    4    6      1.85      0.00
   -7    4    5     11.59      0.00
   -7    4    4     -1.44      0.00
   -7    4    3     10.72      0.00
   -7    4    2     -4.77      0.00
   -7    4    1      6.70      0.00
    7    4    0      6.66      0.00
    7    4    1      1.71      0.00
    7    4    2      6.93      0.00
    7    4    3     -3.03      0.00
    7    4    4      5.78      0.00
    7    4    5     -6.42      0.00
    7    4    6      3.62      0.00
    7    4    7     -7.05      0.00
    7    4    8      1.23      0.00
    7    4    9     -4.96      0.00
    7    4   10     -0.76      0.00
    7    4   11     -1.43      0.00
    7    4   12     -1.66      0.00
   -7    5   17     -1.14      0.00
   -7    5   16     -1.51      0.00
   -7    5   15     -2.09      0.00
   -7    5   14     -0.95      0.00
   -7    5   13     -2.92      0.00
   -7    5   12      1.72      0.00
   -7    5   11     -1.92      0.00
   -7    5   10      5.32      0.00
   -7    5    9      0.04      0.00
   -7    5    8      8.53      0.00
   -7    5    7      0.89      0.00
   -7    5    6     11.93      0.00
   -7    5    5      0.79      0.00
   -7    5    4     13.55      0.00
   -7    5    3      0.59      0.00
   -7    5    2     10.93      0.00
   -7    5    1      0.33      0.00
    7    5    0      5.64      0.00
    7    5    1     -0.14      0.00
    7    5    2     -0.13      0.00
    7    5    3      0.00      0.00
    7    5    4     -5.27      0.00
    7    5    5      0.54      0.00
    7    5    6     -7.95      0.00
    7    5    7      1.17      0.00
    7    5    8     -7.37      0.00
    7    5    9      1.29      0.00
    7    5   10     -4.40      0.00
    7    5   11      0.60      0.00
    7    5   12     -0.87      0.00
   -7    6   17     -0.49      0.00
   -7    6   16     -2.86      0.00
   -7    6   15     -0.24      0.00
   -7    6   14     -5.25      0.00
   -7    6   13      0.45      0.00
   -7    6   12     -6.53      0.00
   -7    6   11      1.98      0.00
   -7    6   10     -5.02      0.00
   -7    6    9      4.18      0.00
   -7    6    8     -2.93      0.00
   -7    6    7      7.20      0.00
   -7    6    6     -1.02      0.00
   -7    6    5     10.07      0.00
   -7    6    4      2.10      0.00
   -7    6    3     10.18      0.00
   -7    6    2      5.18      0.00
   -7    6    1      7.10      0.00
    7    6    0     -6.70      0.00
    7    6    1      2.60      0.00
    7    6    2     -7.00      0.00
    7    6    3     -1.90      0.00
    7    6    4     -5.53      0.00
    7    6    5     -5.19      0.00
    7    6    6     -2.36      0.00
    7    6    7     -6.15      0.00
    7    6    8      0.69      0.00
    7    6    9     -5.05      0.00
    7    6   10      2.15      0.00
    7    6   11     -2.76      0.00
    7    6   12      1.58      0.00
   -7    7   17     -2.15      0.00
   -7    7   16      1.06      0.00
   -7    7   15     -4.49      0.00
   -7    7   14      1.33      0.00
   -7    7   13     -7.23      0.00
   -7    7   12      0.76      0.00
   -7    7   11     -7.74      0.00
   -7    7   10      0.48      0.00
   -7    7    9     -6.30      0.00
   -7    7    8      1.37      0.00
   -7    7    7     -4.37      0.00
   -7    7    6      2.80      0.00
   -7    7    5     -0.33      0.00
   -7    7    4      3.86      0.00
   -7    7    3      5.42      0.00
   -7    7    2      3.82      0.00
   -7    7    1      9.52      0.00
    7    7    0      2.44      0.00
    7    7    1    -11.22      0.00
    7    7    2      0.49      0.00
    7    7    3    -10.68      0.00
    7    7    4     -1.07      0.00
    7    7    5     -7.23      0.00
    7    7    6     -1.91      0.00
    7    7    7     -2.51      0.00
    7    7    8     -2.16      0.00
    7    7    9      1.04      0.00
    7    7   10     -2.05      0.00
    7    7   11      2.36      0.00
    7    7   12     -1.41      0.00
   -7    8   17      1.90      0.00
   -7    8   16     -2.51      0.00
   -7    8   15      2.74      0.00
   -7    8   14     -4.95      0.00
   -7    8   13      1.95      0.00
   -7    8   12     -6.59      0.00
   -7    8   11     -0.22      0.00
   -7    8   10     -6.48      0.00
   -7    8    9     -1.77      0.00
   -7    8    8     -5.49      0.00
   -7    8    7     -3.07      0.00
   -7    8    6     -2.88      0.00
   -7    8    5     -4.17      0.00
   -7    8    4      2.35      0.00
   -7    8    3     -3.42      0.00
   -7    8    2      7.67      0.00
   -7    8    1     -1.52      0.00
    7    8    0    -10.76      0.00
    7    8    1     -0.13      0.00
    7    8    2    -11.64      0.00
    7    8    3      1.22      0.00
    7    8    4     -9.80      0.00
    7    8    5      2.41      0.00
    7    8    6     -5.73      0.00
    7    8    7      2.42      0.00
    7    8    8     -1.78      0.00
    7    8    9      1.29      0.00
    7    8   10      0.73      0.00
    7    8   11     -0.12      0.00
   -7    9   17     -0.68      0.00
   -7    9   16      3.33      0.00
   -7    9   15     -2.15      0.00
   -7    9   14      3.45      0.00
   -7    9   13     -3.28      0.00
   -7    9   12      1.21      0.00
   -7    9   11     -3.62      0.00
   -7    9   10     -1.61      0.00
   -7    9    9     -3.22      0.00
   -7    9    8     -4.57      0.00
   -7    9    7     -2.01      0.00
   -7    9    6     -8.47      0.00
   -7    9    5      0.41      0.00
   -7    9    4    -10.19      0.00
   -7    9    3      3.66      0.00
   -7    9    2     -7.65      0.00
   -7    9    1      6.52      0.00
    7    9    0     -3.61      0.00
    7    9    1     -8.14      0.00
    7    9    2      0.27      0.00
    7    9    3     -8.07      0.00
    7    9    4      3.94      0.00
    7    9    5     -6.25      0.00
    7    9    6      5.65      0.00
    7    9    7     -3.81      0.00
    7    9    8      4.76      0.00
    7    9    9     -1.81      0.00
    7    9   10      2.59      0.00
    7    9   11     -0.25      0.00
   -7   10   16     -0.34      0.00
   -7   10   15      3.71      0.00
   -7   10   14     -0.25      0.00
   -7   10   13      2.43      0.00
   -7   10   12      0.14      0.00
   -7   10   11     -0.22      0.00
   -7   10   10      0.56      0.00
   -7   10    9     -3.11      0.00
   -7   10    8      1.64      0.00
   -7   10    7     -7.43      0.00
   -7   10    6      2.39      0.00
   -7   10    5    -11.73      0.00
   -7   10    4      1.95      0.00
   -7   10    3    -11.71      0.00
   -7   10    2      1.77      0.00
   -7   10    1     -7.74      0.00
    7   10    0     -2.51      0.00
    7   10    1     -2.85      0.00
    7   10    2     -3.15      0.00
    7   10    3      2.04      0.00
    7   10    4     -3.36      0.00
    7   10    5      5.51      0.00
    7   10    6     -3.39      0.00
    7   10    7      5.93      0.00
    7   10    8     -3.10      0.00
    7   10    9      4.35      0.00
    7   10   10     -2.20      0.00
    7   10   11      2.27      0.00
   -7   11   16      2.58      0.00
   -7   11   15      1.24      0.00
   -7   11   14      2.05      0.00
   -7   11   13      2.91      0.00
   -7   11   12      0.29      0.00
   -7   11   11      3.74      0.00
   -7   11   10     -1.72      0.00
   -7   11    9      4.86      0.00
   -7   11    8     -4.39      0.00
   -7   11    7      6.09      0.00
   -7   11    6     -8.09      0.00
   -7   11    5      4.28      0.00
   -7   11    4    -10.29      0.00
   -7   11    3      0.41      0.00
   -7   11    2     -8.99      0.00
   -7   11    1     -1.69      0.00
    7   11    0     -5.49      0.00
    7   11    1      1.85      0.00
    7   11    2     -1.39      0.00
    7   11    3      1.09      0.00
    7   11    4      2.31      0.00
    7   11    5     -0.71      0.00
    7   11    6      4.01      0.00
    7   11    7     -2.38      0.00
    7   11    8      3.73      0.00
    7   11    9     -2.71      0.00
    7   11   10      2.76      0.00
    7   11   11     -1.86      0.00
   -7   12   16      1.24      0.00
   -7   12   15      0.23      0.00
   -7   12   14      3.92      0.00
   -7   12   13     -0.78      0.00
   -7   12   12      5.49      0.00
   -7   12   11     -1.75      0.00
   -7   12   10      6.07      0.00
   -7   12    9     -2.86      0.00
   -7   12    8      7.59      0.00
   -7   12    7     -4.04      0.00
   -7   12    6      7.36      0.00
   -7   12    5     -5.07      0.00
   -7   12    4      2.95      0.00
   -7   12    3     -5.58      0.00
   -7   12    2     -1.84      0.00
   -7   12    1     -5.04      0.00
    7   12    0      3.92      0.00
    7   12    1     -3.40      0.00
    7   12    2      4.01      0.00
    7   12    3     -1.43      0.00
    7   12    4      2.30      0.00
    7   12    5      0.14      0.00
    7   12    6     -0.34      0.00
    7   12    7      1.00      0.00
    7   12    8     -1.67      0.00
    7   12    9      1.43      0.00
    7   12   10     -1.54      0.00
   -7   13   16     -1.79      0.00
   -7   13   15      3.39      0.00
   -7   13   14     -2.88      0.00
   -7   13   13      5.63      0.00
   -7   13   12     -2.88      0.00
   -7   13   11      5.90      0.00
   -7   13   10     -3.03      0.00
   -7   13    9      6.28      0.00
   -7   13    8     -2.88      0.00
   -7   13    7      7.17      0.00
   -7   13    6     -1.33      0.00
   -7   13    5      5.38      0.00
   -7   13    4     -0.32      0.00
   -7   13    3      1.09      0.00
   -7   13    2     -1.15      0.00
   -7   13    1     -2.18      0.00
    7   13    0     -2.23      0.00
    7   13    1      3.51      0.00
    7   13    2     -2.81      0.00
    7   13    3      3.18      0.00
    7   13    4     -2.99      0.00
    7   13    5      1.42      0.00
    7   13    6     -2.25      0.00
    7   13    7      0.00      0.00
    7   13    8     -0.85      0.00
    7   13    9     -0.17      0.00
    7   13   10      0.18      0.00
   -7   14   15     -4.59      0.00
   -7   14   14      4.37      0.00
   -7   14   13     -4.36      0.00
   -7   14   12      4.86      0.00
   -7   14   11     -3.49      0.00
   -7   14   10      4.27      0.00
   -7   14    9     -3.36      0.00
   -7   14    8      4.19      0.00
   -7   14    7     -1.44      0.00
   -7   14    6      4.16      0.00
   -7   14    5      1.97      0.00
   -7   14    4      2.88      0.00
   -7   14    3      2.85      0.00
   -7   14    2      0.98      0.00
   -7   14    1      1.03      0.00
    7   14    0      0.44      0.00
    7   14    1     -1.15      0.00
    7   14    2      1.20      0.00
    7   14    3     -3.14      0.00
    7   14    4      1.25      0.00
    7   14    5     -3.84      0.00
    7   14    6      1.06      0.00
    7   14    7     -2.64      0.00
    7   14    8      1.24      0.00
    7   14    9     -1.16      0.00
    7   14   10      1.09      0.00
   -7   15   15      2.62      0.00
   -7   15   14     -5.16      0.00
   -7   15   13      2.91      0.00
   -7   15   12     -3.71      0.00
   -7   15   11      2.54      0.00
   -7   15   10     -3.19      0.00
   -7   15    9      1.61      0.00
   -7   15    8     -2.69      0.00
   -7   15    7      0.76      0.00
   -7   15    6      0.37      0.00
   -7   15    5      1.02      0.00
   -7   15    4      3.36      0.00
   -7   15    3      1.85      0.00
   -7   15    2      3.25      0.00
   -7   15    1      2.13      0.00
    7   15    0      1.42      0.00
    7   15    1     -1.70      0.00
    7   15    2     -0.79      0.00
    7   15    3     -0.76      0.00
    7   15    4     -2.56      0.00
    7   15    5      0.57      0.00
    7   15    6     -2.57      0.00
    7   15    7      1.76      0.00
    7   15    8     -1.57      0.00
    7   15    9      2.04      0.00
   -7   16   14      0.79      0.00
   -7   16   13     -3.49      0.00
   -7   16   12      0.59      0.00
   -7   16   11     -2.34      0.00
   -7   16   10      0.42      0.00
   -7   16    9     -2.35      0.00
   -7   16    8     -1.16      0.00
   -7   16    7     -1.48      0.00
   -7   16    6     -2.16      0.00
   -7   16    5      0.93      0.00
   -7   16    4     -0.55      0.00
   -7   16    3      2.39      0.00
   -7   16    2      1.72      0.00
   -7   16    1      2.14      0.00
    7   16    0     -2.70      0.00
    7   16    1      1.30      0.00
    7   16    2     -2.41      0.00
    7   16    3      0.16      0.00
    7   16    4     -0.88      0.00
    7   16    5     -0.53      0.00
    7   16    6      1.07      0.00
    7   16    7     -0.50      0.00
    7   16    8      1.98      0.00
    7   16    9     -0.72      0.00
   -7   17   14     -2.37      0.00
   -7   17   13     -1.26      0.00
   -7   17   12     -1.57      0.00
   -7   17   11     -0.60      0.00
   -7   17   10     -1.07      0.00
   -7   17    9     -1.00      0.00
   -7   17    8     -1.06      0.00
   -7   17    7     -3.09      0.00
   -7   17    6     -0.72      0.00
   -7   17    5     -3.27      0.00
   -7   17    4      0.05      0.00
   -7   17    3     -0.96      0.00
   -7   17    2      0.70      0.00
   -7   17    1      1.03      0.00
    7   17    0      1.29      0.00
    7   17    1     -1.78      0.00
    7   17    2      1.68      0.00
    7   17    3     -1.40      0.00
    7   17    4      1.72      0.00
    7   17    5      0.00      0.00
    7   17    6      1.40      0.00
    7   17    7      1.04      0.00
    7   17    8      0.60      0.00
   -7   18   13     -0.67      0.00
   -7   18   12     -1.63      0.00
   -7   18   11     -0.35      0.00
   -7   18   10     -0.67      0.00
   -7   18    9      0.27      0.00
   -7   18    8     -1.76      0.00
   -7   18    7      0.06      0.00
   -7   18    6     -3.41      0.00
   -7   18    5     -0.76      0.00
   -7   18    4     -2.92      0.00
   -7   18    3     -0.85      0.00
   -7   18    2     -1.44      0.00
   -7   18    1      0.00      0.00
    7   18    0      0.50      0.00
    7   18    1      1.26      0.00
    7   18    2     -0.06      0.00
    7   18    3      2.32      0.00
    7   18    4     -0.05      0.00
    7   18    5      2.61      0.00
    7   18    6      0.20      0.00
    7   18    7      1.90      0.00
    7   18    8      0.10      0.00
   -7   19   13     -1.76      0.00
   -7   19   12      0.00      0.00
   -7   19   11     -0.85      0.00
   -7   19   10      0.65      0.00
   -7   19    9     -0.52      0.00
   -7   19    8      1.40      0.00
   -7   19    7     -1.60      0.00
   -7   19    6      0.50      0.00
   -7   19    5     -2.47      0.00
   -7   19    4     -0.63      0.00
   -7   19    3     -2.42      0.00
   -7   19    2     -0.43      0.00
   -7   19    1     -2.25      0.00
    7   19    0      0.51      0.00
    7   19    1      1.82      0.00
    7   19    2      1.54      0.00
    7   19    3      1.02      0.00
    7   19    4      2.30      0.00
    7   19    5      0.27      0.00
    7   19    6      2.15      0.00
    7   19    7     -0.44      0.00
   -7   20   12     -0.69      0.00
   -7   20   11      0.47      0.00
   -7   20   10     -0.22      0.00
   -7   20    9      1.54      0.00
   -7   20    8     -0.21      0.00
   -7   20    7      1.84      0.00
   -7   20    6     -0.81      0.00
   -7   20    5      0.94      0.00
   -7   20    4     -1.62      0.00
   -7   20    3      0.65      0.00
   -7   20    2     -2.30      0.00
   -7   20    1      0.96      0.00
    7   20    0      2.49      0.00
    7   20    1      1.12      0.00
    7   20    2      1.88      0.00
    7   20    3      1.40      0.00
    7   20    4      0.85      0.00
    7   20    5      1.47      0.00
    7   20    6     -0.19      0.00
    7   20    7      1.12      0.00
   -7   21   11     -0.08      0.00
   -7   21   10      1.08      0.00
   -7   21    9      0.06      0.00
   -7   21    8      1.95      0.00
   -7   21    7      0.16      0.00
   -7   21    6      2.15      0.00
   -7   21    5     -0.47      0.00
   -7   21    4      2.19      0.00
   -7   21    3     -1.45      0.00
   -7   21    2      2.35      0.00
   -7   21    1     -1.87      0.00
    7   21    0      1.84      0.00
    7   21    1      1.62      0.00
    7   21    2      1.16      0.00
    7   21    3      0.94      0.00
    7   21    4      0.91      0.00
    7   21    5      0.15      0.00
    7   21    6      0.54      0.00
   -7   22   10      0.01      0.00
   -7   22    9      1.49      0.00
   -7   22    8      0.13      0.00
   -7   22    7      2.24      0.00
   -7   22    6     -0.09      0.00
   -7   22    5      3.00      0.00
   -7   22    4     -0.87      0.00
   -7   22    3      3.45      0.00
   -7   22    2     -1.13      0.00
   -7   22    1      2.87      0.00
    7   22    0      0.74      0.00
    7   22    1      1.62      0.00
    7   22    2      0.36      0.00
    7   22    3      0.92      0.00
    7   22    4      0.02      0.00
    7   22    5      0.51      0.00
   -7   23    9     -0.09      0.00
   -7   23    8      1.79      0.00
   -7   23    7     -0.29      0.00
   -7   23    6      2.84      0.00
   -7   23    5     -0.85      0.00
   -7   23    4      3.63      0.00
   -7   23    3     -0.92      0.00
   -7   23    2      3.26      0.00
   -7   23    1     -0.14      0.00
    7   23    0      1.98      0.00
    7   23    1     -0.31      0.00
    7   23    2      1.05      0.00
    7   23    3     -0.31      0.00
    7   23    4      0.75      0.00
   -7   24    8     -0.44      0.00
   -7   24    7      2.11      0.00
   -7   24    6     -0.92      0.00
   -7   24    5      3.01      0.00
   -7   24    4     -0.97      0.00
   -7   24    3      2.87      0.00
   -7   24    2     -0.05      0.00
   -7   24    1      1.83      0.00
    7   24    0     -0.69      0.00
    7   24    1      0.89      0.00
    7   24    2     -0.52      0.00
    7   24    3      0.61      0.00
   -7   25    6      1.89      0.00
   -7   25    5     -0.85      0.00
   -7   25    4      1.98      0.00
   -7   25    3     -0.12      0.00
   -7   25    2      1.25      0.00
   -7   25    1      0.76      0.00
    7   25    0      0.57      0.00
    7   25    1     -0.71      0.00
   -8    0   16      2.90      0.00
   -8    0   14      6.35      0.00
   -8    0   12      8.21      0.00
   -8    0   10      6.52      0.00
   -8    0    8      3.49      0.00
   -8    0    6      0.44      0.00
   -8    0    4     -4.03      0.00
   -8    0    2     -8.66      0.00
    8    0    0    -10.18      0.00
    8    0    2     -8.38      0.00
    8    0    4     -5.47      0.00
    8    0    6     -2.44      0.00
    8    0    8      0.72      0.00
    8    0   10      2.68      0.00
   -8    1   17      1.25      0.00
   -8    1   16     -1.88      0.00
   -8    1   15      3.55      0.00
   -8    1   14     -0.67      0.00
   -8    1   13      5.96      0.00
   -8    1   12      2.54      0.00
   -8    1   11      6.19      0.00
   -8    1   10      5.57      0.00
   -8    1    9      4.29      0.00
   -8    1    8      6.75      0.00
   -8    1    7      2.17      0.00
   -8    1    6      6.90      0.00
   -8    1    5     -0.74      0.00
   -8    1    4      6.33      0.00
   -8    1    3     -4.97      0.00
   -8    1    2      4.31      0.00
   -8    1    1     -7.97      0.00
    8    1    0     -1.34      0.00
    8    1    1     -7.93      0.00
    8    1    2      1.17      0.00
    8    1    3     -5.97      0.00
    8    1    4      2.57      0.00
    8    1    5     -3.68      0.00
    8    1    6      2.89      0.00
    8    1    7     -1.13      0.00
    8    1    8      2.11      0.00
    8    1    9      1.28      0.00
    8    1   10      0.46      0.00
    8    1   11      2.05      0.00
   -8    2   17     -2.64      0.00
   -8    2   16      0.69      0.00
   -8    2   15     -2.18      0.00
   -8    2   14      1.30      0.00
   -8    2   13      1.26      0.00
   -8    2   12      2.04      0.00
   -8    2   11      6.47      0.00
   -8    2   10      2.40      0.00
   -8    2    9      9.77      0.00
   -8    2    8      2.39      0.00
   -8    2    7     10.71      0.00
   -8    2    6      1.94      0.00
   -8    2    5     10.69      0.00
   -8    2    4      0.24      0.00
   -8    2    3      8.85      0.00
   -8    2    2     -2.14      0.00
   -8    2    1      4.72      0.00
    8    2    0     -3.50      0.00
    8    2    1     -0.15      0.00
    8    2    2     -3.48      0.00
    8    2    3      3.10      0.00
    8    2    4     -3.07      0.00
    8    2    5      4.62      0.00
    8    2    6     -2.40      0.00
    8    2    7      4.37      0.00
    8    2    8     -1.22      0.00
    8    2    9      2.25      0.00
    8    2   10     -0.01      0.00
    8    2   11     -0.38      0.00
   -8    3   17     -0.57      0.00
   -8    3   16     -2.12      0.00
   -8    3   15     -1.87      0.00
   -8    3   14     -0.54      0.00
   -8    3   13     -2.88      0.00
   -8    3   12      3.45      0.00
   -8    3   11     -2.09      0.00
   -8    3   10      7.60      0.00
   -8    3    9     -0.04      0.00
   -8    3    8      9.57      0.00
   -8    3    7      1.92      0.00
   -8    3    6     10.21      0.00
   -8    3    5      3.26      0.00
   -8    3    4      9.81      0.00
   -8    3    3      3.56      0.00
   -8    3    2      7.12      0.00
   -8    3    1      2.91      0.00
    8    3    0     -2.82      0.00
    8    3    1      1.74      0.00
    8    3    2      1.10      0.00
    8    3    3      0.26      0.00
    8    3    4      3.73      0.00
    8    3    5     -1.41      0.00
    8    3    6      4.72      0.00
    8    3    7     -2.59      0.00
    8    3    8      3.63      0.00
    8    3    9     -2.74      0.00
    8    3   10      1.05      0.00
    8    3   11     -1.65      0.00
   -8    4   17     -0.85      0.00
   -8    4   16     -2.36      0.00
   -8    4   15     -0.46      0.00
   -8    4   14     -4.70      0.00
   -8    4   13      0.60      0.00
   -8    4   12     -5.62      0.00
   -8    4   11      2.66      0.00
   -8    4   10     -3.70      0.00
   -8    4    9      4.48      0.00
   -8    4    8     -0.55      0.00
   -8    4    7      5.27      0.00
   -8    4    6      2.65      0.00
   -8    4    5      5.75      0.00
   -8    4    4      5.63      0.00
   -8    4    3      5.53      0.00
   -8    4    2      7.22      0.00
   -8    4    1      3.91      0.00
    8    4    0      6.79      0.00
    8    4    1     -1.64      0.00
    8    4    2      4.85      0.00
    8    4    3      0.48      0.00
    8    4    4      1.85      0.00
    8    4    5      2.18      0.00
    8    4    6     -1.44      0.00
    8    4    7      2.63      0.00
    8    4    8     -3.80      0.00
    8    4    9      1.60      0.00
    8    4   10     -3.95      0.00
   -8    5   17     -1.57      0.00
   -8    5   16      0.61      0.00
   -8    5   15     -3.28      0.00
   -8    5   14      0.08      0.00
   -8    5   13     -5.15      0.00
   -8    5   12     -0.88      0.00
   -8    5   11     -5.20      0.00
   -8    5   10     -1.10      0.00
   -8    5    9     -3.00      0.00
   -8    5    8     -1.07      0.00
   -8    5    7      0.15      0.00
   -8    5    6     -1.02      0.00
   -8    5    5      3.83      0.00
   -8    5    4     -0.06      0.00
   -8    5    3      7.11      0.00
   -8    5    2      1.43      0.00
   -8    5    1      8.34      0.00
    8    5    0     -2.43      0.00
    8    5    1      7.43      0.00
    8    5    2     -2.75      0.00
    8    5    3      5.06      0.00
    8    5    4     -2.12      0.00
    8    5    5      1.49      0.00
    8    5    6     -0.98      0.00
    8    5    7     -2.24      0.00
    8    5    8     -0.22      0.00
    8    5    9     -4.18      0.00
    8    5   10      0.30      0.00
   -8    6   17      1.25      0.00
   -8    6   16     -1.02      0.00
   -8    6   15      0.65      0.00
   -8    6   14     -1.76      0.00
   -8    6   13     -1.49      0.00
   -8    6   12     -2.80      0.00
   -8    6   11     -3.89      0.00
   -8    6   10     -2.76      0.00
   -8    6    9     -5.32      0.00
   -8    6    8     -1.21      0.00
   -8    6    7     -6.36      0.00
   -8    6    6      1.10      0.00
   -8    6    5     -6.16      0.00
   -8    6    4      3.69      0.00
   -8    6    3     -3.46      0.00
   -8    6    2      5.53      0.00
   -8    6    1      0.35      0.00
    8    6    0      5.82      0.00
    8    6    1     -3.55      0.00
    8    6    2      5.12      0.00
    8    6    3     -5.35      0.00
    8    6    4      3.45      0.00
    8    6    5     -5.25      0.00
    8    6    6      0.57      0.00
    8    6    7     -3.74      0.00
    8    6    8     -1.98      0.00
    8    6    9     -1.56      0.00
    8    6   10     -2.48      0.00
   -8    7   16      0.82      0.00
   -8    7   15      1.44      0.00
   -8    7   14     -0.85      0.00
   -8    7   13      1.47      0.00
   -8    7   12     -3.55      0.00
   -8    7   11      0.43      0.00
   -8    7   10     -5.95      0.00
   -8    7    9      0.02      0.00
   -8    7    8     -7.71      0.00
   -8    7    7      0.35      0.00
   -8    7    6     -8.71      0.00
   -8    7    5      0.50      0.00
   -8    7    4     -7.11      0.00
   -8    7    3      0.68      0.00
   -8    7    2     -2.78      0.00
   -8    7    1      0.94      0.00
    8    7    0     -1.92      0.00
    8    7    1      1.26      0.00
    8    7    2     -5.49      0.00
    8    7    3      1.92      0.00
    8    7    4     -7.30      0.00
    8    7    5      1.91      0.00
    8    7    6     -6.66      0.00
    8    7    7      0.84      0.00
    8    7    8     -4.06      0.00
    8    7    9      0.09      0.00
    8    7   10     -0.88      0.00
   -8    8   16      2.86      0.00
   -8    8   15     -0.58      0.00
   -8    8   14      4.38      0.00
   -8    8   13     -2.18      0.00
   -8    8   12      4.14      0.00
   -8    8   11     -4.05      0.00
   -8    8   10      2.75      0.00
   -8    8    9     -5.60      0.00
   -8    8    8      1.67      0.00
   -8    8    7     -6.61      0.00
   -8    8    6     -0.15      0.00
   -8    8    5     -6.36      0.00
   -8    8    4     -2.70      0.00
   -8    8    3     -3.81      0.00
   -8    8    2     -4.13      0.00
   -8    8    1      0.01      0.00
    8    8    0     -4.11      0.00
    8    8    1     -3.40      0.00
    8    8    2     -2.58      0.00
    8    8    3     -5.81      0.00
    8    8    4      0.04      0.00
    8    8    5     -6.63      0.00
    8    8    6      1.96      0.00
    8    8    7     -5.08      0.00
    8    8    8      2.54      0.00
    8    8    9     -2.15      0.00
    8    8   10      2.28      0.00
   -8    9   16     -0.74      0.00
   -8    9   15      4.70      0.00
   -8    9   14     -1.46      0.00
   -8    9   13      5.74      0.00
   -8    9   12     -1.87      0.00
   -8    9   11      4.71      0.00
   -8    9   10     -2.35      0.00
   -8    9    9      2.98      0.00
   -8    9    8     -2.29      0.00
   -8    9    7      0.68      0.00
   -8    9    6     -1.68      0.00
   -8    9    5     -3.10      0.00
   -8    9    4     -0.91      0.00
   -8    9    3     -6.48      0.00
   -8    9    2      0.30      0.00
   -8    9    1     -7.61      0.00
    8    9    0     -1.63      0.00
    8    9    1     -6.74      0.00
    8    9    2     -2.54      0.00
    8    9    3     -3.75      0.00
    8    9    4     -3.35      0.00
    8    9    5      0.36      0.00
    8    9    6     -3.30      0.00
    8    9    7      3.17      0.00
    8    9    8     -1.87      0.00
    8    9    9      3.75      0.00
    8    9   10     -0.30      0.00
   -8   10   16      3.20      0.00
   -8   10   15     -1.53      0.00
   -8   10   14      4.61      0.00
   -8   10   13     -0.86      0.00
   -8   10   12      4.45      0.00
   -8   10   11      0.12      0.00
   -8   10   10      2.70      0.00
   -8   10    9      1.27      0.00
   -8   10    8      0.49      0.00
   -8   10    7      3.23      0.00
   -8   10    6     -2.39      0.00
   -8   10    5      4.25      0.00
   -8   10    4     -5.66      0.00
   -8   10    3      3.36      0.00
   -8   10    2     -7.53      0.00
   -8   10    1      1.91      0.00
    8   10    0     -7.61      0.00
    8   10    1     -0.44      0.00
    8   10    2     -6.03      0.00
    8   10    3      0.71      0.00
    8   10    4     -2.39      0.00
    8   10    5      0.72      0.00
    8   10    6      1.65      0.00
    8   10    7      0.39      0.00
    8   10    8      3.50      0.00
    8   10    9      0.31      0.00
   -8   11   15      2.02      0.00
   -8   11   14     -1.01      0.00
   -8   11   13      2.09      0.00
   -8   11   12      1.04      0.00
   -8   11   11      0.82      0.00
   -8   11   10      3.00      0.00
   -8   11    9     -1.39      0.00
   -8   11    8      5.45      0.00
   -8   11    7     -3.15      0.00
   -8   11    6      7.66      0.00
   -8   11    5     -4.15      0.00
   -8   11    4      6.94      0.00
   -8   11    3     -4.77      0.00
   -8   11    2      3.92      0.00
   -8   11    1     -4.95      0.00
    8   11    0     -0.68      0.00
    8   11    1     -4.64      0.00
    8   11    2      2.48      0.00
    8   11    3     -3.27      0.00
    8   11    4      4.28      0.00
    8   11    5     -0.51      0.00
    8   11    6      3.65      0.00
    8   11    7      1.76      0.00
    8   11    8      1.95      0.00
    8   11    9      1.96      0.00
   -8   12   15     -1.38      0.00
   -8   12   14     -0.97      0.00
   -8   12   13      0.72      0.00
   -8   12   12     -1.93      0.00
   -8   12   11      3.25      0.00
   -8   12   10     -3.67      0.00
   -8   12    9      5.26      0.00
   -8   12    8     -5.24      0.00
   -8   12    7      7.21      0.00
   -8   12    6     -4.47      0.00
   -8   12    5      7.59      0.00
   -8   12    4     -2.31      0.00
   -8   12    3      5.26      0.00
   -8   12    2     -1.00      0.00
   -8   12    1      1.95      0.00
    8   12    0     -0.76      0.00
    8   12    1      1.48      0.00
    8   12    2     -0.99      0.00
    8   12    3      4.74      0.00
    8   12    4     -0.90      0.00
    8   12    5      5.63      0.00
    8   12    6     -0.11      0.00
    8   12    7      3.72      0.00
    8   12    8      0.28      0.00
    8   12    9      1.37      0.00
   -8   13   15     -3.06      0.00
   -8   13   14      0.25      0.00
   -8   13   13     -4.51      0.00
   -8   13   12      2.64      0.00
   -8   13   11     -5.40      0.00
   -8   13   10      4.34      0.00
   -8   13    9     -6.53      0.00
   -8   13    8      4.79      0.00
   -8   13    7     -5.90      0.00
   -8   13    6      4.61      0.00
   -8   13    5     -2.25      0.00
   -8   13    4      3.63      0.00
   -8   13    3      1.27      0.00
   -8   13    2      1.96      0.00
   -8   13    1      2.59      0.00
    8   13    0     -0.09      0.00
    8   13    1      2.42      0.00
    8   13    2      2.43      0.00
    8   13    3      1.14      0.00
    8   13    4      4.54      0.00
    8   13    5     -0.38      0.00
    8   13    6      4.12      0.00
    8   13    7     -1.06      0.00
    8   13    8      2.00      0.00
   -8   14   14     -5.73      0.00
   -8   14   13      2.06      0.00
   -8   14   12     -6.41      0.00
   -8   14   11      3.43      0.00
   -8   14   10     -6.27      0.00
   -8   14    9      3.09      0.00
   -8   14    8     -5.91      0.00
   -8   14    7      1.10      0.00
   -8   14    6     -3.33      0.00
   -8   14    5     -0.36      0.00
   -8   14    4      0.74      0.00
   -8   14    3     -0.43      0.00
   -8   14    2      3.23      0.00
   -8   14    1     -0.05      0.00
    8   14    0      3.90      0.00
    8   14    1      0.22      0.00
    8   14    2      3.33      0.00
    8   14    3      1.37      0.00
    8   14    4      1.18      0.00
    8   14    5      2.21      0.00
    8   14    6     -0.99      0.00
    8   14    7      1.57      0.00
    8   14    8     -1.64      0.00
   -8   15   14      2.20      0.00
   -8   15   13     -6.30      0.00
   -8   15   12      2.72      0.00
   -8   15   11     -5.33      0.00
   -8   15   10      2.47      0.00
   -8   15    9     -4.02      0.00
   -8   15    8     -0.02      0.00
   -8   15    7     -2.80      0.00
   -8   15    6     -3.17      0.00
   -8   15    5     -0.64      0.00
   -8   15    4     -3.68      0.00
   -8   15    3      1.48      0.00
   -8   15    2     -1.95      0.00
   -8   15    1      2.59      0.00
    8   15    0      0.09      0.00
    8   15    1      3.14      0.00
    8   15    2     -0.90      0.00
    8   15    3      2.47      0.00
    8   15    4     -0.74      0.00
    8   15    5      0.38      0.00
    8   15    6     -0.22      0.00
    8   15    7     -1.08      0.00
    8   15    8      0.01      0.00
   -8   16   13      2.49      0.00
   -8   16   12     -4.15      0.00
   -8   16   11      2.03      0.00
   -8   16   10     -2.03      0.00
   -8   16    9      0.64      0.00
   -8   16    8     -0.50      0.00
   -8   16    7     -2.59      0.00
   -8   16    6     -0.22      0.00
   -8   16    5     -4.72      0.00
   -8   16    4     -0.18      0.00
   -8   16    3     -3.63      0.00
   -8   16    2      0.08      0.00
   -8   16    1     -1.21      0.00
    8   16    0      0.81      0.00
    8   16    1     -0.90      0.00
    8   16    2      1.68      0.00
    8   16    3     -2.24      0.00
    8   16    4      1.37      0.00
    8   16    5     -2.16      0.00
    8   16    6      0.17      0.00
    8   16    7     -1.22      0.00
   -8   17   13     -2.48      0.00
   -8   17   12      1.60      0.00
   -8   17   11     -0.85      0.00
   -8   17   10      1.03      0.00
   -8   17    9      1.28      0.00
   -8   17    8     -0.37      0.00
   -8   17    7      1.76      0.00
   -8   17    6     -2.57      0.00
   -8   17    5      0.24      0.00
   -8   17    4     -3.01      0.00
   -8   17    3     -1.21      0.00
   -8   17    2     -1.50      0.00
   -8   17    1     -1.40      0.00
    8   17    0     -0.14      0.00
    8   17    1     -0.34      0.00
    8   17    2     -1.68      0.00
    8   17    3      0.85      0.00
    8   17    4     -2.59      0.00
    8   17    5      0.98      0.00
    8   17    6     -2.12      0.00
   -8   18   12      0.09      0.00
   -8   18   11      0.72      0.00
   -8   18   10      1.51      0.00
   -8   18    9      0.71      0.00
   -8   18    8      2.81      0.00
   -8   18    7      0.27      0.00
   -8   18    6      1.88      0.00
   -8   18    5     -0.33      0.00
   -8   18    4     -0.49      0.00
   -8   18    3     -0.02      0.00
   -8   18    2     -1.79      0.00
   -8   18    1      0.56      0.00
    8   18    0     -1.42      0.00
    8   18    1     -0.88      0.00
    8   18    2     -0.18      0.00
    8   18    3     -1.57      0.00
    8   18    4      0.85      0.00
    8   18    5     -1.88      0.00
    8   18    6      0.97      0.00
   -8   19   11      1.24      0.00
   -8   19   10      0.44      0.00
   -8   19    9      2.06      0.00
   -8   19    8      1.18      0.00
   -8   19    7      2.38      0.00
   -8   19    6      1.87      0.00
   -8   19    5      0.86      0.00
   -8   19    4      2.12      0.00
   -8   19    3     -0.80      0.00
   -8   19    2      1.97      0.00
   -8   19    1     -0.95      0.00
    8   19    0     -1.20      0.00
    8   19    1     -0.18      0.00
    8   19    2     -0.69      0.00
    8   19    3      0.62      0.00
    8   19    4     -0.92      0.00
    8   19    5      0.90      0.00
   -8   20   11      0.11      0.00
   -8   20   10      0.95      0.00
   -8   20    9      0.55      0.00
   -8   20    8      1.23      0.00
   -8   20    7      1.87      0.00
   -8   20    6      1.02      0.00
   -8   20    5      2.99      0.00
   -8   20    4      0.11      0.00
   -8   20    3      2.97      0.00
   -8   20    2      0.00      0.00
   -8   20    1      1.95      0.00
    8   20    0      0.70      0.00
    8   20    1     -0.68      0.00
    8   20    2      1.09      0.00
    8   20    3     -0.30      0.00
    8   20    4      0.97      0.00
   -8   21   10      0.06      0.00
   -8   21    9      0.04      0.00
   -8   21    8      0.64      0.00
   -8   21    7      0.00      0.00
   -8   21    6      1.97      0.00
   -8   21    5      0.03      0.00
   -8   21    4      2.51      0.00
   -8   21    3      0.36      0.00
   -8   21    2      1.76      0.00
   -8   21    1      1.33      0.00
    8   21    0     -0.64      0.00
    8   21    1      1.77      0.00
    8   21    2     -0.12      0.00
    8   21    3      1.31      0.00
   -8   22    9     -0.09      0.00
   -8   22    8     -0.72      0.00
   -8   22    7      0.33      0.00
   -8   22    6     -0.56      0.00
   -8   22    5      0.89      0.00
   -8   22    4      0.18      0.00
   -8   22    3      0.50      0.00
   -8   22    2      1.24      0.00
   -8   22    1     -0.23      0.00
    8   22    0      1.85      0.00
    8   22    1      0.31      0.00
    8   22    2      1.42      0.00
   -8   23    7     -0.66      0.00
   -8   23    6     -0.70      0.00
   -8   23    5      0.08      0.00
   -8   23    4     -1.03      0.00
   -8   23    3      1.07      0.00
   -8   23    2     -1.49      0.00
   -8   23    1      1.50      0.00
    8   23    0      1.15      0.00
    8   23    1      1.06      0.00
   -8   24    4      1.22      0.00
   -8   24    3     -2.34      0.00
   -8   24    2      1.34      0.00
   -9    0   15     -0.68      0.00
   -9    0   13      2.67      0.00
   -9    0   11      6.22      0.00
   -9    0    9      7.43      0.00
   -9    0    7      6.37      0.00
   -9    0    5      5.21      0.00
   -9    0    3      3.78      0.00
   -9    0    1      1.56      0.00
    9    0    1      0.03      0.00
    9    0    3     -0.89      0.00
    9    0    5     -2.08      0.00
    9    0    7     -2.08      0.00
    9    0    9     -0.42      0.00
   -9    1   16     -1.17      0.00
   -9    1   15     -2.26      0.00
   -9    1   14      0.79      0.00
   -9    1   13     -2.55      0.00
   -9    1   12      3.68      0.00
   -9    1   11     -1.36      0.00
   -9    1   10      5.82      0.00
   -9    1    9      0.46      0.00
   -9    1    8      5.70      0.00
   -9    1    7      1.46      0.00
   -9    1    6      4.63      0.00
   -9    1    5      1.89      0.00
   -9    1    4      3.74      0.00
   -9    1    3      2.50      0.00
   -9    1    2      2.27      0.00
   -9    1    1      2.49      0.00
    9    1    0      0.70      0.00
    9    1    1     -1.48      0.00
    9    1    2     -0.23      0.00
    9    1    3     -0.60      0.00
    9    1    4     -1.33      0.00
    9    1    5      0.10      0.00
    9    1    6     -2.18      0.00
    9    1    7      0.92      0.00
    9    1    8     -1.32      0.00
    9    1    9      1.13      0.00
   -9    2   16     -2.62      0.00
   -9    2   15      0.37      0.00
   -9    2   14     -3.76      0.00
   -9    2   13      0.98      0.00
   -9    2   12     -3.16      0.00
   -9    2   11      1.95      0.00
   -9    2   10     -0.64      0.00
   -9    2    9      2.51      0.00
   -9    2    8      1.69      0.00
   -9    2    7      2.15      0.00
   -9    2    6      2.58      0.00
   -9    2    5      1.70      0.00
   -9    2    4      3.42      0.00
   -9    2    3      1.40      0.00
   -9    2    2      4.22      0.00
   -9    2    1      0.98      0.00
    9    2    0     -3.43      0.00
    9    2    1      0.57      0.00
    9    2    2     -1.91      0.00
    9    2    3     -0.23      0.00
    9    2    4     -0.71      0.00
    9    2    5     -1.37      0.00
    9    2    6      0.76      0.00
    9    2    7     -1.60      0.00
    9    2    8      1.88      0.00
    9    2    9     -0.77      0.00
   -9    3   16      1.27      0.00
   -9    3   15     -2.79      0.00
   -9    3   14      0.32      0.00
   -9    3   13     -3.01      0.00
   -9    3   12     -0.99      0.00
   -9    3   11     -1.69      0.00
   -9    3   10     -1.46      0.00
   -9    3    9      0.79      0.00
   -9    3    8     -1.28      0.00
   -9    3    7      2.25      0.00
   -9    3    6     -1.17      0.00
   -9    3    5      2.78      0.00
   -9    3    4     -0.91      0.00
   -9    3    3      3.80      0.00
   -9    3    2     -0.12      0.00
   -9    3    1      4.18      0.00
    9    3    0      0.74      0.00
    9    3    1     -3.20      0.00
    9    3    2      0.77      0.00
    9    3    3     -2.04      0.00
    9    3    4     -0.01      0.00
    9    3    5     -0.50      0.00
    9    3    6     -0.73      0.00
    9    3    7      1.36      0.00
    9    3    8     -0.95      0.00
    9    3    9      1.78      0.00
   -9    4   16     -1.12      0.00
   -9    4   15      0.94      0.00
   -9    4   14     -0.95      0.00
   -9    4   13     -1.26      0.00
   -9    4   12     -0.83      0.00
   -9    4   11     -3.44      0.00
   -9    4   10      0.19      0.00
   -9    4    9     -4.01      0.00
   -9    4    8      1.50      0.00
   -9    4    7     -3.41      0.00
   -9    4    6      1.75      0.00
   -9    4    5     -2.86      0.00
   -9    4    4      1.95      0.00
   -9    4    3     -1.95      0.00
   -9    4    2      2.75      0.00
   -9    4    1     -0.32      0.00
    9    4    0     -3.03      0.00
    9    4    1      0.83      0.00
    9    4    2     -2.77      0.00
    9    4    3      0.98      0.00
    9    4    4     -1.93      0.00
    9    4    5      0.69      0.00
    9    4    6     -0.23      0.00
    9    4    7      0.00      0.00
    9    4    8      0.93      0.00
    9    4    9     -0.93      0.00
   -9    5   16      1.16      0.00
   -9    5   15      0.95      0.00
   -9    5   14     -0.22      0.00
   -9    5   13      1.29      0.00
   -9    5   12     -2.57      0.00
   -9    5   11      1.03      0.00
   -9    5   10     -4.45      0.00
   -9    5    9      1.18      0.00
   -9    5    8     -4.20      0.00
   -9    5    7      1.08      0.00
   -9    5    6     -3.15      0.00
   -9    5    5      0.41      0.00
   -9    5    4     -2.58      0.00
   -9    5    3      0.40      0.00
   -9    5    2     -1.63      0.00
   -9    5    1      1.18      0.00
    9    5    0     -0.28      0.00
    9    5    1     -1.97      0.00
    9    5    2      0.69      0.00
    9    5    3     -2.25      0.00
    9    5    4      1.37      0.00
    9    5    5     -1.59      0.00
    9    5    6      1.26      0.00
    9    5    7     -0.68      0.00
    9    5    8     -0.09      0.00
    9    5    9     -0.46      0.00
   -9    6   16      1.63      0.00
   -9    6   15      0.37      0.00
   -9    6   14      2.45      0.00
   -9    6   13     -0.60      0.00
   -9    6   12      2.37      0.00
   -9    6   11     -2.55      0.00
   -9    6   10      1.63      0.00
   -9    6    9     -3.36      0.00
   -9    6    8      0.81      0.00
   -9    6    7     -2.10      0.00
   -9    6    6     -0.22      0.00
   -9    6    5     -1.23      0.00
   -9    6    4     -1.03      0.00
   -9    6    3     -1.44      0.00
   -9    6    2     -0.82      0.00
   -9    6    1     -1.37      0.00
    9    6    0     -0.17      0.00
    9    6    1     -0.73      0.00
    9    6    2     -1.10      0.00
    9    6    3      0.48      0.00
    9    6    4     -1.51      0.00
    9    6    5      1.47      0.00
    9    6    6     -1.68      0.00
    9    6    7      0.79      0.00
    9    6    8     -1.80      0.00
   -9    7   15      1.98      0.00
   -9    7   14      0.67      0.00
   -9    7   13      2.38      0.00
   -9    7   12     -0.07      0.00
   -9    7   11      2.04      0.00
   -9    7   10     -1.32      0.00
   -9    7    9      0.69      0.00
   -9    7    8     -0.69      0.00
   -9    7    7     -0.63      0.00
   -9    7    6      0.79      0.00
   -9    7    5     -1.33      0.00
   -9    7    4      0.43      0.00
   -9    7    3     -1.41      0.00
   -9    7    2     -1.06      0.00
   -9    7    1     -0.89      0.00
    9    7    0     -1.87      0.00
    9    7    1      0.29      0.00
    9    7    2     -1.32      0.00
    9    7    3     -0.16      0.00
    9    7    4      0.11      0.00
    9    7    5     -1.07      0.00
    9    7    6      0.61      0.00
    9    7    7     -2.18      0.00
    9    7    8     -0.16      0.00
   -9    8   15      1.11      0.00
   -9    8   14      0.81      0.00
   -9    8   13      1.37      0.00
   -9    8   12      1.24      0.00
   -9    8   11      0.69      0.00
   -9    8   10      0.42      0.00
   -9    8    9      0.54      0.00
   -9    8    8     -1.23      0.00
   -9    8    7      1.81      0.00
   -9    8    6     -1.60      0.00
   -9    8    5      2.14      0.00
   -9    8    4     -0.88      0.00
   -9    8    3      0.35      0.00
   -9    8    2     -0.32      0.00
   -9    8    1     -1.68      0.00
    9    8    0      0.32      0.00
    9    8    1     -2.44      0.00
    9    8    2      0.81      0.00
    9    8    3     -1.76      0.00
    9    8    4      0.53      0.00
    9    8    5     -0.77      0.00
    9    8    6     -1.02      0.00
    9    8    7     -0.46      0.00
    9    8    8     -1.85      0.00
   -9    9   15     -1.03      0.00
   -9    9   14      1.55      0.00
   -9    9   13     -0.71      0.00
   -9    9   12      1.47      0.00
   -9    9   11     -0.41      0.00
   -9    9   10      1.23      0.00
   -9    9    9     -1.66      0.00
   -9    9    8      1.57      0.00
   -9    9    7     -2.16      0.00
   -9    9    6      1.95      0.00
   -9    9    5     -0.55      0.00
   -9    9    4      1.03      0.00
   -9    9    3      1.03      0.00
   -9    9    2     -0.81      0.00
   -9    9    1      1.08      0.00
    9    9    0     -2.15      0.00
    9    9    1      0.12      0.00
    9    9    2     -2.46      0.00
    9    9    3      1.32      0.00
    9    9    4     -2.13      0.00
    9    9    5      0.82      0.00
    9    9    6     -1.42      0.00
    9    9    7     -0.41      0.00
    9    9    8     -0.36      0.00
   -9   10   15      1.08      0.00
   -9   10   14     -2.54      0.00
   -9   10   13      0.87      0.00
   -9   10   12     -1.74      0.00
   -9   10   11      0.84      0.00
   -9   10   10     -1.68      0.00
   -9   10    9      0.63      0.00
   -9   10    8     -2.14      0.00
   -9   10    7      0.12      0.00
   -9   10    6     -0.69      0.00
   -9   10    5     -0.35      0.00
   -9   10    4      1.71      0.00
   -9   10    3     -0.82      0.00
   -9   10    2      2.56      0.00
   -9   10    1     -1.28      0.00
    9   10    0     -1.59      0.00
    9   10    1     -1.67      0.00
    9   10    2      0.38      0.00
    9   10    3     -2.02      0.00
    9   10    4      1.64      0.00
    9   10    5     -1.97      0.00
    9   10    6      1.36      0.00
    9   10    7     -0.81      0.00
   -9   11   14     -0.25      0.00
   -9   11   13     -2.80      0.00
   -9   11   12     -0.64      0.00
   -9   11   11     -1.61      0.00
   -9   11    9     -1.04      0.00
   -9   11    8     -1.96      0.00
   -9   11    7     -0.24      0.00
   -9   11    6     -2.98      0.00
   -9   11    5      1.52      0.00
   -9   11    4     -2.47      0.00
   -9   11    3      2.70      0.00
   -9   11    2     -1.29      0.00
   -9   11    1      2.46      0.00
    9   11    0     -0.58      0.00
    9   11    1     -1.12      0.00
    9   11    2     -0.54      0.00
    9   11    3      0.81      0.00
    9   11    4     -1.05      0.00
    9   11    5      2.09      0.00
    9   11    6     -0.77      0.00
    9   11    7      2.21      0.00
   -9   12   14     -2.72      0.00
   -9   12   13     -2.14      0.00
   -9   12   12     -1.48      0.00
   -9   12   11     -2.61      0.00
   -9   12   10      0.37      0.00
   -9   12    9     -3.50      0.00
   -9   12    8      1.38      0.00
   -9   12    7     -4.97      0.00
   -9   12    6      1.60      0.00
   -9   12    5     -4.61      0.00
   -9   12    4      1.63      0.00
   -9   12    3     -2.39      0.00
   -9   12    2      1.58      0.00
   -9   12    1     -0.30      0.00
    9   12    0     -1.32      0.00
    9   12    1      0.81      0.00
    9   12    2     -0.33      0.00
    9   12    3      0.93      0.00
    9   12    4      1.39      0.00
    9   12    5      0.51      0.00
    9   12    6      2.58      0.00
    9   12    7      0.63      0.00
   -9   13   13     -0.79      0.00
   -9   13   12     -3.87      0.00
   -9   13   11      1.32      0.00
   -9   13   10     -4.52      0.00
   -9   13    9      3.18      0.00
   -9   13    8     -5.37      0.00
   -9   13    7      2.70      0.00
   -9   13    6     -5.36      0.00
   -9   13    5      0.73      0.00
   -9   13    4     -3.35      0.00
   -9   13    3     -0.41      0.00
   -9   13    2     -0.86      0.00
   -9   13    1     -0.26      0.00
    9   13    0      0.98      0.00
    9   13    1     -0.10      0.00
    9   13    2      2.31      0.00
    9   13    3      0.51      0.00
    9   13    4      2.49      0.00
    9   13    5      1.83      0.00
    9   13    6      1.77      0.00
   -9   14   13     -3.68      0.00
   -9   14   12      1.99      0.00
   -9   14   11     -4.76      0.00
   -9   14   10      4.00      0.00
   -9   14    9     -4.72      0.00
   -9   14    8      4.00      0.00
   -9   14    7     -4.08      0.00
   -9   14    6      0.99      0.00
   -9   14    5     -2.71      0.00
   -9   14    4     -1.86      0.00
   -9   14    3     -0.97      0.00
   -9   14    2     -2.31      0.00
   -9   14    1      0.56      0.00
    9   14    0      1.41      0.00
    9   14    1      2.20      0.00
    9   14    2      0.75      0.00
    9   14    3      3.58      0.00
    9   14    4      0.98      0.00
    9   14    5      3.30      0.00
    9   14    6      1.41      0.00
   -9   15   13      2.61      0.00
   -9   15   12     -3.85      0.00
   -9   15   11      3.94      0.00
   -9   15   10     -3.73      0.00
   -9   15    9      4.27      0.00
   -9   15    8     -2.03      0.00
   -9   15    7      1.85      0.00
   -9   15    6     -0.40      0.00
   -9   15    5     -1.77      0.00
   -9   15    4      0.32      0.00
   -9   15    3     -3.26      0.00
   -9   15    2      0.63      0.00
   -9   15    1     -2.69      0.00
    9   15    0      1.47      0.00
    9   15    1      1.69      0.00
    9   15    2      3.09      0.00
    9   15    3      0.95      0.00
    9   15    4      3.88      0.00
    9   15    5      0.58      0.00
   -9   16   12      3.60      0.00
   -9   16   11     -2.56      0.00
   -9   16   10      3.48      0.00
   -9   16    9     -0.69      0.00
   -9   16    8      1.98      0.00
   -9   16    7      1.83      0.00
   -9   16    6     -0.78      0.00
   -9   16    5      2.51      0.00
   -9   16    4     -2.60      0.00
   -9   16    3      1.72      0.00
   -9   16    2     -2.51      0.00
   -9   16    1      1.32      0.00
    9   16    0      1.84      0.00
    9   16    1      2.02      0.00
    9   16    2      1.19      0.00
    9   16    3      3.06      0.00
    9   16    4      0.29      0.00
    9   16    5      2.79      0.00
   -9   17   11      2.53      0.00
   -9   17   10     -0.27      0.00
   -9   17    9      1.13      0.00
   -9   17    8      2.34      0.00
   -9   17    7     -0.37      0.00
   -9   17    6      3.85      0.00
   -9   17    5     -1.32      0.00
   -9   17    4      2.99      0.00
   -9   17    3     -1.20      0.00
   -9   17    2      1.74      0.00
   -9   17    1     -0.69      0.00
    9   17    0      1.46      0.00
    9   17    1      0.52      0.00
    9   17    2      1.85      0.00
    9   17    3      0.08      0.00
    9   17    4      1.93      0.00
   -9   18   10      0.27      0.00
   -9   18    9      1.38      0.00
   -9   18    8     -0.93      0.00
   -9   18    7      3.14      0.00
   -9   18    6     -0.83      0.00
   -9   18    5      3.10      0.00
   -9   18    4      0.01      0.00
   -9   18    3      1.83      0.00
   -9   18    2      0.84      0.00
   -9   18    1      1.15      0.00
    9   18    0     -0.99      0.00
    9   18    1      1.10      0.00
    9   18    2     -0.75      0.00
    9   18    3      0.98      0.00
   -9   19    9     -1.46      0.00
   -9   19    8      1.21      0.00
   -9   19    7     -1.36      0.00
   -9   19    6      1.60      0.00
   -9   19    5      0.15      0.00
   -9   19    4      0.90      0.00
   -9   19    3      1.57      0.00
   -9   19    2      0.29      0.00
   -9   19    1      2.17      0.00
    9   19    0      0.44      0.00
    9   19    1     -1.84      0.00
    9   19    2      0.52      0.00
   -9   20    8     -1.81      0.00
   -9   20    7     -0.34      0.00
   -9   20    6     -0.56      0.00
   -9   20    5     -0.76      0.00
   -9   20    4      1.28      0.00
   -9   20    3     -1.17      0.00
   -9   20    2      2.26      0.00
   -9   20    1     -0.72      0.00
    9   20    0     -2.20      0.00
    9   20    1      0.11      0.00
   -9   21    7     -1.04      0.00
   -9   21    6     -2.01      0.00
   -9   21    5      0.56      0.00
   -9   21    4     -2.45      0.00
   -9   21    3      1.69      0.00
   -9   21    2     -1.99      0.00
   -9   21    1      1.64      0.00
    9   21    0     -0.62      0.00
  -10    0   14     -1.65      0.00
  -10    0   12     -0.54      0.00
  -10    0   10      1.04      0.00
  -10    0    8      1.01      0.00
  -10    0    6     -1.08      0.00
  -10    0    4     -2.12      0.00
  -10    0    2     -1.57      0.00
   10    0    0     -1.23      0.00
   10    0    2     -0.97      0.00
   10    0    6     -1.13      0.00
  -10    1   15     -1.47      0.00
  -10    1   14     -0.36      0.00
  -10    1   13     -0.93      0.00
  -10    1   12     -0.73      0.00
  -10    1   10     -0.39      0.00
  -10    1    9      1.24      0.00
  -10    1    8      0.46      0.00
  -10    1    7      0.20      0.00
  -10    1    6      0.47      0.00
  -10    1    5     -1.55      0.00
  -10    1    4     -0.28      0.00
  -10    1    3     -1.65      0.00
  -10    1    2     -0.58      0.00
  -10    1    1     -1.06      0.00
   10    1    0      0.72      0.00
   10    1    1     -0.77      0.00
   10    1    2      0.98      0.00
   10    1    4      0.77      0.00
   10    1    5     -0.89      0.00
   10    1    6      0.58      0.00
   10    1    7     -0.89      0.00
  -10    2   15     -0.10      0.00
  -10    2   14     -0.29      0.00
  -10    2   13     -0.78      0.00
  -10    2   12     -0.18      0.00
  -10    2   11     -0.97      0.00
  -10    2   10      0.55      0.00
  -10    2    9      0.13      0.00
  -10    2    8      0.93      0.00
  -10    2    7      1.21      0.00
  -10    2    6     -0.11      0.00
  -10    2    5      0.41      0.00
  -10    2    4     -1.01      0.00
  -10    2    3     -0.75      0.00
  -10    2    2     -0.68      0.00
  -10    2    1     -1.10      0.00
   10    2    0     -0.06      0.00
   10    2    1      1.53      0.00
   10    2    2      0.10      0.00
   10    2    3      1.46      0.00
   10    2    4     -0.27      0.00
   10    2    5      0.84      0.00
   10    2    6     -0.73      0.00
   10    2    7      0.82      0.00
  -10    3   15      0.74      0.00
  -10    3   14     -0.25      0.00
  -10    3   13      0.38      0.00
  -10    3   12     -0.69      0.00
  -10    3   11      0.05      0.00
  -10    3   10     -0.53      0.00
  -10    3    9      0.48      0.00
  -10    3    8      1.05      0.00
  -10    3    7      0.81      0.00
  -10    3    6      1.56      0.00
  -10    3    5      0.30      0.00
  -10    3    4      0.07      0.00
  -10    3    3     -0.05      0.00
  -10    3    2     -1.08      0.00
  -10    3    1      0.50      0.00
   10    3    0      1.59      0.00
   10    3    1      0.91      0.00
   10    3    2      1.68      0.00
   10    3    3      0.40      0.00
   10    3    4      0.90      0.00
   10    3    5     -0.26      0.00
   10    3    6      0.39      0.00
   10    3    7     -0.44      0.00
  -10    4   15     -0.07      0.00
  -10    4   14      1.02      0.00
  -10    4   13      0.08      0.00
  -10    4   12      0.35      0.00
  -10    4   11     -0.46      0.00
  -10    4   10     -0.16      0.00
  -10    4    9      0.09      0.00
  -10    4    8      0.25      0.00
  -10    4    7      1.63      0.00
  -10    4    6      1.00      0.00
  -10    4    5      1.36      0.00
  -10    4    4      0.94      0.00
  -10    4    3     -0.30      0.00
  -10    4    2      0.88      0.00
  -10    4    1     -1.22      0.00
   10    4    0      1.27      0.00
   10    4    1      1.33      0.00
   10    4    2      0.82      0.00
   10    4    3      0.73      0.00
   10    4    4     -0.09      0.00
   10    4    5     -0.07      0.00
   10    4    6     -0.26      0.00
   10    4    7     -0.01      0.00
  -10    5   14      0.34      0.00
  -10    5   13      0.57      0.00
  -10    5   12      0.12      0.00
  -10    5   11     -0.16      0.00
  -10    5   10     -0.43      0.00
  -10    5    9     -0.89      0.00
  -10    5    8      0.42      0.00
  -10    5    7     -0.05      0.00
  -10    5    6      1.46      0.00
  -10    5    5      1.25      0.00
  -10    5    4      0.74      0.00
  -10    5    3      1.35      0.00
  -10    5    2     -0.46      0.00
  -10    5    1      1.16      0.00
   10    5    0      0.61      0.00
   10    5    1      0.77      0.00
   10    5    2      0.10      0.00
   10    5    3     -0.26      0.00
   10    5    4     -0.37      0.00
   10    5    5     -0.54      0.00
   10    5    6     -0.42      0.00
  -10    6   14      0.07      0.00
  -10    6   13      0.24      0.00
  -10    6   12     -0.14      0.00
  -10    6   11     -0.23      0.00
  -10    6   10     -1.33      0.00
  -10    6    9     -0.54      0.00
  -10    6    8     -1.86      0.00
  -10    6    7      0.03      0.00
  -10    6    6     -0.09      0.00
  -10    6    5      0.54      0.00
  -10    6    4      1.33      0.00
  -10    6    3      0.26      0.00
  -10    6    2      1.00      0.00
  -10    6    1      0.25      0.00
   10    6    0      0.28      0.00
   10    6    1     -0.85      0.00
   10    6    2     -0.55      0.00
   10    6    3     -0.92      0.00
   10    6    4     -1.02      0.00
   10    6    5     -0.40      0.00
   10    6    6     -0.51      0.00
  -10    7   14     -0.12      0.00
  -10    7   13     -0.67      0.00
  -10    7   12     -0.25      0.00
  -10    7   11     -1.28      0.00
  -10    7   10     -0.44      0.00
  -10    7    9     -2.62      0.00
  -10    7    8     -1.12      0.00
  -10    7    7     -2.02      0.00
  -10    7    6     -1.11      0.00
  -10    7    5      0.13      0.00
  -10    7    4     -0.17      0.00
  -10    7    3      0.63      0.00
  -10    7    2      0.82      0.00
  -10    7    1     -0.34      0.00
   10    7    0     -1.69      0.00
   10    7    1     -0.95      0.00
   10    7    2     -1.71      0.00
   10    7    3     -1.10      0.00
   10    7    4     -0.51      0.00
   10    7    5     -0.85      0.00
   10    7    6      0.33      0.00
  -10    8   14     -1.11      0.00
  -10    8   13     -0.83      0.00
  -10    8   12     -1.49      0.00
  -10    8   11     -0.28      0.00
  -10    8   10     -2.24      0.00
  -10    8    9     -0.82      0.00
  -10    8    8     -2.53      0.00
  -10    8    7     -2.30      0.00
  -10    8    6     -1.27      0.00
  -10    8    5     -1.76      0.00
  -10    8    4     -0.31      0.00
  -10    8    3      0.45      0.00
  -10    8    2     -0.96      0.00
  -10    8    1      2.01      0.00
   10    8    0     -1.47      0.00
   10    8    1     -2.19      0.00
   10    8    2     -0.90      0.00
   10    8    3     -0.87      0.00
   10    8    4     -0.43      0.00
   10    8    5      0.66      0.00
   10    8    6     -0.52      0.00
  -10    9   13     -1.64      0.00
  -10    9   12     -0.88      0.00
  -10    9   11     -1.93      0.00
  -10    9   10     -0.19      0.00
  -10    9    9     -1.59      0.00
  -10    9    8     -1.69      0.00
  -10    9    7     -1.16      0.00
  -10    9    6     -2.70      0.00
  -10    9    5     -1.10      0.00
  -10    9    4     -0.68      0.00
  -10    9    3     -1.68      0.00
  -10    9    2      1.68      0.00
  -10    9    1     -1.97      0.00
   10    9    0     -2.04      0.00
   10    9    1     -0.86      0.00
   10    9    2     -0.89      0.00
   10    9    3      0.44      0.00
   10    9    4      0.65      0.00
   10    9    5      0.23      0.00
  -10   10   13     -1.65      0.00
  -10   10   12     -1.92      0.00
  -10   10   11     -0.50      0.00
  -10   10   10     -0.99      0.00
  -10   10    9     -0.48      0.00
  -10   10    8      0.12      0.00
  -10   10    7     -1.74      0.00
  -10   10    6     -0.62      0.00
  -10   10    5     -1.15      0.00
  -10   10    4     -2.07      0.00
  -10   10    3      0.98      0.00
  -10   10    2     -2.36      0.00
  -10   10    1      1.50      0.00
   10   10    0     -1.02      0.00
   10   10    1     -0.35      0.00
   10   10    2      0.97      0.00
   10   10    3      0.77      0.00
   10   10    4      1.40      0.00
   10   10    5      1.14      0.00
  -10   11   13     -1.47      0.00
  -10   11   12     -1.12      0.00
  -10   11   11     -1.34      0.00
  -10   11   10     -0.20      0.00
  -10   11    9      0.49      0.00
  -10   11    8     -0.08      0.00
  -10   11    7      0.53      0.00
  -10   11    6     -0.04      0.00
  -10   11    5     -1.53      0.00
  -10   11    4      0.80      0.00
  -10   11    3     -2.39      0.00
  -10   11    2      0.94      0.00
  -10   11    1     -1.04      0.00
   10   11    0      0.29      0.00
   10   11    1      0.99      0.00
   10   11    2      1.21      0.00
   10   11    3      2.05      0.00
   10   11    4      1.04      0.00
   10   11    5      1.15      0.00
  -10   12   12     -1.59      0.00
  -10   12   11     -0.30      0.00
  -10   12   10     -0.71      0.00
  -10   12    8      0.42      0.00
  -10   12    7      1.59      0.00
  -10   12    6     -0.64      0.00
  -10   12    5      1.64      0.00
  -10   12    4     -1.77      0.00
  -10   12    3      0.80      0.00
  -10   12    2     -0.77      0.00
  -10   12    1     -0.63      0.00
   10   12    0      0.98      0.00
   10   12    1      1.50      0.00
   10   12    2      2.00      0.00
   10   12    3      1.05      0.00
   10   12    4      1.76      0.00
  -10   13   12      0.39      0.00
  -10   13   11     -1.90      0.00
  -10   13   10      1.02      0.00
  -10   13    8      2.30      0.00
  -10   13    7     -0.84      0.00
  -10   13    6      2.64      0.00
  -10   13    5     -0.95      0.00
  -10   13    4      1.20      0.00
  -10   13    3     -0.10      0.00
  -10   13    2     -0.54      0.00
  -10   13    1      1.31      0.00
   10   13    0      1.28      0.00
   10   13    1      1.86      0.00
   10   13    2      0.92      0.00
   10   13    3      1.77      0.00
   10   13    4      0.01      0.00
  -10   14   11      1.83      0.00
  -10   14   10     -2.83      0.00
  -10   14    8     -2.24      0.00
  -10   14    7      2.71      0.00
  -10   14    6     -0.84      0.00
  -10   14    5      1.51      0.00
  -10   14    4      0.66      0.00
  -10   14    3     -0.28      0.00
  -10   14    2      1.85      0.00
  -10   14    1     -0.84      0.00
   10   14    0      2.08      0.00
   10   14    1      0.42      0.00
   10   14    2      1.75      0.00
   10   14    3     -0.11      0.00
  -10   15   10      2.54      0.00
  -10   15    8      2.03      0.00
  -10   15    7     -1.54      0.00
  -10   15    6      1.01      0.00
  -10   15    5      0.89      0.00
  -10   15    4     -0.31      0.00
  -10   15    3      2.31      0.00
  -10   15    2     -0.49      0.00
  -10   15    1      2.51      0.00
   10   15    0     -0.21      0.00
   10   15    1      2.12      0.00
   10   15    2     -0.37      0.00
  -10   16   10     -2.92      0.00
  -10   16    9      1.44      0.00
  -10   16    7     -0.08      0.00
  -10   16    6      0.43      0.00
  -10   16    5     -0.98      0.00
  -10   16    4      2.26      0.00
  -10   16    3     -0.66      0.00
  -10   16    2      2.66      0.00
  -10   16    1      0.44      0.00
   10   16    0      2.56      0.00
   10   16    1     -0.73      0.00
   10   16    2      2.47      0.00
  -10   17    9     -1.62      0.00
  -10   17    7     -0.11      0.00
  -10   17    6     -1.97      0.00
  -10   17    5      1.57      0.00
  -10   17    4     -1.37      0.00
  -10   17    3      2.18      0.00
  -10   17    2      0.09      0.00
  -10   17    1      2.44      0.00
   10   17    0     -0.86      0.00
   10   17    1      2.81      0.00
  -10   18    7     -2.46      0.00
  -10   18    6      0.74      0.00
  -10   18    5     -2.15      0.00
  -10   18    4      1.23      0.00
  -10   18    3     -0.65      0.00
  -10   18    2      1.56      0.00
  -10   18    1      0.55      0.00
  -10   19    4     -1.18      0.00
  -11    0   13      0.10      0.00
  -11    0   11      1.10      0.00
  -11    0    9      1.94      0.00
  -11    0    7      1.06      0.00
  -11    0    5     -1.58      0.00
  -11    0    3     -3.16      0.00
  -11    0    1     -3.05      0.00
   11    0    1     -2.76      0.00
   11    0    3     -2.31      0.00
  -11    1   13     -0.12      0.00
  -11    1   12      0.35      0.00
  -11    1   11      0.20      0.00
  -11    1   10      1.13      0.00
  -11    1    9      1.20      0.00
  -11    1    8      1.47      0.00
  -11    1    7      2.28      0.00
  -11    1    6     -0.03      0.00
  -11    1    5      2.37      0.00
  -11    1    4     -2.11      0.00
  -11    1    3      1.69      0.00
  -11    1    2     -2.66      0.00
  -11    1    1      1.29      0.00
   11    1    0     -2.38      0.00
   11    1    1     -1.04      0.00
   11    1    2     -2.15      0.00
   11    1    3     -0.66      0.00
   11    1    4     -1.63      0.00
  -11    2   13     -0.18      0.00
  -11    2   12      0.07      0.00
  -11    2   11     -0.27      0.00
  -11    2   10      0.89      0.00
  -11    2    9      0.26      0.00
  -11    2    8      2.49      0.00
  -11    2    7      0.64      0.00
  -11    2    6      3.67      0.00
  -11    2    5     -0.28      0.00
  -11    2    4      3.18      0.00
  -11    2    3     -1.22      0.00
  -11    2    2      2.28      0.00
  -11    2    1     -1.17      0.00
   11    2    0     -1.89      0.00
   11    2    1     -0.97      0.00
   11    2    2     -1.29      0.00
   11    2    3     -0.95      0.00
   11    2    4     -0.75      0.00
  -11    3   13      0.15      0.00
  -11    3   12     -1.04      0.00
  -11    3   11      0.40      0.00
  -11    3   10     -1.37      0.00
  -11    3    9      0.96      0.00
  -11    3    8     -0.49      0.00
  -11    3    7      2.43      0.00
  -11    3    6      0.42      0.00
  -11    3    5      3.21      0.00
  -11    3    4      0.39      0.00
  -11    3    3      2.54      0.00
  -11    3    2      0.37      0.00
  -11    3    1      1.95      0.00
   11    3    0      0.74      0.00
   11    3    1     -1.54      0.00
   11    3    2      0.55      0.00
   11    3    3     -0.82      0.00
   11    3    4      0.08      0.00
  -11    4   13     -1.16      0.00
  -11    4   12      0.38      0.00
  -11    4   11     -1.96      0.00
  -11    4   10     -0.21      0.00
  -11    4    9     -1.84      0.00
  -11    4    8     -0.20      0.00
  -11    4    7     -0.65      0.00
  -11    4    6      1.12      0.00
  -11    4    5      0.65      0.00
  -11    4    4      1.62      0.00
  -11    4    3      1.39      0.00
  -11    4    2      1.12      0.00
  -11    4    1      2.05      0.00
   11    4    0     -0.97      0.00
   11    4    1      2.29      0.00
   11    4    2     -0.71      0.00
   11    4    3      1.31      0.00
   11    4    4     -0.18      0.00
  -11    5   12     -1.75      0.00
  -11    5   11     -0.25      0.00
  -11    5   10     -1.79      0.00
  -11    5    9     -1.59      0.00
  -11    5    8     -1.65      0.00
  -11    5    7     -1.48      0.00
  -11    5    6     -0.61      0.00
  -11    5    5     -0.38      0.00
  -11    5    4      1.08      0.00
  -11    5    3     -0.28      0.00
  -11    5    2      2.40      0.00
  -11    5    1     -0.36      0.00
   11    5    0      3.17      0.00
   11    5    1     -0.15      0.00
   11    5    2      2.63      0.00
   11    5    3     -0.19      0.00
   11    5    4      0.86      0.00
  -11    6   12     -0.15      0.00
  -11    6   11     -0.99      0.00
  -11    6   10     -1.14      0.00
  -11    6    9     -1.00      0.00
  -11    6    8     -2.07      0.00
  -11    6    7     -1.43      0.00
  -11    6    6     -1.92      0.00
  -11    6    5     -0.20      0.00
  -11    6    4     -1.68      0.00
  -11    6    3      1.73      0.00
  -11    6    2     -1.75      0.00
  -11    6    1      2.77      0.00
   11    6    0      0.95      0.00
   11    6    1      2.86      0.00
   11    6    2     -0.20      0.00
   11    6    3      1.60      0.00
  -11    7   12     -0.74      0.00
  -11    7   11     -0.50      0.00
  -11    7   10      0.22      0.00
  -11    7    9     -0.62      0.00
  -11    7    8     -0.44      0.00
  -11    7    7     -1.25      0.00
  -11    7    6     -0.71      0.00
  -11    7    5     -2.03      0.00
  -11    7    4      0.78      0.00
  -11    7    3     -2.37      0.00
  -11    7    2      1.78      0.00
  -11    7    1     -1.78      0.00
   11    7    0      1.72      0.00
   11    7    1      0.19      0.00
   11    7    2      1.39      0.00
   11    7    3     -0.83      0.00
  -11    8   12     -0.51      0.00
  -11    8   11      0.25      0.00
  -11    8   10      0.49      0.00
  -11    8    9      0.87      0.00
  -11    8    8      0.90      0.00
  -11    8    7      0.47      0.00
  -11    8    6     -0.60      0.00
  -11    8    5      0.77      0.00
  -11    8    4     -1.83      0.00
  -11    8    3      1.13      0.00
  -11    8    2     -1.51      0.00
  -11    8    1      0.41      0.00
   11    8    0      0.33      0.00
   11    8    1     -0.01      0.00
   11    8    2     -0.92      0.00
   11    8    3      0.15      0.00
  -11    9   11      0.19      0.00
  -11    9   10      0.56      0.00
  -11    9    8      1.63      0.00
  -11    9    7      1.38      0.00
  -11    9    6      1.96      0.00
  -11    9    5     -0.33      0.00
  -11    9    4      1.39      0.00
  -11    9    3     -0.31      0.00
  -11    9    2     -0.11      0.00
  -11    9    1      0.54      0.00
   11    9    0     -1.23      0.00
   11    9    1     -0.90      0.00
   11    9    2     -0.68      0.00
  -11   10   11     -0.70      0.00
  -11   10   10      0.73      0.00
  -11   10    8      1.56      0.00
  -11   10    7      2.71      0.00
  -11   10    6      0.87      0.00
  -11   10    5      2.27      0.00
  -11   10    4      0.96      0.00
  -11   10    3      0.19      0.00
  -11   10    2      1.99      0.00
  -11   10    1     -1.28      0.00
   11   10    0     -1.62      0.00
   11   10    1     -1.04      0.00
   11   10    2     -0.59      0.00
  -11   11   10     -0.73      0.00
  -11   11    8      1.53      0.00
  -11   11    7      0.24      0.00
  -11   11    6      2.43      0.00
  -11   11    5      1.29      0.00
  -11   11    4      0.63      0.00
  -11   11    3      2.84      0.00
  -11   11    2     -0.74      0.00
  -11   11    1      2.67      0.00
   11   11    0     -0.26      0.00
   11   11    1     -0.67      0.00
  -11   12    7      0.98      0.00
  -11   12    6      0.09      0.00
  -11   12    5      0.39      0.00
  -11   12    4      2.41      0.00
  -11   12    3     -0.46      0.00
  -11   12    2      2.93      0.00
  -11   12    1      0.75      0.00
   11   12    0     -1.16      0.00
   11   12    1      2.12      0.00
  -11   13    9     -2.56      0.00
  -11   13    7     -1.73      0.00
  -11   13    6     -0.81      0.00
  -11   13    5      0.85      0.00
  -11   13    4     -0.80      0.00
  -11   13    3      2.02      0.00
  -11   13    2      1.00      0.00
  -11   13    1      1.10      0.00
   11   13    0      3.17      0.00
  -11   14    7     -1.98      0.00
  -11   14    6     -0.82      0.00
  -11   14    5     -1.54      0.00
  -11   14    4      0.48      0.00
  -11   14    3      0.48      0.00
  -11   14    2      0.26      0.00
  -11   14    1      3.09      0.00
  -11   15    6     -1.95      0.00
  -11   15    5     -0.84      0.00
  -11   15    4     -0.21      0.00
  -11   15    3     -0.80      0.00
  -12    0    8      2.71      0.00
  -12    0    6      2.13      0.00
  -12    0    4      1.04      0.00
  -12    0    2      0.82      0.00
   12    0    0      1.41      0.00
  -12    1    9      1.78      0.00
  -12    1    8      0.60      0.00
  -12    1    7      1.81      0.00
  -12    1    6      1.51      0.00
  -12    1    5      1.15      0.00
  -12    1    4      1.73      0.00
  -12    1    3      0.65      0.00
  -12    1    2      1.43      0.00
  -12    1    1      1.06      0.00
   12    1    0     -1.13      0.00
  -12    2    9      0.13      0.00
  -12    2    8      0.04      0.00
  -12    2    7      1.49      0.00
  -12    2    6      0.21      0.00
  -12    2    5      2.33      0.00
  -12    2    4      0.26      0.00
  -12    2    3      2.34      0.00
  -12    2    2      0.59      0.00
  -12    2    1      1.96      0.00
   12    2    0      1.14      0.00
  -12    3    9     -1.43      0.00
  -12    3    8      0.61      0.00
  -12    3    7     -1.19      0.00
  -12    3    6      1.24      0.00
  -12    3    5     -0.51      0.00
  -12    3    4      1.76      0.00
  -12    3    3      0.03      0.00
  -12    3    2      1.84      0.00
  -12    3    1      0.64      0.00
   12    3    0     -1.82      0.00
  -12    4    9      0.45      0.00
  -12    4    8     -1.36      0.00
  -12    4    7     -0.20      0.00
  -12    4    6     -0.82      0.00
  -12    4    5     -0.04      0.00
  -12    4    4     -0.35      0.00
  -12    4    3      0.52      0.00
  -12    4    2      0.11      0.00
  -12    4    1      0.96      0.00
   12    4    0      0.52      0.00
  -12    5    9      0.03      0.00
  -12    5    8     -0.37      0.00
  -12    5    7      0.38      0.00
  -12    5    6     -1.39      0.00
  -12    5    5      0.10      0.00
  -12    5    4     -1.11      0.00
  -12    5    3      0.01      0.00
  -12    5    2     -0.61      0.00
  -12    5    1      0.24      0.00
   12    5    0     -0.10      0.00
  -12    6    9      0.32      0.00
  -12    6    8      2.46      0.00
  -12    6    7     -1.12      0.00
  -12    6    6      1.71      0.00
  -12    6    5     -1.65      0.00
  -12    6    4      0.70      0.00
  -12    6    3     -1.69      0.00
  -12    6    2      0.47      0.00
  -12    6    1     -1.42      0.00
  -12    7    8     -0.17      0.00
  -12    7    7      3.33      0.00
  -12    7    6     -0.67      0.00
  -12    7    5      1.92      0.00
  -12    7    4     -1.43      0.00
  -12    7    3      1.31      0.00
  -12    7    2     -2.03      0.00
  -12    7    1      0.98      0.00
  -12    8    7      0.42      0.00
  -12    8    6      2.52      0.00
  -12    8    5     -0.19      0.00
  -12    8    4      2.10      0.00
  -12    8    3     -1.44      0.00
  -12    8    2      1.89      0.00
  -12    9    6      0.56      0.00
  -12    9    5      1.96      0.00
  -12    9    4     -0.50      0.00
  -12    9    3      2.37      0.00
   13    1    0      0.79      0.00
   13    2    0      0.32      0.00
   13    3    0      0.43      0.00
   13    4    0      0.88      0.00
   13    5    0      0.12      0.00
   12    6    0      0.47      0.00
   13    6    0      0.88      0.00
   12    7    0      1.67      0.00
   13    7    0      0.15      0.00
   12    8    0      1.12      0.00
   13    8    0      0.44      0.00
   12    9    0      0.71      0.00
   13    9    0      0.64      0.00
   12   10    0      0.99      0.00
   13   10    0      0.19      0.00
   12   11    0     -1.43      0.00
   13   11    0      0.65      0.00
   12   12    0      0.50      0.00
   13   12    0      0.03      0.00
   12   13    0     -0.84      0.00
   11   14    0      0.12      0.00
   12   14    0      1.02      0.00
   11   15    0      3.17      0.00
   12   15    0      0.93      0.00
   11   16    0     -0.41      0.00
   12   16    0      1.00      0.00
   11   17    0      0.96      0.00
   12   17    0      0.65      0.00
   10   18    0      2.30      0.00
   11   18    0     -0.53      0.00
   10   19    0     -0.68      0.00
   11   19    0      0.25      0.00
   10   20    0      0.29      0.00
   11   20    0      0.18      0.00
   10   21    0     -1.12      0.00
   11   21    0     -0.07      0.00
    9   22    0     -0.30      0.00
   10   22    0     -0.80      0.00
    9   23    0     -0.02      0.00
   10   23    0     -0.72      0.00
    8   24    0      0.62      0.00
    9   24    0      0.71      0.00
   10   24    0      0.08      0.00
    8   25    0      0.80      0.00
    9   25    0      0.39      0.00
    7   26    0     -0.84      0.00
    8   26    0     -0.55      0.00
    9   26    0     -0.13      0.00
    7   27    0     -0.26      0.00
    8   27    0     -0.44      0.00
    6   28    0      0.29      0.00
    7   28    0     -0.59      0.00
    8   28    0     -0.80      0.00
    5   29    0     -0.45      0.00
    6   29    0     -2.09      0.00
    7   29    0     -0.81      0.00
    4   30    0      1.69      0.00
    5   30    0     -1.25      0.00
    6   30    0     -1.31      0.00
    7   30    0     -0.41      0.00
    2   31    0     -1.00      0.00
    3   31    0      0.84      0.00
    4   31    0      0.21      0.00
    5   31    0      0.48      0.00
    6   31    0     -0.74      0.00
    0   32    0      0.08      0.00
    1   32    0      0.25      0.00
    2   32    0      1.57      0.00
    3   32    0     -0.54      0.00
    4   32    0     -0.01      0.00
    5   32    0      0.45      0.00
  -13    0    1      0.78      0.00
   13    0    1      0.96      0.00
  -13    1    1      0.06      0.00
   12    1    1      1.44      0.00
   13    1    1      0.19      0.00
  -13    2    1      0.45      0.00
   12    2    1     -1.64      0.00
   13    2    1      0.73      0.00
  -13    3    1     -0.39      0.00
   12    3    1      0.84      0.00
   13    3    1      0.65      0.00
  -13    4    1      0.02      0.00
   12    4    1     -1.37      0.00
   13    4    1      0.33      0.00
  -13    5    1     -1.11      0.00
   12    5    1      0.44      0.00
   13    5    1      0.74      0.00
  -13    6    1      0.08      0.00
   12    6    1      0.48      0.00
   13    6    1      0.03      0.00
  -13    7    1     -0.92      0.00
   12    7    1      0.72      0.00
   13    7    1      0.43      0.00
  -13    8    1      0.57      0.00
  -12    8    1     -1.78      0.00
   12    8    1      1.24      0.00
   13    8    1      0.21      0.00
  -13    9    1     -0.41      0.00
  -12    9    1      1.73      0.00
   12    9    1      0.78      0.00
   13    9    1      0.26      0.00
  -13   10    1      0.91      0.00
  -12   10    1      0.43      0.00
   12   10    1     -0.37      0.00
   13   10    1      0.58      0.00
  -13   11    1     -0.25      0.00
  -12   11    1      0.67      0.00
   12   11    1      0.58      0.00
  -13   12    1      0.26      0.00
  -12   12    1      1.69      0.00
   12   12    1     -1.09      0.00
  -13   13    1     -0.07      0.00
  -12   13    1     -0.14      0.00
   11   13    1      0.32      0.00
   12   13    1      1.12      0.00
  -12   14    1      0.05      0.00
   11   14    1      3.72      0.00
   12   14    1      0.33      0.00
  -12   15    1      0.71      0.00
  -11   15    1     -0.45      0.00
   11   15    1     -0.38      0.00
   12   15    1      1.34      0.00
  -12   16    1     -1.14      0.00
  -11   16    1      1.99      0.00
   11   16    1      1.80      0.00
   12   16    1      0.68      0.00
  -12   17    1      0.63      0.00
  -11   17    1      0.09      0.00
   11   17    1     -1.01      0.00
  -12   18    1     -0.33      0.00
  -11   18    1      0.26      0.00
   10   18    1     -0.58      0.00
   11   18    1      0.62      0.00
  -11   19    1      0.12      0.00
  -10   19    1      0.98      0.00
   10   19    1      1.74      0.00
   11   19    1     -0.08      0.00
  -11   20    1      0.02      0.00
  -10   20    1      0.70      0.00
   10   20    1     -0.94      0.00
   11   20    1      0.33      0.00
  -11   21    1     -0.03      0.00
  -10   21    1     -0.88      0.00
    9   21    1     -1.16      0.00
   10   21    1     -0.25      0.00
  -10   22    1      1.31      0.00
   -9   22    1     -1.22      0.00
    9   22    1      0.06      0.00
   10   22    1     -0.90      0.00
  -10   23    1     -0.68      0.00
   -9   23    1     -0.29      0.00
    9   23    1      0.50      0.00
   10   23    1     -0.17      0.00
  -10   24    1      0.58      0.00
   -9   24    1      0.31      0.00
   -8   24    1     -1.84      0.00
    8   24    1      0.76      0.00
    9   24    1      0.25      0.00
   -9   25    1     -0.47      0.00
   -8   25    1      0.46      0.00
    8   25    1     -0.41      0.00
    9   25    1      0.12      0.00
   -9   26    1      0.54      0.00
   -8   26    1     -0.50      0.00
   -7   26    1      0.18      0.00
    7   26    1     -0.09      0.00
    8   26    1     -0.04      0.00
    9   26    1     -0.13      0.00
   -9   27    1      0.37      0.00
   -8   27    1     -0.56      0.00
   -7   27    1      0.60      0.00
    6   27    1      0.58      0.00
    7   27    1     -0.78      0.00
    8   27    1     -0.70      0.00
   -8   28    1      0.61      0.00
   -7   28    1     -0.43      0.00
   -6   28    1      0.96      0.00
    6   28    1     -2.49      0.00
    7   28    1     -0.74      0.00
    8   28    1     -0.49      0.00
   -8   29    1     -0.65      0.00
   -7   29    1      0.12      0.00
   -6   29    1     -0.44      0.00
   -5   29    1      2.28      0.00
    5   29    1     -2.45      0.00
    6   29    1     -1.04      0.00
    7   29    1     -0.82      0.00
   -7   30    1     -0.63      0.00
   -6   30    1      1.24      0.00
   -5   30    1     -0.60      0.00
   -4   30    1     -0.24      0.00
    4   30    1     -0.46      0.00
    5   30    1      0.89      0.00
    6   30    1     -1.59      0.00
    7   30    1     -0.94      0.00
   -6   31    1     -1.13      0.00
   -5   31    1      0.09      0.00
   -4   31    1      0.44      0.00
   -3   31    1      0.77      0.00
   -2   31    1      1.69      0.00
    1   31    1      1.16      0.00
    2   31    1      1.04      0.00
    3   31    1     -1.71      0.00
    4   31    1      1.02      0.00
    5   31    1      0.09      0.00
    6   31    1     -0.62      0.00
   -6   32    1      0.36      0.00
   -5   32    1      0.40      0.00
   -4   32    1     -0.76      0.00
   -3   32    1     -0.28      0.00
   -2   32    1      0.27      0.00
   -1   32    1      1.68      0.00
    0   32    1      0.25      0.00
    1   32    1      0.77      0.00
    2   32    1     -0.52      0.00
    3   32    1      0.35      0.00
    4   32    1     -0.47      0.00
    5   32    1      0.69      0.00
   12    0    2      1.42      0.00
  -13    1    2      0.63      0.00
   12    1    2     -0.83      0.00
   13    1    2      0.84      0.00
  -13    2    2      0.19      0.00
   12    2    2      0.98      0.00
   13    2    2      0.38      0.00
  -13    3    2     -0.16      0.00
   12    3    2     -1.61      0.00
   13    3    2      0.49      0.00
  -13    4    2     -0.69      0.00
   12    4    2      0.41      0.00
   13    4    2      0.54      0.00
  -13    5    2     -0.21      0.00
   12    5    2     -0.73      0.00
   13    5    2      0.13      0.00
  -13    6    2     -1.29      0.00
   12    6    2      0.63      0.00
   13    6    2      0.33      0.00
  -13    7    2      0.41      0.00
   12    7    2      0.65      0.00
   13    7    2      0.02      0.00
  -13    8    2     -0.80      0.00
   12    8    2      0.74      0.00
   13    8    2      0.28      0.00
  -13    9    2      0.94      0.00
  -12    9    2     -0.95      0.00
   12    9    2      0.41      0.00
  -13   10    2     -0.52      0.00
  -12   10    2      1.74      0.00
   12   10    2      0.35      0.00
  -13   11    2      0.74      0.00
  -12   11    2      0.97      0.00
   11   11    2      0.80      0.00
   12   11    2     -0.63      0.00
  -13   12    2     -0.44      0.00
  -12   12    2     -0.39      0.00
   11   12    2      0.71      0.00
   12   12    2      0.70      0.00
  -13   13    2     -0.14      0.00
  -12   13    2      1.09      0.00
   11   13    2      3.22      0.00
   12   13    2     -0.11      0.00
  -12   14    2     -0.69      0.00
   11   14    2      0.19      0.00
   12   14    2      1.28      0.00
  -12   15    2     -0.46      0.00
  -11   15    2      2.14      0.00
   11   15    2      2.34      0.00
   12   15    2      0.55      0.00
  -12   16    2      0.69      0.00
  -11   16    2     -0.94      0.00
   11   16    2     -1.06      0.00
  -12   17    2     -0.82      0.00
  -11   17    2      0.96      0.00
   10   17    2     -0.27      0.00
   11   17    2      0.89      0.00
  -12   18    2      0.45      0.00
  -11   18    2     -0.18      0.00
   10   18    2      2.63      0.00
   11   18    2     -0.53      0.00
  -11   19    2      0.06      0.00
  -10   19    2      0.09      0.00
   10   19    2     -0.53      0.00
   11   19    2      0.71      0.00
  -11   20    2      0.08      0.00
  -10   20    2     -0.35      0.00
    9   20    2     -1.61      0.00
   10   20    2      0.74      0.00
   11   20    2      0.18      0.00
  -11   21    2     -0.02      0.00
  -10   21    2      1.01      0.00
    9   21    2      0.23      0.00
   10   21    2     -1.00      0.00
  -11   22    2      0.27      0.00
  -10   22    2     -1.19      0.00
   -9   22    2      0.97      0.00
    9   22    2     -0.18      0.00
   10   22    2     -0.20      0.00
  -10   23    2      1.51      0.00
   -9   23    2     -1.08      0.00
    8   23    2      0.30      0.00
    9   23    2      0.20      0.00
   10   23    2     -0.36      0.00
  -10   24    2     -0.30      0.00
   -9   24    2     -0.25      0.00
    8   24    2     -0.06      0.00
    9   24    2      0.17      0.00
  -10   25    2      0.40      0.00
   -9   25    2      0.81      0.00
   -8   25    2     -1.92      0.00
    7   25    2      0.18      0.00
    8   25    2      0.30      0.00
    9   25    2     -0.14      0.00
   -9   26    2     -0.15      0.00
   -8   26    2      0.48      0.00
   -7   26    2      0.59      0.00
    7   26    2     -0.55      0.00
    8   26    2     -0.56      0.00
   -9   27    2      0.51      0.00
   -8   27    2     -0.10      0.00
   -7   27    2     -0.21      0.00
    6   27    2     -2.00      0.00
    7   27    2     -0.74      0.00
    8   27    2     -0.13      0.00
   -8   28    2     -0.48      0.00
   -7   28    2      0.14      0.00
   -6   28    2      1.23      0.00
    5   28    2     -2.61      0.00
    6   28    2     -1.00      0.00
    7   28    2     -0.98      0.00
    8   28    2     -0.39      0.00
   -8   29    2      0.59      0.00
   -7   29    2     -0.38      0.00
   -6   29    2      0.54      0.00
   -5   29    2     -1.03      0.00
    4   29    2     -0.02      0.00
    5   29    2      0.65      0.00
    6   29    2     -2.22      0.00
    7   29    2     -1.03      0.00
   -7   30    2     -0.08      0.00
   -6   30    2     -0.81      0.00
   -5   30    2      0.91      0.00
   -4   30    2      0.22      0.00
    3   30    2     -1.58      0.00
    4   30    2      1.68      0.00
    5   30    2     -0.53      0.00
    6   30    2     -0.54      0.00
   -6   31    2      0.80      0.00
   -5   31    2     -0.30      0.00
   -4   31    2     -1.38      0.00
   -3   31    2     -0.17      0.00
   -2   31    2      1.06      0.00
   -1   31    2      2.06      0.00
    0   31    2      0.07      0.00
    1   31    2     -0.16      0.00
    2   31    2     -0.16      0.00
    3   31    2      0.17      0.00
    4   31    2     -1.03      0.00
    5   31    2      1.49      0.00
    6   31    2     -0.10      0.00
   -6   32    2     -0.51      0.00
   -5   32    2     -0.07      0.00
   -4   32    2     -0.12      0.00
   -3   32    2     -0.58      0.00
   -2   32    2      0.90      0.00
   -1   32    2     -0.12      0.00
    0   32    2     -0.10      0.00
    1   32    2      0.59      0.00
    2   32    2      0.91      0.00
    3   32    2     -1.12      0.00
    4   32    2      0.03      0.00
    5   32    2      0.24      0.00
  -13    0    3      0.95      0.00
   -7    0    3    -10.99      0.00
   13    0    3      0.64      0.00
  -13    1    3      0.29      0.00
   10    1    3     -0.60      0.00
   12    1    3      1.01      0.00
   13    1    3      0.15      0.00
  -13    2    3      0.05      0.00
   12    2    3     -1.11      0.00
   13    2    3      0.49      0.00
  -13    3    3      0.02      0.00
   12    3    3      0.27      0.00
   13    3    3      0.33      0.00
  -13    4    3     -0.65      0.00
   12    4    3     -1.06      0.00
   13    4    3      0.24      0.00
  -13    5    3     -1.11      0.00
   12    5    3      0.31      0.00
   13    5    3      0.21      0.00
  -13    6    3      0.16      0.00
   12    6    3     -0.16      0.00
  -13    7    3     -1.26      0.00
   12    7    3      0.81      0.00
  -13    8    3      0.87      0.00
   12    8    3      0.30      0.00
  -13    9    3     -0.71      0.00
   11    9    3     -1.04      0.00
   12    9    3      0.42      0.00
  -13   10    3      0.86      0.00
  -12   10    3     -0.31      0.00
   11   10    3      0.24      0.00
   12   10    3     -0.18      0.00
  -13   11    3     -0.76      0.00
  -12   11    3      0.78      0.00
   11   11    3      0.49      0.00
   12   11    3      0.18      0.00
  -13   12    3      0.38      0.00
  -12   12    3      0.54      0.00
   11   12    3      2.22      0.00
   12   12    3     -0.18      0.00
  -13   13    3     -0.35      0.00
  -12   13    3     -1.36      0.00
   11   13    3      0.82      0.00
   12   13    3      0.75      0.00
  -13   14    3     -0.15      0.00
  -12   14    3      0.44      0.00
   11   14    3      2.35      0.00
   12   14    3      0.44      0.00
  -12   15    3     -0.55      0.00
   10   15    3      1.91      0.00
   11   15    3     -0.55      0.00
  -12   16    3     -0.41      0.00
  -11   16    3      1.16      0.00
   10   16    3     -0.06      0.00
   11   16    3      0.94      0.00
  -12   17    3      0.82      0.00
  -11   17    3     -1.16      0.00
   10   17    3      2.67      0.00
   11   17    3     -0.71      0.00
  -12   18    3     -0.38      0.00
  -11   18    3      0.50      0.00
   10   18    3      0.09      0.00
   11   18    3      0.70      0.00
  -12   19    3      0.26      0.00
  -11   19    3     -0.14      0.00
  -10   19    3      0.40      0.00
    9   19    3     -1.38      0.00
   10   19    3      1.56      0.00
   11   19    3      0.00      0.00
  -11   20    3      0.18      0.00
  -10   20    3      0.01      0.00
    9   20    3      0.18      0.00
   10   20    3     -0.74      0.00
  -11   21    3      0.28      0.00
  -10   21    3     -0.94      0.00
    9   21    3     -0.92      0.00
   10   21    3      0.04      0.00
  -11   22    3     -0.09      0.00
  -10   22    3      1.53      0.00
   -9   22    3     -2.52      0.00
    8   22    3     -0.17      0.00
    9   22    3      0.16      0.00
   10   22    3     -0.65      0.00
  -10   23    3     -0.90      0.00
   -9   23    3      0.72      0.00
    8   23    3      0.44      0.00
    9   23    3     -0.07      0.00
  -10   24    3      1.42      0.00
   -9   24    3     -0.33      0.00
    8   24    3      0.17      0.00
    9   24    3     -0.22      0.00
  -10   25    3     -0.08      0.00
   -9   25    3     -0.06      0.00
   -8   25    3      1.46      0.00
    7   25    3     -0.40      0.00
    8   25    3     -0.39      0.00
    9   25    3     -0.30      0.00
   -9   26    3      1.06      0.00
   -8   26    3     -1.56      0.00
   -7   26    3      0.53      0.00
    6   26    3     -1.27      0.00
    7   26    3     -0.57      0.00
    8   26    3      0.35      0.00
   -9   27    3     -0.06      0.00
   -8   27    3      0.45      0.00
   -7   27    3      0.30      0.00
    6   27    3     -1.11      0.00
    7   27    3     -0.70      0.00
    8   27    3     -0.26      0.00
   -8   28    3      0.16      0.00
   -7   28    3     -0.39      0.00
   -6   28    3     -0.21      0.00
    5   28    3     -0.31      0.00
    6   28    3     -2.14      0.00
    7   28    3     -1.22      0.00
   -8   29    3     -0.30      0.00
   -7   29    3     -0.17      0.00
   -6   29    3      0.31      0.00
   -5   29    3      0.88      0.00
    4   29    3      1.49      0.00
    5   29    3     -0.60      0.00
    6   29    3     -0.67      0.00
    7   29    3     -0.86      0.00
   -7   30    3     -0.05      0.00
   -6   30    3      0.42      0.00
   -5   30    3     -1.09      0.00
   -4   30    3     -1.25      0.00
    3   30    3     -0.91      0.00
    4   30    3     -0.53      0.00
    5   30    3      1.85      0.00
    6   30    3     -0.53      0.00
   -6   31    3     -0.57      0.00
   -5   31    3      0.36      0.00
   -4   31    3     -0.33      0.00
   -3   31    3     -0.59      0.00
   -2   31    3      0.53      0.00
   -1   31    3     -0.24      0.00
    0   31    3     -0.09      0.00
    1   31    3      1.28      0.00
    2   31    3     -0.15      0.00
    3   31    3     -1.42      0.00
    4   31    3      0.36      0.00
    5   31    3      0.10      0.00
   -6   32    3      0.54      0.00
   -5   32    3      0.42      0.00
   -4   32    3     -1.01      0.00
   -3   32    3     -1.34      0.00
   -2   32    3     -0.61      0.00
   -1   32    3      1.42      0.00
    0   32    3      0.60      0.00
    1   32    3     -0.37      0.00
    2   32    3      0.08      0.00
    3   32    3      0.16      0.00
    4   32    3     -1.40      0.00
    5   32    3      0.70      0.00
   10    0    4     -0.87      0.00
   12    0    4      0.88      0.00
  -13    1    4      0.79      0.00
   -7    1    4     -8.48      0.00
   12    1    4     -0.49      0.00
  -13    2    4      0.35      0.00
   12    2    4      0.32      0.00
  -13    3    4     -0.77      0.00
   12    3    4     -0.78      0.00
  -13    4    4     -0.37      0.00
   12    4    4     -0.16      0.00
  -13    5    4     -0.36      0.00
   12    5    4     -0.33      0.00
  -13    6    4     -1.37      0.00
   11    6    4     -0.23      0.00
   12    6    4      0.42      0.00
  -13    7    4      1.01      0.00
   11    7    4      0.23      0.00
   12    7    4     -0.07      0.00
  -13    8    4     -1.14      0.00
   11    8    4     -1.04      0.00
   12    8    4      0.61      0.00
  -13    9    4      0.91      0.00
   11    9    4      0.15      0.00
   12    9    4     -0.20      0.00
  -13   10    4     -0.75      0.00
  -12   10    4      1.78      0.00
   11   10    4     -0.22      0.00
   12   10    4      0.09      0.00
  -13   11    4      0.43      0.00
  -12   11    4     -0.60      0.00
   11   11    4      1.43      0.00
   12   11    4     -0.19      0.00
  -13   12    4     -0.77      0.00
  -12   12    4     -0.45      0.00
   11   12    4      0.84      0.00
   12   12    4      0.21      0.00
  -13   13    4      0.34      0.00
  -12   13    4     -0.20      0.00
   11   13    4      2.03      0.00
  -13   14    4      0.05      0.00
  -12   14    4     -1.41      0.00
   10   14    4      1.60      0.00
   11   14    4      0.03      0.00
  -12   15    4      0.23      0.00
   10   15    4     -0.18      0.00
   11   15    4      0.95      0.00
  -12   16    4      0.08      0.00
  -11   16    4     -1.47      0.00
   10   16    4      2.28      0.00
   11   16    4     -0.56      0.00
  -12   17    4     -0.15      0.00
  -11   17    4      0.65      0.00
   10   17    4      0.46      0.00
   11   17    4      0.35      0.00
  -12   18    4      0.81      0.00
  -11   18    4     -0.93      0.00
    9   18    4     -0.94      0.00
   10   18    4      1.88      0.00
  -12   19    4     -0.09      0.00
  -11   19    4      0.54      0.00
    9   19    4      0.13      0.00
   10   19    4     -0.13      0.00
  -11   20    4      0.15      0.00
  -10   20    4     -0.32      0.00
    9   20    4     -1.27      0.00
   10   20    4      0.37      0.00
  -11   21    4      0.33      0.00
  -10   21    4      0.45      0.00
    8   21    4     -0.34      0.00
    9   21    4      0.01      0.00
   10   21    4     -0.66      0.00
  -11   22    4      0.37      0.00
  -10   22    4     -0.80      0.00
   -9   22    4      1.18      0.00
    8   22    4      0.72      0.00
    9   22    4     -0.54      0.00
  -10   23    4      1.80      0.00
   -9   23    4     -2.04      0.00
    8   23    4     -0.31      0.00
    9   23    4     -0.25      0.00
  -10   24    4     -0.56      0.00
   -9   24    4      0.71      0.00
    7   24    4     -0.50      0.00
    8   24    4     -0.04      0.00
    9   24    4     -0.31      0.00
  -10   25    4      0.96      0.00
   -9   25    4      0.44      0.00
   -8   25    4     -2.52      0.00
    7   25    4      0.04      0.00
    8   25    4      0.41      0.00
   -9   26    4     -0.09      0.00
   -8   26    4      1.48      0.00
   -7   26    4     -0.11      0.00
    6   26    4     -0.79      0.00
    7   26    4     -0.53      0.00
    8   26    4     -0.20      0.00
   -9   27    4      0.90      0.00
   -8   27    4     -1.03      0.00
   -7   27    4     -0.13      0.00
   -1   27    4     -2.74      0.00
    5   27    4     -0.94      0.00
    6   27    4     -1.81      0.00
    7   27    4     -1.19      0.00
   -8   28    4      0.27      0.00
   -7   28    4      0.06      0.00
   -6   28    4      1.08      0.00
    5   28    4     -0.44      0.00
    6   28    4     -0.86      0.00
    7   28    4     -0.64      0.00
   -8   29    4      0.19      0.00
   -7   29    4     -0.28      0.00
   -6   29    4     -0.19      0.00
   -5   29    4     -1.04      0.00
    3   29    4     -1.71      0.00
    4   29    4      0.62      0.00
    5   29    4      1.42      0.00
    6   29    4     -0.65      0.00
   -7   30    4     -0.24      0.00
   -6   30    4     -0.12      0.00
   -5   30    4      0.65      0.00
   -4   30    4     -0.96      0.00
   -3   30    4     -0.50      0.00
    2   30    4     -1.28      0.00
    3   30    4     -1.03      0.00
    4   30    4      0.28      0.00
    5   30    4      0.30      0.00
    6   30    4      0.28      0.00
   -6   31    4      0.43      0.00
   -5   31    4     -0.34      0.00
   -4   31    4     -1.41      0.00
   -3   31    4     -1.74      0.00
   -2   31    4      0.33      0.00
   -1   31    4      1.78      0.00
    0   31    4      0.02      0.00
    1   31    4     -1.04      0.00
    2   31    4      0.71      0.00
    3   31    4     -0.76      0.00
    4   31    4     -1.33      0.00
    5   31    4      1.25      0.00
   -6   32    4     -0.30      0.00
   -5   32    4      0.26      0.00
   -4   32    4      0.14      0.00
   -3   32    4     -0.80      0.00
   -2   32    4     -0.56      0.00
   -1   32    4     -0.32      0.00
    0   32    4     -0.44      0.00
    1   32    4      0.68      0.00
    2   32    4      0.15      0.00
    3   32    4     -0.44      0.00
    4   32    4     -0.19      0.00
  -13    0    5      1.40      0.00
   11    0    5     -1.61      0.00
  -13    1    5      0.16      0.00
   11    1    5     -0.42      0.00
   12    1    5      0.53      0.00
  -13    2    5     -0.09      0.00
   11    2    5     -0.63      0.00
   12    2    5     -0.49      0.00
  -13    3    5      0.25      0.00
   11    3    5     -0.42      0.00
   12    3    5     -0.23      0.00
  -13    4    5     -0.99      0.00
   11    4    5      0.28      0.00
   12    4    5     -0.15      0.00
  -13    5    5     -0.63      0.00
   11    5    5      0.13      0.00
   12    5    5     -0.26      0.00
  -13    6    5      0.87      0.00
   11    6    5     -0.24      0.00
   12    6    5     -0.01      0.00
  -13    7    5     -1.54      0.00
   11    7    5     -0.33      0.00
   12    7    5      0.31      0.00
  -13    8    5      1.57      0.00
   11    8    5     -0.29      0.00
   12    8    5     -0.31      0.00
  -13    9    5     -1.15      0.00
   11    9    5     -0.46      0.00
   12    9    5      0.23      0.00
  -13   10    5      0.36      0.00
  -12   10    5     -0.38      0.00
   11   10    5      0.81      0.00
   12   10    5     -0.27      0.00
  -13   11    5     -0.71      0.00
  -12   11    5      0.42      0.00
   11   11    5      0.40      0.00
  -13   12    5      0.23      0.00
  -12   12    5     -1.51      0.00
   10   12    5      0.27      0.00
   11   12    5      1.60      0.00
  -13   13    5     -0.41      0.00
  -12   13    5     -0.96      0.00
   10   13    5      1.30      0.00
   11   13    5      0.25      0.00
  -13   14    5      0.60      0.00
  -12   14    5     -0.54      0.00
   10   14    5     -0.35      0.00
   11   14    5      1.05      0.00
  -12   15    5     -0.57      0.00
   10   15    5      1.87      0.00
   11   15    5     -0.40      0.00
  -12   16    5      0.30      0.00
  -11   16    5     -0.48      0.00
   10   16    5      0.27      0.00
   11   16    5      0.16      0.00
  -12   17    5      0.68      0.00
  -11   17    5     -1.43      0.00
    9   17    5     -0.70      0.00
   10   17    5      1.87      0.00
  -12   18    5      0.00      0.00
  -11   18    5      0.71      0.00
    9   18    5      0.50      0.00
   10   18    5      0.37      0.00
  -12   19    5      0.59      0.00
  -11   19    5     -0.36      0.00
  -10   19    5      0.38      0.00
    9   19    5     -1.24      0.00
   10   19    5      0.62      0.00
  -11   20    5      0.74      0.00
  -10   20    5     -1.03      0.00
    8   20    5     -0.49      0.00
    9   20    5     -0.26      0.00
   10   20    5     -0.33      0.00
  -11   21    5      0.38      0.00
  -10   21    5     -0.34      0.00
    8   21    5      0.62      0.00
    9   21    5     -0.92      0.00
  -11   22    5      0.26      0.00
  -10   22    5      1.02      0.00
   -9   22    5     -2.76      0.00
    8   22    5     -0.57      0.00
    9   22    5     -0.23      0.00
  -10   23    5     -0.42      0.00
   -9   23    5      0.99      0.00
    7   23    5     -0.46      0.00
    8   23    5      0.28      0.00
    9   23    5     -0.50      0.00
  -10   24    5      1.52      0.00
   -9   24    5     -1.02      0.00
   -8   24    5     -2.04      0.00
    7   24    5      0.49      0.00
    8   24    5     -0.11      0.00
  -10   25    5     -0.43      0.00
   -9   25    5      0.55      0.00
   -8   25    5      1.49      0.00
    6   25    5     -0.31      0.00
    7   25    5     -0.70      0.00
    8   25    5     -0.01      0.00
   -9   26    5      0.78      0.00
   -8   26    5     -2.15      0.00
   -7   26    5      0.87      0.00
    6   26    5     -1.61      0.00
    7   26    5     -0.55      0.00
   -9   27    5     -0.32      0.00
   -8   27    5      1.14      0.00
   -7   27    5     -0.03      0.00
    5   27    5     -0.65      0.00
    6   27    5     -0.64      0.00
    7   27    5     -0.53      0.00
   -8   28    5     -0.51      0.00
   -7   28    5     -0.55      0.00
   -6   28    5     -0.22      0.00
    4   28    5      1.30      0.00
    5   28    5      0.86      0.00
    6   28    5     -0.74      0.00
   -8   29    5      0.03      0.00
   -7   29    5     -0.07      0.00
   -6   29    5      0.33      0.00
   -5   29    5      0.34      0.00
    3   29    5     -0.57      0.00
    4   29    5      0.37      0.00
    5   29    5      0.60      0.00
    6   29    5      0.11      0.00
   -7   30    5     -0.11      0.00
   -6   30    5     -0.01      0.00
   -5   30    5     -0.91      0.00
   -4   30    5     -1.29      0.00
   -3   30    5     -1.68      0.00
   -2   30    5      1.60      0.00
    1   30    5     -0.73      0.00
    2   30    5      1.06      0.00
    3   30    5     -1.55      0.00
    4   30    5     -0.44      0.00
    5   30    5      1.31      0.00
   -6   31    5     -0.36      0.00
   -5   31    5      0.63      0.00
   -4   31    5     -0.36      0.00
   -3   31    5     -0.98      0.00
   -2   31    5     -1.04      0.00
   -1   31    5     -0.39      0.00
    0   31    5     -0.04      0.00
    1   31    5      0.84      0.00
    2   31    5     -0.39      0.00
    3   31    5     -0.35      0.00
    4   31    5     -0.52      0.00
    5   31    5     -0.16      0.00
   -5   32    5      0.15      0.00
   -4   32    5     -0.38      0.00
   -3   32    5     -1.63      0.00
   -2   32    5     -1.04      0.00
   -1   32    5      0.80      0.00
    0   32    5      0.55      0.00
    1   32    5     -0.89      0.00
    2   32    5      0.51      0.00
    3   32    5     -0.08      0.00
    4   32    5     -1.04      0.00
   12    0    6      0.57      0.00
  -13    1    6      1.14      0.00
   11    1    6     -1.01      0.00
   12    1    6     -0.26      0.00
  -13    2    6      0.17      0.00
   11    2    6     -0.40      0.00
   12    2    6      0.12      0.00
  -13    3    6     -0.94      0.00
   11    3    6      0.07      0.00
   12    3    6     -0.14      0.00
  -13    4    6      0.42      0.00
   11    4    6     -0.07      0.00
   12    4    6     -0.48      0.00
  -13    5    6     -0.08      0.00
   11    5    6     -0.29      0.00
   12    5    6      0.18      0.00
  -13    6    6     -0.86      0.00
   11    6    6      0.20      0.00
   12    6    6     -0.30      0.00
  -13    7    6      2.09      0.00
   11    7    6     -0.83      0.00
  -13    8    6     -1.92      0.00
   11    8    6      0.00      0.00
  -13    9    6      1.22      0.00
   10    9    6      1.12      0.00
   11    9    6      0.07      0.00
  -13   10    6     -1.14      0.00
  -12   10    6      0.54      0.00
   10   10    6      0.11      0.00
   11   10    6      0.20      0.00
  -13   11    6     -0.18      0.00
  -12   11    6     -1.35      0.00
   10   11    6      0.64      0.00
   11   11    6      1.00      0.00
  -13   12    6     -0.32      0.00
  -12   12    6     -0.66      0.00
   10   12    6      0.66      0.00
   11   12    6      0.25      0.00
  -13   13    6      0.50      0.00
  -12   13    6     -2.09      0.00
   10   13    6     -0.14      0.00
   11   13    6      0.97      0.00
  -13   14    6     -0.03      0.00
  -12   14    6     -0.34      0.00
   10   14    6      1.35      0.00
   11   14    6     -0.34      0.00
  -12   15    6     -0.30      0.00
    9   15    6      2.67      0.00
   10   15    6     -0.09      0.00
  -12   16    6      0.52      0.00
  -11   16    6     -1.19      0.00
    9   16    6     -0.41      0.00
   10   16    6      1.70      0.00
  -12   17    6      0.34      0.00
  -11   17    6     -0.06      0.00
    9   17    6      1.10      0.00
   10   17    6      0.31      0.00
  -12   18    6      0.88      0.00
  -11   18    6     -0.77      0.00
    9   18    6     -1.11      0.00
   10   18    6      0.80      0.00
  -12   19    6      0.01      0.00
  -11   19    6      1.03      0.00
  -10   19    6     -2.28      0.00
    8   19    6     -0.92      0.00
    9   19    6     -0.33      0.00
   10   19    6      0.06      0.00
  -11   20    6      0.20      0.00
  -10   20    6      0.09      0.00
    8   20    6      0.49      0.00
    9   20    6     -0.93      0.00
  -11   21    6      0.69      0.00
  -10   21    6     -0.32      0.00
    8   21    6     -0.42      0.00
    9   21    6     -0.34      0.00
  -11   22    6      0.33      0.00
  -10   22    6      0.04      0.00
   -9   22    6      0.20      0.00
    7   22    6     -0.31      0.00
    8   22    6      0.18      0.00
    9   22    6     -0.70      0.00
  -10   23    6      1.19      0.00
   -9   23    6     -2.03      0.00
    7   23    6      0.28      0.00
    8   23    6     -0.57      0.00
  -10   24    6     -0.22      0.00
   -9   24    6      0.95      0.00
   -8   24    6      0.39      0.00
    6   24    6     -0.17      0.00
    7   24    6     -0.71      0.00
    8   24    6      0.19      0.00
  -10   25    6      0.89      0.00
   -9   25    6     -0.12      0.00
   -8   25    6     -2.24      0.00
    6   25    6     -1.17      0.00
    7   25    6      0.13      0.00
   -9   26    6      0.18      0.00
   -8   26    6      1.44      0.00
   -7   26    6     -0.54      0.00
    5   26    6     -0.87      0.00
    6   26    6     -0.29      0.00
    7   26    6     -0.70      0.00
   -9   27    6      0.69      0.00
   -8   27    6     -1.44      0.00
   -7   27    6     -0.20      0.00
   -6   27    6      0.25      0.00
    4   27    6      1.44      0.00
    5   27    6      0.45      0.00
    6   27    6     -0.93      0.00
    7   27    6     -0.63      0.00
   -8   28    6      0.54      0.00
   -7   28    6      0.04      0.00
   -6   28    6      0.52      0.00
   -5   28    6     -0.48      0.00
    3   28    6     -0.12      0.00
    4   28    6      0.82      0.00
    5   28    6      0.58      0.00
    6   28    6      0.20      0.00
   -8   29    6     -0.10      0.00
   -7   29    6     -0.66      0.00
   -6   29    6     -0.31      0.00
   -5   29    6     -0.59      0.00
   -4   29    6     -1.20      0.00
    2   29    6      0.73      0.00
    3   29    6     -1.59      0.00
    4   29    6      0.41      0.00
    5   29    6      1.08      0.00
   -7   30    6     -0.10      0.00
   -6   30    6     -0.24      0.00
   -5   30    6      0.64      0.00
   -4   30    6     -0.88      0.00
   -3   30    6     -1.22      0.00
   -2   30    6     -1.17      0.00
   -1   30    6     -0.15      0.00
    0   30    6      0.92      0.00
    1   30    6      0.18      0.00
    2   30    6     -0.59      0.00
    3   30    6     -0.31      0.00
    4   30    6     -0.66      0.00
    5   30    6      0.14      0.00
   -6   31    6      0.05      0.00
   -5   31    6     -0.54      0.00
   -4   31    6     -0.55      0.00
   -3   31    6     -2.02      0.00
   -2   31    6     -0.26      0.00
   -1   31    6      1.54      0.00
    0   31    6     -0.45      0.00
    1   31    6     -0.98      0.00
    2   31    6      0.80      0.00
    3   31    6     -0.62      0.00
    4   31    6     -0.64      0.00
   -5   32    6      0.25      0.00
   -4   32    6      0.34      0.00
   -3   32    6      0.00      0.00
   -2   32    6     -1.08      0.00
   -1   32    6     -0.61      0.00
    0   32    6     -0.20      0.00
    1   32    6      0.26      0.00
    2   32    6     -0.09      0.00
    3   32    6      0.39      0.00
  -13    0    7      1.89      0.00
   11    0    7     -0.91      0.00
  -13    1    7     -0.21      0.00
   11    1    7     -0.07      0.00
  -13    2    7      0.24      0.00
   11    2    7     -0.20      0.00
  -13    3    7      0.54      0.00
   11    3    7     -0.15      0.00
  -13    4    7     -0.92      0.00
   11    4    7      0.04      0.00
  -13    5    7      0.72      0.00
   10    5    7     -0.12      0.00
   11    5    7      0.10      0.00
  -13    6    7      1.27      0.00
   10    6    7     -0.13      0.00
   11    6    7     -0.80      0.00
  -13    7    7     -1.51      0.00
   10    7    7     -0.46      0.00
   11    7    7      0.38      0.00
  -13    8    7      2.30      0.00
   10    8    7      0.69      0.00
   11    8    7     -0.53      0.00
  -13    9    7     -2.31      0.00
  -12    9    7      1.40      0.00
   10    9    7     -0.59      0.00
   11    9    7      0.40      0.00
  -13   10    7      0.43      0.00
  -12   10    7     -0.16      0.00
   10   10    7      0.75      0.00
   11   10    7      0.34      0.00
  -13   11    7     -0.68      0.00
  -12   11    7     -1.21      0.00
   10   11    7     -0.11      0.00
   11   11    7      0.31      0.00
  -13   12    7     -0.07      0.00
  -12   12    7     -2.35      0.00
   10   12    7      0.31      0.00
   11   12    7      0.54      0.00
  -13   13    7      0.19      0.00
  -12   13    7     -0.45      0.00
    9   13    7      2.22      0.00
   10   13    7      0.65      0.00
  -13   14    7      0.85      0.00
  -12   14    7     -1.65      0.00
    9   14    7      1.71      0.00
   10   14    7     -0.02      0.00
  -12   15    7      0.89      0.00
  -11   15    7     -1.25      0.00
    9   15    7      0.23      0.00
   10   15    7      1.27      0.00
  -12   16    7      0.12      0.00
  -11   16    7     -1.39      0.00
    9   16    7      1.25      0.00
   10   16    7     -0.03      0.00
  -12   17    7      1.09      0.00
  -11   17    7     -0.54      0.00
    8   17    7      0.58      0.00
    9   17    7     -0.95      0.00
   10   17    7      0.90      0.00
  -12   18    7      0.16      0.00
  -11   18    7      0.71      0.00
    8   18    7     -1.29      0.00
    9   18    7     -0.02      0.00
  -11   19    7     -0.07      0.00
  -10   19    7      0.34      0.00
    8   19    7      0.64      0.00
    9   19    7     -0.74      0.00
  -11   20    7      1.06      0.00
  -10   20    7     -1.55      0.00
    8   20    7     -0.36      0.00
    9   20    7     -0.52      0.00
  -11   21    7      0.36      0.00
  -10   21    7      0.30      0.00
    7   21    7     -0.51      0.00
    8   21    7     -0.09      0.00
    9   21    7     -0.58      0.00
  -11   22    7      0.28      0.00
  -10   22    7      0.36      0.00
   -9   22    7     -1.99      0.00
    7   22    7     -0.01      0.00
    8   22    7     -0.45      0.00
  -10   23    7      0.30      0.00
   -9   23    7      0.38      0.00
    6   23    7      0.06      0.00
    7   23    7     -0.45      0.00
    8   23    7      0.01      0.00
  -10   24    7      0.83      0.00
   -9   24    7     -0.92      0.00
   -8   24    7     -1.40      0.00
    6   24    7     -0.66      0.00
    7   24    7      0.12      0.00
   -9   25    7      0.72      0.00
   -8   25    7      0.79      0.00
   -7   25    7     -0.76      0.00
    5   25    7     -0.95      0.00
    6   25    7     -0.25      0.00
    7   25    7     -0.70      0.00
   -9   26    7      0.26      0.00
   -8   26    7     -1.79      0.00
   -7   26    7      0.59      0.00
    4   26    7      1.26      0.00
    5   26    7      0.00      0.00
    6   26    7     -0.79      0.00
    7   26    7      0.01      0.00
   -8   27    7      0.95      0.00
   -7   27    7     -0.18      0.00
   -6   27    7      0.55      0.00
    3   27    7      0.30      0.00
    4   27    7      1.08      0.00
    5   27    7      0.38      0.00
    6   27    7      0.29      0.00
   -8   28    7     -0.63      0.00
   -7   28    7     -0.84      0.00
   -6   28    7     -0.20      0.00
   -5   28    7      0.51      0.00
    2   28    7     -0.11      0.00
    3   28    7     -1.09      0.00
    4   28    7      0.88      0.00
    5   28    7      0.72      0.00
    6   28    7     -0.16      0.00
   -7   29    7      0.13      0.00
   -6   29    7     -0.05      0.00
   -5   29    7      0.00      0.00
   -4   29    7     -0.76      0.00
   -3   29    7     -1.60      0.00
   -2   29    7     -0.53      0.00
    0   29    7      1.34      0.00
    1   29    7     -1.02      0.00
    2   29    7     -0.23      0.00
    3   29    7     -0.29      0.00
    4   29    7     -0.34      0.00
    5   29    7      0.37      0.00
   -7   30    7     -0.51      0.00
   -6   30    7     -0.27      0.00
   -5   30    7     -0.59      0.00
   -4   30    7     -0.74      0.00
   -3   30    7     -1.68      0.00
   -2   30    7      0.79      0.00
   -1   30    7      1.69      0.00
    0   30    7     -1.84      0.00
    1   30    7     -0.18      0.00
    2   30    7      0.78      0.00
    3   30    7     -0.73      0.00
    4   30    7     -0.01      0.00
   -6   31    7     -0.54      0.00
   -5   31    7      0.49      0.00
   -4   31    7      0.07      0.00
   -3   31    7     -0.45      0.00
   -2   31    7     -1.36      0.00
   -1   31    7     -0.67      0.00
    0   31    7      0.75      0.00
    1   31    7     -0.06      0.00
    2   31    7     -0.10      0.00
    3   31    7      0.36      0.00
   -5   32    7     -0.44      0.00
   -4   32    7      0.15      0.00
   -3   32    7     -0.95      0.00
   -2   32    7     -0.72      0.00
   -1   32    7      0.86      0.00
    0   32    7      0.14      0.00
    1   32    7     -0.70      0.00
    2   32    7      0.11      0.00
   10    0    8     -0.45      0.00
  -13    1    8      1.56      0.00
   10    1    8      0.64      0.00
   11    1    8     -0.29      0.00
  -13    2    8     -0.33      0.00
   10    2    8     -0.47      0.00
   11    2    8      0.15      0.00
  -13    3    8     -0.44      0.00
   10    3    8      0.62      0.00
   11    3    8      0.16      0.00
  -13    4    8      1.32      0.00
   10    4    8     -0.20      0.00
   11    4    8     -0.01      0.00
  -13    5    8     -0.18      0.00
   10    5    8     -0.13      0.00
   11    5    8     -0.36      0.00
  -13    6    8      0.44      0.00
   10    6    8     -0.18      0.00
   11    6    8      0.28      0.00
  -13    7    8      1.88      0.00
   10    7    8      0.12      0.00
   11    7    8     -0.63      0.00
  -13    8    8     -2.44      0.00
  -12    8    8      3.08      0.00
   10    8    8     -0.65      0.00
   11    8    8      0.56      0.00
  -13    9    8      1.60      0.00
  -12    9    8      0.10      0.00
   10    9    8      0.45      0.00
   11    9    8     -0.05      0.00
  -13   10    8     -2.03      0.00
  -12   10    8     -0.89      0.00
    9   10    8      0.94      0.00
   10   10    8     -0.54      0.00
  -13   11    8      0.15      0.00
  -12   11    8     -1.44      0.00
    9   11    8      0.43      0.00
   10   11    8      0.46      0.00
  -13   12    8      0.12      0.00
  -12   12    8     -1.57      0.00
  -11   12    8     -1.73      0.00
    9   12    8      2.28      0.00
   10   12    8      0.10      0.00
  -13   13    8      0.44      0.00
  -12   13    8     -2.12      0.00
  -11   13    8     -0.92      0.00
    9   13    8      0.91      0.00
   10   13    8      0.37      0.00
  -13   14    8      0.26      0.00
  -12   14    8      0.89      0.00
  -11   14    8     -2.15      0.00
    9   14    8      0.92      0.00
   10   14    8      0.64      0.00
  -12   15    8     -0.63      0.00
  -11   15    8     -1.96      0.00
    9   15    8      0.77      0.00
   10   15    8     -0.07      0.00
  -12   16    8      1.55      0.00
  -11   16    8     -0.23      0.00
  -10   16    8     -2.03      0.00
    8   16    8     -0.31      0.00
    9   16    8     -0.60      0.00
  -12   17    8      0.17      0.00
  -11   17    8     -0.30      0.00
  -10   17    8     -0.89      0.00
    8   17    8     -1.05      0.00
    9   17    8      0.29      0.00
  -12   18    8      0.86      0.00
  -11   18    8      0.16      0.00
  -10   18    8     -0.16      0.00
    8   18    8      0.75      0.00
    9   18    8     -0.64      0.00
  -11   19    8      1.08      0.00
  -10   19    8     -2.02      0.00
    7   19    8      1.44      0.00
    8   19    8     -0.60      0.00
    9   19    8     -0.38      0.00
  -11   20    8      0.14      0.00
  -10   20    8      0.37      0.00
    7   20    8     -0.88      0.00
    8   20    8      0.03      0.00
  -11   21    8      0.58      0.00
  -10   21    8     -0.49      0.00
   -9   21    8     -1.18      0.00
    7   21    8      0.37      0.00
    8   21    8     -0.16      0.00
  -10   22    8      0.49      0.00
   -9   22    8     -0.70      0.00
    6   22    8      0.77      0.00
    7   22    8     -0.46      0.00
    8   22    8     -0.41      0.00
  -10   23    8      0.47      0.00
   -9   23    8     -1.09      0.00
   -8   23    8     -0.53      0.00
    6   23    8     -0.82      0.00
    7   23    8     -0.20      0.00
  -10   24    8      0.20      0.00
   -9   24    8      0.56      0.00
   -8   24    8     -0.15      0.00
    5   24    8     -1.40      0.00
    6   24    8     -0.16      0.00
    7   24    8     -0.38      0.00
   -9   25    8     -0.23      0.00
   -8   25    8     -1.32      0.00
   -7   25    8      1.13      0.00
    4   25    8      0.39      0.00
    5   25    8     -0.11      0.00
    6   25    8     -0.43      0.00
    7   25    8      0.12      0.00
   -9   26    8      0.30      0.00
   -8   26    8      0.77      0.00
   -7   26    8     -0.39      0.00
   -6   26    8      0.38      0.00
    4   26    8      1.14      0.00
    5   26    8      0.08      0.00
    6   26    8      0.08      0.00
   -8   27    8     -1.02      0.00
   -7   27    8     -0.42      0.00
   -6   27    8      0.30      0.00
   -5   27    8      1.55      0.00
    2   27    8     -1.01      0.00
    3   27    8     -0.34      0.00
    4   27    8      0.93      0.00
    5   27    8      0.26      0.00
    6   27    8     -0.21      0.00
   -8   28    8      0.28      0.00
   -7   28    8      0.13      0.00
   -6   28    8      0.10      0.00
   -5   28    8     -0.83      0.00
   -4   28    8      0.05      0.00
    1   28    8     -1.53      0.00
    2   28    8      0.46      0.00
    3   28    8     -0.22      0.00
    4   28    8      0.14      0.00
    5   28    8      0.51      0.00
   -7   29    8     -0.84      0.00
   -6   29    8     -0.44      0.00
   -5   29    8      0.21      0.00
   -4   29    8     -1.24      0.00
   -3   29    8     -0.44      0.00
   -2   29    8      1.49      0.00
   -1   29    8      0.88      0.00
    0   29    8     -2.30      0.00
    1   29    8      0.94      0.00
    2   29    8      0.45      0.00
    3   29    8     -0.46      0.00
    4   29    8      0.43      0.00
   -6   30    8     -0.32      0.00
   -5   30    8      0.15      0.00
   -4   30    8      0.14      0.00
   -3   30    8     -1.16      0.00
   -2   30    8     -1.21      0.00
   -1   30    8      0.04      0.00
    0   30    8      1.50      0.00
    1   30    8     -0.86      0.00
    2   30    8      0.11      0.00
    3   30    8      0.21      0.00
   -5   31    8     -0.53      0.00
   -4   31    8     -0.06      0.00
   -3   31    8     -1.01      0.00
   -2   31    8     -0.27      0.00
   -1   31    8      1.53      0.00
    0   31    8     -0.80      0.00
    1   31    8     -0.43      0.00
    2   31    8      0.18      0.00
   -4   32    8      0.33      0.00
   -3   32    8      0.60      0.00
   -2   32    8     -0.58      0.00
   -1   32    8     -0.77      0.00
    0   32    8      0.57      0.00
    1   32    8     -0.22      0.00
  -13    0    9      1.81      0.00
   11    0    9      0.08      0.00
  -13    1    9     -0.73      0.00
   10    1    9      0.06      0.00
   11    1    9      0.25      0.00
  -13    2    9      0.76      0.00
   10    2    9      0.73      0.00
   11    2    9      0.19      0.00
  -13    3    9      0.19      0.00
   10    3    9     -0.26      0.00
  -13    4    9     -0.47      0.00
   10    4    9      0.20      0.00
  -13    5    9      1.76      0.00
   10    5    9     -0.20      0.00
  -13    6    9      0.36      0.00
    9    6    9     -0.61      0.00
   10    6    9     -0.12      0.00
  -13    7    9     -0.60      0.00
  -12    7    9      3.24      0.00
    9    7    9     -2.10      0.00
   10    7    9     -0.44      0.00
  -13    8    9      1.52      0.00
  -12    8    9     -0.24      0.00
    9    8    9     -0.19      0.00
   10    8    9      0.10      0.00
  -13    9    9     -2.71      0.00
  -12    9    9      0.85      0.00
  -11    9    9      1.84      0.00
    9    9    9     -0.32      0.00
   10    9    9     -0.58      0.00
  -13   10    9      0.99      0.00
  -12   10    9     -1.04      0.00
  -11   10    9      0.92      0.00
    9   10    9      0.62      0.00
   10   10    9      0.27      0.00
  -13   11    9     -0.95      0.00
  -12   11    9     -2.14      0.00
  -11   11    9     -0.26      0.00
    9   11    9      1.67      0.00
   10   11    9     -0.07      0.00
  -13   12    9      0.44      0.00
  -12   12    9     -1.57      0.00
  -11   12    9     -0.45      0.00
  -10   12    9      0.72      0.00
    9   12    9      0.80      0.00
   10   12    9      0.49      0.00
  -13   13    9      0.51      0.00
  -12   13    9     -0.17      0.00
  -10   13    9     -1.30      0.00
    8   13    9     -1.12      0.00
    9   13    9      1.20      0.00
  -12   14    9     -0.94      0.00
  -11   14    9     -1.52      0.00
  -10   14    9      2.33      0.00
    8   14    9      0.62      0.00
    9   14    9      0.23      0.00
  -12   15    9      1.80      0.00
  -11   15    9     -0.60      0.00
  -10   15    9     -3.27      0.00
    8   15    9     -1.09      0.00
    9   15    9     -0.11      0.00
  -12   16    9     -0.06      0.00
  -11   16    9     -1.10      0.00
    8   16    9     -0.31      0.00
    9   16    9      0.17      0.00
  -12   17    9      1.04      0.00
  -11   17    9      0.85      0.00
    7   17    9      1.13      0.00
    8   17    9      0.37      0.00
    9   17    9     -0.51      0.00
  -12   18    9     -0.13      0.00
  -11   18    9      0.36      0.00
  -10   18    9     -1.03      0.00
    7   18    9      0.78      0.00
    8   18    9     -0.68      0.00
  -11   19    9      0.17      0.00
  -10   19    9      0.12      0.00
    5   19    9      1.76      0.00
    7   19    9     -0.63      0.00
    8   19    9      0.43      0.00
  -11   20    9      0.80      0.00
  -10   20    9     -1.05      0.00
   -9   20    9     -0.16      0.00
    6   20    9     -1.10      0.00
    7   20    9      0.95      0.00
    8   20    9     -0.26      0.00
  -11   21    9      0.02      0.00
  -10   21    9      0.40      0.00
   -9   21    9     -1.41      0.00
    6   21    9      1.17      0.00
    7   21    9     -0.79      0.00
    8   21    9     -0.37      0.00
  -10   22    9      0.14      0.00
   -9   22    9     -0.82      0.00
    5   22    9      1.01      0.00
    6   22    9     -1.41      0.00
    7   22    9      0.01      0.00
  -10   23    9      0.36      0.00
   -9   23    9     -0.12      0.00
   -8   23    9     -0.53      0.00
    5   23    9     -1.99      0.00
    6   23    9      0.39      0.00
    7   23    9     -0.28      0.00
   -9   24    9     -0.36      0.00
   -8   24    9     -0.62      0.00
   -7   24    9      1.29      0.00
    4   24    9     -0.86      0.00
    5   24    9      0.42      0.00
    6   24    9     -0.53      0.00
   -9   25    9      0.39      0.00
   -8   25    9      0.24      0.00
   -7   25    9     -0.32      0.00
    3   25    9     -0.32      0.00
    4   25    9      1.40      0.00
    5   25    9     -0.61      0.00
    6   25    9     -0.06      0.00
   -9   26    9     -0.06      0.00
   -8   26    9     -0.88      0.00
   -7   26    9      0.21      0.00
   -6   26    9      0.99      0.00
    2   26    9     -1.52      0.00
    3   26    9      0.55      0.00
    4   26    9      0.34      0.00
    5   26    9      0.09      0.00
   -8   27    9      0.35      0.00
   -7   27    9      0.01      0.00
   -6   27    9      0.15      0.00
   -5   27    9     -1.14      0.00
   -4   27    9      0.98      0.00
    1   27    9     -0.80      0.00
    2   27    9      0.94      0.00
    3   27    9     -0.38      0.00
    4   27    9      0.61      0.00
    5   27    9      0.45      0.00
   -7   28    9     -0.71      0.00
   -6   28    9     -0.22      0.00
   -5   28    9      1.16      0.00
   -4   28    9     -1.75      0.00
   -3   28    9      1.16      0.00
   -2   28    9      1.32      0.00
   -1   28    9     -0.04      0.00
    0   28    9     -1.50      0.00
    1   28    9      1.33      0.00
    2   28    9      0.01      0.00
    3   28    9      0.00      0.00
    4   28    9      0.50      0.00
   -7   29    9      0.33      0.00
   -6   29    9     -0.04      0.00
   -5   29    9     -0.45      0.00
   -4   29    9      0.60      0.00
   -3   29    9     -1.97      0.00
   -2   29    9     -0.30      0.00
   -1   29    9      1.26      0.00
    0   29    9      1.02      0.00
    1   29    9     -1.38      0.00
    2   29    9      0.53      0.00
    3   29    9      0.05      0.00
   -6   30    9     -0.32      0.00
   -5   30    9      0.04      0.00
   -4   30    9     -0.57      0.00
   -3   30    9     -0.48      0.00
   -2   30    9      0.35      0.00
   -1   30    9      1.38      0.00
    0   30    9     -1.29      0.00
    1   30    9      0.13      0.00
    2   30    9      0.18      0.00
    3   30    9      0.06      0.00
   -5   31    9     -0.01      0.00
   -4   31    9      0.59      0.00
   -3   31    9     -0.04      0.00
   -2   31    9     -0.86      0.00
   -1   31    9     -0.58      0.00
    0   31    9      1.32      0.00
    1   31    9     -0.56      0.00
   -3   32    9     -0.11      0.00
   -2   32    9     -0.29      0.00
   -1   32    9      0.80      0.00
    0   32    9     -0.28      0.00
  -12    0   10      2.04      0.00
   10    0   10      0.57      0.00
  -13    1   10      1.12      0.00
  -12    1   10     -0.44      0.00
    9    1   10      0.09      0.00
   10    1   10      0.29      0.00
  -13    2   10     -1.01      0.00
  -12    2   10      0.06      0.00
    9    2   10      1.41      0.00
   10    2   10      0.11      0.00
  -13    3   10      0.30      0.00
  -12    3   10     -0.07      0.00
    9    3   10     -0.90      0.00
   10    3   10      0.26      0.00
  -13    4   10      0.97      0.00
  -12    4   10     -1.36      0.00
    9    4   10      0.61      0.00
   10    4   10     -0.29      0.00
  -13    5   10     -0.30      0.00
  -12    5   10      1.04      0.00
    9    5   10     -1.16      0.00
   10    5   10     -0.09      0.00
  -13    6   10      1.23      0.00
  -12    6   10      1.19      0.00
    9    6   10     -1.34      0.00
   10    6   10     -0.34      0.00
  -13    7   10      0.28      0.00
  -12    7   10      0.31      0.00
    9    7   10     -0.43      0.00
   10    7   10     -0.04      0.00
  -13    8   10     -1.49      0.00
  -12    8   10      1.84      0.00
    9    8   10     -0.93      0.00
   10    8   10     -0.47      0.00
  -13    9   10      0.99      0.00
  -12    9   10     -1.12      0.00
    9    9   10      0.62      0.00
   10    9   10      0.11      0.00
  -13   10   10     -1.84      0.00
  -12   10   10     -1.14      0.00
    8   10   10      2.91      0.00
    9   10   10      0.92      0.00
  -13   11   10      0.88      0.00
  -12   11   10     -1.22      0.00
   -9   11   10     -0.80      0.00
    8   11   10      0.54      0.00
    9   11   10      0.99      0.00
  -13   12   10      0.04      0.00
  -12   12   10     -1.25      0.00
  -11   12   10     -1.61      0.00
    8   12   10      0.00      0.00
    9   12   10      1.04      0.00
  -12   13   10     -0.58      0.00
  -11   13   10     -1.14      0.00
    8   13   10      0.48      0.00
    9   13   10      0.20      0.00
  -12   14   10      1.25      0.00
  -11   14   10     -1.15      0.00
    8   14   10     -1.23      0.00
    9   14   10      0.18      0.00
  -12   15   10     -0.19      0.00
  -11   15   10     -1.08      0.00
    7   15   10     -1.08      0.00
    8   15   10      0.24      0.00
    9   15   10     -0.21      0.00
  -12   16   10      1.23      0.00
  -11   16   10      1.16      0.00
    7   16   10      1.66      0.00
    8   16   10     -0.34      0.00
  -12   17   10     -0.12      0.00
  -11   17   10     -0.62      0.00
  -10   17   10      1.06      0.00
    7   17   10     -0.35      0.00
    8   17   10     -0.26      0.00
  -11   18   10      0.86      0.00
  -10   18   10     -0.80      0.00
    6   18   10     -1.06      0.00
    7   18   10      0.32      0.00
    8   18   10      0.43      0.00
  -11   19   10      0.37      0.00
  -10   19   10     -0.76      0.00
   -9   19   10      0.34      0.00
    6   19   10      0.39      0.00
    7   19   10      0.81      0.00
    8   19   10     -0.45      0.00
  -11   20   10     -0.21      0.00
  -10   20   10      0.20      0.00
   -9   20   10     -1.24      0.00
    6   20   10      0.55      0.00
    7   20   10     -0.69      0.00
  -10   21   10     -0.23      0.00
   -9   21   10     -0.43      0.00
    5   21   10      0.27      0.00
    6   21   10     -1.24      0.00
    7   21   10      0.59      0.00
  -10   22   10      0.16      0.00
   -9   22   10     -0.67      0.00
   -8   22   10     -0.22      0.00
    5   22   10     -1.65      0.00
    6   22   10      0.78      0.00
    7   22   10     -0.56      0.00
  -10   23   10      0.20      0.00
   -9   23   10     -0.32      0.00
   -8   23   10     -0.16      0.00
   -7   23   10      1.28      0.00
    4   23   10     -1.18      0.00
    5   23   10      0.79      0.00
    6   23   10     -1.05      0.00
   -9   24   10      0.06      0.00
   -8   24   10     -0.09      0.00
   -7   24   10     -0.15      0.00
    3   24   10     -0.42      0.00
    4   24   10      1.41      0.00
    5   24   10     -1.38      0.00
    6   24   10      0.21      0.00
   -9   25   10     -0.13      0.00
   -8   25   10     -0.50      0.00
   -7   25   10      0.75      0.00
   -6   25   10      1.40      0.00
    2   25   10     -1.50      0.00
    3   25   10      0.99      0.00
    4   25   10     -0.55      0.00
    5   25   10      0.45      0.00
   -8   26   10      0.20      0.00
   -7   26   10     -0.06      0.00
   -6   26   10      0.14      0.00
   -5   26   10     -0.76      0.00
   -4   26   10      1.42      0.00
    1   26   10      0.21      0.00
    2   26   10      0.73      0.00
    3   26   10     -0.77      0.00
    4   26   10      1.12      0.00
    5   26   10     -0.01      0.00
   -8   27   10     -0.29      0.00
   -7   27   10     -0.26      0.00
   -6   27   10      0.28      0.00
   -5   27   10      1.57      0.00
   -4   27   10     -1.83      0.00
   -3   27   10      2.23      0.00
   -2   27   10      0.51      0.00
   -1   27   10     -0.07      0.00
    0   27   10     -0.69      0.00
    1   27   10      0.98      0.00
    2   27   10     -0.25      0.00
    3   27   10      0.48      0.00
    4   27   10      0.06      0.00
   -7   28   10      0.28      0.00
   -6   28   10      0.16      0.00
   -5   28   10     -0.69      0.00
   -4   28   10      0.91      0.00
   -3   28   10     -2.36      0.00
   -2   28   10      1.32      0.00
   -1   28   10      1.75      0.00
    0   28   10     -0.27      0.00
    1   28   10     -1.02      0.00
    2   28   10      0.89      0.00
    3   28   10     -0.22      0.00
   -6   29   10     -0.36      0.00
   -5   29   10      0.76      0.00
   -4   29   10     -1.02      0.00
   -3   29   10      0.49      0.00
   -2   29   10      0.54      0.00
   -1   29   10      0.78      0.00
    0   29   10     -0.89      0.00
    1   29   10      0.37      0.00
    2   29   10      0.11      0.00
    3   29   10      0.37      0.00
   -5   30   10     -0.31      0.00
   -4   30   10      1.00      0.00
   -3   30   10     -0.93      0.00
   -2   30   10     -0.83      0.00
   -1   30   10      0.37      0.00
    0   30   10      1.31      0.00
    1   30   10     -0.90      0.00
   -3   31   10      0.04      0.00
   -2   31   10     -0.15      0.00
   -1   31   10      0.79      0.00
    0   31   10     -0.54      0.00
  -13    0   11      0.45      0.00
    9    0   11      0.57      0.00
  -13    1   11     -0.83      0.00
  -12    1   11      0.96      0.00
  -10    1   11      0.22      0.00
    9    1   11      0.53      0.00
   10    1   11      0.48      0.00
  -13    2   11      0.52      0.00
  -12    2   11     -0.95      0.00
    9    2   11     -0.21      0.00
   10    2   11      0.00      0.00
  -13    3   11     -0.49      0.00
  -12    3   11     -0.75      0.00
    9    3   11      0.76      0.00
  -13    4   11      0.17      0.00
  -12    4   11      0.44      0.00
    8    4   11      0.27      0.00
    9    4   11     -1.16      0.00
  -13    5   11      1.17      0.00
  -12    5   11     -0.63      0.00
    8    5   11     -3.25      0.00
    9    5   11     -0.38      0.00
  -13    6   11     -0.37      0.00
  -12    6   11      1.16      0.00
    8    6   11      0.47      0.00
    9    6   11     -0.78      0.00
  -13    7   11      0.24      0.00
  -12    7   11      0.85      0.00
    8    7   11      0.04      0.00
    9    7   11     -0.83      0.00
  -13    8   11      0.05      0.00
  -12    8   11     -0.44      0.00
    8    8   11      0.20      0.00
    9    8   11      0.34      0.00
  -13    9   11     -1.37      0.00
  -12    9   11     -0.02      0.00
    8    9   11      2.57      0.00
    9    9   11      0.38      0.00
  -13   10   11      0.79      0.00
  -12   10   11     -1.19      0.00
    8   10   11      0.18      0.00
    9   10   11      0.98      0.00
  -13   11   11     -0.60      0.00
  -12   11   11     -1.24      0.00
  -11   11   11     -0.47      0.00
    8   11   11      0.99      0.00
    9   11   11      0.78      0.00
  -12   12   11     -0.26      0.00
  -11   12   11     -1.19      0.00
    7   12   11      1.33      0.00
    8   12   11      0.10      0.00
    9   12   11      0.49      0.00
  -12   13   11      0.26      0.00
  -11   13   11     -0.99      0.00
    7   13   11     -0.22      0.00
    8   13   11     -0.76      0.00
  -12   14   11      0.02      0.00
  -11   14   11     -0.68      0.00
    7   14   11     -0.50      0.00
    8   14   11      0.21      0.00
  -12   15   11      1.16      0.00
  -11   15   11      0.78      0.00
  -10   15   11     -2.89      0.00
    7   15   11      1.21      0.00
    8   15   11     -0.74      0.00
  -12   16   11     -0.23      0.00
  -11   16   11     -0.97      0.00
  -10   16   11      2.62      0.00
    6   16   11      0.72      0.00
    7   16   11     -0.94      0.00
    8   16   11      0.20      0.00
  -11   17   11      1.56      0.00
  -10   17   11     -1.87      0.00
    6   17   11     -1.06      0.00
    7   17   11      1.02      0.00
    8   17   11     -0.12      0.00
  -11   18   11     -0.63      0.00
  -10   18   11      0.53      0.00
   -9   18   11     -0.22      0.00
    6   18   11      1.39      0.00
    7   18   11      0.05      0.00
  -11   19   11      0.22      0.00
  -10   19   11     -0.31      0.00
   -9   19   11     -0.05      0.00
    5   19   11      1.46      0.00
    6   19   11     -0.34      0.00
    7   19   11      0.11      0.00
  -10   20   11     -0.40      0.00
   -9   20   11     -0.16      0.00
    5   20   11     -0.79      0.00
    6   20   11     -0.13      0.00
    7   20   11      0.72      0.00
  -10   21   11     -0.01      0.00
   -9   21   11     -0.71      0.00
   -8   21   11      0.47      0.00
    4   21   11     -1.19      0.00
    5   21   11     -0.43      0.00
    6   21   11      0.40      0.00
  -10   22   11      0.17      0.00
   -9   22   11     -0.32      0.00
   -8   22   11      0.04      0.00
   -7   22   11      1.04      0.00
    4   22   11     -0.30      0.00
    5   22   11      0.21      0.00
    6   22   11     -1.13      0.00
   -9   23   11     -0.25      0.00
   -8   23   11     -0.08      0.00
   -7   23   11     -0.01      0.00
    3   23   11      0.24      0.00
    4   23   11      0.60      0.00
    5   23   11     -1.39      0.00
   -9   24   11     -0.15      0.00
   -8   24   11     -0.20      0.00
   -7   24   11      1.11      0.00
   -6   24   11      0.99      0.00
    2   24   11     -1.17      0.00
    3   24   11      0.46      0.00
    4   24   11     -0.78      0.00
    5   24   11      0.77      0.00
   -8   25   11      0.10      0.00
   -7   25   11     -0.13      0.00
   -6   25   11      0.24      0.00
   -5   25   11     -0.04      0.00
   -4   25   11      1.15      0.00
    1   25   11      0.44      0.00
    2   25   11     -0.10      0.00
    3   25   11     -0.79      0.00
    4   25   11      1.28      0.00
   -8   26   11     -0.26      0.00
   -7   26   11      0.27      0.00
   -6   26   11      0.71      0.00
   -5   26   11      1.26      0.00
   -4   26   11     -1.53      0.00
   -3   26   11      2.30      0.00
   -2   26   11      0.00      0.00
   -1   26   11      0.43      0.00
    0   26   11     -0.74      0.00
    1   26   11      0.65      0.00
    2   26   11     -0.22      0.00
    3   26   11      0.56      0.00
    4   26   11     -0.58      0.00
   -7   27   11      0.18      0.00
   -6   27   11      0.32      0.00
   -5   27   11     -0.56      0.00
   -4   27   11      0.77      0.00
   -3   27   11     -1.86      0.00
   -2   27   11      2.72      0.00
   -1   27   11      0.92      0.00
    0   27   11     -0.92      0.00
    1   27   11     -0.21      0.00
    2   27   11      0.80      0.00
    3   27   11     -0.58      0.00
   -6   28   11     -0.21      0.00
   -5   28   11      1.21      0.00
   -4   28   11     -0.98      0.00
   -3   28   11      1.17      0.00
   -2   28   11      0.12      0.00
   -1   28   11      0.66      0.00
    0   28   11     -0.39      0.00
    1   28   11      0.14      0.00
    2   28   11      0.11      0.00
   -5   29   11     -0.38      0.00
   -4   29   11      1.11      0.00
   -3   29   11     -1.71      0.00
   -2   29   11     -0.12      0.00
   -1   29   11      1.20      0.00
    0   29   11      0.53      0.00
    1   29   11     -0.84      0.00
   -4   30   11     -0.50      0.00
   -3   30   11      0.46      0.00
   -2   30   11     -0.07      0.00
   -1   30   11      0.41      0.00
    0   30   11     -0.26      0.00
  -12    0   12      0.48      0.00
    8    0   12      2.11      0.00
  -13    1   12     -0.16      0.00
  -12    1   12     -0.76      0.00
   -6    1   12     -0.58      0.00
    8    1   12     -0.75      0.00
    9    1   12      0.27      0.00
  -13    2   12     -0.79      0.00
  -12    2   12      0.06      0.00
    8    2   12      0.56      0.00
    9    2   12      0.35      0.00
  -13    3   12      0.32      0.00
  -12    3   12     -0.73      0.00
    8    3   12     -0.81      0.00
    9    3   12     -0.66      0.00
  -13    4   12      0.11      0.00
  -12    4   12     -0.65      0.00
    8    4   12     -1.92      0.00
    9    4   12      0.08      0.00
  -13    5   12     -0.01      0.00
  -12    5   12      0.77      0.00
    8    5   12      0.56      0.00
    9    5   12     -0.84      0.00
  -13    6   12      0.67      0.00
  -12    6   12     -0.46      0.00
    8    6   12     -1.29      0.00
    9    6   12     -0.39      0.00
  -13    7   12     -0.47      0.00
  -12    7   12      0.57      0.00
    8    7   12      0.95      0.00
    9    7   12     -0.02      0.00
  -13    8   12     -0.30      0.00
  -12    8   12     -0.10      0.00
    7    8   12      1.54      0.00
    8    8   12      1.24      0.00
    9    8   12      0.12      0.00
  -13    9   12      0.11      0.00
  -12    9   12     -0.64      0.00
  -11    9   12     -0.50      0.00
    7    9   12      0.56      0.00
    8    9   12      0.44      0.00
  -12   10   12     -0.65      0.00
  -11   10   12     -0.28      0.00
    7   10   12     -0.81      0.00
    8   10   12      1.26      0.00
  -12   11   12     -0.22      0.00
  -11   11   12     -1.04      0.00
    7   11   12      1.40      0.00
    8   11   12      0.02      0.00
  -12   12   12     -0.37      0.00
  -11   12   12     -0.37      0.00
    7   12   12     -0.92      0.00
    8   12   12     -0.18      0.00
  -12   13   12      0.35      0.00
  -11   13   12     -0.51      0.00
    6   13   12     -1.24      0.00
    7   13   12      0.23      0.00
    8   13   12     -0.07      0.00
  -12   14   12      0.63      0.00
  -11   14   12      0.32      0.00
  -10   14   12     -1.98      0.00
    6   14   12      1.05      0.00
    7   14   12      0.28      0.00
    8   14   12     -0.61      0.00
  -12   15   12     -0.21      0.00
  -11   15   12     -0.62      0.00
  -10   15   12      2.60      0.00
    6   15   12     -0.54      0.00
    7   15   12     -0.76      0.00
  -11   16   12      1.48      0.00
  -10   16   12     -2.13      0.00
    6   16   12     -0.22      0.00
    7   16   12      0.82      0.00
  -11   17   12     -1.26      0.00
  -10   17   12      1.88      0.00
   -9   17   12     -1.48      0.00
    5   17   12      0.84      0.00
    6   17   12      1.04      0.00
    7   17   12     -0.45      0.00
  -11   18   12      0.97      0.00
  -10   18   12     -1.06      0.00
   -9   18   12      1.72      0.00
    5   18   12      0.56      0.00
    6   18   12     -0.43      0.00
    7   18   12      0.79      0.00
  -10   19   12      0.01      0.00
   -9   19   12     -0.33      0.00
   -8   19   12      0.33      0.00
    4   19   12     -0.20      0.00
    5   19   12     -0.71      0.00
    6   19   12      0.75      0.00
  -10   20   12     -0.20      0.00
   -9   20   12     -0.18      0.00
   -8   20   12      1.12      0.00
    4   20   12     -0.86      0.00
    5   20   12      0.27      0.00
    6   20   12     -0.22      0.00
  -10   21   12     -0.04      0.00
   -9   21   12     -0.33      0.00
   -8   21   12      0.00      0.00
   -7   21   12      0.66      0.00
    3   21   12      0.03      0.00
    4   21   12      0.37      0.00
    5   21   12     -0.65      0.00
    6   21   12     -0.55      0.00
   -9   22   12     -0.37      0.00
   -8   22   12      0.21      0.00
   -7   22   12      0.10      0.00
    2   22   12     -1.26      0.00
    3   22   12      0.77      0.00
    4   22   12     -0.36      0.00
    5   22   12     -0.68      0.00
   -9   23   12     -0.27      0.00
   -8   23   12     -0.04      0.00
   -7   23   12      1.13      0.00
   -6   23   12     -0.19      0.00
    2   23   12     -0.86      0.00
    3   23   12     -0.43      0.00
    4   23   12     -0.10      0.00
    5   23   12      0.54      0.00
   -8   24   12      0.01      0.00
   -7   24   12     -0.20      0.00
   -6   24   12      0.50      0.00
   -5   24   12      0.41      0.00
   -4   24   12      0.31      0.00
    0   24   12      0.31      0.00
    1   24   12      0.12      0.00
    2   24   12     -0.97      0.00
    3   24   12     -0.22      0.00
    4   24   12      0.77      0.00
   -8   25   12     -0.24      0.00
   -7   25   12      0.72      0.00
   -6   25   12      0.77      0.00
   -5   25   12      0.32      0.00
   -4   25   12     -0.96      0.00
   -3   25   12      1.63      0.00
   -2   25   12      0.33      0.00
   -1   25   12      0.23      0.00
    0   25   12     -0.83      0.00
    1   25   12      0.58      0.00
    2   25   12     -0.06      0.00
    3   25   12     -0.06      0.00
    4   25   12     -0.75      0.00
   -7   26   12     -0.04      0.00
   -6   26   12      0.43      0.00
   -5   26   12     -0.29      0.00
   -4   26   12      0.40      0.00
   -3   26   12     -0.66      0.00
   -2   26   12      2.79      0.00
   -1   26   12     -0.15      0.00
    0   26   12     -0.62      0.00
    1   26   12      0.28      0.00
    2   26   12      0.19      0.00
    3   26   12     -0.62      0.00
   -6   27   12     -0.01      0.00
   -5   27   12      1.40      0.00
   -4   27   12     -0.70      0.00
   -3   27   12      1.00      0.00
   -2   27   12     -0.20      0.00
   -1   27   12      0.96      0.00
    0   27   12     -0.51      0.00
    1   27   12     -0.09      0.00
    2   27   12      0.32      0.00
   -5   28   12     -0.32      0.00
   -4   28   12      0.73      0.00
   -3   28   12     -1.77      0.00
   -2   28   12      0.90      0.00
   -1   28   12      1.13      0.00
    0   28   12     -0.14      0.00
    1   28   12     -0.39      0.00
   -4   29   12     -0.35      0.00
   -3   29   12      0.83      0.00
   -2   29   12     -0.39      0.00
   -1   29   12      0.33      0.00
    0   29   12      0.13      0.00
  -13    0   13     -0.63      0.00
    7    0   13     -0.36      0.00
  -13    1   13     -0.24      0.00
  -12    1   13     -0.13      0.00
    7    1   13     -1.14      0.00
    8    1   13      1.13      0.00
  -13    2   13     -0.23      0.00
  -12    2   13     -0.85      0.00
    7    2   13      0.71      0.00
    8    2   13     -1.20      0.00
  -13    3   13     -0.27      0.00
  -12    3   13     -0.09      0.00
    7    3   13     -2.14      0.00
    8    3   13     -0.20      0.00
  -13    4   13      0.14      0.00
  -12    4   13     -0.29      0.00
    7    4   13      1.02      0.00
    8    4   13     -0.29      0.00
  -13    5   13      0.18      0.00
  -12    5   13     -0.52      0.00
  -11    5   13      0.29      0.00
    7    5   13     -0.38      0.00
    8    5   13     -1.01      0.00
  -13    6   13     -0.23      0.00
  -12    6   13      0.58      0.00
  -11    6   13     -1.52      0.00
    7    6   13     -0.54      0.00
    8    6   13      0.91      0.00
  -12    7   13     -0.60      0.00
  -11    7   13     -0.31      0.00
    7    7   13      1.51      0.00
    8    7   13      0.08      0.00
  -12    8   13      0.19      0.00
  -11    8   13     -0.85      0.00
    7    8   13     -0.63      0.00
    8    8   13      0.78      0.00
  -12    9   13     -0.43      0.00
  -11    9   13     -0.42      0.00
    6    9   13     -0.63      0.00
    7    9   13      0.55      0.00
    8    9   13      0.82      0.00
  -12   10   13     -0.04      0.00
  -11   10   13     -0.69      0.00
    6   10   13      1.74      0.00
    7   10   13      0.56      0.00
    8   10   13      0.28      0.00
  -12   11   13     -0.46      0.00
  -11   11   13     -0.05      0.00
    6   11   13      0.73      0.00
    7   11   13     -0.62      0.00
    8   11   13      0.07      0.00
  -12   12   13      0.49      0.00
  -11   12   13     -0.43      0.00
  -10   12   13     -0.92      0.00
    6   12   13     -0.42      0.00
    7   12   13      0.42      0.00
  -12   13   13     -0.06      0.00
  -11   13   13      0.19      0.00
  -10   13   13     -1.17      0.00
    6   13   13      0.99      0.00
    7   13   13     -0.28      0.00
  -11   14   13     -0.22      0.00
  -10   14   13      1.41      0.00
    5   14   13     -0.18      0.00
    6   14   13     -1.07      0.00
    7   14   13     -0.43      0.00
  -11   15   13      0.84      0.00
  -10   15   13     -1.53      0.00
    5   15   13     -1.21      0.00
    6   15   13      0.38      0.00
    7   15   13      0.20      0.00
  -11   16   13     -1.05      0.00
  -10   16   13      2.22      0.00
   -9   16   13     -2.42      0.00
    5   16   13      1.17      0.00
    6   16   13      0.11      0.00
  -11   17   13      1.18      0.00
  -10   17   13     -1.42      0.00
   -9   17   13      2.95      0.00
    4   17   13      0.94      0.00
    5   17   13     -0.51      0.00
    6   17   13      0.09      0.00
  -10   18   13      0.71      0.00
   -9   18   13     -0.97      0.00
   -8   18   13      1.20      0.00
    4   18   13     -0.74      0.00
    5   18   13      0.20      0.00
    6   18   13      0.67      0.00
  -10   19   13     -0.54      0.00
   -9   19   13      0.86      0.00
   -8   19   13      0.90      0.00
    3   19   13      0.49      0.00
    4   19   13      0.12      0.00
    5   19   13     -0.09      0.00
    6   19   13     -0.25      0.00
  -10   20   13     -0.10      0.00
   -9   20   13     -0.47      0.00
   -8   20   13     -0.07      0.00
   -7   20   13      0.56      0.00
    3   20   13      0.33      0.00
    4   20   13     -0.02      0.00
    5   20   13     -0.76      0.00
   -9   21   13     -0.31      0.00
   -8   21   13      0.78      0.00
   -7   21   13     -0.20      0.00
   -6   21   13      0.18      0.00
    2   21   13     -1.20      0.00
    3   21   13      0.54      0.00
    4   21   13     -0.46      0.00
    5   21   13     -0.17      0.00
   -9   22   13     -0.33      0.00
   -8   22   13     -0.16      0.00
   -7   22   13      0.91      0.00
   -6   22   13     -1.48      0.00
   -5   22   13     -1.33      0.00
    1   22   13     -1.32      0.00
    2   22   13     -0.70      0.00
    3   22   13     -0.63      0.00
    4   22   13      0.52      0.00
   -8   23   13     -0.04      0.00
   -7   23   13     -0.11      0.00
   -6   23   13      0.70      0.00
   -5   23   13      0.17      0.00
   -4   23   13     -0.55      0.00
   -3   23   13      1.92      0.00
   -2   23   13     -0.61      0.00
   -1   23   13      0.53      0.00
    0   23   13     -0.49      0.00
    1   23   13     -0.01      0.00
    2   23   13     -1.30      0.00
    3   23   13      0.24      0.00
    4   23   13      0.09      0.00
   -8   24   13     -0.15      0.00
   -7   24   13      0.90      0.00
   -6   24   13      0.30      0.00
   -5   24   13     -0.80      0.00
   -4   24   13     -0.02      0.00
   -3   24   13      0.74      0.00
   -2   24   13      0.92      0.00
   -1   24   13     -0.76      0.00
    0   24   13     -0.04      0.00
    1   24   13      0.31      0.00
    2   24   13     -0.11      0.00
    3   24   13     -0.85      0.00
   -7   25   13     -0.37      0.00
   -6   25   13      0.54      0.00
   -5   25   13      0.02      0.00
   -4   25   13     -0.08      0.00
   -3   25   13      0.46      0.00
   -2   25   13      1.55      0.00
   -1   25   13     -0.17      0.00
    0   25   13     -0.37      0.00
    1   25   13      0.28      0.00
    2   25   13     -0.47      0.00
    3   25   13     -0.25      0.00
   -6   26   13      0.20      0.00
   -5   26   13      1.15      0.00
   -4   26   13     -0.57      0.00
   -3   26   13      0.32      0.00
   -2   26   13      0.13      0.00
   -1   26   13      0.71      0.00
    0   26   13     -0.73      0.00
    1   26   13     -0.02      0.00
    2   26   13      0.55      0.00
   -5   27   13     -0.31      0.00
   -4   27   13      0.28      0.00
   -3   27   13     -1.04      0.00
   -2   27   13      1.26      0.00
   -1   27   13      0.61      0.00
    0   27   13     -0.28      0.00
    1   27   13      0.00      0.00
   -4   28   13      0.06      0.00
   -3   28   13      0.62      0.00
   -2   28   13     -0.67      0.00
   -1   28   13      0.61      0.00
  -12    0   14     -0.51      0.00
    6    0   14      0.44      0.00
    8    0   14      0.65      0.00
  -12    1   14     -0.20      0.00
  -11    1   14     -0.26      0.00
    6    1   14      0.21      0.00
    7    1   14     -0.22      0.00
    8    1   14     -0.58      0.00
  -12    2   14     -0.16      0.00
  -11    2   14     -0.01      0.00
    6    2   14      0.03      0.00
    7    2   14     -0.94      0.00
    8    2   14      0.46      0.00
  -12    3   14     -0.48      0.00
  -11    3   14     -0.29      0.00
    6    3   14     -0.76      0.00
    7    3   14      1.14      0.00
    8    3   14     -0.74      0.00
  -12    4   14     -0.05      0.00
  -11    4   14      0.13      0.00
    6    4   14     -0.11      0.00
    7    4   14     -1.18      0.00
    8    4   14     -0.14      0.00
  -12    5   14     -0.10      0.00
  -11    5   14     -1.07      0.00
    6    5   14     -1.70      0.00
    7    5   14      0.75      0.00
    8    5   14      0.21      0.00
  -12    6   14     -0.48      0.00
  -11    6   14      0.03      0.00
    6    6   14      0.08      0.00
    7    6   14      0.19      0.00
  -12    7   14      0.37      0.00
  -11    7   14     -1.21      0.00
    6    7   14      0.15      0.00
    7    7   14     -0.43      0.00
  -12    8   14     -0.44      0.00
  -11    8   14     -0.15      0.00
    6    8   14     -0.42      0.00
    7    8   14      0.87      0.00
  -12    9   14      0.28      0.00
  -11    9   14     -0.65      0.00
  -10    9   14     -1.39      0.00
    6    9   14      1.76      0.00
    7    9   14     -0.15      0.00
  -12   10   14     -0.32      0.00
  -11   10   14      0.05      0.00
  -10   10   14     -1.09      0.00
    5   10   14      1.98      0.00
    6   10   14     -0.31      0.00
    7   10   14      0.05      0.00
  -12   11   14      0.46      0.00
  -11   11   14     -0.30      0.00
  -10   11   14     -1.78      0.00
    5   11   14     -0.73      0.00
    6   11   14      0.61      0.00
    7   11   14      0.18      0.00
  -11   12   14      0.18      0.00
  -10   12   14     -0.60      0.00
    5   12   14      0.57      0.00
    6   12   14      0.29      0.00
    7   12   14     -0.25      0.00
  -11   13   14     -0.04      0.00
  -10   13   14     -0.13      0.00
   -9   13   14     -2.55      0.00
    5   13   14     -0.95      0.00
    6   13   14     -0.74      0.00
  -11   14   14      0.27      0.00
  -10   14   14     -0.74      0.00
   -9   14   14      0.38      0.00
    4   14   14     -1.06      0.00
    5   14   14     -0.46      0.00
    6   14   14      0.33      0.00
  -11   15   14     -0.49      0.00
  -10   15   14      1.54      0.00
   -9   15   14     -2.52      0.00
    4   15   14      1.09      0.00
    5   15   14      0.49      0.00
    6   15   14     -0.41      0.00
  -10   16   14     -1.17      0.00
   -9   16   14      2.67      0.00
   -8   16   14     -4.86      0.00
    4   16   14     -0.04      0.00
    5   16   14     -0.70      0.00
    6   16   14      0.36      0.00
  -10   17   14      1.04      0.00
   -9   17   14     -1.52      0.00
   -8   17   14      2.40      0.00
    3   17   14     -0.77      0.00
    4   17   14     -0.38      0.00
    5   17   14      0.69      0.00
  -10   18   14     -0.75      0.00
   -9   18   14      1.84      0.00
   -8   18   14     -0.79      0.00
   -7   18   14     -1.98      0.00
    3   18   14      0.88      0.00
    4   18   14      0.41      0.00
    5   18   14     -0.66      0.00
   -9   19   14     -0.88      0.00
   -8   19   14      0.50      0.00
   -7   19   14      0.44      0.00
    2   19   14      1.17      0.00
    3   19   14      0.24      0.00
    4   19   14     -0.67      0.00
    5   19   14     -0.25      0.00
   -9   20   14      0.12      0.00
   -8   20   14      1.05      0.00
   -7   20   14     -1.10      0.00
   -6   20   14     -0.13      0.00
    1   20   14      0.51      0.00
    2   20   14     -1.20      0.00
    3   20   14      0.15      0.00
    4   20   14      0.09      0.00
   -9   21   14     -0.35      0.00
   -8   21   14     -0.49      0.00
   -7   21   14      0.91      0.00
   -6   21   14     -2.19      0.00
   -5   21   14      0.23      0.00
   -4   21   14      2.54      0.00
    0   21   14      1.81      0.00
    1   21   14     -2.05      0.00
    2   21   14     -0.46      0.00
    3   21   14     -0.13      0.00
    4   21   14      0.40      0.00
   -8   22   14      0.24      0.00
   -7   22   14     -0.10      0.00
   -6   22   14      0.54      0.00
   -5   22   14     -0.62      0.00
   -4   22   14     -0.70      0.00
   -3   22   14      1.79      0.00
   -2   22   14     -0.89      0.00
   -1   22   14      1.38      0.00
    0   22   14     -1.48      0.00
    1   22   14      0.22      0.00
    2   22   14     -1.13      0.00
    3   22   14      0.08      0.00
   -8   23   14     -0.18      0.00
   -7   23   14      0.77      0.00
   -6   23   14     -0.51      0.00
   -5   23   14     -1.23      0.00
   -4   23   14      1.01      0.00
   -3   23   14     -0.16      0.00
   -2   23   14      1.02      0.00
   -1   23   14     -1.31      0.00
    0   23   14      1.04      0.00
    1   23   14     -0.32      0.00
    2   23   14     -0.40      0.00
    3   23   14     -0.98      0.00
   -7   24   14     -0.49      0.00
   -6   24   14      0.69      0.00
   -5   24   14      0.11      0.00
   -4   24   14     -0.67      0.00
   -3   24   14      1.04      0.00
   -2   24   14      0.22      0.00
   -1   24   14      0.55      0.00
    0   24   14     -0.72      0.00
    1   24   14      0.18      0.00
    2   24   14     -0.64      0.00
   -6   25   14      0.20      0.00
   -5   25   14      0.33      0.00
   -4   25   14     -0.37      0.00
   -3   25   14     -0.25      0.00
   -2   25   14      0.62      0.00
   -1   25   14     -0.17      0.00
    0   25   14     -0.32      0.00
    1   25   14      0.12      0.00
   -5   26   14     -0.17      0.00
   -4   26   14     -0.01      0.00
   -3   26   14     -0.17      0.00
   -2   26   14      0.72      0.00
   -1   26   14      0.48      0.00
    0   26   14     -0.29      0.00
   -3   27   14     -0.02      0.00
   -2   27   14     -0.39      0.00
  -11    0   15     -0.60      0.00
    7    0   15     -0.42      0.00
  -12    1   15     -0.36      0.00
  -11    1   15      0.14      0.00
    5    1   15     -1.59      0.00
    6    1   15      0.56      0.00
    7    1   15      0.04      0.00
  -12    2   15      0.07      0.00
  -11    2   15     -0.25      0.00
    5    2   15     -0.75      0.00
    6    2   15      0.25      0.00
    7    2   15      0.33      0.00
  -12    3   15      0.00      0.00
  -11    3   15      0.13      0.00
    5    3   15     -2.56      0.00
    6    3   15     -0.28      0.00
    7    3   15     -0.50      0.00
  -12    4   15     -0.23      0.00
  -11    4   15     -0.23      0.00
    5    4   15     -0.73      0.00
    6    4   15     -0.78      0.00
    7    4   15      0.91      0.00
  -12    5   15     -0.08      0.00
  -11    5   15     -0.04      0.00
  -10    5   15      0.95      0.00
    5    5   15     -0.74      0.00
    6    5   15      0.07      0.00
    7    5   15     -0.58      0.00
  -12    6   15      0.00      0.00
  -11    6   15     -0.71      0.00
  -10    6   15      0.18      0.00
    5    6   15      0.56      0.00
    6    6   15     -0.69      0.00
    7    6   15      0.22      0.00
  -12    7   15     -0.26      0.00
  -11    7   15      0.09      0.00
  -10    7   15     -0.48      0.00
    5    7   15      0.91      0.00
    6    7   15      0.20      0.00
    7    7   15      0.26      0.00
  -12    8   15      0.31      0.00
  -11    8   15     -0.66      0.00
  -10    8   15     -0.33      0.00
    5    8   15      0.96      0.00
    6    8   15      0.83      0.00
  -11    9   15      0.28      0.00
  -10    9   15     -0.81      0.00
    5    9   15      1.37      0.00
    6    9   15     -0.42      0.00
  -11   10   15     -0.33      0.00
  -10   10   15     -1.60      0.00
    4   10   15     -0.15      0.00
    5   10   15     -0.29      0.00
    6   10   15      0.98      0.00
  -11   11   15      0.23      0.00
  -10   11   15     -0.19      0.00
   -9   11   15     -3.16      0.00
    4   11   15     -0.47      0.00
    5   11   15      0.93      0.00
    6   11   15     -0.34      0.00
  -11   12   15     -0.03      0.00
  -10   12   15     -1.39      0.00
   -9   12   15     -0.98      0.00
    4   12   15     -0.41      0.00
    5   12   15     -1.12      0.00
    6   12   15     -0.14      0.00
  -11   13   15     -0.01      0.00
  -10   13   15     -0.07      0.00
   -9   13   15     -1.62      0.00
    4   13   15     -0.76      0.00
    5   13   15      0.25      0.00
    6   13   15     -0.01      0.00
  -10   14   15      0.32      0.00
   -9   14   15     -1.97      0.00
   -8   14   15      0.54      0.00
    3   14   15      0.67      0.00
    4   14   15      0.92      0.00
    5   14   15     -0.31      0.00
  -10   15   15     -0.65      0.00
   -9   15   15      1.17      0.00
   -8   15   15     -5.12      0.00
    3   15   15      0.79      0.00
    4   15   15     -0.69      0.00
    5   15   15     -0.24      0.00
  -10   16   15      0.85      0.00
   -9   16   15     -1.54      0.00
   -8   16   15      2.63      0.00
   -7   16   15     -4.38      0.00
    2   16   15      0.76      0.00
    3   16   15     -0.82      0.00
    4   16   15      0.35      0.00
    5   16   15      0.42      0.00
  -10   17   15     -0.65      0.00
   -9   17   15      1.91      0.00
   -8   17   15     -2.88      0.00
   -7   17   15     -0.46      0.00
    2   17   15     -0.30      0.00
    3   17   15      1.11      0.00
    4   17   15     -0.13      0.00
   -9   18   15     -1.19      0.00
   -8   18   15      1.73      0.00
   -7   18   15     -0.65      0.00
   -6   18   15     -1.52      0.00
    1   18   15     -1.25      0.00
    2   18   15      1.12      0.00
    3   18   15     -0.38      0.00
    4   18   15     -0.69      0.00
   -9   19   15      0.77      0.00
   -8   19   15      0.16      0.00
   -7   19   15     -1.62      0.00
   -6   19   15     -0.03      0.00
   -5   19   15     -0.27      0.00
    0   19   15     -1.39      0.00
    1   19   15      0.43      0.00
    2   19   15     -1.24      0.00
    3   19   15      0.24      0.00
    4   19   15      0.33      0.00
   -8   20   15     -0.33      0.00
   -7   20   15      1.05      0.00
   -6   20   15     -2.19      0.00
   -5   20   15      1.46      0.00
   -4   20   15      1.27      0.00
   -3   20   15     -1.55      0.00
   -2   20   15      0.38      0.00
   -1   20   15      0.13      0.00
    0   20   15      0.82      0.00
    1   20   15     -1.99      0.00
    2   20   15     -0.05      0.00
    3   20   15      0.18      0.00
   -8   21   15      0.66      0.00
   -7   21   15     -0.55      0.00
   -6   21   15      0.10      0.00
   -5   21   15     -1.04      0.00
   -4   21   15     -0.04      0.00
   -3   21   15      1.32      0.00
   -2   21   15     -0.36      0.00
   -1   21   15      0.93      0.00
    0   21   15     -1.64      0.00
    1   21   15      0.43      0.00
    2   21   15     -0.99      0.00
    3   21   15     -0.26      0.00
   -7   22   15      0.69      0.00
   -6   22   15     -1.11      0.00
   -5   22   15     -0.65      0.00
   -4   22   15      1.38      0.00
   -3   22   15     -0.92      0.00
   -2   22   15      0.76      0.00
   -1   22   15     -0.83      0.00
    0   22   15      1.27      0.00
    1   22   15     -0.92      0.00
    2   22   15     -0.55      0.00
   -7   23   15     -0.35      0.00
   -6   23   15      0.66      0.00
   -5   23   15     -0.29      0.00
   -4   23   15     -0.93      0.00
   -3   23   15      1.18      0.00
   -2   23   15     -0.38      0.00
   -1   23   15      0.92      0.00
    0   23   15     -1.11      0.00
    1   23   15      0.25      0.00
   -6   24   15     -0.12      0.00
   -5   24   15     -0.42      0.00
   -4   24   15      0.15      0.00
   -3   24   15     -0.65      0.00
   -2   24   15      0.64      0.00
   -1   24   15     -0.69      0.00
    0   24   15      0.41      0.00
    1   24   15      0.01      0.00
   -4   25   15     -0.32      0.00
   -3   25   15      0.31      0.00
   -2   25   15      0.03      0.00
   -1   25   15      0.67      0.00
  -12    0   16     -0.13      0.00
  -10    0   16     -2.04      0.00
    4    0   16     -4.36      0.00
    6    0   16      0.94      0.00
  -12    1   16      0.26      0.00
  -11    1   16     -0.55      0.00
  -10    1   16      0.30      0.00
    4    1   16     -0.45      0.00
    5    1   16     -0.36      0.00
    6    1   16      0.28      0.00
  -12    2   16     -0.06      0.00
  -11    2   16      0.45      0.00
  -10    2   16     -0.48      0.00
    4    2   16     -2.25      0.00
    5    2   16     -1.66      0.00
    6    2   16      0.14      0.00
  -12    3   16      0.21      0.00
  -11    3   16     -0.13      0.00
  -10    3   16      0.07      0.00
    4    3   16     -0.69      0.00
    5    3   16     -0.43      0.00
    6    3   16      0.12      0.00
  -12    4   16      0.02      0.00
  -11    4   16      0.09      0.00
  -10    4   16      1.26      0.00
    4    4   16      1.28      0.00
    5    4   16     -0.92      0.00
    6    4   16     -0.31      0.00
  -11    5   16      0.01      0.00
  -10    5   16     -0.24      0.00
    4    5   16      0.12      0.00
    5    5   16      0.16      0.00
    6    5   16     -0.37      0.00
  -11    6   16      0.00      0.00
  -10    6   16      0.57      0.00
    4    6   16      2.30      0.00
    5    6   16      0.23      0.00
    6    6   16      0.25      0.00
  -11    7   16     -0.16      0.00
  -10    7   16      0.27      0.00
   -9    7   16      0.48      0.00
    4    7   16      0.73      0.00
    5    7   16      0.72      0.00
    6    7   16      0.09      0.00
  -11    8   16      0.36      0.00
  -10    8   16     -0.51      0.00
   -9    8   16      0.86      0.00
    4    8   16      1.03      0.00
    5    8   16      0.53      0.00
    6    8   16     -0.07      0.00
  -11    9   16     -0.32      0.00
  -10    9   16     -0.43      0.00
   -9    9   16      1.18      0.00
    3    9   16     -0.33      0.00
    4    9   16      0.06      0.00
    5    9   16      0.13      0.00
  -11   10   16      0.38      0.00
  -10   10   16     -0.21      0.00
   -9   10   16     -2.08      0.00
    3   10   16     -0.93      0.00
    4   10   16     -0.02      0.00
    5   10   16      0.63      0.00
  -11   11   16     -0.16      0.00
  -10   11   16     -1.62      0.00
   -9   11   16      0.40      0.00
   -8   11   16     -1.76      0.00
    3   11   16      0.01      0.00
    4   11   16     -0.44      0.00
    5   11   16     -0.77      0.00
  -10   12   16      0.34      0.00
   -9   12   16     -2.55      0.00
   -8   12   16     -0.33      0.00
    3   12   16     -0.65      0.00
    4   12   16     -0.27      0.00
    5   12   16      0.56      0.00
  -10   13   16     -0.89      0.00
   -9   13   16     -1.10      0.00
   -8   13   16     -1.15      0.00
    2   13   16     -0.04      0.00
    3   13   16      0.79      0.00
    4   13   16      0.43      0.00
    5   13   16     -0.63      0.00
  -10   14   16     -0.08      0.00
   -9   14   16     -0.43      0.00
   -8   14   16     -3.38      0.00
   -7   14   16      2.27      0.00
    2   14   16      1.25      0.00
    3   14   16     -0.10      0.00
    4   14   16     -0.59      0.00
  -10   15   16      0.32      0.00
   -9   15   16     -1.24      0.00
   -8   15   16      1.31      0.00
   -7   15   16     -4.62      0.00
    1   15   16      1.32      0.00
    2   15   16     -0.04      0.00
    3   15   16     -0.31      0.00
    4   15   16      0.68      0.00
   -9   16   16      1.08      0.00
   -8   16   16     -3.52      0.00
   -7   16   16      1.33      0.00
   -6   16   16     -0.23      0.00
    0   16   16      0.84      0.00
    1   16   16     -0.16      0.00
    2   16   16      0.35      0.00
    3   16   16      0.70      0.00
    4   16   16     -0.62      0.00
   -9   17   16     -1.04      0.00
   -8   17   16      2.38      0.00
   -7   17   16     -2.41      0.00
   -6   17   16     -0.05      0.00
   -5   17   16      1.83      0.00
   -4   17   16     -1.21      0.00
   -1   17   16      0.66      0.00
    0   17   16     -1.39      0.00
    1   17   16     -0.22      0.00
    2   17   16      0.53      0.00
    3   17   16     -0.78      0.00
   -8   18   16     -1.36      0.00
   -7   18   16     -0.79      0.00
   -6   18   16      0.19      0.00
   -5   18   16      0.67      0.00
   -4   18   16      0.81      0.00
   -3   18   16      0.75      0.00
   -2   18   16      0.25      0.00
   -1   18   16     -1.18      0.00
    0   18   16     -0.32      0.00
    1   18   16     -0.10      0.00
    2   18   16     -0.95      0.00
    3   18   16      0.52      0.00
   -8   19   16      0.64      0.00
   -7   19   16      0.56      0.00
   -6   19   16     -1.66      0.00
   -5   19   16      1.72      0.00
   -4   19   16      0.19      0.00
   -3   19   16     -1.26      0.00
   -2   19   16      0.77      0.00
   -1   19   16      0.67      0.00
    0   19   16     -0.34      0.00
    1   19   16     -1.30      0.00
    2   19   16      0.21      0.00
    3   19   16     -0.04      0.00
   -7   20   16     -1.02      0.00
   -6   20   16     -0.13      0.00
   -5   20   16     -0.49      0.00
   -4   20   16      0.60      0.00
   -3   20   16      0.76      0.00
   -2   20   16      0.08      0.00
   -1   20   16      0.01      0.00
    0   20   16     -1.07      0.00
    1   20   16      0.29      0.00
    2   20   16     -0.99      0.00
   -7   21   16      0.86      0.00
   -6   21   16     -1.23      0.00
   -5   21   16      0.15      0.00
   -4   21   16      0.96      0.00
   -3   21   16     -1.20      0.00
   -2   21   16      0.63      0.00
   -1   21   16     -0.07      0.00
    0   21   16      0.60      0.00
    1   21   16     -1.01      0.00
   -6   22   16      0.26      0.00
   -5   22   16     -0.69      0.00
   -4   22   16     -0.48      0.00
   -3   22   16      1.00      0.00
   -2   22   16     -0.45      0.00
   -1   22   16      0.66      0.00
    0   22   16     -1.00      0.00
    1   22   16      0.35      0.00
   -5   23   16     -0.53      0.00
   -4   23   16      0.54      0.00
   -3   23   16     -1.02      0.00
   -2   23   16      0.43      0.00
   -1   23   16     -0.40      0.00
   -3   24   16      0.52      0.00
  -11    0   17     -0.42      0.00
   -9    0   17     -2.26      0.00
    3    0   17     -2.72      0.00
    5    0   17     -0.16      0.00
  -11    1   17      0.41      0.00
  -10    1   17     -1.45      0.00
   -9    1   17     -1.03      0.00
    3    1   17      1.02      0.00
    4    1   17     -2.51      0.00
    5    1   17     -0.63      0.00
  -11    2   17     -0.37      0.00
  -10    2   17      0.76      0.00
   -9    2   17     -0.10      0.00
    3    2   17     -1.54      0.00
    4    2   17      0.15      0.00
    5    2   17     -0.11      0.00
  -11    3   17      0.49      0.00
  -10    3   17      0.39      0.00
   -9    3   17     -1.78      0.00
    3    3   17      2.10      0.00
    4    3   17     -0.18      0.00
    5    3   17     -0.70      0.00
  -11    4   17      0.01      0.00
  -10    4   17     -0.18      0.00
   -9    4   17      1.87      0.00
    3    4   17      0.56      0.00
    4    4   17      0.21      0.00
    5    4   17      0.03      0.00
  -11    5   17      0.05      0.00
  -10    5   17      1.26      0.00
   -9    5   17      0.04      0.00
    3    5   17      1.05      0.00
    4    5   17      1.39      0.00
    5    5   17      0.08      0.00
  -11    6   17      0.36      0.00
  -10    6   17     -0.14      0.00
   -9    6   17      0.85      0.00
    3    6   17      1.26      0.00
    4    6   17      0.19      0.00
    5    6   17      0.28      0.00
  -11    7   17      0.17      0.00
  -10    7   17      0.31      0.00
   -9    7   17      1.59      0.00
   -8    7   17      0.64      0.00
    3    7   17     -0.79      0.00
    4    7   17      1.08      0.00
    5    7   17      0.08      0.00
  -10    8   17      0.42      0.00
   -9    8   17      0.57      0.00
   -8    8   17      0.59      0.00
    2    8   17     -1.44      0.00
    3    8   17      0.36      0.00
    4    8   17     -0.13      0.00
    5    8   17      0.21      0.00
  -10    9   17     -0.36      0.00
   -9    9   17     -0.15      0.00
   -8    9   17      2.70      0.00
    2    9   17     -0.36      0.00
    3    9   17     -1.14      0.00
    4    9   17      0.36      0.00
  -10   10   17     -0.72      0.00
   -9   10   17      0.84      0.00
   -8   10   17     -0.99      0.00
   -7   10   17      2.90      0.00
    2   10   17     -0.72      0.00
    3   10   17     -0.03      0.00
    4   10   17     -0.42      0.00
  -10   11   17      0.22      0.00
   -9   11   17     -2.19      0.00
   -8   11   17      1.19      0.00
   -7   11   17      0.12      0.00
    1   11   17      1.26      0.00
    2   11   17      0.15      0.00
    3   11   17     -0.62      0.00
    4   11   17      0.15      0.00
  -10   12   17     -1.39      0.00
   -9   12   17     -0.18      0.00
   -8   12   17     -1.66      0.00
   -7   12   17      0.85      0.00
    1   12   17      0.80      0.00
    2   12   17     -0.04      0.00
    3   12   17      0.50      0.00
    4   12   17      0.03      0.00
   -9   13   17     -1.39      0.00
   -8   13   17     -1.38      0.00
   -7   13   17      0.57      0.00
   -6   13   17      0.83      0.00
    0   13   17      0.11      0.00
    1   13   17      1.03      0.00
    2   13   17      0.62      0.00
    3   13   17     -0.40      0.00
    4   13   17     -0.12      0.00
   -9   14   17     -0.87      0.00
   -8   14   17     -0.35      0.00
   -7   14   17     -2.66      0.00
   -6   14   17      2.29      0.00
   -5   14   17     -0.44      0.00
   -1   14   17     -2.48      0.00
    0   14   17      0.86      0.00
    1   14   17      0.97      0.00
    2   14   17     -0.17      0.00
    3   14   17      0.12      0.00
   -9   15   17      0.15      0.00
   -8   15   17     -2.46      0.00
   -7   15   17      1.42      0.00
   -6   15   17     -0.56      0.00
   -5   15   17      1.49      0.00
   -4   15   17      0.15      0.00
   -3   15   17      0.72      0.00
   -2   15   17     -0.82      0.00
   -1   15   17      0.84      0.00
    0   15   17      0.35      0.00
    1   15   17      0.01      0.00
    2   15   17      0.55      0.00
    3   15   17      0.11      0.00
   -8   16   17      1.59      0.00
   -7   16   17     -3.12      0.00
   -6   16   17      1.19      0.00
   -5   16   17      0.67      0.00
   -4   16   17     -0.68      0.00
   -3   16   17      0.89      0.00
   -2   16   17      2.36      0.00
   -1   16   17     -0.70      0.00
    0   16   17     -1.00      0.00
    1   16   17      0.21      0.00
    2   16   17      0.00      0.00
    3   16   17     -0.61      0.00
   -8   17   17     -1.96      0.00
   -7   17   17      0.58      0.00
   -6   17   17      0.03      0.00
   -5   17   17      1.14      0.00
   -4   17   17      0.34      0.00
   -3   17   17      0.66      0.00
   -2   17   17     -0.42      0.00
   -1   17   17     -0.81      0.00
    0   17   17      0.13      0.00
    1   17   17     -0.48      0.00
    2   17   17     -0.40      0.00
   -7   18   17     -0.60      0.00
   -6   18   17     -0.79      0.00
   -5   18   17      1.37      0.00
   -4   18   17     -0.23      0.00
   -3   18   17     -0.67      0.00
   -2   18   17      1.09      0.00
   -1   18   17      0.41      0.00
    0   18   17     -0.90      0.00
    1   18   17     -0.56      0.00
    2   18   17      0.08      0.00
   -7   19   17     -0.72      0.00
   -6   19   17      0.05      0.00
   -5   19   17      0.42      0.00
   -4   19   17      0.60      0.00
   -3   19   17      0.34      0.00
   -2   19   17      0.16      0.00
   -1   19   17     -0.62      0.00
    0   19   17     -0.43      0.00
    1   19   17     -0.13      0.00
   -6   20   17     -1.04      0.00
   -5   20   17      0.49      0.00
   -4   20   17      0.43      0.00
   -3   20   17     -0.90      0.00
   -2   20   17      0.55      0.00
   -1   20   17      0.25      0.00
    0   20   17     -0.20      0.00
   -5   21   17     -0.40      0.00
   -4   21   17      0.18      0.00
   -3   21   17      0.47      0.00
   -2   21   17     -0.28      0.00
   -1   21   17      0.23      0.00
   -3   22   17     -1.06      0.00
   -2   22   17      0.40      0.00
  -10    0   18     -1.17      0.00
   -8    0   18      0.54      0.00
    2    0   18     -2.45      0.00
    4    0   18     -1.62      0.00
  -10    1   18      0.77      0.00
   -9    1   18     -1.64      0.00
   -8    1   18     -1.49      0.00
    2    1   18      1.08      0.00
    3    1   18     -1.44      0.00
    4    1   18      0.31      0.00
  -10    2   18     -0.56      0.00
   -9    2   18     -0.79      0.00
   -8    2   18      0.26      0.00
    2    2   18     -1.06      0.00
    3    2   18      1.51      0.00
    4    2   18     -0.74      0.00
  -10    3   18      0.63      0.00
   -9    3   18      1.14      0.00
   -8    3   18     -1.98      0.00
    1    3   18     -0.06      0.00
    2    3   18      1.68      0.00
    3    3   18     -0.34      0.00
    4    3   18      0.51      0.00
  -10    4   18      0.72      0.00
   -9    4   18     -0.93      0.00
   -8    4   18     -0.73      0.00
   -7    4   18      0.02      0.00
    1    4   18      1.13      0.00
    2    4   18      0.35      0.00
    3    4   18      1.41      0.00
    4    4   18      0.49      0.00
  -10    5   18     -0.37      0.00
   -9    5   18      1.66      0.00
   -8    5   18      0.34      0.00
   -7    5   18     -1.34      0.00
    1    5   18      1.07      0.00
    2    5   18      0.27      0.00
    3    5   18      0.49      0.00
    4    5   18      0.20      0.00
  -10    6   18      1.01      0.00
   -9    6   18      0.72      0.00
   -8    6   18     -0.53      0.00
   -7    6   18     -1.53      0.00
    1    6   18     -2.18      0.00
    2    6   18     -0.10      0.00
    3    6   18     -0.09      0.00
    4    6   18      0.62      0.00
  -10    7   18      0.17      0.00
   -9    7   18      0.53      0.00
   -8    7   18      1.37      0.00
   -7    7   18      0.50      0.00
    1    7   18      0.32      0.00
    2    7   18     -1.13      0.00
    3    7   18      0.38      0.00
    4    7   18     -0.16      0.00
  -10    8   18     -0.02      0.00
   -9    8   18      1.15      0.00
   -8    8   18      1.40      0.00
   -7    8   18     -0.77      0.00
   -6    8   18     -0.21      0.00
    0    8   18      2.91      0.00
    1    8   18     -1.49      0.00
    2    8   18     -0.36      0.00
    3    8   18     -1.02      0.00
    4    8   18      0.34      0.00
  -10    9   18      0.21      0.00
   -9    9   18      0.43      0.00
   -8    9   18      0.20      0.00
   -7    9   18      2.06      0.00
   -6    9   18     -0.66      0.00
   -3    9   18      0.00      0.00
    0    9   18     -0.92      0.00
    1    9   18     -0.16      0.00
    2    9   18     -1.11      0.00
    3    9   18      0.10      0.00
   -9   10   18     -0.88      0.00
   -8   10   18      1.54      0.00
   -7   10   18      0.20      0.00
   -6   10   18      1.76      0.00
   -5   10   18     -2.33      0.00
   -1   10   18     -1.22      0.00
    0   10   18      1.86      0.00
    1   10   18      0.36      0.00
    2   10   18      0.00      0.00
    3   10   18     -0.74      0.00
   -9   11   18      0.29      0.00
   -8   11   18     -1.14      0.00
   -7   11   18      1.73      0.00
   -6   11   18     -0.78      0.00
   -5   11   18      3.31      0.00
   -4   11   18      0.34      0.00
   -3   11   18      1.66      0.00
   -2   11   18     -3.37      0.00
   -1   11   18      2.81      0.00
    0   11   18      2.31      0.00
    1   11   18      0.31      0.00
    2   11   18     -0.38      0.00
    3   11   18      0.27      0.00
   -9   12   18     -1.54      0.00
   -8   12   18     -0.22      0.00
   -7   12   18     -0.33      0.00
   -6   12   18      2.31      0.00
   -5   12   18     -1.32      0.00
   -4   12   18      1.85      0.00
   -3   12   18      0.06      0.00
   -2   12   18      2.01      0.00
   -1   12   18      0.69      0.00
    0   12   18      0.29      0.00
    1   12   18      0.94      0.00
    2   12   18      0.20      0.00
    3   12   18     -0.39      0.00
   -9   13   18     -0.38      0.00
   -8   13   18     -1.05      0.00
   -7   13   18     -0.42      0.00
   -6   13   18      0.50      0.00
   -5   13   18      0.84      0.00
   -4   13   18      1.13      0.00
   -3   13   18      2.70      0.00
   -2   13   18     -1.11      0.00
   -1   13   18     -1.18      0.00
    0   13   18      1.66      0.00
    1   13   18      0.50      0.00
    2   13   18     -0.08      0.00
   -8   14   18     -1.15      0.00
   -7   14   18      0.13      0.00
   -6   14   18      0.28      0.00
   -5   14   18      0.80      0.00
   -4   14   18      0.24      0.00
   -3   14   18      0.22      0.00
   -2   14   18      0.11      0.00
   -1   14   18      1.14      0.00
    0   14   18     -0.15      0.00
    1   14   18      0.41      0.00
    2   14   18      0.30      0.00
   -8   15   18      0.32      0.00
   -7   15   18     -2.10      0.00
   -6   15   18      1.24      0.00
   -5   15   18      0.14      0.00
   -4   15   18      0.04      0.00
   -3   15   18      1.58      0.00
   -2   15   18      1.30      0.00
   -1   15   18     -1.37      0.00
    0   15   18     -0.12      0.00
    1   15   18      0.13      0.00
    2   15   18     -0.04      0.00
   -7   16   18      0.91      0.00
   -6   16   18     -0.25      0.00
   -5   16   18      1.08      0.00
   -4   16   18      0.08      0.00
   -3   16   18      0.38      0.00
   -2   16   18     -0.66      0.00
   -1   16   18     -0.03      0.00
    0   16   18      0.00      0.00
    1   16   18     -0.33      0.00
   -7   17   18     -1.32      0.00
   -6   17   18      0.08      0.00
   -5   17   18      0.89      0.00
   -4   17   18     -0.23      0.00
   -3   17   18     -0.11      0.00
   -2   17   18      1.10      0.00
   -1   17   18     -0.15      0.00
    0   17   18     -0.74      0.00
   -6   18   18      0.22      0.00
   -5   18   18      0.79      0.00
   -4   18   18      0.22      0.00
   -3   18   18      0.21      0.00
   -2   18   18     -0.06      0.00
   -1   18   18     -0.74      0.00
    0   18   18     -0.08      0.00
   -5   19   18      0.56      0.00
   -4   19   18      0.25      0.00
   -3   19   18     -0.49      0.00
   -2   19   18      0.33      0.00
   -1   19   18      0.20      0.00
   -9    0   19     -1.65      0.00
   -7    0   19      0.98      0.00
   -5    0   19      0.68      0.00
   -1    0   19      2.51      0.00
    1    0   19     -0.87      0.00
    3    0   19     -0.85      0.00
  -10    1   19     -0.37      0.00
   -9    1   19      0.13      0.00
   -8    1   19     -0.02      0.00
   -7    1   19      0.39      0.00
   -6    1   19     -1.52      0.00
   -5    1   19     -2.01      0.00
   -1    1   19     -0.48      0.00
    0    1   19      1.81      0.00
    1    1   19      2.29      0.00
    2    1   19     -1.44      0.00
    3    1   19      0.70      0.00
   -9    2   19     -0.25      0.00
   -8    2   19     -1.69      0.00
   -7    2   19     -0.09      0.00
   -6    2   19     -0.05      0.00
   -5    2   19     -0.13      0.00
   -1    2   19     -0.23      0.00
    0    2   19      3.25      0.00
    1    2   19     -0.71      0.00
    2    2   19      1.69      0.00
    3    2   19     -0.50      0.00
   -9    3   19     -0.39      0.00
   -8    3   19      0.01      0.00
   -7    3   19      0.35      0.00
   -6    3   19      0.55      0.00
   -5    3   19     -3.07      0.00
   -2    3   19     -0.94      0.00
   -1    3   19      0.01      0.00
    0    3   19     -1.49      0.00
    1    3   19      2.99      0.00
    2    3   19     -0.31      0.00
    3    3   19      1.23      0.00
   -9    4   19      1.49      0.00
   -8    4   19     -0.83      0.00
   -7    4   19     -1.36      0.00
   -6    4   19     -0.84      0.00
   -5    4   19     -1.40      0.00
   -4    4   19      0.59      0.00
   -2    4   19      0.50      0.00
   -1    4   19     -3.32      0.00
    0    4   19      1.53      0.00
    1    4   19     -0.17      0.00
    2    4   19      1.02      0.00
    3    4   19      0.03      0.00
   -9    5   19     -0.29      0.00
   -8    5   19     -0.41      0.00
   -7    5   19     -0.80      0.00
   -6    5   19      1.14      0.00
   -5    5   19      0.09      0.00
   -4    5   19     -4.81      0.00
   -3    5   19      0.15      0.00
   -2    5   19     -0.24      0.00
   -1    5   19      0.88      0.00
    0    5   19     -1.32      0.00
    1    5   19     -0.28      0.00
    2    5   19     -0.08      0.00
    3    5   19      0.38      0.00
   -9    6   19      1.08      0.00
   -8    6   19      1.02      0.00
   -7    6   19     -0.50      0.00
   -6    6   19     -0.94      0.00
   -5    6   19     -1.30      0.00
   -4    6   19     -0.76      0.00
   -3    6   19     -0.85      0.00
   -2    6   19      1.94      0.00
   -1    6   19     -0.65      0.00
    0    6   19     -2.05      0.00
    1    6   19      0.19      0.00
    2    6   19     -0.51      0.00
    3    6   19      0.13      0.00
   -9    7   19      0.98      0.00
   -8    7   19      0.33      0.00
   -7    7   19     -0.86      0.00
   -6    7   19     -0.26      0.00
   -5    7   19      1.71      0.00
   -4    7   19     -0.61      0.00
   -3    7   19     -2.00      0.00
   -2    7   19      0.46      0.00
   -1    7   19     -0.31      0.00
    0    7   19      1.60      0.00
    1    7   19     -1.61      0.00
    2    7   19     -0.35      0.00
   -9    8   19      0.16      0.00
   -8    8   19      1.05      0.00
   -7    8   19      1.12      0.00
   -6    8   19     -0.20      0.00
   -5    8   19      0.80      0.00
   -4    8   19     -1.45      0.00
   -3    8   19     -0.13      0.00
   -2    8   19      0.25      0.00
   -1    8   19      3.95      0.00
    0    8   19     -2.03      0.00
    1    8   19      0.12      0.00
    2    8   19     -1.03      0.00
   -9    9   19      0.37      0.00
   -8    9   19      1.16      0.00
   -7    9   19      0.32      0.00
   -6    9   19      0.30      0.00
   -5    9   19     -0.76      0.00
   -4    9   19      3.30      0.00
   -3    9   19     -1.43      0.00
   -2    9   19      1.92      0.00
   -1    9   19     -1.38      0.00
    0    9   19      2.28      0.00
    1    9   19     -0.52      0.00
    2    9   19     -0.12      0.00
   -8   10   19     -0.32      0.00
   -7   10   19      1.44      0.00
   -6   10   19     -0.36      0.00
   -5   10   19      2.87      0.00
   -4   10   19     -0.95      0.00
   -3   10   19      0.98      0.00
   -2   10   19     -2.21      0.00
   -1   10   19      3.96      0.00
    0   10   19      0.42      0.00
    1   10   19      0.17      0.00
    2   10   19     -0.69      0.00
   -8   11   19      0.26      0.00
   -7   11   19     -0.04      0.00
   -6   11   19      2.19      0.00
   -5   11   19     -2.03      0.00
   -4   11   19      2.69      0.00
   -3   11   19     -0.40      0.00
   -2   11   19      2.25      0.00
   -1   11   19     -0.57      0.00
    0   11   19      0.90      0.00
    1   11   19      0.36      0.00
   -8   12   19     -0.90      0.00
   -7   12   19      0.53      0.00
   -6   12   19     -0.61      0.00
   -5   12   19      2.17      0.00
   -4   12   19      0.32      0.00
   -3   12   19      1.81      0.00
   -2   12   19     -2.03      0.00
   -1   12   19      0.66      0.00
    0   12   19      1.30      0.00
    1   12   19      0.28      0.00
   -7   13   19     -0.76      0.00
   -6   13   19      1.45      0.00
   -5   13   19     -0.36      0.00
   -4   13   19      0.73      0.00
   -3   13   19     -0.10      0.00
   -2   13   19      0.98      0.00
   -1   13   19      0.59      0.00
    0   13   19     -0.12      0.00
    1   13   19      0.41      0.00
   -7   14   19     -0.64      0.00
   -6   14   19      0.23      0.00
   -5   14   19      0.47      0.00
   -4   14   19      0.40      0.00
   -3   14   19      1.58      0.00
   -2   14   19      0.03      0.00
   -1   14   19     -1.04      0.00
    0   14   19      0.46      0.00
   -6   15   19     -0.06      0.00
   -5   15   19      0.70      0.00
   -4   15   19      0.07      0.00
   -3   15   19      0.08      0.00
   -2   15   19     -0.38      0.00
   -1   15   19      0.48      0.00
    0   15   19     -0.19      0.00
   -5   16   19      0.45      0.00
   -4   16   19     -0.08      0.00
   -3   16   19      0.28      0.00
   -2   16   19      0.84      0.00
   -1   16   19     -0.55      0.00
   -4   17   19      0.02      0.00
   -3   17   19      0.22      0.00
   -2   17   19     -0.42      0.00
   -8    0   20     -0.37      0.00
   -6    0   20     -1.19      0.00
   -4    0   20      2.33      0.00
   -2    0   20     -2.14      0.00
    0    0   20      2.33      0.00
    2    0   20     -0.98      0.00
   -8    1   20     -0.62      0.00
   -7    1   20      0.47      0.00
   -6    1   20      0.23      0.00
   -5    1   20     -0.06      0.00
   -4    1   20      0.27      0.00
   -3    1   20     -1.26      0.00
   -2    1   20     -0.30      0.00
   -1    1   20      1.15      0.00
    0    1   20      1.16      0.00
    1    1   20     -0.14      0.00
    2    1   20      0.90      0.00
   -8    2   20     -0.03      0.00
   -7    2   20      0.13      0.00
   -6    2   20     -0.33      0.00
   -5    2   20     -2.29      0.00
   -4    2   20     -0.17      0.00
   -3    2   20      2.69      0.00
   -2    2   20     -1.09      0.00
   -1    2   20     -0.63      0.00
    0    2   20      0.34      0.00
    1    2   20      2.50      0.00
   -8    3   20     -1.03      0.00
   -7    3   20     -0.74      0.00
   -6    3   20     -0.10      0.00
   -5    3   20     -0.35      0.00
   -4    3   20      0.35      0.00
   -3    3   20     -1.15      0.00
   -2    3   20      0.01      0.00
   -1    3   20     -1.23      0.00
    0    3   20      1.86      0.00
    1    3   20     -0.59      0.00
   -8    4   20      0.06      0.00
   -7    4   20     -0.34      0.00
   -6    4   20      0.78      0.00
   -5    4   20     -1.16      0.00
   -4    4   20     -3.40      0.00
   -3    4   20      1.50      0.00
   -2    4   20     -0.08      0.00
   -1    4   20      0.57      0.00
    0    4   20     -1.60      0.00
    1    4   20      1.29      0.00
   -8    5   20      0.09      0.00
   -7    5   20     -0.90      0.00
   -6    5   20     -0.90      0.00
   -5    5   20     -0.69      0.00
   -4    5   20      0.23      0.00
   -3    5   20     -1.10      0.00
   -2    5   20      1.26      0.00
   -1    5   20     -1.63      0.00
    0    5   20      0.13      0.00
    1    5   20     -0.37      0.00
   -8    6   20      0.02      0.00
   -7    6   20     -0.71      0.00
   -6    6   20      0.21      0.00
   -5    6   20      1.21      0.00
   -4    6   20     -2.25      0.00
   -3    6   20     -0.56      0.00
   -2    6   20     -0.06      0.00
   -1    6   20      0.82      0.00
    0    6   20     -0.09      0.00
    1    6   20     -0.67      0.00
   -8    7   20      1.05      0.00
   -7    7   20      0.34      0.00
   -6    7   20     -0.44      0.00
   -5    7   20     -0.47      0.00
   -4    7   20     -0.08      0.00
   -3    7   20     -0.50      0.00
   -2    7   20      1.20      0.00
   -1    7   20      1.19      0.00
    0    7   20     -1.33      0.00
    1    7   20      0.03      0.00
   -7    8   20      0.10      0.00
   -6    8   20     -0.38      0.00
   -5    8   20      0.71      0.00
   -4    8   20      1.10      0.00
   -3    8   20     -0.93      0.00
   -2    8   20      0.76      0.00
   -1    8   20     -0.52      0.00
    0    8   20      1.51      0.00
    1    8   20     -0.74      0.00
   -7    9   20      0.94      0.00
   -6    9   20      0.23      0.00
   -5    9   20      1.10      0.00
   -4    9   20     -0.76      0.00
   -3    9   20      0.41      0.00
   -2    9   20     -0.66      0.00
   -1    9   20      3.06      0.00
    0    9   20     -0.67      0.00
   -7   10   20      0.41      0.00
   -6   10   20      0.97      0.00
   -5   10   20     -1.23      0.00
   -4   10   20      2.26      0.00
   -3   10   20     -0.63      0.00
   -2   10   20      1.69      0.00
   -1   10   20     -0.96      0.00
    0   10   20      1.07      0.00
   -6   11   20     -0.39      0.00
   -5   11   20      2.15      0.00
   -4   11   20     -0.48      0.00
   -3   11   20      1.03      0.00
   -2   11   20     -1.80      0.00
   -1   11   20      1.74      0.00
   -6   12   20      1.68      0.00
   -5   12   20     -1.05      0.00
   -4   12   20      1.20      0.00
   -3   12   20     -0.40      0.00
   -2   12   20      1.31      0.00
   -1   12   20     -0.13      0.00
   -5   13   20      1.11      0.00
   -4   13   20      0.21      0.00
   -3   13   20      1.20      0.00
   -2   13   20     -0.86      0.00
   -3   14   20     -0.19      0.00
    0    0    0      0.00      0.00
# SQUEEZE RESULTS (Version = 291119)
# Note: Data are Listed for all Voids in the P1 Unit Cell
# i.e. Centre of Gravity, Solvent Accessible Volume,
# Recovered number of Electrons in the Void and
# Details about the Squeezed Material
loop_
  _platon_squeeze_void_nr
  _platon_squeeze_void_average_x
  _platon_squeeze_void_average_y
  _platon_squeeze_void_average_z
  _platon_squeeze_void_volume
  _platon_squeeze_void_count_electrons
  _platon_squeeze_void_content
   1  0.000  0.000  0.000       212        73 ' '
   2  0.500  0.500  0.500       212        73 ' '
_platon_squeeze_void_probe_radius                  1.20
_platon_squeeze_details
)
TITL 2os307_a.res in P2(1)/n
CELL   10.9639   27.0997   16.6678     90.00    105.14     90.00
SPGR P21/n
# Solvent Accessible Volume =       431
# Electrons Found in S.A.V. =       145
# Note: Atoms in Void are Labelled as Cxxx and Qxxx for all Others
C101 0.814 0.604 0.469 !       7.51 eA-3
C102 0.551 0.604 0.448 !       7.10 eA-3
C103 0.516 0.447 0.534 !       5.16 eA-3
C104 0.701 0.569 0.486 !       5.00 eA-3
C105 0.691 0.606 0.458 !       4.07 eA-3
Q106 0.033 0.928 0.122 !       1.85 eA-3
C107 1.000 1.000 0.000 !       1.84 eA-3
Q108 0.473 0.390 0.312 !       1.41 eA-3
Q109 0.111 0.938 0.191 !       1.25 eA-3
Q110 0.390 0.393 0.314 !       1.19 eA-3
Q111 0.272 0.406 0.294 !       1.14 eA-3
Q112 0.982 0.062 0.809 !       1.05 eA-3
Q113 0.953 0.153 0.843 !       0.98 eA-3
Q114 0.592 0.433 0.330 !       0.97 eA-3
Q115 0.046 0.702 0.420 !       0.96 eA-3
Q116 0.578 0.177 0.515 !       0.93 eA-3
Q117 0.783 0.893 0.114 !       0.90 eA-3
Q118 0.170 0.673 0.456 !       0.88 eA-3
Q119 0.853 0.971 0.178 !       0.85 eA-3
Q120 0.065 0.978 0.206 !       0.84 eA-3
Q121 0.985 0.762 0.833 !       0.83 eA-3
Q122 0.673 0.045 0.766 !       0.83 eA-3
Q123 0.082 0.652 0.000 !       0.82 eA-3
Q124 1.000 0.780 0.050 !       0.80 eA-3
Q125 0.846 0.300 0.406 !       0.79 eA-3
Q126 0.766 0.632 0.673 !       0.79 eA-3
Q127 0.294 0.992 0.248 !       0.77 eA-3
Q128 0.714 0.838 0.924 !       0.76 eA-3
Q129 0.105 0.695 0.129 !       0.75 eA-3
Q130 0.171 0.007 0.250 !       0.75 eA-3
Q131 0.438 0.051 0.330 !       0.75 eA-3
Q132 0.787 0.892 0.449 !       0.75 eA-3
Q133 0.019 0.797 0.791 !       0.74 eA-3
Q134 0.198 0.679 0.529 !       0.74 eA-3
Q135 0.270 0.732 0.216 !       0.74 eA-3
Q136 0.873 0.338 0.933 !       0.74 eA-3
Q137 0.642 0.665 0.629 !       0.72 eA-3
Q138 0.139 0.266 0.238 !       0.72 eA-3
Q139 0.691 0.370 0.954 !       0.72 eA-3
Q140 0.019 0.162 0.904 !       0.72 eA-3
Q141 0.652 0.429 0.060 !       0.71 eA-3
Q142 0.030 0.276 0.551 !       0.70 eA-3
Q143 0.811 0.896 0.358 !       0.70 eA-3
Q144 0.487 0.221 0.948 !       0.69 eA-3
Q145 0.052 0.418 0.870 !       0.68 eA-3
Q146 0.253 0.796 0.501 !       0.67 eA-3
Q147 0.659 0.669 0.926 !       0.66 eA-3
Q148 0.983 0.582 0.278 !       0.66 eA-3
Q149 0.157 0.775 0.114 !       0.64 eA-3
Q150 0.890 0.950 0.750 !       0.64 eA-3
Q151 0.482 0.668 0.232 !       0.64 eA-3
Q152 0.901 0.704 0.012 !       0.64 eA-3
Q153 0.753 0.456 0.358 !       0.64 eA-3
Q154 0.855 0.634 0.891 !       0.63 eA-3
Q155 0.096 0.692 0.388 !       0.63 eA-3
Q156 0.981 0.731 0.083 !       0.63 eA-3
Q157 0.014 0.069 0.102 !       0.61 eA-3
Q158 0.780 0.150 0.611 !       0.61 eA-3
Q159 0.312 0.649 0.579 !       0.60 eA-3
Q160 0.371 0.687 0.670 !       0.60 eA-3
Q161 0.438 0.042 0.207 !       0.60 eA-3
Q162 0.246 0.040 0.609 !       0.60 eA-3
Q163 0.437 0.912 0.218 !       0.60 eA-3
Q164 0.484 0.547 0.265 !       0.59 eA-3
Q165 0.655 0.742 0.660 !       0.59 eA-3
Q166 0.327 0.353 0.603 !       0.59 eA-3
Q167 0.923 0.936 0.911 !       0.58 eA-3
Q168 0.390 0.035 0.265 !       0.58 eA-3
Q169 0.746 0.379-0.005 !       0.58 eA-3
Q170 0.738 0.590 0.559 !       0.58 eA-3
Q171 0.279 0.673 0.062 !       0.57 eA-3
Q172 0.892 0.585 0.214 !       0.57 eA-3
Q173 0.231 0.869 0.373 !       0.57 eA-3
Q174 0.332 0.216 0.779 !       0.56 eA-3
Q175 0.354 0.471 0.430 !       0.56 eA-3
Q176 0.140 0.194 0.323 !       0.55 eA-3
Q177 0.468 0.304 0.132 !       0.55 eA-3
Q178 0.871 0.205 0.958 !       0.54 eA-3
Q179 0.516 0.594 0.387 !       0.53 eA-3
Q180 0.409 0.870 0.172 !       0.53 eA-3
Q181 0.935 0.749 0.773 !       0.53 eA-3
Q182 0.989 0.937 0.437 !       0.53 eA-3
Q183 0.621 0.436 0.540 !       0.53 eA-3
Q184 0.279 0.135 0.324 !       0.52 eA-3
Q185 0.280 0.234 0.331 !       0.52 eA-3
Q186 0.957 0.922 0.083 !       0.52 eA-3
Q187 0.079 0.268 0.867 !       0.51 eA-3
Q188 0.061 1.001 0.087 !       0.51 eA-3
Q189 0.748 0.130 0.268 !       0.51 eA-3
Q190 0.795 0.167 0.092 !       0.51 eA-3
Q191 0.643 0.607 0.376 !       0.51 eA-3
Q192 0.281 0.556 0.914 !       0.50 eA-3
)
;
_shelx_fab_checksum              16412
_olex2_submission_special_instructions 'No special instructions were received'
_oxdiff_exptl_absorpt_empirical_details
;
Empirical correction (ABSPACK) includes:
- Absorption correction using spherical harmonics
- Frame scaling
;
_oxdiff_exptl_absorpt_empirical_full_max 2.059
_oxdiff_exptl_absorpt_empirical_full_min 0.320
loop_
_space_group_symop_operation_xyz
'x, y, z'
'-x+1/2, y+1/2, -z+1/2'
'-x, -y, -z'
'x-1/2, -y-1/2, z-1/2'
loop_
_atom_site_label
_atom_site_type_symbol
_atom_site_fract_x
_atom_site_fract_y
_atom_site_fract_z
_atom_site_U_iso_or_equiv
_atom_site_adp_type
_atom_site_occupancy
_atom_site_site_symmetry_order
_atom_site_calc_flag
_atom_site_refinement_flags_posn
_atom_site_refinement_flags_adp
_atom_site_refinement_flags_occupancy
_atom_site_disorder_assembly
_atom_site_disorder_group
Ni1 Ni 0.56524(7) 0.58451(3) 0.68161(5) 0.0355(2) Uani 1 1 d . . . . .
N20 N 0.5840(3) 0.79557(12) 0.6207(2) 0.0310(8) Uani 1 1 d . . . . .
N21 N 0.5559(3) 0.64480(13) 0.6358(2) 0.0329(8) Uani 1 1 d . . . . .
N22 N 0.3996(3) 0.57593(13) 0.6593(2) 0.0342(8) Uani 1 1 d . . . . .
N23 N 0.5741(3) 0.52333(13) 0.7216(2) 0.0369(9) Uani 1 1 d . . . . .
N24 N 0.7310(3) 0.58995(13) 0.6963(2) 0.0324(8) Uani 1 1 d . . . . .
C23 C 0.8584(4) 0.74629(17) 0.7823(3) 0.0381(11) Uani 1 1 d . . . . .
H23 H 0.818532 0.720663 0.805006 0.046 Uiso 1 1 calc R . . . .
C1 C 0.6659(4) 0.66441(15) 0.6346(3) 0.0332(10) Uani 1 1 d . . . . .
C2 C 0.6456(4) 0.71467(15) 0.5980(3) 0.0340(10) Uani 1 1 d . . . . .
H2 H 0.698048 0.721384 0.558365 0.041 Uiso 1 1 calc R . . . .
C3 C 0.5002(4) 0.71733(15) 0.5558(3) 0.0312(9) Uani 1 1 d . . . . .
H3 H 0.483628 0.714099 0.494115 0.037 Uiso 1 1 calc R . . . .
C4 C 0.4483(4) 0.67182(15) 0.5923(3) 0.0333(10) Uani 1 1 d . . . . .
C5 C 0.3298(4) 0.65309(15) 0.5837(3) 0.0301(9) Uani 1 1 d . . . . .
C6 C 0.3040(4) 0.60479(15) 0.6169(3) 0.0318(10) Uani 1 1 d . . . . .
C7 C 0.1913(4) 0.57698(16) 0.6083(3) 0.0340(10) Uani 1 1 d . . . . .
H7 H 0.108001 0.587596 0.581566 0.041 Uiso 1 1 calc R . . . .
C8 C 0.2248(4) 0.53146(16) 0.6463(3) 0.0372(10) Uani 1 1 d . . . . .
H8 H 0.168769 0.505384 0.650159 0.045 Uiso 1 1 calc R . . . .
C9 C 0.3562(4) 0.53112(15) 0.6776(3) 0.0348(10) Uani 1 1 d . . . . .
C10 C 0.4646(4) 0.49967(16) 0.7137(3) 0.0374(10) Uani 1 1 d . . . . .
C11 C 0.4949(4) 0.44870(17) 0.7362(3) 0.0438(12) Uani 1 1 d . . . . .
H11 H 0.436609 0.423279 0.739136 0.053 Uiso 1 1 calc R . . . .
C12 C 0.6224(4) 0.44395(17) 0.7522(3) 0.0412(11) Uani 1 1 d . . . . .
H12 H 0.668616 0.414258 0.767791 0.049 Uiso 1 1 calc R . . . .
C13 C 0.6761(4) 0.49131(16) 0.7418(3) 0.0351(10) Uani 1 1 d . . . . .
C14 C 0.7979(4) 0.50625(15) 0.7415(3) 0.0320(9) Uani 1 1 d . . . . .
C15 C 0.8258(4) 0.55668(15) 0.7203(3) 0.0311(9) Uani 1 1 d . . . . .
C16 C 0.9373(4) 0.58021(16) 0.7124(3) 0.0329(10) Uani 1 1 d . . . . .
C17 C 0.9044(4) 0.62812(16) 0.6817(3) 0.0342(10) Uani 1 1 d . . . . .
H17 H 0.959812 0.652526 0.670338 0.041 Uiso 1 1 calc R . . . .
C18 C 0.7739(4) 0.63275(15) 0.6713(3) 0.0347(10) Uani 1 1 d . . . . .
C21 C 0.6606(4) 0.75540(15) 0.6670(3) 0.0342(10) Uani 1 1 d . . . . .
H21 H 0.618774 0.743323 0.709867 0.041 Uiso 1 1 calc R . . . .
C22 C 0.7929(4) 0.77057(15) 0.7101(3) 0.0329(10) Uani 1 1 d . . . . .
C24 C 0.9825(4) 0.75978(17) 0.8209(3) 0.0379(10) Uani 1 1 d . . . . .
H24 H 1.028814 0.742779 0.869138 0.045 Uiso 1 1 calc R . . . .
C25 C 1.0372(4) 0.79812(16) 0.7884(3) 0.0374(10) Uani 1 1 d . . . . .
H25 H 1.120835 0.808232 0.815418 0.045 Uiso 1 1 calc R . . . .
C26 C 0.9718(4) 0.82182(16) 0.7171(3) 0.0355(10) Uani 1 1 d . . . . .
H26 H 1.011546 0.847910 0.695446 0.043 Uiso 1 1 calc R . . . .
C27 C 0.8487(4) 0.80844(15) 0.6761(3) 0.0311(9) Uani 1 1 d . . . . .
C28 C 0.7761(4) 0.83177(15) 0.5982(3) 0.0305(9) Uani 1 1 d . . . . .
C29 C 0.6442(4) 0.82327(14) 0.5706(3) 0.0303(9) Uani 1 1 d . . . . .
C30 C 0.5754(4) 0.84489(14) 0.4958(3) 0.0297(9) Uani 1 1 d . . . . .
C31 C 0.6384(4) 0.87398(15) 0.4508(3) 0.0318(10) Uani 1 1 d . . . . .
H31 H 0.591845 0.887321 0.399218 0.038 Uiso 1 1 calc R . . . .
C32 C 0.7677(4) 0.88445(15) 0.4785(3) 0.0315(9) Uani 1 1 d . . . . .
C33 C 0.8324(4) 0.86263(15) 0.5519(3) 0.0321(10) Uani 1 1 d . . . . .
H33 H 0.920301 0.869053 0.571849 0.039 Uiso 1 1 calc R . . . .
C34 C 0.8307(4) 0.91784(16) 0.4256(3) 0.0364(10) Uani 1 1 d . . . . .
C35 C 0.7592(5) 0.96729(17) 0.4072(3) 0.0457(12) Uani 1 1 d . . . . .
H35A H 0.670954 0.961011 0.377369 0.069 Uiso 1 1 calc GR . . . .
H35B H 0.798840 0.987977 0.372835 0.069 Uiso 1 1 calc GR . . . .
H35C H 0.762344 0.984292 0.459546 0.069 Uiso 1 1 calc GR . . . .
C36 C 0.8252(5) 0.89112(19) 0.3442(3) 0.0460(12) Uani 1 1 d . . . . .
H36A H 0.869601 0.859504 0.356087 0.069 Uiso 1 1 calc GR . . . .
H36B H 0.865565 0.911473 0.309865 0.069 Uiso 1 1 calc GR . . . .
H36C H 0.736771 0.885222 0.314368 0.069 Uiso 1 1 calc GR . . . .
C37 C 0.9686(4) 0.92906(18) 0.4708(3) 0.0446(12) Uani 1 1 d . . . . .
H37A H 0.972068 0.944840 0.524284 0.067 Uiso 1 1 calc GR . . . .
H37B H 1.004760 0.951281 0.436746 0.067 Uiso 1 1 calc GR . . . .
H37C H 1.016968 0.898246 0.480358 0.067 Uiso 1 1 calc GR . . . .
C38 C 0.4372(4) 0.83762(15) 0.4700(3) 0.0318(9) Uani 1 1 d . . . . .
C39 C 0.3584(4) 0.86668(16) 0.4081(3) 0.0348(10) Uani 1 1 d . . . . .
H39 H 0.394889 0.890835 0.380230 0.042 Uiso 1 1 calc R . . . .
C40 C 0.2286(4) 0.86091(17) 0.3868(3) 0.0399(11) Uani 1 1 d . . . . .
H40 H 0.176656 0.881326 0.345373 0.048 Uiso 1 1 calc R . . . .
C41 C 0.1746(4) 0.82533(17) 0.4261(3) 0.0409(11) Uani 1 1 d . . . . .
H41 H 0.085775 0.820373 0.410518 0.049 Uiso 1 1 calc R . . . .
C42 C 0.2509(4) 0.79704(17) 0.4883(3) 0.0392(11) Uani 1 1 d . . . . .
H42 H 0.213526 0.773495 0.516755 0.047 Uiso 1 1 calc R . . . .
C43 C 0.3820(4) 0.80246(15) 0.5099(3) 0.0343(10) Uani 1 1 d . . . . .
C44 C 0.4624(4) 0.77109(15) 0.5797(3) 0.0322(10) Uani 1 1 d . . . . .
H44 H 0.414143 0.767049 0.622580 0.039 Uiso 1 1 calc R . . . .
C51 C 0.2109(4) 0.67941(15) 0.5386(3) 0.0338(10) Uani 1 1 d . . . . .
C52 C 0.1669(4) 0.67689(16) 0.4525(3) 0.0393(11) Uani 1 1 d . . . . .
C53 C 0.0490(5) 0.69914(17) 0.4146(3) 0.0440(12) Uani 1 1 d . . . . .
H53 H 0.018003 0.698138 0.355816 0.053 Uiso 1 1 calc R . . . .
C54 C -0.0222(4) 0.72222(17) 0.4608(3) 0.0400(11) Uani 1 1 d . . . . .
C55 C 0.0237(4) 0.72402(16) 0.5456(3) 0.0378(11) Uani 1 1 d . . . . .
H55 H -0.024540 0.740073 0.577624 0.045 Uiso 1 1 calc R . . . .
C56 C 0.1396(4) 0.70288(15) 0.5860(3) 0.0343(10) Uani 1 1 d . . . . .
C57 C 0.2417(5) 0.65236(19) 0.4004(3) 0.0475(12) Uani 1 1 d . . . . .
H57A H 0.307561 0.674909 0.392664 0.071 Uiso 1 1 calc GR . . . .
H57B H 0.185475 0.643831 0.346066 0.071 Uiso 1 1 calc GR . . . .
H57C H 0.280862 0.622284 0.428208 0.071 Uiso 1 1 calc GR . . . .
C58 C -0.1493(5) 0.7449(2) 0.4189(4) 0.0546(14) Uani 1 1 d . . . . .
H58A H -0.156433 0.749176 0.359513 0.082 Uiso 1 1 calc GR . . . .
H58B H -0.156831 0.777052 0.444088 0.082 Uiso 1 1 calc GR . . . .
H58C H -0.216967 0.723070 0.426180 0.082 Uiso 1 1 calc GR . . . .
C59 C 0.1886(4) 0.70755(18) 0.6788(3) 0.0401(11) Uani 1 1 d . . . . .
H59A H 0.208524 0.674707 0.703326 0.060 Uiso 1 1 calc GR . . . .
H59B H 0.124106 0.723075 0.701515 0.060 Uiso 1 1 calc GR . . . .
H59C H 0.265134 0.727915 0.692011 0.060 Uiso 1 1 calc GR . . . .
C141 C 0.9032(4) 0.47041(15) 0.7597(3) 0.0336(10) Uani 1 1 d . . . . .
C142 C 0.9540(4) 0.45339(17) 0.8414(3) 0.0414(11) Uani 1 1 d . . . . .
C143 C 1.0565(5) 0.42094(18) 0.8572(4) 0.0516(14) Uani 1 1 d . . . . .
H143 H 1.091703 0.409784 0.912418 0.062 Uiso 1 1 calc R . . . .
C144 C 1.1081(5) 0.40465(19) 0.7950(4) 0.0548(15) Uani 1 1 d . . . . .
C145 C 1.0554(5) 0.42087(17) 0.7152(4) 0.0474(13) Uani 1 1 d . . . . .
H145 H 1.089480 0.409263 0.671851 0.057 Uiso 1 1 calc R . . . .
C146 C 0.9540(4) 0.45366(15) 0.6956(3) 0.0369(10) Uani 1 1 d . . . . .
C147 C 0.8997(6) 0.4698(2) 0.9107(3) 0.0562(14) Uani 1 1 d . . . . .
H14A H 0.880668 0.505159 0.905056 0.084 Uiso 1 1 calc GR . . . .
H14B H 0.961034 0.463610 0.964158 0.084 Uiso 1 1 calc GR . . . .
H14C H 0.821925 0.451366 0.908305 0.084 Uiso 1 1 calc GR . . . .
C148 C 1.2201(6) 0.3700(3) 0.8138(6) 0.092(3) Uani 1 1 d . . . . .
H14D H 1.235466 0.358412 0.761606 0.138 Uiso 1 1 calc GR . . . .
H14E H 1.202487 0.341720 0.845624 0.138 Uiso 1 1 calc GR . . . .
H14F H 1.295062 0.387473 0.846373 0.138 Uiso 1 1 calc GR . . . .
C149 C 0.9002(5) 0.46914(19) 0.6072(3) 0.0466(12) Uani 1 1 d . . . . .
H14G H 0.807826 0.467318 0.593418 0.070 Uiso 1 1 calc GR . . . .
H14H H 0.931622 0.447146 0.570370 0.070 Uiso 1 1 calc GR . . . .
H14I H 0.926102 0.503109 0.599874 0.070 Uiso 1 1 calc GR . . . .
H16 H 1.021(5) 0.563(2) 0.723(3) 0.056 Uiso 1 1 d R . . . .
loop_
_atom_site_aniso_label
_atom_site_aniso_U_11
_atom_site_aniso_U_22
_atom_site_aniso_U_33
_atom_site_aniso_U_23
_atom_site_aniso_U_13
_atom_site_aniso_U_12
Ni1 0.0257(4) 0.0229(4) 0.0596(5) 0.0054(3) 0.0143(4) -0.0004(3)
N20 0.0256(18) 0.0236(17) 0.044(2) 0.0020(15) 0.0092(16) 0.0003(14)
N21 0.0238(18) 0.0250(18) 0.050(2) 0.0038(16) 0.0108(16) -0.0013(14)
N22 0.0293(19) 0.0242(18) 0.054(2) -0.0010(16) 0.0200(17) -0.0028(15)
N23 0.034(2) 0.0254(18) 0.053(2) 0.0054(17) 0.0137(18) 0.0002(16)
N24 0.0235(18) 0.0261(18) 0.049(2) 0.0035(16) 0.0122(16) -0.0002(14)
C23 0.036(3) 0.034(2) 0.046(3) 0.005(2) 0.014(2) 0.002(2)
C1 0.027(2) 0.022(2) 0.051(3) 0.0003(19) 0.012(2) -0.0013(17)
C2 0.029(2) 0.023(2) 0.052(3) 0.0039(19) 0.013(2) -0.0009(17)
C3 0.024(2) 0.025(2) 0.047(3) 0.0015(18) 0.0131(19) -0.0007(17)
C4 0.030(2) 0.021(2) 0.048(3) 0.0036(18) 0.007(2) -0.0009(17)
C5 0.026(2) 0.025(2) 0.041(2) -0.0011(18) 0.0117(18) -0.0016(17)
C6 0.028(2) 0.026(2) 0.044(3) -0.0052(19) 0.0148(19) -0.0010(18)
C7 0.024(2) 0.031(2) 0.047(3) 0.0002(19) 0.0093(19) -0.0047(18)
C8 0.029(2) 0.029(2) 0.055(3) -0.002(2) 0.014(2) -0.0072(18)
C9 0.033(2) 0.025(2) 0.050(3) -0.0001(19) 0.018(2) -0.0013(18)
C10 0.036(2) 0.029(2) 0.051(3) 0.002(2) 0.019(2) -0.0058(19)
C11 0.035(3) 0.031(2) 0.064(3) 0.012(2) 0.011(2) -0.005(2)
C12 0.039(3) 0.028(2) 0.054(3) 0.010(2) 0.006(2) 0.000(2)
C13 0.033(2) 0.028(2) 0.046(3) 0.0026(19) 0.013(2) -0.0012(19)
C14 0.032(2) 0.024(2) 0.040(2) 0.0004(18) 0.0080(19) -0.0003(18)
C15 0.029(2) 0.026(2) 0.040(2) -0.0003(18) 0.0115(19) -0.0003(18)
C16 0.027(2) 0.029(2) 0.043(3) -0.0005(19) 0.0104(19) 0.0019(18)
C17 0.026(2) 0.029(2) 0.049(3) -0.0017(19) 0.011(2) -0.0055(18)
C18 0.029(2) 0.021(2) 0.055(3) -0.0018(19) 0.012(2) -0.0020(17)
C21 0.031(2) 0.026(2) 0.046(3) 0.0035(19) 0.011(2) 0.0000(18)
C22 0.031(2) 0.029(2) 0.039(2) 0.0022(18) 0.0089(19) 0.0030(18)
C24 0.033(2) 0.037(2) 0.042(3) 0.000(2) 0.009(2) 0.008(2)
C25 0.026(2) 0.035(2) 0.047(3) -0.002(2) 0.002(2) 0.0035(19)
C26 0.034(2) 0.027(2) 0.044(3) -0.0002(19) 0.007(2) 0.0026(19)
C27 0.026(2) 0.024(2) 0.044(2) -0.0016(18) 0.0093(19) 0.0018(17)
C28 0.028(2) 0.023(2) 0.040(2) -0.0021(18) 0.0073(19) -0.0009(17)
C29 0.031(2) 0.0213(19) 0.041(2) -0.0029(18) 0.0123(19) -0.0024(17)
C30 0.030(2) 0.023(2) 0.036(2) -0.0033(17) 0.0061(18) -0.0002(17)
C31 0.033(2) 0.025(2) 0.036(2) 0.0033(18) 0.0060(19) 0.0024(18)
C32 0.031(2) 0.023(2) 0.041(2) -0.0042(18) 0.0090(19) -0.0013(17)
C33 0.030(2) 0.025(2) 0.042(2) -0.0016(18) 0.0103(19) -0.0024(18)
C34 0.034(2) 0.032(2) 0.045(3) 0.005(2) 0.012(2) -0.0011(19)
C35 0.045(3) 0.033(2) 0.063(3) 0.003(2) 0.020(2) -0.005(2)
C36 0.047(3) 0.044(3) 0.050(3) 0.005(2) 0.017(2) -0.003(2)
C37 0.035(3) 0.038(3) 0.060(3) 0.004(2) 0.011(2) -0.007(2)
C38 0.030(2) 0.023(2) 0.042(2) -0.0042(18) 0.0079(19) 0.0004(17)
C39 0.035(2) 0.030(2) 0.039(2) -0.0040(19) 0.007(2) 0.0005(19)
C40 0.027(2) 0.040(3) 0.048(3) -0.003(2) 0.002(2) 0.005(2)
C41 0.025(2) 0.033(2) 0.063(3) -0.005(2) 0.008(2) 0.0014(19)
C42 0.029(2) 0.029(2) 0.059(3) 0.002(2) 0.011(2) -0.0005(19)
C43 0.025(2) 0.027(2) 0.049(3) -0.0043(19) 0.0060(19) 0.0021(18)
C44 0.025(2) 0.024(2) 0.047(3) -0.0007(19) 0.0102(19) -0.0018(17)
C51 0.027(2) 0.023(2) 0.049(3) 0.0006(19) 0.006(2) -0.0069(17)
C52 0.038(3) 0.028(2) 0.051(3) -0.003(2) 0.008(2) -0.0092(19)
C53 0.043(3) 0.036(2) 0.045(3) 0.000(2) -0.003(2) -0.014(2)
C54 0.031(2) 0.031(2) 0.054(3) 0.001(2) 0.004(2) -0.0061(19)
C55 0.030(2) 0.032(2) 0.052(3) 0.001(2) 0.011(2) -0.0051(19)
C56 0.024(2) 0.026(2) 0.052(3) 0.0012(19) 0.008(2) -0.0020(17)
C57 0.050(3) 0.042(3) 0.050(3) -0.006(2) 0.012(2) -0.012(2)
C58 0.038(3) 0.047(3) 0.068(4) 0.000(3) -0.004(3) 0.004(2)
C59 0.031(2) 0.042(3) 0.049(3) -0.001(2) 0.012(2) 0.003(2)
C141 0.027(2) 0.026(2) 0.046(3) 0.0055(19) 0.0047(19) -0.0036(17)
C142 0.037(3) 0.032(2) 0.051(3) 0.007(2) 0.003(2) -0.010(2)
C143 0.036(3) 0.040(3) 0.068(4) 0.024(3) -0.005(3) -0.005(2)
C144 0.035(3) 0.039(3) 0.089(4) 0.025(3) 0.015(3) 0.005(2)
C145 0.037(3) 0.029(2) 0.081(4) 0.004(2) 0.024(3) -0.001(2)
C146 0.030(2) 0.025(2) 0.056(3) 0.000(2) 0.010(2) -0.0044(18)
C147 0.070(4) 0.049(3) 0.042(3) 0.008(2) 0.003(3) -0.005(3)
C148 0.046(4) 0.077(5) 0.164(8) 0.066(5) 0.046(4) 0.029(3)
C149 0.048(3) 0.042(3) 0.049(3) -0.011(2) 0.011(2) 0.001(2)
loop_
_atom_type_symbol
_atom_type_description
_atom_type_scat_dispersion_real
_atom_type_scat_dispersion_imag
_atom_type_scat_source
C C 0.0181 0.0091 'International Tables Vol C Tables 4.2.6.8 and 6.1.1.4'
H H 0.0000 0.0000 'International Tables Vol C Tables 4.2.6.8 and 6.1.1.4'
N N 0.0311 0.0180 'International Tables Vol C Tables 4.2.6.8 and 6.1.1.4'
Ni Ni -3.0029 0.5091 'International Tables Vol C Tables 4.2.6.8 and 6.1.1.4'
loop_
_exptl_crystal_face_index_h
_exptl_crystal_face_index_k
_exptl_crystal_face_index_l
_exptl_crystal_face_perp_dist
-6 -10 4 0.1104
6 10 -4 0.1104
1 2 10 0.1359
-1 -2 -10 0.1359
-4 14 1 0.0620
4 -14 -1 0.0620
6 3 2 0.1138
-6 8 3 0.0745
6 -8 -3 0.0565
-2 -3 11 0.1147
-1 17 1 0.0623
-6 10 4 0.0612
3 11 -8 0.1096
-6 -5 -2 0.0980
5 -11 -5 0.0551
loop_
_geom_angle_atom_site_label_1
_geom_angle_atom_site_label_2
_geom_angle_atom_site_label_3
_geom_angle
_geom_angle_site_symmetry_1
_geom_angle_site_symmetry_3
_geom_angle_publ_flag
N22 Ni1 N21 95.08(16) . . ?
N22 Ni1 N23 84.79(17) . . ?
N22 Ni1 N24 175.06(18) . . ?
N23 Ni1 N21 176.88(18) . . ?
N24 Ni1 N21 85.76(16) . . ?
N24 Ni1 N23 94.11(16) . . ?
C21 N20 C44 103.4(3) . . ?
C29 N20 C21 114.5(3) . . ?
C29 N20 C44 117.9(4) . . ?
C1 N21 Ni1 114.9(3) . . ?
C1 N21 C4 115.2(4) . . ?
C4 N21 Ni1 129.5(3) . . ?
C6 N22 Ni1 130.3(3) . . ?
C6 N22 C9 111.4(4) . . ?
C9 N22 Ni1 117.8(3) . . ?
C10 N23 Ni1 116.7(3) . . ?
C10 N23 C13 111.8(4) . . ?
C13 N23 Ni1 129.5(3) . . ?
C15 N24 Ni1 131.6(3) . . ?
C15 N24 C18 111.0(3) . . ?
C18 N24 Ni1 116.9(3) . . ?
C22 C23 H23 120.2 . . ?
C24 C23 H23 120.2 . . ?
C24 C23 C22 119.7(4) . . ?
N21 C1 C2 109.6(4) . . ?
N21 C1 C18 113.6(4) . . ?
C18 C1 C2 136.8(4) . . ?
C1 C2 H2 112.8 . . ?
C1 C2 C3 104.6(3) . . ?
C1 C2 C21 111.6(4) . . ?
C3 C2 H2 112.8 . . ?
C3 C2 C21 101.3(3) . . ?
C21 C2 H2 112.8 . . ?
C2 C3 H3 110.4 . . ?
C2 C3 C44 103.3(3) . . ?
C4 C3 C2 102.8(3) . . ?
C4 C3 H3 110.4 . . ?
C4 C3 C44 119.0(4) . . ?
C44 C3 H3 110.4 . . ?
N21 C4 C3 105.7(3) . . ?
C5 C4 N21 120.2(4) . . ?
C5 C4 C3 133.7(4) . . ?
C4 C5 C6 124.0(4) . . ?
C4 C5 C51 123.6(4) . . ?
C6 C5 C51 112.4(3) . . ?
N22 C6 C5 120.7(4) . . ?
N22 C6 C7 106.3(4) . . ?
C7 C6 C5 132.7(4) . . ?
C6 C7 H7 126.1 . . ?
C8 C7 C6 107.7(4) . . ?
C8 C7 H7 126.1 . . ?
C7 C8 H8 126.3 . . ?
C7 C8 C9 107.5(4) . . ?
C9 C8 H8 126.3 . . ?
N22 C9 C8 107.1(4) . . ?
N22 C9 C10 108.5(4) . . ?
C8 C9 C10 143.8(4) . . ?
N23 C10 C9 112.0(4) . . ?
N23 C10 C11 107.0(4) . . ?
C11 C10 C9 140.6(4) . . ?
C10 C11 H11 126.4 . . ?
C12 C11 C10 107.3(4) . . ?
C12 C11 H11 126.4 . . ?
C11 C12 H12 125.6 . . ?
C11 C12 C13 108.9(4) . . ?
C13 C12 H12 125.6 . . ?
N23 C13 C12 104.9(4) . . ?
N23 C13 C14 122.0(4) . . ?
C14 C13 C12 132.8(4) . . ?
C13 C14 C15 122.1(4) . . ?
C13 C14 C141 120.4(4) . . ?
C15 C14 C141 117.5(4) . . ?
N24 C15 C14 120.0(4) . . ?
N24 C15 C16 106.7(4) . . ?
C16 C15 C14 133.1(4) . . ?
C15 C16 H16 124(3) . . ?
C17 C16 C15 107.7(4) . . ?
C17 C16 H16 129(3) . . ?
C16 C17 H17 126.7 . . ?
C18 C17 C16 106.5(4) . . ?
C18 C17 H17 126.7 . . ?
N24 C18 C1 108.8(4) . . ?
N24 C18 C17 108.1(4) . . ?
C17 C18 C1 142.6(4) . . ?
N20 C21 C2 101.6(3) . . ?
N20 C21 H21 108.3 . . ?
N20 C21 C22 113.5(3) . . ?
C2 C21 H21 108.3 . . ?
C22 C21 C2 116.6(4) . . ?
C22 C21 H21 108.3 . . ?
C23 C22 C21 120.0(4) . . ?
C27 C22 C23 121.3(4) . . ?
C27 C22 C21 118.7(4) . . ?
C23 C24 H24 120.4 . . ?
C25 C24 C23 119.2(4) . . ?
C25 C24 H24 120.4 . . ?
C24 C25 H25 119.7 . . ?
C26 C25 C24 120.6(4) . . ?
C26 C25 H25 119.7 . . ?
C25 C26 H26 119.3 . . ?
C25 C26 C27 121.5(4) . . ?
C27 C26 H26 119.3 . . ?
C22 C27 C26 117.7(4) . . ?
C22 C27 C28 118.8(4) . . ?
C26 C27 C28 123.4(4) . . ?
C29 C28 C27 119.1(4) . . ?
C33 C28 C27 122.2(4) . . ?
C33 C28 C29 118.7(4) . . ?
N20 C29 C28 119.3(4) . . ?
C30 C29 N20 121.5(4) . . ?
C30 C29 C28 119.1(4) . . ?
C29 C30 C38 118.4(4) . . ?
C31 C30 C29 119.2(4) . . ?
C31 C30 C38 122.4(4) . . ?
C30 C31 H31 118.6 . . ?
C30 C31 C32 122.7(4) . . ?
C32 C31 H31 118.6 . . ?
C31 C32 C34 119.7(4) . . ?
C33 C32 C31 116.6(4) . . ?
C33 C32 C34 123.7(4) . . ?
C28 C33 H33 118.2 . . ?
C32 C33 C28 123.6(4) . . ?
C32 C33 H33 118.2 . . ?
C35 C34 C32 110.0(4) . . ?
C36 C34 C32 108.0(4) . . ?
C36 C34 C35 109.6(4) . . ?
C36 C34 C37 109.7(4) . . ?
C37 C34 C32 111.4(4) . . ?
C37 C34 C35 108.1(4) . . ?
C34 C35 H35A 109.5 . . ?
C34 C35 H35B 109.5 . . ?
C34 C35 H35C 109.5 . . ?
H35A C35 H35B 109.5 . . ?
H35A C35 H35C 109.5 . . ?
H35B C35 H35C 109.5 . . ?
C34 C36 H36A 109.5 . . ?
C34 C36 H36B 109.5 . . ?
C34 C36 H36C 109.5 . . ?
H36A C36 H36B 109.5 . . ?
H36A C36 H36C 109.5 . . ?
H36B C36 H36C 109.5 . . ?
C34 C37 H37A 109.5 . . ?
C34 C37 H37B 109.5 . . ?
C34 C37 H37C 109.5 . . ?
H37A C37 H37B 109.5 . . ?
H37A C37 H37C 109.5 . . ?
H37B C37 H37C 109.5 . . ?
C39 C38 C30 121.9(4) . . ?
C43 C38 C30 119.7(4) . . ?
C43 C38 C39 118.4(4) . . ?
C38 C39 H39 119.3 . . ?
C40 C39 C38 121.4(4) . . ?
C40 C39 H39 119.3 . . ?
C39 C40 H40 120.1 . . ?
C41 C40 C39 119.8(4) . . ?
C41 C40 H40 120.1 . . ?
C40 C41 H41 120.3 . . ?
C42 C41 C40 119.5(4) . . ?
C42 C41 H41 120.3 . . ?
C41 C42 H42 119.5 . . ?
C41 C42 C43 121.1(4) . . ?
C43 C42 H42 119.5 . . ?
C38 C43 C42 119.8(4) . . ?
C38 C43 C44 120.8(4) . . ?
C42 C43 C44 119.3(4) . . ?
N20 C44 C3 105.2(3) . . ?
N20 C44 C43 111.9(3) . . ?
N20 C44 H44 107.4 . . ?
C3 C44 H44 107.4 . . ?
C43 C44 C3 117.1(4) . . ?
C43 C44 H44 107.4 . . ?
C52 C51 C5 120.9(4) . . ?
C52 C51 C56 120.7(4) . . ?
C56 C51 C5 118.2(4) . . ?
C51 C52 C53 118.0(4) . . ?
C51 C52 C57 121.7(4) . . ?
C53 C52 C57 120.3(5) . . ?
C52 C53 H53 119.1 . . ?
C54 C53 C52 121.8(5) . . ?
C54 C53 H53 119.1 . . ?
C53 C54 C58 120.9(5) . . ?
C55 C54 C53 118.8(4) . . ?
C55 C54 C58 120.3(5) . . ?
C54 C55 H55 119.1 . . ?
C54 C55 C56 121.7(5) . . ?
C56 C55 H55 119.1 . . ?
C51 C56 C59 121.1(4) . . ?
C55 C56 C51 119.0(4) . . ?
C55 C56 C59 119.8(4) . . ?
C52 C57 H57A 109.5 . . ?
C52 C57 H57B 109.5 . . ?
C52 C57 H57C 109.5 . . ?
H57A C57 H57B 109.5 . . ?
H57A C57 H57C 109.5 . . ?
H57B C57 H57C 109.5 . . ?
C54 C58 H58A 109.5 . . ?
C54 C58 H58B 109.5 . . ?
C54 C58 H58C 109.5 . . ?
H58A C58 H58B 109.5 . . ?
H58A C58 H58C 109.5 . . ?
H58B C58 H58C 109.5 . . ?
C56 C59 H59A 109.5 . . ?
C56 C59 H59B 109.5 . . ?
C56 C59 H59C 109.5 . . ?
H59A C59 H59B 109.5 . . ?
H59A C59 H59C 109.5 . . ?
H59B C59 H59C 109.5 . . ?
C142 C141 C14 120.2(4) . . ?
C146 C141 C14 120.0(4) . . ?
C146 C141 C142 119.8(4) . . ?
C141 C142 C147 120.8(4) . . ?
C143 C142 C141 118.9(5) . . ?
C143 C142 C147 120.3(5) . . ?
C142 C143 H143 119.0 . . ?
C144 C143 C142 122.0(5) . . ?
C144 C143 H143 119.0 . . ?
C143 C144 C148 120.9(6) . . ?
C145 C144 C143 118.3(5) . . ?
C145 C144 C148 120.8(6) . . ?
C144 C145 H145 118.7 . . ?
C144 C145 C146 122.6(5) . . ?
C146 C145 H145 118.7 . . ?
C141 C146 C149 121.8(4) . . ?
C145 C146 C141 118.5(5) . . ?
C145 C146 C149 119.7(5) . . ?
C142 C147 H14A 109.5 . . ?
C142 C147 H14B 109.5 . . ?
C142 C147 H14C 109.5 . . ?
H14A C147 H14B 109.5 . . ?
H14A C147 H14C 109.5 . . ?
H14B C147 H14C 109.5 . . ?
C144 C148 H14D 109.5 . . ?
C144 C148 H14E 109.5 . . ?
C144 C148 H14F 109.5 . . ?
H14D C148 H14E 109.5 . . ?
H14D C148 H14F 109.5 . . ?
H14E C148 H14F 109.5 . . ?
C146 C149 H14G 109.5 . . ?
C146 C149 H14H 109.5 . . ?
C146 C149 H14I 109.5 . . ?
H14G C149 H14H 109.5 . . ?
H14G C149 H14I 109.5 . . ?
H14H C149 H14I 109.5 . . ?
loop_
_geom_bond_atom_site_label_1
_geom_bond_atom_site_label_2
_geom_bond_distance
_geom_bond_site_symmetry_2
_geom_bond_publ_flag
Ni1 N21 1.795(3) . ?
Ni1 N22 1.772(4) . ?
Ni1 N23 1.780(4) . ?
Ni1 N24 1.775(3) . ?
N20 C21 1.465(5) . ?
N20 C29 1.409(5) . ?
N20 C44 1.486(5) . ?
N21 C1 1.323(5) . ?
N21 C4 1.416(5) . ?
N22 C6 1.350(6) . ?
N22 C9 1.367(5) . ?
N23 C10 1.337(6) . ?
N23 C13 1.386(6) . ?
N24 C15 1.355(5) . ?
N24 C18 1.357(5) . ?
C23 H23 0.9500 . ?
C23 C22 1.394(6) . ?
C23 C24 1.393(6) . ?
C1 C2 1.485(6) . ?
C1 C18 1.460(6) . ?
C2 H2 1.0000 . ?
C2 C3 1.567(6) . ?
C2 C21 1.570(6) . ?
C3 H3 1.0000 . ?
C3 C4 1.548(6) . ?
C3 C44 1.594(6) . ?
C4 C5 1.367(6) . ?
C5 C6 1.477(6) . ?
C5 C51 1.504(6) . ?
C6 C7 1.423(6) . ?
C7 H7 0.9500 . ?
C7 C8 1.391(6) . ?
C8 H8 0.9500 . ?
C8 C9 1.398(6) . ?
C9 C10 1.458(6) . ?
C10 C11 1.447(6) . ?
C11 H11 0.9500 . ?
C11 C12 1.359(7) . ?
C12 H12 0.9500 . ?
C12 C13 1.442(6) . ?
C13 C14 1.396(6) . ?
C14 C15 1.464(6) . ?
C14 C141 1.479(6) . ?
C15 C16 1.416(6) . ?
C16 C17 1.407(6) . ?
C16 H16 1.00(6) . ?
C17 H17 0.9500 . ?
C17 C18 1.402(6) . ?
C21 H21 1.0000 . ?
C21 C22 1.499(6) . ?
C22 C27 1.389(6) . ?
C24 H24 0.9500 . ?
C24 C25 1.380(7) . ?
C25 H25 0.9500 . ?
C25 C26 1.375(6) . ?
C26 H26 0.9500 . ?
C26 C27 1.393(6) . ?
C27 C28 1.476(6) . ?
C28 C29 1.418(6) . ?
C28 C33 1.388(6) . ?
C29 C30 1.405(6) . ?
C30 C31 1.390(6) . ?
C30 C38 1.476(6) . ?
C31 H31 0.9500 . ?
C31 C32 1.401(6) . ?
C32 C33 1.377(6) . ?
C32 C34 1.546(6) . ?
C33 H33 0.9500 . ?
C34 C35 1.542(6) . ?
C34 C36 1.525(7) . ?
C34 C37 1.533(6) . ?
C35 H35A 0.9800 . ?
C35 H35B 0.9800 . ?
C35 H35C 0.9800 . ?
C36 H36A 0.9800 . ?
C36 H36B 0.9800 . ?
C36 H36C 0.9800 . ?
C37 H37A 0.9800 . ?
C37 H37B 0.9800 . ?
C37 H37C 0.9800 . ?
C38 C39 1.402(6) . ?
C38 C43 1.387(6) . ?
C39 H39 0.9500 . ?
C39 C40 1.382(6) . ?
C40 H40 0.9500 . ?
C40 C41 1.382(7) . ?
C41 H41 0.9500 . ?
C41 C42 1.381(7) . ?
C42 H42 0.9500 . ?
C42 C43 1.395(6) . ?
C43 C44 1.523(6) . ?
C44 H44 1.0000 . ?
C51 C52 1.391(7) . ?
C51 C56 1.401(6) . ?
C52 C53 1.417(7) . ?
C52 C57 1.497(7) . ?
C53 H53 0.9500 . ?
C53 C54 1.380(7) . ?
C54 C55 1.372(7) . ?
C54 C58 1.516(7) . ?
C55 H55 0.9500 . ?
C55 C56 1.396(6) . ?
C56 C59 1.504(6) . ?
C57 H57A 0.9800 . ?
C57 H57B 0.9800 . ?
C57 H57C 0.9800 . ?
C58 H58A 0.9800 . ?
C58 H58B 0.9800 . ?
C58 H58C 0.9800 . ?
C59 H59A 0.9800 . ?
C59 H59B 0.9800 . ?
C59 H59C 0.9800 . ?
C141 C142 1.408(6) . ?
C141 C146 1.403(7) . ?
C142 C143 1.397(7) . ?
C142 C147 1.498(8) . ?
C143 H143 0.9500 . ?
C143 C144 1.377(8) . ?
C144 C145 1.376(8) . ?
C144 C148 1.512(7) . ?
C145 H145 0.9500 . ?
C145 C146 1.394(6) . ?
C146 C149 1.497(7) . ?
C147 H14A 0.9800 . ?
C147 H14B 0.9800 . ?
C147 H14C 0.9800 . ?
C148 H14D 0.9800 . ?
C148 H14E 0.9800 . ?
C148 H14F 0.9800 . ?
C149 H14G 0.9800 . ?
C149 H14H 0.9800 . ?
C149 H14I 0.9800 . ?
loop_
_geom_torsion_atom_site_label_1
_geom_torsion_atom_site_label_2
_geom_torsion_atom_site_label_3
_geom_torsion_atom_site_label_4
_geom_torsion
_geom_torsion_site_symmetry_1
_geom_torsion_site_symmetry_2
_geom_torsion_site_symmetry_3
_geom_torsion_site_symmetry_4
_geom_torsion_publ_flag
Ni1 N21 C1 C2 -178.0(3) . . . . ?
Ni1 N21 C1 C18 -0.1(5) . . . . ?
Ni1 N21 C4 C3 -171.2(3) . . . . ?
Ni1 N21 C4 C5 3.0(6) . . . . ?
Ni1 N22 C6 C5 -2.9(6) . . . . ?
Ni1 N22 C6 C7 172.2(3) . . . . ?
Ni1 N22 C9 C8 -173.5(3) . . . . ?
Ni1 N22 C9 C10 0.3(5) . . . . ?
Ni1 N23 C10 C9 -3.9(5) . . . . ?
Ni1 N23 C10 C11 169.9(3) . . . . ?
Ni1 N23 C13 C12 -166.9(3) . . . . ?
Ni1 N23 C13 C14 7.7(7) . . . . ?
Ni1 N24 C15 C14 -1.8(6) . . . . ?
Ni1 N24 C15 C16 173.7(3) . . . . ?
Ni1 N24 C18 C1 -1.7(5) . . . . ?
Ni1 N24 C18 C17 -175.1(3) . . . . ?
N20 C21 C22 C23 151.9(4) . . . . ?
N20 C21 C22 C27 -29.1(6) . . . . ?
N20 C29 C30 C31 176.7(4) . . . . ?
N20 C29 C30 C38 -0.5(6) . . . . ?
N21 Ni1 N22 C6 4.1(4) . . . . ?
N21 Ni1 N22 C9 174.9(3) . . . . ?
N21 Ni1 N24 C15 -170.2(4) . . . . ?
N21 Ni1 N24 C18 1.4(3) . . . . ?
N21 C1 C2 C3 -14.2(5) . . . . ?
N21 C1 C2 C21 94.5(4) . . . . ?
N21 C1 C18 N24 1.1(6) . . . . ?
N21 C1 C18 C17 170.8(6) . . . . ?
N21 C4 C5 C6 -0.5(7) . . . . ?
N21 C4 C5 C51 179.9(4) . . . . ?
N22 Ni1 N21 C1 -175.8(3) . . . . ?
N22 Ni1 N21 C4 -4.1(4) . . . . ?
N22 Ni1 N23 C10 3.4(4) . . . . ?
N22 Ni1 N23 C13 165.6(4) . . . . ?
N22 C6 C7 C8 -0.5(5) . . . . ?
N22 C9 C10 N23 2.2(6) . . . . ?
N22 C9 C10 C11 -168.4(6) . . . . ?
N23 Ni1 N22 C6 -172.8(4) . . . . ?
N23 Ni1 N22 C9 -2.0(3) . . . . ?
N23 Ni1 N24 C15 6.7(4) . . . . ?
N23 Ni1 N24 C18 178.3(3) . . . . ?
N23 C10 C11 C12 -3.3(6) . . . . ?
N23 C13 C14 C15 0.2(7) . . . . ?
N23 C13 C14 C141 -177.3(4) . . . . ?
N24 Ni1 N21 C1 -0.7(3) . . . . ?
N24 Ni1 N21 C4 171.0(4) . . . . ?
N24 Ni1 N23 C10 -171.8(4) . . . . ?
N24 Ni1 N23 C13 -9.6(4) . . . . ?
N24 C15 C16 C17 -0.9(5) . . . . ?
C23 C22 C27 C26 -0.8(6) . . . . ?
C23 C22 C27 C28 178.2(4) . . . . ?
C23 C24 C25 C26 -2.0(7) . . . . ?
C1 N21 C4 C3 0.5(5) . . . . ?
C1 N21 C4 C5 174.7(4) . . . . ?
C1 C2 C3 C4 13.6(4) . . . . ?
C1 C2 C3 C44 137.9(4) . . . . ?
C1 C2 C21 N20 -155.3(3) . . . . ?
C1 C2 C21 C22 80.8(5) . . . . ?
C2 C1 C18 N24 178.3(5) . . . . ?
C2 C1 C18 C17 -12.0(11) . . . . ?
C2 C3 C4 N21 -9.0(4) . . . . ?
C2 C3 C4 C5 177.9(5) . . . . ?
C2 C3 C44 N20 7.3(4) . . . . ?
C2 C3 C44 C43 132.2(4) . . . . ?
C2 C21 C22 C23 -90.6(5) . . . . ?
C2 C21 C22 C27 88.4(5) . . . . ?
C3 C2 C21 N20 -44.4(4) . . . . ?
C3 C2 C21 C22 -168.3(4) . . . . ?
C3 C4 C5 C6 171.8(4) . . . . ?
C3 C4 C5 C51 -7.8(8) . . . . ?
C4 N21 C1 C2 9.0(5) . . . . ?
C4 N21 C1 C18 -173.1(4) . . . . ?
C4 C3 C44 N20 120.3(4) . . . . ?
C4 C3 C44 C43 -114.8(4) . . . . ?
C4 C5 C6 N22 0.5(7) . . . . ?
C4 C5 C6 C7 -173.2(5) . . . . ?
C4 C5 C51 C52 82.5(6) . . . . ?
C4 C5 C51 C56 -103.1(5) . . . . ?
C5 C6 C7 C8 173.8(5) . . . . ?
C5 C51 C52 C53 174.9(4) . . . . ?
C5 C51 C52 C57 -6.2(6) . . . . ?
C5 C51 C56 C55 -174.8(4) . . . . ?
C5 C51 C56 C59 8.0(6) . . . . ?
C6 N22 C9 C8 -1.0(5) . . . . ?
C6 N22 C9 C10 172.8(4) . . . . ?
C6 C5 C51 C52 -97.1(5) . . . . ?
C6 C5 C51 C56 77.3(5) . . . . ?
C6 C7 C8 C9 -0.1(5) . . . . ?
C7 C8 C9 N22 0.6(5) . . . . ?
C7 C8 C9 C10 -169.4(6) . . . . ?
C8 C9 C10 N23 172.2(6) . . . . ?
C8 C9 C10 C11 1.5(12) . . . . ?
C9 N22 C6 C5 -174.2(4) . . . . ?
C9 N22 C6 C7 0.9(5) . . . . ?
C9 C10 C11 C12 167.7(6) . . . . ?
C10 N23 C13 C12 -4.0(5) . . . . ?
C10 N23 C13 C14 170.6(4) . . . . ?
C10 C11 C12 C13 0.8(6) . . . . ?
C11 C12 C13 N23 1.8(5) . . . . ?
C11 C12 C13 C14 -172.0(5) . . . . ?
C12 C13 C14 C15 173.1(5) . . . . ?
C12 C13 C14 C141 -4.3(8) . . . . ?
C13 N23 C10 C9 -169.2(4) . . . . ?
C13 N23 C10 C11 4.6(6) . . . . ?
C13 C14 C15 N24 -3.1(7) . . . . ?
C13 C14 C15 C16 -177.1(5) . . . . ?
C13 C14 C141 C142 -73.2(6) . . . . ?
C13 C14 C141 C146 107.5(5) . . . . ?
C14 C15 C16 C17 173.8(5) . . . . ?
C14 C141 C142 C143 -177.7(4) . . . . ?
C14 C141 C142 C147 2.1(6) . . . . ?
C14 C141 C146 C145 178.4(4) . . . . ?
C14 C141 C146 C149 -3.1(6) . . . . ?
C15 N24 C18 C1 171.6(4) . . . . ?
C15 N24 C18 C17 -1.9(5) . . . . ?
C15 C14 C141 C142 109.2(5) . . . . ?
C15 C14 C141 C146 -70.0(5) . . . . ?
C15 C16 C17 C18 -0.2(5) . . . . ?
C16 C17 C18 N24 1.2(5) . . . . ?
C16 C17 C18 C1 -168.5(6) . . . . ?
C18 N24 C15 C14 -173.8(4) . . . . ?
C18 N24 C15 C16 1.7(5) . . . . ?
C18 C1 C2 C3 168.6(5) . . . . ?
C18 C1 C2 C21 -82.7(7) . . . . ?
C21 N20 C29 C28 -35.0(5) . . . . ?
C21 N20 C29 C30 148.4(4) . . . . ?
C21 N20 C44 C3 -36.0(4) . . . . ?
C21 N20 C44 C43 -164.2(4) . . . . ?
C21 C2 C3 C4 -102.6(4) . . . . ?
C21 C2 C3 C44 21.8(4) . . . . ?
C21 C22 C27 C26 -179.8(4) . . . . ?
C21 C22 C27 C28 -0.8(6) . . . . ?
C22 C23 C24 C25 2.0(7) . . . . ?
C22 C27 C28 C29 14.2(6) . . . . ?
C22 C27 C28 C33 -167.1(4) . . . . ?
C24 C23 C22 C21 178.4(4) . . . . ?
C24 C23 C22 C27 -0.6(7) . . . . ?
C24 C25 C26 C27 0.6(7) . . . . ?
C25 C26 C27 C22 0.8(6) . . . . ?
C25 C26 C27 C28 -178.1(4) . . . . ?
C26 C27 C28 C29 -166.8(4) . . . . ?
C26 C27 C28 C33 11.9(7) . . . . ?
C27 C28 C29 N20 4.3(6) . . . . ?
C27 C28 C29 C30 -179.1(4) . . . . ?
C27 C28 C33 C32 179.1(4) . . . . ?
C28 C29 C30 C31 0.1(6) . . . . ?
C28 C29 C30 C38 -177.1(4) . . . . ?
C29 N20 C21 C2 -79.2(4) . . . . ?
C29 N20 C21 C22 46.7(5) . . . . ?
C29 N20 C44 C3 91.6(4) . . . . ?
C29 N20 C44 C43 -36.6(5) . . . . ?
C29 C28 C33 C32 -2.2(6) . . . . ?
C29 C30 C31 C32 -2.6(6) . . . . ?
C29 C30 C38 C39 164.8(4) . . . . ?
C29 C30 C38 C43 -12.7(6) . . . . ?
C30 C31 C32 C33 2.7(6) . . . . ?
C30 C31 C32 C34 -179.0(4) . . . . ?
C30 C38 C39 C40 -177.3(4) . . . . ?
C30 C38 C43 C42 177.1(4) . . . . ?
C30 C38 C43 C44 -0.2(6) . . . . ?
C31 C30 C38 C39 -12.3(6) . . . . ?
C31 C30 C38 C43 170.2(4) . . . . ?
C31 C32 C33 C28 -0.2(6) . . . . ?
C31 C32 C34 C35 54.2(5) . . . . ?
C31 C32 C34 C36 -65.4(5) . . . . ?
C31 C32 C34 C37 174.0(4) . . . . ?
C33 C28 C29 N20 -174.5(4) . . . . ?
C33 C28 C29 C30 2.2(6) . . . . ?
C33 C32 C34 C35 -127.6(5) . . . . ?
C33 C32 C34 C36 112.8(5) . . . . ?
C33 C32 C34 C37 -7.8(6) . . . . ?
C34 C32 C33 C28 -178.5(4) . . . . ?
C38 C30 C31 C32 174.5(4) . . . . ?
C38 C39 C40 C41 -1.0(7) . . . . ?
C38 C43 C44 N20 24.0(6) . . . . ?
C38 C43 C44 C3 -97.6(5) . . . . ?
C39 C38 C43 C42 -0.5(6) . . . . ?
C39 C38 C43 C44 -177.8(4) . . . . ?
C39 C40 C41 C42 2.2(7) . . . . ?
C40 C41 C42 C43 -2.5(7) . . . . ?
C41 C42 C43 C38 1.7(7) . . . . ?
C41 C42 C43 C44 179.0(4) . . . . ?
C42 C43 C44 N20 -153.4(4) . . . . ?
C42 C43 C44 C3 85.1(5) . . . . ?
C43 C38 C39 C40 0.2(6) . . . . ?
C44 N20 C21 C2 50.5(4) . . . . ?
C44 N20 C21 C22 176.4(4) . . . . ?
C44 N20 C29 C28 -157.1(4) . . . . ?
C44 N20 C29 C30 26.4(5) . . . . ?
C44 C3 C4 N21 -122.3(4) . . . . ?
C44 C3 C4 C5 64.6(7) . . . . ?
C51 C5 C6 N22 -179.9(4) . . . . ?
C51 C5 C6 C7 6.4(7) . . . . ?
C51 C52 C53 C54 -0.8(7) . . . . ?
C52 C51 C56 C55 -0.4(6) . . . . ?
C52 C51 C56 C59 -177.6(4) . . . . ?
C52 C53 C54 C55 0.7(7) . . . . ?
C52 C53 C54 C58 -178.8(4) . . . . ?
C53 C54 C55 C56 -0.5(7) . . . . ?
C54 C55 C56 C51 0.3(6) . . . . ?
C54 C55 C56 C59 177.5(4) . . . . ?
C56 C51 C52 C53 0.6(6) . . . . ?
C56 C51 C52 C57 179.5(4) . . . . ?
C57 C52 C53 C54 -179.8(4) . . . . ?
C58 C54 C55 C56 179.1(4) . . . . ?
C141 C14 C15 N24 174.5(4) . . . . ?
C141 C14 C15 C16 0.4(7) . . . . ?
C141 C142 C143 C144 -0.9(7) . . . . ?
C142 C141 C146 C145 -0.9(6) . . . . ?
C142 C141 C146 C149 177.6(4) . . . . ?
C142 C143 C144 C145 -0.5(8) . . . . ?
C142 C143 C144 C148 179.2(5) . . . . ?
C143 C144 C145 C146 1.2(8) . . . . ?
C144 C145 C146 C141 -0.5(7) . . . . ?
C144 C145 C146 C149 -179.1(5) . . . . ?
C146 C141 C142 C143 1.6(6) . . . . ?
C146 C141 C142 C147 -178.6(4) . . . . ?
C147 C142 C143 C144 179.3(5) . . . . ?
C148 C144 C145 C146 -178.5(5) . . . . ?
loop_
_exptl_oxdiff_crystal_face_indexfrac_h
_exptl_oxdiff_crystal_face_indexfrac_k
_exptl_oxdiff_crystal_face_indexfrac_l
_exptl_oxdiff_crystal_face_x
_exptl_oxdiff_crystal_face_y
_exptl_oxdiff_crystal_face_z
-5.8165 -9.8553 3.7254 0.0041 0.0263 -0.9996
5.8165 9.8553 -3.7254 -0.0041 -0.0263 0.9996
0.8039 2.4068 9.9609 -0.0807 0.9948 0.0621
-0.8039 -2.4068 -9.9609 0.0807 -0.9948 -0.0621
-4.1674 14.1459 0.6209 0.9996 0.0282 -0.0089
4.1674 -14.1459 -0.6209 -0.9996 -0.0282 0.0089
6.1816 3.0096 2.4049 -0.4241 0.5012 0.7543
-6.3063 8.1559 2.6158 0.8850 0.0742 -0.4595
6.3063 -8.1559 -2.6158 -0.8850 -0.0742 0.4595
-2.0208 -2.9493 11.0355 -0.0959 0.9328 -0.4341
-0.9932 17.0234 0.9543 0.8538 0.2132 0.4310
-5.9911 10.0407 3.9669 0.9277 0.2322 -0.3780
3.0151 10.9685 -8.0448 0.3410 -0.5345 0.7718
-5.9839 -5.0010 -2.0111 0.3110 -0.4752 -0.8010
4.9952 -11.0440 -4.9704 -0.8756 -0.3760 0.2462
