#------------------------------------------------------------------------------
#$Date: 2022-05-17 00:55:14 +0300 (Tue, 17 May 2022) $
#$Revision: 275455 $
#$URL: file:///home/coder/svn-repositories/cod/cif/7/13/01/7130101.cif $
#------------------------------------------------------------------------------
#
# This file is available in the Crystallography Open Database (COD),
# http://www.crystallography.net/
#
# All data on this site have been placed in the public domain by the
# contributors.
#
data_7130101
loop_
_publ_author_name
'Li, Sha'
'Sun, Yahan'
'Li, Xiaofang'
'Smaga, Oskar'
'Koniarz, Sebastian'
'St\;epie\'n, Marcin'
'Chmielewski, Piotr J.'
_publ_section_title
;
 1,3-Dipolar cycloaddition of polycyclic azomethine ylide to norcorroles:
 towards dibenzoullazine-fused derivatives
;
_journal_name_full               'Chemical Communications'
_journal_paper_doi               10.1039/D2CC02071H
_journal_year                    2022
_chemical_formula_moiety         'C84 H68 N6 Ni'
_chemical_formula_sum            'C84 H68 N6 Ni'
_chemical_formula_weight         1220.15
_space_group_crystal_system      triclinic
_space_group_IT_number           2
_space_group_name_Hall           '-P 1'
_space_group_name_H-M_alt        'P -1'
_atom_sites_solution_hydrogens   mixed
_audit_creation_date             2021-05-27
_audit_creation_method
;
Olex2 1.2
(compiled 2018.05.29 svn.r3508 for OlexSys, GUI svn.r5506)
;
_audit_update_record
;
2021-10-20 deposited with the CCDC.	2022-05-16 downloaded from the CCDC.
;
_cell_angle_alpha                68.754(2)
_cell_angle_beta                 68.962(2)
_cell_angle_gamma                83.788(2)
_cell_formula_units_Z            2
_cell_length_a                   14.1056(3)
_cell_length_b                   16.2881(4)
_cell_length_c                   16.8703(3)
_cell_measurement_reflns_used    19233
_cell_measurement_temperature    100.00(10)
_cell_measurement_theta_max      73.7130
_cell_measurement_theta_min      2.9070
_cell_volume                     3370.70(14)
_computing_cell_refinement       'CrysAlisPro 1.171.41.75a (Rigaku OD, 2020)'
_computing_data_collection       'CrysAlisPro 1.171.41.75a (Rigaku OD, 2020)'
_computing_data_reduction        'CrysAlisPro 1.171.41.75a (Rigaku OD, 2020)'
_computing_molecular_graphics    'Olex2 (Dolomanov et al., 2009)'
_computing_publication_material  'Olex2 (Dolomanov et al., 2009)'
_computing_structure_refinement  'ShelXL (Sheldrick, 2015)'
_diffrn_ambient_environment      N~2~
_diffrn_ambient_temperature      100.00(10)
_diffrn_detector                 'Hybrid Pixel Array Detector'
_diffrn_detector_area_resol_mean 10.0000
_diffrn_detector_type            'HyPix-Arc 150'
_diffrn_measured_fraction_theta_full 0.999
_diffrn_measured_fraction_theta_max 0.999
_diffrn_measurement_details
;
List of Runs (angles in degrees, time in seconds):

  # Type    Start    End  Width  t~exp~   \w     \q     \k     \f   Frames
#--------------------------------------------------------------------------
  1  \w     21.00  55.00   0.50    5.00    --   59.45 -98.00-113.00   68
  2  \w    -46.00 -20.00   0.50    5.00    --  -61.22  98.00  -7.00   52
  3  \w     52.00  87.00   0.50    5.00    --   73.94 -98.00-113.00   70
  4  \w    -88.00 -36.00   0.50    5.00    --  -75.17  98.00  -7.00  104
  5  \w     41.00  66.00   0.50    5.00    --   79.20 -98.00-113.00   50
  6  \w     67.00 108.00   0.50    5.00    --   59.45  30.00-150.00   82
  7  \w     23.00  58.00   0.50    5.00    --   59.45 -95.00  90.00   70
  8  \w     61.00  86.00   0.50    5.00    --   59.45  30.00   0.00   50
  9  \w     10.00  37.00   0.50    5.00    --   59.45 -30.00  90.00   54
 10  \w     29.00  57.00   0.50    5.00    --   59.45 -95.00 -30.00   56
 11  \w     20.00  63.00   0.50    5.00    --   59.45 -95.00 150.00   86
 12  \w     10.00  37.00   0.50    5.00    --   59.45 -30.00  60.00   54
 13  \w     70.00 105.00   0.50    5.00    --   73.94-126.00 120.00   70
 14  \w     28.00  54.00   0.50    5.00    --   73.94-126.00 120.00   52
 15  \w   -119.00 -76.00   0.50    5.00    --  -74.81-126.00 -90.00   86
 16  \w   -103.00 -76.00   0.50    5.00    --  -74.81-126.00-180.00   54
 17  \w   -122.00 -78.00   0.50    5.00    --  -75.17 -30.00-120.00   88
 18  \w   -105.00 -29.00   0.50    5.00    --  -75.17 126.00 150.00  152
 19  \w   -124.00 -76.00   0.50    5.00    --  -75.17 -30.00 -30.00   96
 20  \w   -109.00 -77.00   0.50    5.00    --  -75.17 -30.00 -90.00   64
 21  \w     78.00 103.00   0.50    5.00    --   79.20 126.00 150.00   50
 22  \w     41.00  70.00   0.50    5.00    --   79.20 -95.00 -90.00   58
 23  \w     94.00 124.00   0.50    5.00    --   79.20 126.00-150.00   60
 24  \w     58.00  84.00   0.50    5.00    --   79.20-126.00-150.00   52
 25  \w     42.00  67.00   0.50    5.00    --   79.20 -95.00 -60.00   50
 26  \w     40.00  78.00   0.50    5.00    --   79.20 -95.00-150.00   76
 27  \w     54.00  80.00   0.50    5.00    --   79.20-126.00-120.00   52
 28  \w     39.00  73.00   0.50    5.00    --   79.20 -95.00  90.00   68
 29  \w     50.00  76.00   0.50    5.00    --   79.20-126.00 120.00   52
 30  \w     39.00  88.00   0.50    5.00    --   79.20 -95.00  60.00   98
 31  \w   -115.00 -90.00   0.50    5.00    --  -79.25 -78.00-119.73   50
 32  \w   -109.00 -65.00   0.50    5.00    --  -79.25 123.00   3.90   88
 33  \w     39.00  96.00   0.50    5.00    --   83.00-129.00 161.01  114
 34  \w     38.00  70.00   0.50    5.00    --   83.00-131.00 149.16   64
 35  \w     42.00  93.00   0.50    5.00    --   83.00-103.00 -64.74  102
 36  \w     73.00  99.00   0.50    5.00    --   83.00-123.00  45.78   52
 37  \w     37.00  92.00   0.50    5.00    --   83.00-119.00 -17.63  110
 38  \w     44.00  69.00   0.50    5.00    --   83.00-123.00  45.78   50
 39  \w     65.00 124.00   0.50    5.00    --   83.00  23.00 -73.80  118
 40  \w     64.00 124.00   0.50    5.00    --   83.00   7.00-152.94  120
 41  \w     66.00 111.00   0.50    5.00    --   83.00  23.00  -5.50   90
 42  \w     40.00 107.00   0.50    5.00    --   83.00-112.00-155.59  134
 43  \w     75.00 117.00   0.50    5.00    --   83.00-132.00  36.16   84
 44  \w     44.00  70.00   0.50    5.00    --   83.00 -59.00 -26.90   52
 45  \w     89.00 119.00   0.50    5.00    --   83.00-134.00 -35.98   60
 46  \w     80.00 109.00   0.50    5.00    --   83.00-116.00-101.43   58
 47  \w     92.00 128.00   0.50    5.00    --   83.00   8.00 -30.13   72
 48  \w     51.00  76.00   0.50    5.00    --   83.00-134.00 -35.98   50
 49  \w     37.00  76.00   0.50    5.00    --   83.00-116.00-101.43   78
 50  \w     84.00 109.00   0.50    5.00    --   83.00  88.00-154.12   50
 51  \w     57.00 122.00   0.50    5.00    --   83.00-139.00 145.42  130
 52  \w     41.00  90.00   0.50    5.00    --   83.00-118.00 166.89   98
 53  \w     54.00  87.00   0.50    5.00    --   83.00   8.00 -30.13   66
 54  \w     94.00 123.00   0.50    5.00    --   83.00  50.00  -5.69   58
 55  \w     62.00 105.00   0.50    5.00    --   83.00   9.00 125.22   86
 56  \w     47.00  75.00   0.50    5.00    --   83.00 -85.00 -36.46   56
 57  \w     82.00 108.00   0.50    5.00    --   83.00-120.00  62.06   52
 58  \w     41.00  89.00   0.50    5.00    --   83.00-102.00  47.39   96
 59  \w     50.00  75.00   0.50    5.00    --   83.00 -97.00-107.18   50
 60  \w     67.00 130.00   0.50    5.00    --   83.00-151.00-143.06  126
 61  \w     86.00 111.00   0.50    5.00    --   83.00  14.00  57.78   50
 62  \w     53.00  79.00   0.50    5.00    --   83.00  14.00  57.78   52
 63  \w     93.00 119.00   0.50    5.00    --   83.00  68.00  43.01   52
 64  \w    106.00 131.00   0.50    5.00    --   83.00  20.00-147.35   50
 65  \w     72.00 122.00   0.50    5.00    --   83.00  -1.00 -93.95  100
 66  \w     71.00  97.00   0.50    5.00    --   83.00  20.00-147.35   52
;
_diffrn_measurement_device       'four-circle diffractometer'
_diffrn_measurement_device_type  'XtaLAB Synergy R, DW system, HyPix-Arc 150'
_diffrn_measurement_method       '\w scans'
_diffrn_orient_matrix_type
'CrysAlisPro convention (1999,Acta A55,543-557)'
_diffrn_orient_matrix_UB_11      0.0947884000
_diffrn_orient_matrix_UB_12      0.0475501000
_diffrn_orient_matrix_UB_13      -0.0105115000
_diffrn_orient_matrix_UB_21      0.0245478000
_diffrn_orient_matrix_UB_22      -0.0830637000
_diffrn_orient_matrix_UB_23      0.0697857000
_diffrn_orient_matrix_UB_31      0.0641408000
_diffrn_orient_matrix_UB_32      -0.0338224000
_diffrn_orient_matrix_UB_33      -0.0769213000
_diffrn_radiation_monochromator  mirror
_diffrn_radiation_probe          x-ray
_diffrn_radiation_type           CuK\a
_diffrn_radiation_wavelength     1.54184
_diffrn_reflns_av_R_equivalents  0.0721
_diffrn_reflns_av_unetI/netI     0.0532
_diffrn_reflns_Laue_measured_fraction_full 0.999
_diffrn_reflns_Laue_measured_fraction_max 0.999
_diffrn_reflns_limit_h_max       16
_diffrn_reflns_limit_h_min       -16
_diffrn_reflns_limit_k_max       18
_diffrn_reflns_limit_k_min       -18
_diffrn_reflns_limit_l_max       19
_diffrn_reflns_limit_l_min       -19
_diffrn_reflns_number            60317
_diffrn_reflns_point_group_measured_fraction_full 0.999
_diffrn_reflns_point_group_measured_fraction_max 0.999
_diffrn_reflns_theta_full        62.492
_diffrn_reflns_theta_max         62.492
_diffrn_reflns_theta_min         2.912
_diffrn_source                   'Rotating-anode X-ray tube'
_diffrn_source_type              'Rigaku (Cu) X-ray Source'
_exptl_absorpt_coefficient_mu    0.795
_exptl_absorpt_correction_T_max  0.980
_exptl_absorpt_correction_T_min  0.951
_exptl_absorpt_correction_type   analytical
_exptl_absorpt_process_details
;
CrysAlisPro 1.171.41.75a (Rigaku Oxford Diffraction, 2020)
Analytical numeric absorption correction using a multifaceted crystal
model based on expressions derived by R.C. Clark & J.S. Reid.
(Clark, R. C. & Reid, J. S. (1995). Acta Cryst. A51, 887-897)
Empirical absorption correction using spherical harmonics,
implemented in SCALE3 ABSPACK scaling algorithm.
;
_exptl_crystal_colour            'dark orange'
_exptl_crystal_density_diffrn    1.202
_exptl_crystal_description       block
_exptl_crystal_F_000             1284
_exptl_crystal_size_max          0.094
_exptl_crystal_size_mid          0.085
_exptl_crystal_size_min          0.035
_refine_diff_density_max         1.009
_refine_diff_density_min         -0.505
_refine_diff_density_rms         0.077
_refine_ls_extinction_method     none
_refine_ls_goodness_of_fit_ref   1.031
_refine_ls_hydrogen_treatment    mixed
_refine_ls_matrix_type           full
_refine_ls_number_parameters     869
_refine_ls_number_reflns         10751
_refine_ls_number_restraints     57
_refine_ls_restrained_S_all      1.037
_refine_ls_R_factor_all          0.0878
_refine_ls_R_factor_gt           0.0662
_refine_ls_shift/su_max          0.000
_refine_ls_shift/su_mean         0.000
_refine_ls_structure_factor_coef Fsqd
_refine_ls_weighting_details
'w=1/[\s^2^(Fo^2^)+(0.1161P)^2^+3.1588P] where P=(Fo^2^+2Fc^2^)/3'
_refine_ls_weighting_scheme      calc
_refine_ls_wR_factor_gt          0.1825
_refine_ls_wR_factor_ref         0.1966
_reflns_Friedel_coverage         0.000
_reflns_number_gt                7938
_reflns_number_total             10751
_reflns_threshold_expression     'I > 2\s(I)'
_cod_data_source_file            d2cc02071h3.cif
_cod_data_source_block           ov_2os294_auto_sq
_cod_original_cell_volume        3370.70(15)
_cod_database_code               7130101
_shelx_shelxl_version_number     2018/3
_chemical_oxdiff_formula         'C11 H10 N O'
_shelx_space_group_comment
;
The symmetry employed for this shelxl refinement is uniquely defined
by the following loop, which should always be used as a source of
symmetry information in preference to the above space-group names.
They are only intended as comments.
;
_reflns_odcompleteness_completeness 99.36
_reflns_odcompleteness_iscentric 1
_reflns_odcompleteness_theta     74.33
_olex2_refinement_description
;
1. Fixed Uiso
 At 1.2 times of:
  All C(H) groups, All C(H,H) groups
 At 1.5 times of:
  All C(H,H,H) groups
2. Restrained distances
 C125-C124 \\sim C126-C124 \\sim C130-C124 \\sim C129-C124 \\sim C128-C124
\\sim C127-C124
 with sigma of 0.005
3. Uiso/Uaniso restraints and constraints
C125 \\sim C130 \\sim C129 \\sim C127 \\sim C126 \\sim C128: within 1.5A with
sigma of 0.005 and sigma for terminal atoms of 0.005
Uanis(C125) \\sim Ueq, Uanis(C126) \\sim Ueq, Uanis(C127) \\sim Ueq,
Uanis(C128) \\sim Ueq: with sigma of 0.01 and sigma for terminal atoms of 0.01
4. Others
 Sof(C129)=Sof(H12G)=Sof(H12H)=Sof(H12I)=Sof(C125)=Sof(H12J)=Sof(H12K)=
 Sof(H12L)=Sof(C127)=Sof(H12M)=Sof(H12N)=Sof(H12O)=1-FVAR(1)
 Sof(C128)=Sof(H12A)=Sof(H12B)=Sof(H12C)=Sof(C126)=Sof(H12D)=Sof(H12E)=
 Sof(H12F)=Sof(C130)=Sof(H13A)=Sof(H13B)=Sof(H13C)=FVAR(1)
5.a Ternary CH refined with riding coordinates:
 C111(H111), C11(H11), C12(H12), C137(H137)
5.b Aromatic/amide H refined with riding coordinates:
 C53(H53), C31(H31), C123(H123), C17(H17), C23(H23), C55(H55), C153(H153),
 C33(H33), C40(H40), C39(H39), C26(H26), C42(H42), C116(H116), C24(H24),
 C113(H113), C41(H41), C25(H25), C121(H121), C155(H155), C16(H16), C114(H114),
 C115(H115), C135(H135), C134(H134), C132(H132), C133(H133)
5.c Idealised Me refined as rotating group:
 C36(H36A,H36B,H36C), C59(H59A,H59B,H59C), C157(H15A,H15B,H15C), C57(H57A,H57B,
 H57C), C35(H35A,H35B,H35C), C159(H15D,H15E,H15F), C58(H58A,H58B,H58C),
 C158(H15G,H15H,H15I), C37(H37A,H37B,H37C), C128(H12A,H12B,H12C), C126(H12D,
 H12E,H12F), C130(H13A,H13B,H13C), C129(H12G,H12H,H12I), C125(H12J,H12K,H12L),
 C127(H12M,H12N,H12O)
;
_shelx_res_file
;
TITL 2os294_auto_a.res in P-1
    ov_2os294_auto_sq.res
    created by SHELXL-2018/3 at 11:26:39 on 27-May-2021
REM Old TITL 2OS294_auto in P-1 #2
REM SHELXT solution in P-1
REM R1 0.187, Rweak 0.008, Alpha 0.074, Orientation as input
REM Formula found by SHELXT: C86 N6 O3 Ni Cl2
CELL 1.54184 14.105585 16.288059 16.870295 68.7544 68.9622 83.7879
ZERR 2 0.000343 0.000403 0.000317 0.0021 0.0022 0.002
LATT 1
SFAC C H N Ni
UNIT 168 136 12 2
SADI 0.005 C125 C124 C126 C124 C130 C124 C129 C124 C128 C124 C127 C124
SIMU 0.005 0.005 1.5 C125 C130 C129 C127 C126 C128
ISOR 0.01 0.01 C125 C126 C127 C128

L.S. 10 0 113
PLAN  6
TEMP -173
BOND $H
ABIN
fmap 2
acta
OMIT -4 125
OMIT 2 3 7
OMIT 1 3 7
OMIT 1 4 6
OMIT 0 0 1
OMIT 6 -1 2
OMIT 1 -7 6
OMIT 6 -3 1
OMIT 1 -3 2
REM <olex2.extras>
REM <HklSrc "%.\\2OS294_autoabs.hkl">
REM </olex2.extras>

WGHT    0.116100    3.158800
FVAR       1.97574   0.55069
NI1   4    0.701436    0.644983    0.246809    11.00000    0.03362    0.03662 =
         0.03014   -0.02088   -0.02236    0.01777
N21   3    0.784329    0.568902    0.200948    11.00000    0.02865    0.03318 =
         0.02701   -0.01454   -0.01756    0.01154
N20   3    0.955650    0.391514    0.074612    11.00000    0.02333    0.03305 =
         0.02487   -0.01522   -0.01087    0.00974
N22   3    0.756038    0.632363    0.331310    11.00000    0.03442    0.03287 =
         0.03025   -0.01799   -0.02158    0.01438
N24   3    0.637539    0.647176    0.172003    11.00000    0.02963    0.03806 =
         0.03095   -0.01967   -0.01910    0.01207
N110  3    0.493881    0.917705    0.391886    11.00000    0.03262    0.03559 =
         0.03015   -0.01615   -0.01696    0.01463
N23   3    0.611287    0.714944    0.298304    11.00000    0.03806    0.03610 =
         0.03401   -0.02037   -0.02409    0.01623
C32   1    1.115981    0.204634   -0.036999    11.00000    0.02619    0.03007 =
         0.03053   -0.01413   -0.00820    0.00412
C21   1    0.869257    0.432597    0.059332    11.00000    0.02299    0.03340 =
         0.02503   -0.01152   -0.01310    0.00576
C2    1    0.833967    0.481727    0.116281    11.00000    0.02755    0.02995 =
         0.02165   -0.01109   -0.01324    0.00733
C151  1    0.385120    0.759996    0.219071    11.00000    0.02889    0.03238 =
         0.02954   -0.01920   -0.01768    0.01170
C56   1    0.865187    0.346784    0.399317    11.00000    0.02770    0.03589 =
         0.02802   -0.01660   -0.01254    0.01010
C9    1    0.702031    0.668339    0.396464    11.00000    0.03786    0.03761 =
         0.02989   -0.02029   -0.02228    0.01612
C30   1    1.096557    0.293543    0.057087    11.00000    0.02250    0.03245 =
         0.02433   -0.01188   -0.00894    0.00510
C18   1    0.674521    0.594740    0.119794    11.00000    0.03061    0.03322 =
         0.02473   -0.01544   -0.01376    0.00952
C3    1    0.898480    0.466370    0.169088    11.00000    0.02576    0.03169 =
         0.02351   -0.01281   -0.01225    0.00491
C44   1    0.976633    0.412946    0.139724    11.00000    0.02735    0.03079 =
         0.02319   -0.01273   -0.01260    0.00651
C156  1    0.298746    0.716389    0.290889    11.00000    0.03323    0.03312 =
         0.03075   -0.01906   -0.01507    0.01008
C29   1    1.012040    0.333177    0.033619    11.00000    0.02887    0.03034 =
         0.02847   -0.01521   -0.01295    0.00529
C6    1    0.814444    0.566366    0.363762    11.00000    0.02982    0.03061 =
         0.02692   -0.01219   -0.01886    0.01113
C53   1    1.026302    0.364270    0.449012    11.00000    0.02880    0.04532 =
         0.03028   -0.02128   -0.01867    0.01527
AFIX  43
H53   2    1.081332    0.370232    0.466596    11.00000   -1.20000
AFIX   0
C4    1    0.858615    0.515437    0.231732    11.00000    0.02740    0.02922 =
         0.02483   -0.01244   -0.01359    0.00897
C28   1    0.980710    0.312208   -0.027209    11.00000    0.02525    0.03483 =
         0.03070   -0.01596   -0.01294    0.00620
C152  1    0.374758    0.825468    0.141074    11.00000    0.03088    0.03759 =
         0.03343   -0.01946   -0.01969    0.01133
C54   1    0.983035    0.282802    0.479223    11.00000    0.03698    0.03425 =
         0.02901   -0.01265   -0.01701    0.01664
C22   1    0.834010    0.411219   -0.001827    11.00000    0.02779    0.02708 =
         0.02494   -0.01233   -0.01055    0.00341
C27   1    0.889976    0.354382   -0.047077    11.00000    0.02828    0.03126 =
         0.02623   -0.01131   -0.01327    0.00584
C19   1    0.762223    0.547713    0.138707    11.00000    0.02981    0.03111 =
         0.02251   -0.01233   -0.01471    0.00944
C118  1    0.407075    0.891837    0.552894    11.00000    0.03190    0.02631 =
         0.03551   -0.01586   -0.01356    0.00618
C31   1    1.146198    0.230372    0.020646    11.00000    0.03004    0.03582 =
         0.03288   -0.01731   -0.01470    0.01141
AFIX  43
H31   2    1.203555    0.203380    0.035741    11.00000   -1.20000
AFIX   0
C112  1    0.586824    0.853563    0.498303    11.00000    0.03419    0.02752 =
         0.03145   -0.01583   -0.01670    0.00821
C123  1    0.317309    0.889788    0.624854    11.00000    0.03471    0.03652 =
         0.03741   -0.01915   -0.01287    0.00876
AFIX  43
H123  2    0.320408    0.875023    0.683743    11.00000   -1.20000
AFIX   0
C10   1    0.618306    0.716262    0.374371    11.00000    0.03828    0.03793 =
         0.03369   -0.02269   -0.02166    0.01665
C14   1    0.488391    0.732977    0.224792    11.00000    0.03176    0.03292 =
         0.02549   -0.01533   -0.01653    0.01031
C36   1    1.276879    0.120201   -0.077021    11.00000    0.03278    0.04340 =
         0.04161   -0.02485   -0.02099    0.01826
AFIX 137
H36A  2    1.311047    0.176240   -0.120599    11.00000   -1.50000
H36B  2    1.306596    0.072509   -0.099993    11.00000   -1.50000
H36C  2    1.285565    0.108607   -0.018861    11.00000   -1.50000
AFIX   0
C17   1    0.604061    0.600310    0.076949    11.00000    0.03885    0.04676 =
         0.03731   -0.02870   -0.02419    0.01677
AFIX  43
H17   2    0.608774    0.572096    0.035323    11.00000   -1.20000
AFIX   0
C59   1    0.771956    0.333377    0.379699    11.00000    0.03399    0.03645 =
         0.04099   -0.01701   -0.01804    0.00491
AFIX 137
H59A  2    0.792695    0.333256    0.317728    11.00000   -1.50000
H59B  2    0.724855    0.381315    0.386164    11.00000   -1.50000
H59C  2    0.738251    0.276922    0.422567    11.00000   -1.50000
AFIX   0
C23   1    0.743009    0.444642   -0.014055    11.00000    0.03655    0.03680 =
         0.03629   -0.02225   -0.02253    0.01597
AFIX  43
H23   2    0.704257    0.481099    0.018441    11.00000   -1.20000
AFIX   0
C55   1    0.900931    0.275068    0.454999    11.00000    0.03608    0.03079 =
         0.03405   -0.01218   -0.01350    0.00732
AFIX  43
H55   2    0.868441    0.219038    0.477254    11.00000   -1.20000
AFIX   0
C154  1    0.190444    0.808576    0.211577    11.00000    0.02883    0.04170 =
         0.04018   -0.02457   -0.01862    0.01418
C153  1    0.276655    0.848149    0.139138    11.00000    0.03902    0.03340 =
         0.03422   -0.01672   -0.02453    0.01444
AFIX  43
H153  2    0.269054    0.892027    0.086507    11.00000   -1.20000
AFIX   0
C34   1    1.163928    0.125253   -0.063962    11.00000    0.02961    0.03454 =
         0.03986   -0.01976   -0.01345    0.01072
C7    1    0.803567    0.564546    0.451731    11.00000    0.03097    0.03517 =
         0.02992   -0.01602   -0.01785    0.01002
C33   1    1.034661    0.248305   -0.061666    11.00000    0.02765    0.03496 =
         0.03017   -0.01801   -0.01262    0.00692
AFIX  43
H33   2    1.015211    0.233991   -0.103590    11.00000   -1.20000
AFIX   0
C157  1    0.465111    0.870832    0.060143    11.00000    0.03772    0.04400 =
         0.03371   -0.01471   -0.02192    0.01140
AFIX 137
H15A  2    0.488774    0.835319    0.020938    11.00000   -1.50000
H15B  2    0.519745    0.877843    0.080411    11.00000   -1.50000
H15C  2    0.445743    0.928919    0.026294    11.00000   -1.50000
AFIX   0
C38   1    1.128872    0.321091    0.117355    11.00000    0.02457    0.03354 =
         0.02865   -0.01396   -0.01274    0.00714
C51   1    0.912339    0.430025    0.367108    11.00000    0.02490    0.03010 =
         0.02264   -0.01227   -0.01276    0.01111
C5    1    0.867453    0.509124    0.312626    11.00000    0.02774    0.02891 =
         0.02953   -0.01230   -0.01669    0.00712
C119  1    0.402756    0.912035    0.466442    11.00000    0.03422    0.02461 =
         0.03561   -0.01565   -0.01644    0.00921
C122  1    0.223194    0.908707    0.613144    11.00000    0.03219    0.04133 =
         0.05230   -0.02679   -0.01120    0.00747
C52   1    0.993502    0.439486    0.393353    11.00000    0.03093    0.03599 =
         0.02175   -0.01652   -0.01393    0.00987
C40   1    1.246603    0.318410    0.192902    11.00000    0.03227    0.04553 =
         0.03608   -0.01680   -0.02131    0.01227
AFIX  43
H40   2    1.305055    0.294667    0.207847    11.00000   -1.20000
AFIX   0
C57   1    1.047854    0.525788    0.360987    11.00000    0.03340    0.04027 =
         0.03173   -0.01756   -0.02025    0.00961
AFIX 137
H57A  2    1.025378    0.569000    0.313622    11.00000   -1.50000
H57B  2    1.121241    0.518162    0.336356    11.00000   -1.50000
H57C  2    1.032547    0.546732    0.411782    11.00000   -1.50000
AFIX   0
C15   1    0.547365    0.681619    0.167522    11.00000    0.02844    0.03149 =
         0.02760   -0.01235   -0.01680    0.01144
C111  1    0.570905    0.855416    0.415470    11.00000    0.03002    0.03413 =
         0.03086   -0.01698   -0.01553    0.01306
AFIX  13
H111  2    0.636754    0.873736    0.363924    11.00000   -1.20000
AFIX   0
C120  1    0.308980    0.933118    0.451776    11.00000    0.03414    0.02873 =
         0.04260   -0.01853   -0.02174    0.01135
C11   1    0.533849    0.767281    0.418154    11.00000    0.03312    0.03604 =
         0.03345   -0.02017   -0.02101    0.01494
AFIX  13
H11   2    0.492437    0.730194    0.481105    11.00000   -1.20000
AFIX   0
C43   1    1.069781    0.381603    0.156886    11.00000    0.02787    0.03200 =
         0.02276   -0.01121   -0.01230    0.00878
C39   1    1.217507    0.290882    0.137111    11.00000    0.02896    0.03488 =
         0.03041   -0.01348   -0.01326    0.01229
AFIX  43
H39   2    1.258347    0.250411    0.111253    11.00000   -1.20000
AFIX   0
C26   1    0.853170    0.337073   -0.106079    11.00000    0.03587    0.03543 =
         0.03392   -0.02023   -0.01646    0.01056
AFIX  43
H26   2    0.890524    0.299885   -0.138227    11.00000   -1.20000
AFIX   0
C42   1    1.104699    0.413520    0.207816    11.00000    0.03152    0.03766 =
         0.02844   -0.01624   -0.01426    0.01015
AFIX  43
H42   2    1.068608    0.458404    0.229197    11.00000   -1.20000
AFIX   0
C116  1    0.522119    0.870708    0.643677    11.00000    0.03897    0.03563 =
         0.02703   -0.01575   -0.01384    0.00725
AFIX  43
H116  2    0.468649    0.885709    0.689397    11.00000   -1.20000
AFIX   0
C13   1    0.520409    0.749332    0.285072    11.00000    0.03120    0.03244 =
         0.03269   -0.01700   -0.01871    0.01425
C24   1    0.708268    0.425944   -0.072092    11.00000    0.03708    0.04149 =
         0.04197   -0.02462   -0.02708    0.01726
AFIX  43
H24   2    0.646324    0.449617   -0.079911    11.00000   -1.20000
AFIX   0
C113  1    0.681372    0.832887    0.508612    11.00000    0.03296    0.03484 =
         0.03581   -0.01895   -0.01748    0.01082
AFIX  43
H113  2    0.736601    0.821552    0.461544    11.00000   -1.20000
AFIX   0
C8    1    0.733940    0.627598    0.471926    11.00000    0.04181    0.03514 =
         0.03331   -0.02075   -0.02369    0.01389
C41   1    1.190771    0.380966    0.227629    11.00000    0.03184    0.04989 =
         0.03304   -0.02079   -0.01906    0.01041
AFIX  43
H41   2    1.211999    0.401205    0.264972    11.00000   -1.20000
AFIX   0
C25   1    0.764178    0.372279   -0.119227    11.00000    0.03791    0.03867 =
         0.03373   -0.02032   -0.02156    0.00688
AFIX  43
H25   2    0.741368    0.359807   -0.160346    11.00000   -1.20000
AFIX   0
C121  1    0.222959    0.930589    0.525997    11.00000    0.02972    0.03350 =
         0.05478   -0.01931   -0.01810    0.00962
AFIX  43
H121  2    0.159932    0.944782    0.516345    11.00000   -1.20000
AFIX   0
C117  1    0.506145    0.871485    0.566634    11.00000    0.03433    0.02462 =
         0.02865   -0.01184   -0.01372    0.00750
C12   1    0.470195    0.795232    0.353752    11.00000    0.03482    0.03192 =
         0.02692   -0.01469   -0.01867    0.01129
AFIX  13
H12   2    0.397615    0.775197    0.388187    11.00000   -1.20000
AFIX   0
C155  1    0.202069    0.742486    0.286246    11.00000    0.02847    0.04100 =
         0.03757   -0.02340   -0.01096    0.00898
AFIX  43
H155  2    0.143419    0.713957    0.335653    11.00000   -1.20000
AFIX   0
C131  1    0.308590    0.962028    0.359267    11.00000    0.04643    0.02873 =
         0.05077   -0.01947   -0.03139    0.01262
C16   1    0.526558    0.653909    0.105688    11.00000    0.03178    0.05351 =
         0.03875   -0.02904   -0.02351    0.01644
AFIX  43
H16   2    0.469172    0.669299    0.086827    11.00000   -1.20000
AFIX   0
C114  1    0.694827    0.828865    0.587372    11.00000    0.03700    0.04322 =
         0.04302   -0.02308   -0.02435    0.01132
AFIX  43
H114  2    0.758499    0.812846    0.595270    11.00000   -1.20000
AFIX   0
C35   1    1.153254    0.128041   -0.151585    11.00000    0.04340    0.05944 =
         0.06672   -0.04833   -0.03556    0.02811
AFIX 137
H35A  2    1.081138    0.124092   -0.142864    11.00000   -1.50000
H35B  2    1.188720    0.078357   -0.168241    11.00000   -1.50000
H35C  2    1.183036    0.183471   -0.200034    11.00000   -1.50000
AFIX   0
C137  1    0.480263    0.898075    0.318330    11.00000    0.03506    0.03423 =
         0.02916   -0.01453   -0.01867    0.01400
AFIX  13
H137  2    0.544360    0.916201    0.264704    11.00000   -1.20000
AFIX   0
C159  1    0.304219    0.639206    0.371535    11.00000    0.04109    0.04249 =
         0.03195   -0.01298   -0.01288    0.00624
AFIX 137
H15D  2    0.335228    0.589754    0.352061    11.00000   -1.50000
H15E  2    0.235538    0.621794    0.415519    11.00000   -1.50000
H15F  2    0.345464    0.655668    0.399688    11.00000   -1.50000
AFIX   0
C58   1    1.020527    0.201465    0.538877    11.00000    0.04940    0.03860 =
         0.03725   -0.00470   -0.01984    0.01647
AFIX 137
H58A  2    1.057166    0.164631    0.503209    11.00000   -1.50000
H58B  2    0.962384    0.167851    0.589763    11.00000   -1.50000
H58C  2    1.066197    0.219490    0.562111    11.00000   -1.50000
AFIX   0
C124  1    0.125780    0.904868    0.693450    11.00000    0.02739    0.06272 =
         0.05565   -0.03476   -0.00844    0.01291
C115  1    0.615645    0.848155    0.653953    11.00000    0.04670    0.03457 =
         0.03219   -0.01554   -0.02483    0.00841
AFIX  43
H115  2    0.625135    0.846003    0.707640    11.00000   -1.20000
AFIX   0
C135  1    0.404175    0.987611    0.201171    11.00000    0.06331    0.04505 =
         0.04150   -0.02046   -0.03447    0.02112
AFIX  43
H135  2    0.464932    0.981210    0.155576    11.00000   -1.20000
AFIX   0
C158  1    0.085426    0.837331    0.209732    11.00000    0.03589    0.04875 =
         0.05361   -0.02766   -0.02185    0.01460
AFIX 137
H15G  2    0.063262    0.883316    0.236724    11.00000   -1.50000
H15H  2    0.037811    0.786751    0.244385    11.00000   -1.50000
H15I  2    0.087151    0.860560    0.146892    11.00000   -1.50000
AFIX   0
C136  1    0.395175    0.950100    0.291033    11.00000    0.04727    0.03359 =
         0.04352   -0.02183   -0.03043    0.01783
C134  1    0.324648    1.034813    0.176954    11.00000    0.07853    0.05680 =
         0.05410   -0.02617   -0.05080    0.02519
AFIX  43
H134  2    0.330672    1.060325    0.114963    11.00000   -1.20000
AFIX   0
C37   1    1.110846    0.042532    0.014630    11.00000    0.04965    0.03617 =
         0.07190   -0.02714   -0.01286    0.00570
AFIX 137
H37A  2    1.122790    0.039575    0.069344    11.00000   -1.50000
H37B  2    1.138097   -0.009839   -0.000739    11.00000   -1.50000
H37C  2    1.037680    0.044921    0.025582    11.00000   -1.50000
AFIX   0
C132  1    0.229009    1.009644    0.333099    11.00000    0.04567    0.04142 =
         0.06370   -0.02678   -0.04046    0.01840
AFIX  43
H132  2    0.168676    1.018052    0.377915    11.00000   -1.20000
AFIX   0
C133  1    0.237584    1.044338    0.242933    11.00000    0.06635    0.05356 =
         0.08047   -0.03309   -0.05947    0.02927
AFIX  43
H133  2    0.182458    1.075147    0.226525    11.00000   -1.20000
AFIX   0
PART 1
C128  1    0.095656    0.997092    0.696347    21.00000    0.06003    0.05226 =
         0.04561   -0.01110    0.00403    0.03291
AFIX 137
H12A  2    0.155108    1.028569    0.689529    21.00000   -1.50000
H12B  2    0.042412    0.992239    0.754499    21.00000   -1.50000
H12C  2    0.070149    1.029558    0.646869    21.00000   -1.50000
AFIX   0
C126  1    0.139231    0.854672    0.786012    21.00000    0.04651    0.04313 =
         0.06143   -0.00639    0.00566   -0.00062
AFIX 137
H12D  2    0.171976    0.798552    0.785509    21.00000   -1.50000
H12E  2    0.072552    0.843345    0.834270    21.00000   -1.50000
H12F  2    0.181679    0.890344    0.796850    21.00000   -1.50000
AFIX   0
C130  1    0.040797    0.848226    0.699533    21.00000    0.02975    0.07135 =
         0.05484   -0.02555    0.00119    0.00041
AFIX 137
H13A  2    0.023658    0.873543    0.644232    21.00000   -1.50000
H13B  2   -0.019498    0.847133    0.752098    21.00000   -1.50000
H13C  2    0.064258    0.788029    0.706130    21.00000   -1.50000
AFIX   0
PART 0
PART 2
C129  1    0.035078    0.930651    0.659037   -21.00000    0.02989    0.07715 =
         0.05580   -0.02617   -0.00209    0.00591
AFIX 137
H12G  2    0.049398    0.988290    0.610315   -21.00000   -1.50000
H12H  2   -0.026363    0.933643    0.709016   -21.00000   -1.50000
H12I  2    0.024710    0.886362    0.635969   -21.00000   -1.50000
AFIX   0
C125  1    0.112680    0.816634    0.771275   -21.00000    0.05430    0.04559 =
         0.07148   -0.00641    0.01003    0.00267
AFIX 137
H12J  2    0.118495    0.768386    0.748214   -21.00000   -1.50000
H12K  2    0.045627    0.813255    0.817786   -21.00000   -1.50000
H12L  2    0.165522    0.811725    0.797694   -21.00000   -1.50000
AFIX   0
C127  1    0.139230    0.984738    0.717246   -21.00000    0.04574    0.05052 =
         0.04115   -0.01283   -0.00781    0.03407
AFIX 137
H12M  2    0.201444    0.978638    0.731911   -21.00000   -1.50000
H12N  2    0.080704    0.987421    0.769611   -21.00000   -1.50000
H12O  2    0.144092    1.038932    0.665345   -21.00000   -1.50000
AFIX   0
PART 0
H8    2    0.711201    0.639615    0.529160    11.00000   -1.20000
H7    2    0.835937    0.529568    0.493990    11.00000   -1.20000
HKLF 4




REM  2os294_auto_a.res in P-1
REM wR2 = 0.1966, GooF = S = 1.031, Restrained GooF = 1.037 for all data
REM R1 = 0.0662 for 7938 Fo > 4sig(Fo) and 0.0878 for all 10751 data
REM 869 parameters refined using 57 restraints

END

WGHT      0.1161      3.1588

REM Highest difference peak  1.009,  deepest hole -0.505,  1-sigma level  0.077
Q1    1   0.6539  0.5958  0.2857  11.00000  0.05    1.01
Q2    1   0.1107  0.8380  0.7373  11.00000  0.05    0.50
Q3    1   0.4388  0.8739  0.4392  11.00000  0.05    0.41
Q4    1   0.6389  0.5568  0.1613  11.00000  0.05    0.39
Q5    1   0.5979  0.8099  0.3716  11.00000  0.05    0.38
Q6    1   0.6805  0.7391  0.2468  11.00000  0.05    0.36
;
_shelx_res_checksum              45866
_shelx_fab_file
;
-14 -4 1 0.8169 -0.0357
-14 -3 1 -1.0987 0.0473
-14 -3 2 3.8640 0.0656
-14 -2 1 0.8951 -0.0120
-14 -2 2 -3.9662 -0.0635
-14 -1 1 -4.9246 -0.0284
-14 -1 2 0.2473 0.0285
-14 0 1 3.3620 0.0175
-14 0 2 3.6787 0.0120
-14 0 3 5.5732 -0.0366
-14 1 1 6.9795 -0.0087
-14 1 2 5.2546 -0.0363
-14 1 3 -0.8870 0.0511
-14 2 1 1.6503 -0.0147
-14 2 2 -3.8521 0.0470
-14 2 3 -2.5799 -0.0108
-14 3 1 -5.2030 0.0269
-14 3 2 -1.8247 -0.0263
-14 3 3 -1.6099 -0.0316
-14 4 1 2.8472 -0.0471
-14 4 2 0.4812 -0.0292
-14 5 1 0.7691 -0.0112
-14 5 2 1.0550 0.0644
-14 6 1 -0.8322 0.0489
-13 -7 1 0.5760 0.0457
-13 -6 1 0.0487 -0.0004
-13 -6 2 2.8193 -0.0007
-13 -5 1 5.6165 -0.0150
-13 -5 2 1.2039 -0.0148
-13 -4 1 0.2351 0.0357
-13 -4 2 2.1301 0.0654
-13 -4 3 -6.5029 -0.0599
-13 -3 1 -0.3617 0.0356
-13 -3 2 -8.0403 -0.0745
-13 -3 3 -1.4506 0.0375
-13 -3 4 -0.8601 0.0055
-13 -2 1 -4.2240 -0.0664
-13 -2 2 3.7654 0.0335
-13 -2 3 0.0440 0.0087
-13 -2 4 2.4796 0.0152
-13 -1 1 4.2535 0.0502
-13 -1 2 -3.4965 0.0169
-13 -1 3 -1.0109 -0.0355
-13 -1 4 -4.3593 0.0004
-13 0 1 -7.4870 0.0036
-13 0 2 -3.5556 -0.0747
-13 0 3 -4.8393 0.0445
-13 0 4 1.3937 0.0114
-13 0 5 4.2664 -0.0624
-13 1 1 -3.4645 -0.0600
-13 1 2 -1.9296 0.0556
-13 1 3 5.7869 -0.0172
-13 1 4 4.9174 -0.0274
-13 1 5 -0.4322 0.0351
-13 2 1 0.7913 0.0494
-13 2 2 7.8970 -0.0344
-13 2 3 3.7586 -0.0191
-13 2 4 0.8416 0.0258
-13 2 5 4.4987 0.0053
-13 3 1 7.5308 -0.0365
-13 3 2 1.7750 -0.0292
-13 3 3 2.2272 0.0425
-13 3 4 2.8347 0.0154
-13 3 5 -6.0603 -0.0365
-13 4 1 -2.6529 -0.0063
-13 4 2 0.9433 0.0566
-13 4 3 -1.6769 -0.0292
-13 4 4 -7.9614 -0.0348
-13 4 5 -0.9828 0.0416
-13 5 1 1.8173 0.0611
-13 5 2 -1.9290 -0.0598
-13 5 3 -3.6217 -0.0171
-13 5 4 3.2097 0.0371
-13 6 1 0.7516 -0.0725
-13 6 2 1.6856 -0.0099
-13 6 3 4.7286 0.0252
-13 6 4 0.2365 -0.0162
-13 7 1 4.3811 0.0373
-13 7 2 2.7770 0.0667
-13 7 3 -2.4618 -0.0296
-13 8 1 -2.0976 0.0646
-13 8 2 -6.7838 -0.0763
-13 9 1 -7.1006 -0.0776
-12 -9 1 -3.3916 -0.0317
-12 -8 1 2.3275 0.0312
-12 -8 2 0.8808 0.0411
-12 -7 1 -2.2317 0.0112
-12 -7 2 0.2212 -0.0225
-12 -7 3 -0.8961 0.0027
-12 -6 1 1.6434 -0.0432
-12 -6 2 -1.3900 -0.0218
-12 -6 3 1.0593 0.0220
-12 -5 1 -5.6159 0.0009
-12 -5 2 -0.4409 0.0243
-12 -5 3 -1.8041 -0.0329
-12 -5 4 4.8422 -0.0061
-12 -4 1 1.1649 -0.0154
-12 -4 2 1.6179 -0.0710
-12 -4 3 10.1527 0.0199
-12 -4 4 3.4126 0.0052
-12 -4 5 -0.5328 -0.0478
-12 -3 1 5.2239 -0.0617
-12 -3 2 11.5262 0.0488
-12 -3 3 -0.4413 0.0327
-12 -3 4 -1.6639 0.0020
-12 -3 5 -2.9570 0.0171
-12 -2 1 5.5303 0.0611
-12 -2 2 -6.7250 0.0362
-12 -2 3 -2.0528 -0.0293
-12 -2 4 -5.2376 -0.0078
-12 -2 5 -3.0926 0.0203
-12 -2 6 -0.6047 -0.0060
-12 -1 1 -7.1012 -0.0098
-12 -1 2 3.0167 -0.0687
-12 -1 3 -1.7896 0.0210
-12 -1 4 1.3068 0.0222
-12 -1 5 0.4412 -0.0307
-12 -1 6 -1.1832 0.0364
-12 0 1 7.8676 -0.0442
-12 0 2 -0.5779 0.0775
-12 0 3 1.0894 -0.0059
-12 0 4 -3.7878 -0.0438
-12 0 5 -3.5458 0.0337
-12 0 6 1.4193 -0.0276
-12 1 1 -1.8229 0.1127
-12 1 2 -0.6916 -0.0044
-12 1 3 -6.6712 -0.0337
-12 1 4 -2.7889 0.0249
-12 1 5 1.9718 0.0053
-12 1 6 -1.4316 0.0112
-12 2 1 -0.8242 -0.0009
-12 2 2 -7.5317 -0.0244
-12 2 3 -0.9626 0.0233
-12 2 4 1.0694 0.0143
-12 2 5 -1.3392 -0.0063
-12 2 6 4.4655 0.0112
-12 2 7 2.5182 0.0353
-12 3 1 -9.0796 -0.0035
-12 3 2 -0.4375 0.0566
-12 3 3 -0.6724 -0.0104
-12 3 4 0.7328 -0.0347
-12 3 5 8.5045 0.0283
-12 3 6 3.3813 -0.0079
-12 3 7 1.6335 -0.0509
-12 4 1 2.6872 0.0741
-12 4 2 -0.1303 -0.0362
-12 4 3 4.6674 -0.0332
-12 4 4 9.8396 0.0301
-12 4 5 0.9554 -0.0077
-12 4 6 -0.7159 -0.0074
-12 5 1 -1.7201 -0.0682
-12 5 2 4.1099 -0.0161
-12 5 3 4.4622 0.0351
-12 5 4 -4.5237 -0.0069
-12 5 5 -2.8063 -0.0077
-12 5 6 -5.2652 0.0363
-12 6 1 1.2903 0.0203
-12 6 2 -1.3282 0.0656
-12 6 3 -5.2895 -0.0254
-12 6 4 0.3479 -0.0339
-12 6 5 -1.2503 0.0240
-12 6 6 2.5170 -0.0255
-12 7 1 -3.1131 0.0473
-12 7 2 -0.5949 -0.0737
-12 7 3 5.5194 -0.0229
-12 7 4 1.3096 0.0180
-12 7 5 2.5970 -0.0364
-12 7 6 -1.9019 0.0065
-12 8 1 5.7284 -0.0941
-12 8 2 8.4782 0.0303
-12 8 3 1.1233 0.0470
-12 8 4 1.1435 -0.0162
-12 8 5 -3.3652 0.0164
-12 9 1 6.2812 0.0591
-12 9 2 -1.7628 0.0689
-12 9 3 -1.8576 -0.0177
-12 9 4 -6.7531 -0.0033
-12 10 1 -3.3157 0.0428
-12 10 2 -3.0548 -0.0764
-12 10 3 -7.6431 -0.0061
-11 -10 1 1.5089 -0.0391
-11 -10 2 2.6566 -0.0469
-11 -9 1 3.7535 -0.0105
-11 -9 2 0.0704 0.0297
-11 -9 3 0.2193 -0.0064
-11 -8 1 -2.3744 0.0120
-11 -8 2 -0.7449 -0.0133
-11 -8 3 -3.2832 -0.0170
-11 -7 1 1.5240 -0.0147
-11 -7 2 -3.0665 -0.0036
-11 -7 3 0.1783 0.0410
-11 -7 4 -2.0539 0.0290
-11 -6 1 -4.4096 0.0350
-11 -6 2 0.4904 0.0504
-11 -6 3 -1.4313 -0.0152
-11 -6 4 2.8460 -0.0154
-11 -6 5 -1.3498 0.0380
-11 -5 1 5.8261 0.0227
-11 -5 2 0.5332 -0.0359
-11 -5 3 2.2004 -0.0125
-11 -5 4 -4.5337 0.0038
-11 -5 5 -0.5698 -0.0231
-11 -5 6 2.1732 0.0183
-11 -4 1 -3.7468 -0.0152
-11 -4 2 -4.6214 0.0066
-11 -4 3 -10.1661 0.0020
-11 -4 4 1.1840 -0.0176
-11 -4 5 2.4731 0.0046
-11 -4 6 0.8214 -0.0250
-11 -3 1 -9.6033 0.0389
-11 -3 2 -9.8320 0.0166
-11 -3 3 7.1889 -0.0447
-11 -3 4 4.7123 -0.0112
-11 -3 5 5.1076 0.0097
-11 -3 6 4.6446 0.0046
-11 -3 7 1.0370 -0.0408
-11 -2 1 -1.3742 0.0185
-11 -2 2 13.0406 -0.0693
-11 -2 3 4.0710 0.0100
-11 -2 4 6.8847 0.0305
-11 -2 5 2.4732 -0.0097
-11 -2 6 -1.7799 0.0024
-11 -2 7 -1.2900 0.0443
-11 -1 1 10.1428 -0.0747
-11 -1 2 -3.0545 0.0286
-11 -1 3 3.6473 0.0129
-11 -1 4 -1.9814 -0.0280
-11 -1 5 -3.3993 0.0158
-11 -1 6 -3.5520 0.0063
-11 -1 7 -6.5325 -0.0176
-11 0 1 -8.8007 0.0035
-11 0 2 2.9111 -0.0294
-11 0 3 -2.2133 -0.0405
-11 0 4 0.3447 0.0147
-11 0 5 -1.8570 0.0002
-11 0 6 -3.5840 -0.0070
-11 0 7 2.3868 -0.0043
-11 0 8 -0.1527 -0.0057
-11 1 1 5.2410 -0.0781
-11 1 2 -1.1572 -0.0578
-11 1 3 3.5903 0.0328
-11 1 4 -1.4591 0.0068
-11 1 5 -2.2929 -0.0425
-11 1 6 1.3259 -0.0167
-11 1 7 -1.5884 0.0227
-11 1 8 1.9976 -0.0307
-11 2 1 -0.2077 -0.0571
-11 2 2 6.9172 0.0735
-11 2 3 -0.8410 0.0269
-11 2 4 -0.2814 -0.0462
-11 2 5 0.0535 0.0121
-11 2 6 -3.6647 0.0277
-11 2 7 0.4774 -0.0185
-11 2 8 -2.3048 0.0411
-11 3 1 12.1437 0.0719
-11 3 2 -0.0804 0.0122
-11 3 3 0.2244 -0.0146
-11 3 4 -3.3716 0.0367
-11 3 5 -7.0180 0.0089
-11 3 6 -0.4219 -0.0008
-11 3 7 -0.4511 0.0313
-11 3 8 5.0822 -0.0076
-11 4 1 -4.6167 -0.0274
-11 4 2 -2.9307 0.0189
-11 4 3 -8.0363 0.0603
-11 4 4 -8.0698 0.0009
-11 4 5 1.7151 -0.0220
-11 4 6 3.3844 0.0049
-11 4 7 8.5182 0.0110
-11 4 8 1.8574 -0.0169
-11 5 1 -1.9386 0.0552
-11 5 2 -6.9525 0.0806
-11 5 3 -3.3619 -0.0021
-11 5 4 6.1372 -0.0323
-11 5 5 5.5937 0.0225
-11 5 6 7.8555 0.0272
-11 5 7 -0.6444 -0.0188
-11 5 8 0.8742 0.0303
-11 6 1 -3.2317 0.0414
-11 6 2 1.3804 -0.0554
-11 6 3 5.6410 -0.0253
-11 6 4 1.4002 0.0424
-11 6 5 2.2903 0.0032
-11 6 6 -3.7471 -0.0229
-11 6 7 0.6816 0.0329
-11 6 8 -4.4400 -0.0070
-11 7 1 2.0613 -0.0875
-11 7 2 -0.1311 0.0080
-11 7 3 -4.5418 0.0426
-11 7 4 -0.1317 -0.0177
-11 7 5 -1.9265 -0.0277
-11 7 6 3.2897 0.0081
-11 7 7 -2.5217 -0.0048
-11 8 1 -6.5619 0.0549
-11 8 2 -6.3191 0.0355
-11 8 3 2.0659 -0.0276
-11 8 4 1.1011 -0.0147
-11 8 5 4.2051 0.0223
-11 8 6 -2.0091 -0.0008
-11 8 7 0.1202 -0.0111
-11 9 1 -2.9778 0.0121
-11 9 2 5.7329 -0.0645
-11 9 3 3.3122 -0.0078
-11 9 4 5.8485 0.0371
-11 9 5 -0.2634 -0.0228
-11 9 6 1.3599 -0.0340
-11 10 1 6.4167 -0.0769
-11 10 2 3.4359 0.0330
-11 10 3 6.3310 0.0485
-11 10 4 -1.0099 -0.0101
-11 10 5 -0.4976 0.0072
-11 10 6 -3.7339 0.0367
-11 11 1 1.8228 0.0668
-11 11 2 4.9028 0.0300
-11 11 3 -3.0060 -0.0252
-11 11 4 -1.6462 0.0009
-11 12 1 3.2778 0.0004
-11 12 2 -3.0891 -0.0528
-10 -12 1 0.9725 0.0471
-10 -11 1 1.3450 -0.0083
-10 -11 2 -1.6468 -0.0258
-10 -10 1 -4.3602 -0.0078
-10 -10 2 -1.7962 0.0234
-10 -10 3 -0.7261 -0.0204
-10 -9 1 -1.4009 0.0219
-10 -9 2 -0.0347 -0.0130
-10 -9 3 -0.5009 -0.0319
-10 -9 4 3.7885 -0.0098
-10 -8 1 1.5275 -0.0014
-10 -8 2 1.8501 -0.0280
-10 -8 3 6.1155 0.0345
-10 -8 4 0.2517 0.0190
-10 -8 5 2.0528 -0.0339
-10 -7 1 1.8518 -0.0144
-10 -7 2 5.2303 0.0365
-10 -7 3 -2.3812 -0.0232
-10 -7 4 0.2800 -0.0168
-10 -7 5 -4.6845 0.0285
-10 -7 6 -1.3302 -0.0159
-10 -6 1 3.6102 0.0124
-10 -6 2 -3.8635 -0.0278
-10 -6 3 -0.0917 0.0019
-10 -6 4 -5.3823 0.0202
-10 -6 5 0.5711 -0.0023
-10 -6 6 -0.5178 0.0074
-10 -5 1 -6.4167 -0.0132
-10 -5 2 0.4187 0.0124
-10 -5 3 -3.1211 0.0350
-10 -5 4 4.6219 0.0076
-10 -5 5 -0.7659 -0.0118
-10 -5 6 0.1981 0.0009
-10 -5 7 -0.2198 0.0099
-10 -4 1 8.3512 0.0086
-10 -4 2 5.8478 0.0392
-10 -4 3 9.2611 -0.0192
-10 -4 4 -4.2712 -0.0229
-10 -4 5 -0.9196 0.0033
-10 -4 6 -1.0671 -0.0007
-10 -4 7 -1.1937 -0.0306
-10 -3 1 10.2282 0.0033
-10 -3 2 4.7750 -0.0526
-10 -3 3 -13.6765 0.0068
-10 -3 4 -4.0767 0.0140
-10 -3 5 -4.4964 -0.0176
-10 -3 6 -1.8859 -0.0145
-10 -3 7 1.4381 0.0343
-10 -3 8 0.4804 -0.0304
-10 -2 1 -6.6841 -0.0389
-10 -2 2 -19.4226 0.0707
-10 -2 3 -2.8867 0.0387
-10 -2 4 -5.5039 -0.0144
-10 -2 5 1.9421 -0.0024
-10 -2 6 5.6392 0.0198
-10 -2 7 4.7510 -0.0230
-10 -2 8 7.5784 0.0202
-10 -1 1 -12.9817 0.1181
-10 -1 2 4.5852 0.0483
-10 -1 3 -3.6170 -0.0259
-10 -1 4 6.5940 -0.0036
-10 -1 5 7.6866 0.0132
-10 -1 6 6.3678 -0.0085
-10 -1 7 5.1625 0.0090
-10 -1 8 -5.4469 -0.0042
-10 -1 9 -4.0397 0.0374
-10 0 1 8.5356 0.0317
-10 0 2 -4.7610 -0.0548
-10 0 3 6.8744 0.0059
-10 0 4 3.8636 0.0186
-10 0 5 4.0156 -0.0224
-10 0 6 -0.0214 -0.0016
-10 0 7 -7.7612 0.0164
-10 0 8 -2.7880 -0.0046
-10 0 9 -3.7752 -0.0345
-10 1 1 -8.9246 -0.0491
-10 1 2 5.5077 0.0268
-10 1 3 -1.5209 -0.0055
-10 1 4 1.5469 -0.0486
-10 1 5 -2.5824 0.0124
-10 1 6 -5.1435 0.0153
-10 1 7 -0.3770 -0.0331
-10 1 8 -3.9335 0.0034
-10 1 9 0.6983 0.0176
-10 2 1 3.4890 0.0322
-10 2 2 -7.2764 -0.0686
-10 2 3 0.2286 -0.0841
-10 2 4 -2.6107 0.0210
-10 2 5 -0.0599 0.0010
-10 2 6 2.5494 -0.0440
-10 2 7 -2.4041 0.0063
-10 2 8 2.7461 -0.0036
-10 2 9 0.2768 0.0012
-10 3 1 -13.4156 -0.0914
-10 3 2 2.7139 -0.0923
-10 3 3 1.9588 0.0241
-10 3 4 6.7245 0.0171
-10 3 5 5.4771 -0.0287
-10 3 6 -1.7762 0.0006
-10 3 7 0.8687 0.0035
-10 3 8 -4.0778 -0.0002
-10 3 9 -0.5270 -0.0115
-10 4 1 11.8202 -0.0551
-10 4 2 9.2680 0.0214
-10 4 3 11.4281 0.0165
-10 4 4 4.5664 -0.0193
-10 4 5 -4.4203 0.0185
-10 4 6 -4.0163 0.0077
-10 4 7 -8.3152 -0.0292
-10 4 8 -0.2992 0.0055
-10 4 9 -0.5885 0.0144
-10 5 1 7.7630 -0.0057
-10 5 2 7.9350 -0.0303
-10 5 3 -1.3429 -0.0231
-10 5 4 -8.9594 0.0459
-10 5 5 -7.8214 0.0012
-10 5 6 -8.4736 -0.0425
-10 5 7 3.2302 0.0278
-10 5 8 2.6926 0.0099
-10 5 9 6.9119 -0.0030
-10 6 1 2.6215 -0.0351
-10 6 2 -5.0026 0.0163
-10 6 3 -8.3293 0.0734
-10 6 4 -5.4979 0.0116
-10 6 5 -3.4287 -0.0163
-10 6 6 6.8413 0.0436
-10 6 7 2.9659 0.0104
-10 6 8 7.6417 0.0039
-10 6 9 3.0547 0.0013
-10 7 1 -3.8847 0.0575
-10 7 2 -2.3703 0.0618
-10 7 3 -0.3042 -0.0049
-10 7 4 -0.5260 -0.0199
-10 7 5 4.8406 0.0349
-10 7 6 -0.7854 0.0026
-10 7 7 5.7727 -0.0197
-10 7 8 0.6234 -0.0009
-10 7 9 -2.2797 0.0256
-10 8 1 3.3276 0.0007
-10 8 2 1.3270 -0.0612
-10 8 3 -2.4333 -0.0439
-10 8 4 0.6207 0.0178
-10 8 5 -2.5098 -0.0185
-10 8 6 5.2078 -0.0248
-10 8 7 -0.9502 0.0203
-10 8 8 -1.6054 0.0081
-10 8 9 -1.8943 0.0009
-10 9 1 -2.1170 -0.0587
-10 9 2 -6.1834 0.0106
-10 9 3 -2.3026 0.0472
-10 9 4 -3.5831 -0.0123
-10 9 5 3.0641 0.0099
-10 9 6 -2.5568 0.0468
-10 9 7 0.4931 -0.0096
-10 9 8 1.2888 0.0015
-10 10 1 -7.7687 0.0626
-10 10 2 -2.9292 0.0462
-10 10 3 -3.6455 -0.0250
-10 10 4 2.7985 -0.0036
-10 10 5 0.4975 0.0215
-10 10 6 5.9003 -0.0219
-10 10 7 3.4380 -0.0202
-10 10 8 -0.6465 -0.0052
-10 11 1 -2.1959 0.0105
-10 11 2 -2.7916 -0.0476
-10 11 3 4.3600 -0.0082
-10 11 4 3.8667 0.0264
-10 11 5 8.2297 -0.0150
-10 11 6 1.2346 -0.0080
-10 11 7 -2.7233 0.0224
-10 12 1 -2.3085 -0.0672
-10 12 2 4.8991 0.0180
-10 12 3 4.4048 0.0562
-10 12 4 6.7643 -0.0323
-10 12 5 -1.8861 -0.0008
-10 13 1 4.2052 0.0521
-10 13 2 2.7842 0.0581
-10 13 3 3.6790 -0.0369
-9 -13 1 -1.8966 0.0377
-9 -12 1 0.4221 -0.0096
-9 -12 2 -0.7823 -0.0173
-9 -11 1 0.2109 -0.0172
-9 -11 2 2.9188 0.0212
-9 -11 3 -2.4078 0.0061
-9 -10 1 4.7589 0.0222
-9 -10 2 -1.6689 0.0030
-9 -10 3 1.3029 -0.0171
-9 -10 4 2.1131 -0.0257
-9 -9 1 -2.5607 -0.0170
-9 -9 2 1.3387 -0.0284
-9 -9 3 -0.1681 0.0242
-9 -9 4 -5.2056 0.0106
-9 -9 5 -1.3737 -0.0354
-9 -8 1 0.4861 -0.0359
-9 -8 2 -4.4280 0.0472
-9 -8 3 -7.9631 -0.0134
-9 -8 4 1.3833 -0.0239
-9 -8 5 0.2017 0.0189
-9 -8 6 6.0167 -0.0093
-9 -7 1 -7.2409 0.0494
-9 -7 2 -5.4783 -0.0189
-9 -7 3 7.1926 -0.0078
-9 -7 4 2.9725 0.0051
-9 -7 5 6.9766 0.0076
-9 -7 6 -0.3404 0.0036
-9 -7 7 1.3146 0.0082
-9 -6 1 0.3279 -0.0266
-9 -6 2 9.2812 -0.0118
-9 -6 3 0.3375 0.0212
-9 -6 4 4.3688 0.0176
-9 -6 5 -3.8214 -0.0136
-9 -6 6 -0.5783 0.0197
-9 -6 7 -5.1757 0.0011
-9 -5 1 6.5850 -0.0212
-9 -5 2 -4.0476 0.0340
-9 -5 3 1.9823 -0.0094
-9 -5 4 -5.9670 -0.0277
-9 -5 5 0.4146 0.0266
-9 -5 6 -4.7696 -0.0070
-9 -5 7 0.1948 -0.0110
-9 -5 8 1.8150 0.0052
-9 -4 1 -12.0253 0.0270
-9 -4 2 -2.9378 -0.0346
-9 -4 3 -6.3714 -0.0043
-9 -4 4 5.4796 0.0322
-9 -4 5 -2.1735 -0.0055
-9 -4 6 3.3506 -0.0082
-9 -4 7 1.3202 0.0080
-9 -4 8 0.0810 -0.0074
-9 -4 9 0.1832 -0.0090
-9 -3 1 -2.9355 -0.0198
-9 -3 2 1.9809 0.0234
-9 -3 3 16.4243 0.0211
-9 -3 4 1.5675 -0.0032
-9 -3 5 5.7607 -0.0084
-9 -3 6 -0.3179 0.0044
-9 -3 7 -1.7460 -0.0124
-9 -3 8 -0.7035 -0.0011
-9 -3 9 -3.1257 -0.0045
-9 -2 1 14.5932 0.0077
-9 -2 2 22.2252 -0.0184
-9 -2 3 -0.2974 -0.0300
-9 -2 4 3.6739 -0.0177
-9 -2 5 -7.2250 0.0120
-9 -2 6 -6.7470 -0.0140
-9 -2 7 -4.7432 -0.0111
-9 -2 8 -4.8605 0.0053
-9 -2 9 3.9525 0.0085
-9 -1 1 14.5132 -0.0374
-9 -1 2 -8.0534 -0.0426
-9 -1 3 0.1860 0.0167
-9 -1 4 -14.0989 0.0445
-9 -1 5 -9.2482 -0.0093
-9 -1 6 -5.0029 -0.0079
-9 -1 7 0.2656 0.0205
-9 -1 8 10.5000 0.0005
-9 -1 9 5.7364 -0.0117
-9 -1 10 2.1537 0.0316
-9 0 1 -10.9228 -0.0195
-9 0 2 1.6723 0.0723
-9 0 3 -15.0961 0.0480
-9 0 4 -5.6240 -0.0215
-9 0 5 -1.7460 0.0056
-9 0 6 7.0399 0.0233
-9 0 7 12.1710 -0.0114
-9 0 8 3.1042 0.0065
-9 0 9 1.3761 0.0200
-9 0 10 -2.5804 -0.0386
-9 1 1 6.6421 0.0774
-9 1 2 -13.6930 0.0179
-9 1 3 0.7734 -0.0339
-9 1 4 1.4308 0.0191
-9 1 5 9.4674 0.0201
-9 1 6 7.5666 -0.0161
-9 1 7 -0.7647 0.0063
-9 1 8 0.9058 -0.0002
-9 1 9 -3.9741 -0.0187
-9 1 10 -3.9759 0.0197
-9 2 1 -12.1961 0.0066
-9 2 2 6.7851 -0.0143
-9 2 3 1.4060 0.0401
-9 2 4 5.7982 0.0145
-9 2 5 -1.0890 -0.0248
-9 2 6 -3.5795 0.0084
-9 2 7 0.7740 0.0095
-9 2 8 -5.2164 -0.0065
-9 2 9 -3.4387 -0.0028
-9 2 10 -4.9749 -0.0015
-9 2 11 0.9076 0.0356
-9 3 1 11.9768 0.0075
-9 3 2 -4.9988 0.0634
-9 3 3 -3.0927 -0.0087
-9 3 4 -8.5813 -0.0661
-9 3 5 -2.9922 0.0120
-9 3 6 2.8924 0.0206
-9 3 7 -2.5186 -0.0215
-9 3 8 1.4402 0.0002
-9 3 9 -0.6201 0.0249
-9 3 10 3.5236 0.0007
-9 3 11 1.8140 0.0030
-9 4 1 -18.6966 0.0630
-9 4 2 -12.2044 -0.0303
-9 4 3 -9.2596 -0.0901
-9 4 4 3.0669 0.0221
-9 4 5 7.4458 0.0191
-9 4 6 3.1426 -0.0271
-9 4 7 6.3776 0.0092
-9 4 8 -0.3280 -0.0019
-9 4 9 0.3490 -0.0247
-9 4 10 -3.6903 0.0119
-9 4 11 -2.9942 -0.0389
-9 5 1 -9.1116 -0.0044
-9 5 2 -1.1465 -0.0417
-9 5 3 11.5188 0.0391
-9 5 4 11.9704 0.0028
-9 5 5 7.7422 -0.0249
-9 5 6 6.9030 0.0152
-9 5 7 -5.3481 -0.0158
-9 5 8 -5.4945 -0.0177
-9 5 9 -7.8065 0.0065
-9 5 10 -3.0826 -0.0240
-9 5 11 1.3034 0.0275
-9 6 1 5.0669 -0.0048
-9 6 2 13.0513 0.0198
-9 6 3 10.6737 -0.0347
-9 6 4 6.7878 -0.0428
-9 6 5 1.1080 0.0172
-9 6 6 -11.8732 -0.0054
-9 6 7 -7.6677 -0.0199
-9 6 8 -7.5685 -0.0006
-9 6 9 0.8528 0.0032
-9 6 10 5.4088 0.0037
-9 6 11 5.5026 -0.0119
-9 7 1 9.1185 -0.0175
-9 7 2 5.0875 -0.0562
-9 7 3 2.8070 -0.0393
-9 7 4 -3.9077 0.0438
-9 7 5 -12.3139 0.0110
-9 7 6 -3.5987 -0.0235
-9 7 7 -4.8073 0.0185
-9 7 8 4.0490 0.0122
-9 7 9 7.0497 -0.0179
-9 7 10 6.2200 0.0080
-9 8 1 0.6590 -0.0233
-9 8 2 0.9825 0.0189
-9 8 3 -3.4336 0.0770
-9 8 4 -7.0229 0.0109
-9 8 5 0.3183 -0.0217
-9 8 6 -4.2981 0.0282
-9 8 7 4.6424 0.0081
-9 8 8 4.9583 -0.0055
-9 8 9 3.6588 0.0150
-9 8 10 0.1124 -0.0061
-9 9 1 3.4471 0.0394
-9 9 2 0.3006 0.0285
-9 9 3 -1.4303 -0.0429
-9 9 4 1.8802 -0.0370
-9 9 5 -3.8750 0.0051
-9 9 6 4.8759 -0.0149
-9 9 7 1.4911 -0.0069
-9 9 8 0.5829 0.0038
-9 9 9 -0.0730 -0.0094
-9 9 10 -0.2820 0.0005
-9 10 1 3.1281 -0.0235
-9 10 2 0.4677 -0.0627
-9 10 3 0.5016 -0.0123
-9 10 4 -4.5548 0.0316
-9 10 5 1.1458 -0.0063
-9 10 6 -4.3660 -0.0091
-9 10 7 -0.8658 0.0318
-9 10 8 1.5526 0.0080
-9 10 9 1.1836 -0.0079
-9 11 1 -0.1029 -0.0314
-9 11 2 -1.8444 0.0306
-9 11 3 -6.0651 0.0559
-9 11 4 -3.1289 -0.0081
-9 11 5 -6.5298 -0.0128
-9 11 6 2.6990 0.0359
-9 11 7 4.4996 -0.0061
-9 11 8 2.1652 -0.0017
-9 11 9 0.6453 0.0164
-9 12 1 -2.5222 0.0653
-9 12 2 -7.0985 0.0356
-9 12 3 -4.9352 -0.0412
-9 12 4 -4.1769 0.0039
-9 12 5 6.6692 0.0307
-9 12 6 5.0678 -0.0290
-9 12 7 3.3901 0.0035
-9 12 8 2.3453 -0.0021
-9 13 1 -6.9338 -0.0022
-9 13 2 -3.9894 -0.0746
-9 13 3 -0.4084 0.0076
-9 13 4 7.9062 0.0361
-9 13 5 3.6265 -0.0257
-9 13 6 4.1450 -0.0224
-9 14 1 -0.8927 -0.0572
-9 14 2 1.8797 0.0107
-9 14 3 4.9022 0.0416
-9 14 4 0.7272 -0.0073
-8 -13 1 3.1843 -0.0015
-8 -13 2 -2.2228 0.0002
-8 -12 1 -2.4661 -0.0182
-8 -12 2 2.3182 0.0161
-8 -12 3 -0.2489 0.0266
-8 -11 1 1.2225 0.0210
-8 -11 2 -0.8812 -0.0009
-8 -11 3 4.4202 -0.0297
-8 -11 4 -1.6561 -0.0170
-8 -10 1 -2.4804 0.0071
-8 -10 2 3.9299 -0.0161
-8 -10 3 -3.9572 0.0157
-8 -10 4 -1.9017 0.0264
-8 -10 5 2.4104 -0.0437
-8 -9 1 5.6765 -0.0094
-8 -9 2 -3.0208 0.0232
-8 -9 3 2.5926 -0.0028
-8 -9 4 5.7475 -0.0244
-8 -9 5 0.2475 0.0098
-8 -9 6 2.4867 -0.0170
-8 -8 1 -1.2956 0.0312
-8 -8 2 8.1123 -0.0311
-8 -8 3 6.6136 -0.0183
-8 -8 4 -4.6407 0.0090
-8 -8 5 -2.1662 0.0127
-8 -8 6 -6.5208 -0.0050
-8 -8 7 -0.3828 -0.0070
-8 -7 1 11.7863 -0.0442
-8 -7 2 1.8077 -0.0201
-8 -7 3 -12.2461 0.0201
-8 -7 4 -4.7875 0.0251
-8 -7 5 -5.3840 -0.0303
-8 -7 6 4.5192 0.0049
-8 -7 7 0.6690 0.0104
-8 -7 8 1.8659 0.0014
-8 -6 1 -7.4965 -0.0078
-8 -6 2 -14.7805 0.0316
-8 -6 3 -0.2636 -0.0066
-8 -6 4 -1.0889 -0.0402
-8 -6 5 7.3909 0.0207
-8 -6 6 0.5399 -0.0084
-8 -6 7 6.5475 -0.0065
-8 -6 8 2.8768 0.0089
-8 -5 1 -7.6855 0.0371
-8 -5 2 6.7197 -0.0410
-8 -5 3 -0.2878 -0.0170
-8 -5 4 5.6812 0.0422
-8 -5 5 -1.5872 -0.0023
-8 -5 6 7.2949 0.0067
-8 -5 7 -2.9511 0.0166
-8 -5 8 -5.0341 0.0017
-8 -5 9 -6.3655 -0.0009
-8 -4 1 12.5504 -0.0496
-8 -4 2 -1.5934 -0.0042
-8 -4 3 2.9639 0.0329
-8 -4 4 -4.0742 -0.0047
-8 -4 5 6.0732 -0.0126
-8 -4 6 -7.7012 0.0043
-8 -4 7 -3.7798 0.0028
-8 -4 8 -2.3736 -0.0087
-8 -4 9 0.2709 -0.0055
-8 -4 10 1.5029 -0.0175
-8 -3 1 -6.8157 -0.0118
-8 -3 2 -4.4688 0.0198
-8 -3 3 -10.8293 -0.0187
-8 -3 4 3.1749 -0.0337
-8 -3 5 -9.1138 0.0132
-8 -3 6 1.8567 0.0020
-8 -3 7 2.1424 -0.0198
-8 -3 8 1.8835 0.0050
-8 -3 9 2.7393 -0.0003
-8 -3 10 0.9296 0.0141
-8 -2 1 -14.9886 0.0329
-8 -2 2 -16.3107 -0.0227
-8 -2 3 4.6615 -0.0150
-8 -2 4 -3.0800 0.0414
-8 -2 5 12.6827 0.0015
-8 -2 6 6.5611 -0.0064
-8 -2 7 3.7138 0.0299
-8 -2 8 1.9441 -0.0107
-8 -2 9 -3.8546 -0.0012
-8 -2 10 -2.4662 0.0035
-8 -1 1 -10.5384 -0.0258
-8 -1 2 13.2854 0.0159
-8 -1 3 5.7343 0.0341
-8 -1 4 21.6441 -0.0234
-8 -1 5 5.5949 -0.0100
-8 -1 6 0.4284 0.0220
-8 -1 7 -5.1479 -0.0294
-8 -1 8 -10.5712 -0.0035
-8 -1 9 -4.3194 0.0016
-8 -1 10 0.6081 -0.0092
-8 -1 11 1.1512 0.0065
-8 0 1 18.8627 0.0307
-8 0 2 6.7640 0.0074
-8 0 3 21.3508 -0.0376
-8 0 4 -1.1719 -0.0077
-8 0 5 -4.8590 0.0228
-8 0 6 -13.2746 -0.0202
-8 0 7 -12.1117 -0.0021
-8 0 8 -0.7216 0.0006
-8 0 9 3.3363 0.0017
-8 0 10 5.7043 0.0202
-8 0 11 4.5681 -0.0247
-8 1 1 1.2290 -0.0002
-8 1 2 17.7350 -0.0338
-8 1 3 -8.0125 0.0134
-8 1 4 -7.4577 0.0319
-8 1 5 -16.2856 -0.0227
-8 1 6 -7.1468 -0.0059
-8 1 7 4.1873 0.0164
-8 1 8 4.2154 -0.0002
-8 1 9 6.7281 -0.0015
-8 1 10 4.8395 -0.0159
-8 1 11 4.3274 0.0175
-8 2 1 16.6742 -0.0486
-8 2 2 -11.9409 0.0325
-8 2 3 -5.7549 0.0250
-8 2 4 -11.3418 -0.0466
-8 2 5 2.4945 -0.0050
-8 2 6 6.0828 0.0231
-8 2 7 2.7935 -0.0233
-8 2 8 7.2962 -0.0051
-8 2 9 4.3886 0.0087
-8 2 10 3.3091 -0.0029
-8 2 11 -6.3192 -0.0147
-8 2 12 -6.0460 0.0309
-8 3 1 -14.1542 0.0385
-8 3 2 1.8509 -0.0035
-8 3 3 -1.6510 -0.0550
-8 3 4 8.5451 0.0226
-8 3 5 1.1702 0.0195
-8 3 6 -1.5266 -0.0293
-8 3 7 5.3694 0.0207
-8 3 8 0.1671 0.0162
-8 3 9 -1.5364 -0.0150
-8 3 10 -8.0711 0.0137
-8 3 11 -3.6308 0.0055
-8 3 12 -0.8283 -0.0218
-8 4 1 17.6943 -0.0239
-8 4 2 7.3585 -0.0353
-8 4 3 4.7590 0.0617
-8 4 4 -9.2046 0.0117
-8 4 5 -5.7831 -0.0341
-8 4 6 1.4560 0.0285
-8 4 7 -4.0371 0.0185
-8 4 8 -1.3087 -0.0019
-8 4 9 -2.2609 0.0215
-8 4 10 3.4187 -0.0076
-8 4 11 1.9622 0.0216
-8 4 12 -0.3290 0.0125
-8 5 1 3.1896 -0.0405
-8 5 2 -8.4244 0.0546
-8 5 3 -19.2729 -0.0040
-8 5 4 -7.5817 -0.0465
-8 5 5 -1.6372 0.0206
-8 5 6 -3.6192 0.0182
-8 5 7 5.8029 -0.0134
-8 5 8 5.8346 -0.0025
-8 5 9 6.4851 -0.0113
-8 5 10 -0.1103 0.0153
-8 5 11 -3.6827 -0.0147
-8 5 12 -2.1439 0.0060
-8 6 1 -16.6025 0.0302
-8 6 2 -18.4540 0.0020
-8 6 3 -4.3569 -0.0326
-8 6 4 -0.8793 0.0357
-8 6 5 3.8326 0.0163
-8 6 6 15.3638 -0.0302
-8 6 7 9.1429 0.0103
-8 6 8 3.7720 0.0090
-8 6 9 -6.0460 0.0019
-8 6 10 -7.6922 0.0012
-8 6 11 -4.4410 0.0128
-8 6 12 -2.2456 0.0099
-8 7 1 -10.9656 0.0266
-8 7 2 -0.3813 -0.0012
-8 7 3 0.9534 0.0585
-8 7 4 11.2918 0.0066
-8 7 5 18.0551 -0.0323
-8 7 6 3.7002 0.0341
-8 7 7 -1.7108 0.0026
-8 7 8 -10.1274 -0.0171
-8 7 9 -8.3106 0.0073
-8 7 10 -3.8896 -0.0125
-8 7 11 -0.1227 0.0033
-8 7 12 3.5285 -0.0233
-8 8 1 1.4516 -0.0102
-8 8 2 2.3843 0.0300
-8 8 3 12.7472 -0.0320
-8 8 4 11.8010 -0.0487
-8 8 5 -3.1316 0.0283
-8 8 6 -2.9815 -0.0148
-8 8 7 -9.4512 -0.0335
-8 8 8 -5.4724 0.0031
-8 8 9 -2.2069 -0.0080
-8 8 10 2.8430 0.0079
-8 8 11 6.4526 -0.0187
-8 9 1 1.4189 -0.0051
-8 9 2 8.7520 -0.0333
-8 9 3 3.0542 -0.0295
-8 9 4 -4.9047 0.0376
-8 9 5 -0.6189 0.0027
-8 9 6 -8.2405 -0.0238
-8 9 7 -3.1814 0.0157
-8 9 8 -1.3398 0.0167
-8 9 9 3.1092 0.0121
-8 9 10 4.7288 -0.0033
-8 9 11 3.6465 -0.0002
-8 10 1 3.9062 0.0041
-8 10 2 -0.4918 0.0118
-8 10 3 -1.1422 0.0357
-8 10 4 2.4700 -0.0086
-8 10 5 -5.1406 -0.0176
-8 10 6 0.5815 0.0294
-8 10 7 -0.5668 -0.0067
-8 10 8 1.9791 -0.0095
-8 10 9 2.2040 0.0119
-8 10 10 2.9928 -0.0159
-8 10 11 0.9097 0.0072
-8 11 1 0.4773 0.0234
-8 11 2 3.4316 0.0193
-8 11 3 3.8813 -0.0320
-8 11 4 -1.6151 -0.0145
-8 11 5 2.3824 0.0406
-8 11 6 -3.5823 -0.0210
-8 11 7 -1.1822 -0.0164
-8 11 8 0.2357 0.0190
-8 11 9 1.7865 -0.0016
-8 11 10 -0.0486 0.0179
-8 12 1 5.3181 -0.0059
-8 12 2 4.6398 -0.0378
-8 12 3 0.4635 -0.0080
-8 12 4 0.2962 0.0310
-8 12 5 -7.4555 -0.0116
-8 12 6 -2.7367 -0.0022
-8 12 7 -0.7676 0.0097
-8 12 8 1.0592 0.0078
-8 12 9 1.1519 0.0148
-8 13 1 4.9725 -0.0376
-8 13 2 0.1772 0.0208
-8 13 3 -3.8486 0.0310
-8 13 4 -9.0508 -0.0254
-8 13 5 -2.1613 0.0055
-8 13 6 -1.2527 0.0285
-8 13 7 2.5232 -0.0080
-8 13 8 5.1050 -0.0117
-8 14 1 -2.2020 0.0390
-8 14 2 -5.8982 0.0427
-8 14 3 -6.4243 -0.0516
-8 14 4 -0.3271 -0.0072
-8 14 5 -0.4667 0.0430
-8 14 6 4.9897 -0.0228
-8 14 7 6.1919 -0.0277
-8 15 1 -3.4061 0.0353
-8 15 2 -0.9147 -0.0562
-8 15 3 0.3696 -0.0087
-8 15 4 -1.0056 0.0072
-7 -14 1 6.5544 -0.0248
-7 -14 2 -2.4355 0.0192
-7 -13 1 -5.0918 -0.0226
-7 -13 2 1.4718 -0.0000
-7 -13 3 -2.9592 0.0315
-7 -12 1 4.0328 0.0367
-7 -12 2 -4.2165 0.0152
-7 -12 3 -2.6881 -0.0185
-7 -12 4 -4.3711 0.0037
-7 -11 1 -6.1002 -0.0037
-7 -11 2 -1.9349 -0.0180
-7 -11 3 -3.2913 0.0068
-7 -11 4 6.2124 0.0182
-7 -11 5 3.6752 -0.0338
-7 -10 1 0.6991 -0.0428
-7 -10 2 -2.0594 -0.0011
-7 -10 3 7.5635 0.0090
-7 -10 4 -0.1175 -0.0244
-7 -10 5 -3.4730 0.0167
-7 -10 6 -0.2037 -0.0161
-7 -9 1 -5.0131 0.0304
-7 -9 2 4.4697 0.0178
-7 -9 3 -5.4397 -0.0181
-7 -9 4 -3.4940 0.0043
-7 -9 5 2.0391 0.0089
-7 -9 6 -1.5195 -0.0136
-7 -9 7 1.8823 -0.0133
-7 -8 1 1.4765 0.0034
-7 -8 2 -8.8481 -0.0087
-7 -8 3 0.0844 0.0149
-7 -8 4 7.3350 0.0235
-7 -8 5 1.8055 -0.0334
-7 -8 6 4.2980 0.0072
-7 -8 7 -0.7636 0.0161
-7 -8 8 1.2701 -0.0191
-7 -7 1 -10.7701 0.0023
-7 -7 2 6.5034 0.0319
-7 -7 3 13.6614 0.0094
-7 -7 4 3.4563 -0.0433
-7 -7 5 2.0655 0.0271
-7 -7 6 -6.0855 0.0086
-7 -7 7 0.8022 -0.0136
-7 -7 8 -1.6197 0.0170
-7 -7 9 -0.9124 0.0003
-7 -6 1 16.4313 0.0439
-7 -6 2 15.9008 -0.0100
-7 -6 3 -0.7003 -0.0300
-7 -6 4 -2.6770 0.0267
-7 -6 5 -9.0339 0.0026
-7 -6 6 0.7539 -0.0019
-7 -6 7 -6.5438 0.0155
-7 -6 8 -0.8374 -0.0130
-7 -6 9 0.2267 0.0067
-7 -5 1 7.3041 -0.0274
-7 -5 2 -8.3892 -0.0081
-7 -5 3 -3.6456 0.0129
-7 -5 4 -6.8277 -0.0124
-7 -5 5 0.8535 -0.0187
-7 -5 6 -9.6720 0.0005
-7 -5 7 5.3229 -0.0115
-7 -5 8 6.8210 0.0005
-7 -5 9 7.8362 -0.0130
-7 -5 10 0.3030 -0.0107
-7 -4 1 -11.1257 0.0165
-7 -4 2 1.7944 0.0279
-7 -4 3 -3.2759 -0.0169
-7 -4 4 -0.6283 -0.0258
-7 -4 5 -9.8214 0.0269
-7 -4 6 11.9366 0.0094
-7 -4 7 6.0194 -0.0057
-7 -4 8 2.8139 0.0038
-7 -4 9 -4.1498 0.0150
-7 -4 10 -4.4323 0.0048
-7 -3 1 11.9105 0.0398
-7 -3 2 1.2037 -0.0341
-7 -3 3 0.6768 -0.0209
-7 -3 4 -5.8882 0.0459
-7 -3 5 15.2953 0.0003
-7 -3 6 -1.2746 -0.0129
-7 -3 7 -2.7064 0.0168
-7 -3 8 -4.5396 -0.0031
-7 -3 9 -2.7937 -0.0075
-7 -3 10 -2.7578 -0.0063
-7 -3 11 -1.0838 0.0020
-7 -2 1 6.7278 -0.0539
-7 -2 2 4.7795 -0.0041
-7 -2 3 -4.9288 0.0335
-7 -2 4 8.0070 -0.0302
-7 -2 5 -14.0845 -0.0251
-7 -2 6 -4.3152 0.0091
-7 -2 7 -1.7101 -0.0252
-7 -2 8 1.0905 0.0019
-7 -2 9 1.2242 -0.0030
-7 -2 10 1.4211 -0.0075
-7 -2 11 1.0823 -0.0059
-7 -1 1 0.4279 0.0095
-7 -1 2 -15.5430 0.0114
-7 -1 3 -7.6769 -0.0367
-7 -1 4 -23.9305 -0.0154
-7 -1 5 3.0744 0.0307
-7 -1 6 5.2295 -0.0082
-7 -1 7 7.2401 0.0178
-7 -1 8 5.8376 0.0048
-7 -1 9 2.8564 0.0071
-7 -1 10 -0.7353 0.0035
-7 -1 11 -1.0379 0.0073
-7 -1 12 -1.2827 0.0040
-7 0 1 -27.1382 -0.0013
-7 0 2 -13.0961 -0.0248
-7 0 3 -19.3834 0.0081
-7 0 4 16.7041 0.0544
-7 0 5 11.2893 -0.0157
-7 0 6 13.3558 -0.0023
-7 0 7 6.4644 0.0093
-7 0 8 -1.1651 -0.0004
-7 0 9 -5.8038 -0.0129
-7 0 10 -6.4152 -0.0017
-7 0 11 -3.4256 0.0104
-7 0 12 -1.4240 0.0008
-7 1 1 -4.8593 -0.0125
-7 1 2 -9.3261 0.0312
-7 1 3 24.7210 0.0511
-7 1 4 11.0303 -0.0383
-7 1 5 16.4327 -0.0060
-7 1 6 1.8100 0.0260
-7 1 7 -8.1554 -0.0168
-7 1 8 -9.0890 -0.0051
-7 1 9 -7.5634 0.0104
-7 1 10 -2.6036 0.0006
-7 1 11 -0.0197 -0.0048
-7 1 12 6.0453 0.0034
-7 2 1 -6.4112 0.0400
-7 2 2 24.7966 0.0175
-7 2 3 7.2423 -0.0479
-7 2 4 13.8167 0.0179
-7 2 5 -7.3244 0.0362
-7 2 6 -11.7984 -0.0321
-7 2 7 -8.6854 0.0093
-7 2 8 -7.8030 0.0048
-7 2 9 -1.8229 -0.0162
-7 2 10 1.7732 0.0030
-7 2 11 10.2237 -0.0033
-7 2 12 6.3047 -0.0200
-7 2 13 -1.0840 0.0352
-7 3 1 21.9320 -0.0131
-7 3 2 1.2997 -0.0398
-7 3 3 7.0315 0.0434
-7 3 4 -13.0030 0.0294
-7 3 5 -5.8610 -0.0507
-7 3 6 -4.0016 -0.0014
-7 3 7 -6.7615 -0.0100
-7 3 8 1.9575 -0.0170
-7 3 9 6.6625 0.0060
-7 3 10 11.4838 -0.0158
-7 3 11 2.9388 -0.0016
-7 3 12 -2.2681 0.0179
-7 3 13 -2.2973 -0.0388
-7 4 1 -11.9781 -0.0310
-7 4 2 -0.3365 0.0477
-7 4 3 -8.2885 -0.0003
-7 4 4 6.3283 -0.0706
-7 4 5 -0.7116 -0.0007
-7 4 6 -5.0108 0.0023
-7 4 7 5.4662 -0.0154
-7 4 8 6.3603 0.0044
-7 4 9 5.0148 -0.0069
-7 4 10 -3.7804 0.0104
-7 4 11 -3.1832 -0.0028
-7 4 12 -1.5027 -0.0078
-7 4 13 -3.2722 0.0101
-7 5 1 4.5971 0.0560
-7 5 2 8.5626 -0.0150
-7 5 3 18.1473 -0.0622
-7 5 4 -1.9031 0.0358
-7 5 5 -3.9727 0.0198
-7 5 6 4.3736 -0.0271
-7 5 7 -1.6476 0.0192
-7 5 8 -3.2666 0.0141
-7 5 9 -5.0129 0.0070
-7 5 10 0.9032 -0.0048
-7 5 11 2.5554 0.0062
-7 5 12 -0.3781 -0.0058
-7 5 13 -0.3151 0.0074
-7 6 1 20.6174 0.0059
-7 6 2 16.5772 -0.0442
-7 6 3 -8.5640 0.0572
-7 6 4 -5.7085 0.0074
-7 6 5 -3.9543 -0.0444
-7 6 6 -12.3966 0.0288
-7 6 7 -5.9930 0.0003
-7 6 8 0.3658 -0.0180
-7 6 9 7.7368 -0.0054
-7 6 10 5.4912 -0.0031
-7 6 11 0.8129 0.0007
-7 6 12 0.4258 0.0157
-7 6 13 -0.1147 0.0027
-7 7 1 4.9696 -0.0619
-7 7 2 -12.2861 0.0341
-7 7 3 -5.8067 -0.0256
-7 7 4 -13.1778 -0.0615
-7 7 5 -15.7989 0.0234
-7 7 6 1.6710 -0.0091
-7 7 7 8.7305 -0.0135
-7 7 8 11.9627 0.0078
-7 7 9 4.3992 -0.0025
-7 7 10 -0.9901 0.0163
-7 7 11 -1.9118 0.0017
-7 7 12 -4.7021 0.0050
-7 7 13 -6.1474 0.0207
-7 8 1 -10.2167 0.0298
-7 8 2 -5.9228 -0.0243
-7 8 3 -17.3695 -0.0378
-7 8 4 -9.1451 0.0591
-7 8 5 11.3027 0.0196
-7 8 6 11.2843 0.0013
-7 8 7 10.0874 0.0247
-7 8 8 1.0068 -0.0000
-7 8 9 -1.7215 0.0078
-7 8 10 -4.8195 -0.0041
-7 8 11 -8.3077 0.0073
-7 8 12 -5.5976 0.0103
-7 8 13 1.1769 0.0123
-7 9 1 -5.9311 -0.0031
-7 9 2 -13.7552 -0.0117
-7 9 3 1.8970 0.0744
-7 9 4 12.9698 0.0022
-7 9 5 6.8900 -0.0378
-7 9 6 7.8185 0.0254
-7 9 7 0.1800 -0.0038
-7 9 8 -1.0178 -0.0203
-7 9 9 -6.7851 -0.0024
-7 9 10 -7.8271 0.0043
-7 9 11 -2.0234 0.0073
-7 9 12 4.2042 -0.0016
-7 10 1 -6.8611 -0.0374
-7 10 2 6.7396 0.0197
-7 10 3 6.0275 -0.0391
-7 10 4 1.2257 -0.0580
-7 10 5 6.0384 0.0219
-7 10 6 -1.1952 -0.0129
-7 10 7 -2.5911 -0.0219
-7 10 8 -8.3426 0.0067
-7 10 9 -5.0219 -0.0076
-7 10 10 -0.3484 0.0170
-7 10 11 4.0251 -0.0134
-7 10 12 4.8456 -0.0181
-7 11 1 3.8719 -0.0103
-7 11 2 -1.6839 -0.0276
-7 11 3 -0.4912 -0.0173
-7 11 4 4.1353 0.0349
-7 11 5 -2.2596 -0.0177
-7 11 6 -1.1605 -0.0041
-7 11 7 -5.5634 0.0291
-7 11 8 -1.4987 -0.0159
-7 11 9 0.0214 0.0123
-7 11 10 3.2128 0.0063
-7 11 11 4.0242 0.0123
-7 12 1 -5.7311 0.0165
-7 12 2 -0.5026 0.0337
-7 12 3 2.6763 0.0672
-7 12 4 -0.3142 -0.0062
-7 12 5 3.2270 -0.0101
-7 12 6 -1.7680 0.0387
-7 12 7 -0.2599 -0.0012
-7 12 8 -1.1134 -0.0019
-7 12 9 1.1133 0.0074
-7 12 10 1.1990 0.0016
-7 12 11 -0.1890 -0.0095
-7 13 1 -0.5700 0.0527
-7 13 2 3.1196 0.0479
-7 13 3 4.3729 -0.0267
-7 13 4 6.2476 -0.0179
-7 13 5 -0.6132 0.0299
-7 13 6 -0.6604 -0.0004
-7 13 7 -3.3872 0.0010
-7 13 8 -2.4224 0.0041
-7 13 9 -0.5450 -0.0202
-7 13 10 0.8820 0.0164
-7 14 1 4.7490 -0.0167
-7 14 2 6.9593 -0.0752
-7 14 3 4.7564 0.0024
-7 14 4 -2.0488 0.0324
-7 14 5 -2.2558 -0.0291
-7 14 6 -6.0415 -0.0029
-7 14 7 -3.9992 0.0232
-7 14 8 0.9262 -0.0239
-7 14 9 4.1138 0.0171
-7 15 1 4.3454 -0.0931
-7 15 2 0.0248 0.0145
-7 15 3 -2.6146 0.0426
-7 15 4 -2.5424 -0.0304
-7 15 5 -6.4235 -0.0156
-7 15 6 -2.0890 0.0299
-7 15 7 2.6577 -0.0064
-6 -15 1 -2.3778 -0.0140
-6 -14 1 -5.3321 -0.0002
-6 -14 2 4.1016 -0.0175
-6 -14 3 0.8196 0.0521
-6 -13 1 5.7313 0.0201
-6 -13 2 -1.2643 0.0010
-6 -13 3 2.3946 -0.0296
-6 -13 4 0.6401 0.0078
-6 -12 1 -3.4387 -0.0370
-6 -12 2 6.2231 -0.0189
-6 -12 3 3.8010 0.0116
-6 -12 4 3.6693 0.0214
-6 -12 5 -5.9074 -0.0194
-6 -11 1 11.4711 -0.0109
-6 -11 2 2.5762 0.0127
-6 -11 3 0.0478 0.0327
-6 -11 4 -10.5913 -0.0128
-6 -11 5 -3.0916 0.0035
-6 -11 6 2.9166 -0.0138
-6 -10 1 -3.6130 0.0302
-6 -10 2 -3.9442 0.0203
-6 -10 3 -11.0794 -0.0337
-6 -10 4 2.7203 -0.0041
-6 -10 5 3.5793 0.0096
-6 -10 6 -0.4998 0.0062
-6 -10 7 3.1135 -0.0082
-6 -9 1 -0.2451 -0.0180
-6 -9 2 -5.4451 -0.0387
-6 -9 3 7.8094 0.0080
-6 -9 4 -0.1959 0.0188
-6 -9 5 -2.8662 -0.0325
-6 -9 6 2.6469 0.0080
-6 -9 7 -0.7731 0.0041
-6 -9 8 -2.0067 -0.0272
-6 -8 1 -1.2023 -0.0080
-6 -8 2 6.9921 0.0214
-6 -8 3 -7.0810 0.0121
-6 -8 4 -4.1263 -0.0497
-6 -8 5 2.7578 0.0237
-6 -8 6 -1.4644 -0.0034
-6 -8 7 0.3776 -0.0179
-6 -8 8 -3.7212 0.0137
-6 -8 9 0.0456 0.0032
-6 -7 1 3.6668 0.0241
-6 -7 2 -13.5322 -0.0014
-6 -7 3 -5.9500 -0.0412
-6 -7 4 1.7756 0.0357
-6 -7 5 0.2262 0.0065
-6 -7 6 4.8658 -0.0124
-6 -7 7 -2.6818 0.0076
-6 -7 8 2.9234 -0.0140
-6 -7 9 1.9564 0.0057
-6 -7 10 2.9780 0.0146
-6 -6 1 -22.3189 -0.0241
-6 -6 2 -8.0268 -0.0205
-6 -6 3 2.8483 0.0433
-6 -6 4 4.8772 0.0213
-6 -6 5 8.9953 -0.0229
-6 -6 6 -1.3168 0.0071
-6 -6 7 7.0487 -0.0017
-6 -6 8 0.0817 0.0173
-6 -6 9 -0.4399 -0.0037
-6 -6 10 -3.4045 -0.0053
-6 -5 1 -1.3283 0.0070
-6 -5 2 9.4246 0.0407
-6 -5 3 8.8879 0.0167
-6 -5 4 9.0973 -0.0365
-6 -5 5 0.0881 0.0217
-6 -5 6 8.9101 0.0071
-6 -5 7 -8.5269 0.0067
-6 -5 8 -8.1928 0.0017
-6 -5 9 -6.8548 0.0203
-6 -5 10 1.5284 -0.0054
-6 -5 11 2.1823 -0.0099
-6 -4 1 11.0848 0.0063
-6 -4 2 4.8041 -0.0251
-6 -4 3 5.7923 -0.0390
-6 -4 4 2.3746 0.0312
-6 -4 5 6.9151 -0.0143
-6 -4 6 -18.2686 -0.0176
-6 -4 7 -8.9376 0.0028
-6 -4 8 -2.5258 0.0053
-6 -4 9 6.7539 -0.0216
-6 -4 10 4.8989 0.0059
-6 -4 11 3.4146 -0.0136
-6 -3 1 -4.8845 -0.0399
-6 -3 2 4.7367 0.0012
-6 -3 3 5.1832 0.0513
-6 -3 4 1.3459 -0.0166
-6 -3 5 -23.4541 -0.0193
-6 -3 6 -0.8981 0.0102
-6 -3 7 3.0403 -0.0004
-6 -3 8 6.9014 -0.0064
-6 -3 9 2.7707 0.0052
-6 -3 10 3.7668 -0.0182
-6 -3 11 0.5680 0.0190
-6 -3 12 -2.4647 0.0021
-6 -2 1 6.2653 0.0228
-6 -2 2 4.7246 0.0444
-6 -2 3 -2.1938 -0.0175
-6 -2 4 -16.8169 -0.0204
-6 -2 5 12.9148 0.0222
-6 -2 6 3.2061 0.0032
-6 -2 7 2.5142 0.0069
-6 -2 8 -0.8353 -0.0009
-6 -2 9 3.0647 -0.0027
-6 -2 10 -1.1788 0.0151
-6 -2 11 -4.3473 -0.0116
-6 -2 12 -5.0076 -0.0147
-6 -1 1 7.9747 0.0285
-6 -1 2 7.8325 -0.0279
-6 -1 3 2.1963 -0.0234
-6 -1 4 22.0413 0.0358
-6 -1 5 -9.0599 -0.0181
-6 -1 6 -4.9871 -0.0069
-6 -1 7 -3.4906 -0.0017
-6 -1 8 2.1391 0.0005
-6 -1 9 -2.1993 -0.0076
-6 -1 10 -1.7880 -0.0043
-6 -1 11 -0.0781 -0.0000
-6 -1 12 2.8173 0.0009
-6 -1 13 0.1586 -0.0276
-6 0 1 21.7349 -0.0305
-6 0 2 9.3469 -0.0118
-6 0 3 10.1732 0.0426
-6 0 4 -31.2201 -0.0414
-6 0 5 -10.3022 -0.0004
-6 0 6 -5.4491 0.0240
-6 0 7 2.3995 -0.0018
-6 0 8 0.2774 -0.0066
-6 0 9 4.3536 0.0110
-6 0 10 5.5482 -0.0001
-6 0 11 2.4568 0.0020
-6 0 12 -1.4294 0.0005
-6 0 13 -0.0662 0.0175
-6 1 1 -4.1557 -0.0040
-6 1 2 -9.7363 0.0298
-6 1 3 -41.5030 -0.0502
-6 1 4 -4.9634 0.0118
-6 1 5 -6.4412 0.0346
-6 1 6 6.7567 -0.0215
-6 1 7 8.5420 -0.0022
-6 1 8 10.6393 0.0031
-6 1 9 6.2849 -0.0063
-6 1 10 -1.3102 0.0077
-6 1 11 -4.6507 -0.0056
-6 1 12 -4.7946 -0.0048
-6 1 13 -4.1033 0.0055
-6 2 1 -15.0440 0.0415
-6 2 2 -34.9683 -0.0333
-6 2 3 3.4208 0.0193
-6 2 4 -6.5719 0.0430
-6 2 5 15.7421 -0.0288
-6 2 6 16.2975 0.0081
-6 2 7 12.4590 0.0020
-6 2 8 3.2780 -0.0006
-6 2 9 -5.3571 0.0069
-6 2 10 -7.1813 -0.0097
-6 2 11 -8.6877 0.0036
-6 2 12 -3.4542 0.0125
-6 2 13 3.3824 -0.0125
-6 3 1 -24.1931 -0.0366
-6 3 2 7.6442 0.0161
-6 3 3 -4.0491 0.0357
-6 3 4 23.5521 -0.0451
-6 3 5 13.2995 0.0176
-6 3 6 7.2203 0.0171
-6 3 7 -0.9365 -0.0043
-6 3 8 -10.3271 -0.0014
-6 3 9 -11.6012 -0.0010
-6 3 10 -10.4692 0.0092
-6 3 11 -0.0993 0.0006
-6 3 12 5.8103 -0.0114
-6 3 13 4.5882 0.0176
-6 3 14 1.6018 -0.0372
-6 4 1 14.0268 0.0191
-6 4 2 0.3350 0.0053
-6 4 3 21.5761 -0.0604
-6 4 4 0.8633 0.0413
-6 4 5 2.4541 0.0269
-6 4 6 -2.3657 -0.0313
-6 4 7 -12.3606 -0.0027
-6 4 8 -11.2343 0.0072
-6 4 9 -5.0922 0.0016
-6 4 10 6.5395 -0.0029
-6 4 11 6.9506 -0.0071
-6 4 12 4.3481 0.0008
-6 4 13 3.5068 -0.0001
-6 4 14 1.2803 0.0070
-6 5 1 -6.2934 -0.0208
-6 5 2 3.7172 -0.0521
-6 5 3 -13.5264 0.0601
-6 5 4 4.5073 0.0095
-6 5 5 -0.3769 -0.0522
-6 5 6 -9.4049 0.0140
-6 5 7 -3.6611 0.0063
-6 5 8 2.2995 -0.0065
-6 5 9 7.7607 0.0000
-6 5 10 2.7776 -0.0096
-6 5 11 0.5838 -0.0036
-6 5 12 1.2553 0.0081
-6 5 13 -1.5941 -0.0237
-6 5 14 -5.7759 -0.0053
-6 6 1 -11.8346 -0.0587
-6 6 2 -12.8722 0.0556
-6 6 3 16.0176 -0.0074
-6 6 4 5.0695 -0.0465
-6 6 5 -0.9154 0.0300
-6 6 6 5.9696 -0.0016
-6 6 7 3.9596 -0.0071
-6 6 8 1.0704 0.0059
-6 6 9 -4.0689 -0.0085
-6 6 10 -1.2552 0.0011
-6 6 11 1.2406 -0.0032
-6 6 12 -1.1518 -0.0204
-6 6 13 -1.7342 0.0181
-6 6 14 3.8976 -0.0076
-6 7 1 2.1179 0.0895
-6 7 2 23.3284 0.0176
-6 7 3 5.4375 -0.0228
-6 7 4 7.2522 0.0550
-6 7 5 7.6976 0.0081
-6 7 6 -5.7117 -0.0141
-6 7 7 -9.6647 0.0084
-6 7 8 -8.3584 -0.0011
-6 7 9 0.9380 -0.0014
-6 7 10 3.4570 -0.0139
-6 7 11 0.7275 0.0005
-6 7 12 2.9405 0.0130
-6 7 13 5.6247 -0.0159
-6 7 14 -1.1503 0.0107
-6 8 1 18.8509 0.0173
-6 8 2 3.1718 -0.0266
-6 8 3 12.5226 0.0624
-6 8 4 0.4551 -0.0095
-6 8 5 -17.7269 -0.0510
-6 8 6 -13.7066 0.0080
-6 8 7 -5.2465 0.0008
-6 8 8 5.0749 -0.0084
-6 8 9 3.8732 -0.0184
-6 8 10 3.0895 -0.0034
-6 8 11 5.9530 0.0002
-6 8 12 3.0556 -0.0138
-6 8 13 -4.4350 -0.0025
-6 8 14 -3.5855 -0.0108
-6 9 1 3.6064 -0.0483
-6 9 2 10.9608 0.0472
-6 9 3 -11.1468 -0.0413
-6 9 4 -19.9127 -0.0529
-6 9 5 -8.5300 0.0429
-6 9 6 -1.1268 -0.0067
-6 9 7 6.1981 -0.0169
-6 9 8 3.3660 0.0009
-6 9 9 6.9248 -0.0067
-6 9 10 6.2773 0.0040
-6 9 11 -2.3374 -0.0055
-6 9 12 -8.3198 -0.0043
-6 9 13 -5.5288 0.0130
-6 10 1 4.8886 0.0581
-6 10 2 -15.9732 -0.0207
-6 10 3 -10.1813 -0.0188
-6 10 4 -1.0687 0.0677
-6 10 5 -0.1764 -0.0140
-6 10 6 6.3569 -0.0183
-6 10 7 6.1883 0.0297
-6 10 8 10.6249 0.0078
-6 10 9 2.8135 0.0127
-6 10 10 -5.8473 -0.0100
-6 10 11 -8.2788 0.0088
-6 10 12 -4.3960 0.0142
-6 10 13 -1.2026 -0.0264
-6 11 1 -10.3272 -0.0085
-6 11 2 0.9184 -0.0371
-6 11 3 0.7718 0.0280
-6 11 4 -1.0819 -0.0270
-6 11 5 5.6261 -0.0259
-6 11 6 5.7987 0.0162
-6 11 7 7.8533 -0.0144
-6 11 8 -2.9083 0.0073
-6 11 9 -6.3292 -0.0181
-6 11 10 -6.1281 -0.0050
-6 11 11 -2.8943 0.0124
-6 11 12 0.3545 -0.0124
-6 12 1 6.4552 -0.0710
-6 12 2 -1.3254 -0.0089
-6 12 3 -2.0181 -0.0464
-6 12 4 2.6148 -0.0323
-6 12 5 0.7683 0.0209
-6 12 6 2.8168 -0.0303
-6 12 7 -3.8439 -0.0031
-6 12 8 -3.2247 0.0010
-6 12 9 -3.8270 -0.0089
-6 12 10 -1.9033 0.0178
-6 12 11 0.6979 0.0080
-6 12 12 3.8500 -0.0137
-6 13 1 -3.9891 0.0043
-6 13 2 -3.8741 -0.0211
-6 13 3 -2.3327 0.0062
-6 13 4 -2.9649 0.0631
-6 13 5 1.8267 -0.0105
-6 13 6 -0.3577 -0.0130
-6 13 7 1.1421 0.0175
-6 13 8 -1.2742 0.0082
-6 13 9 -1.6751 0.0113
-6 13 10 -0.4545 -0.0252
-6 13 11 1.6083 -0.0256
-6 14 1 -5.5572 0.0342
-6 14 2 -5.4095 0.0524
-6 14 3 -1.7476 0.0523
-6 14 4 4.6880 -0.0116
-6 14 5 3.5898 0.0060
-6 14 6 4.7593 0.0347
-6 14 7 0.7895 0.0013
-6 14 8 -2.5852 0.0085
-6 14 9 -2.5933 -0.0113
-6 14 10 -0.0295 0.0035
-6 15 1 -4.1626 0.0518
-6 15 2 2.1619 0.0201
-6 15 3 6.1106 -0.0416
-6 15 4 4.7799 0.0162
-6 15 5 5.8209 0.0468
-6 15 6 -0.0247 -0.0288
-6 15 7 -4.2082 -0.0037
-6 15 8 -4.1311 0.0243
-6 15 9 -0.6877 0.0015
-6 16 1 3.2234 0.0094
-6 16 2 2.9747 -0.0706
-6 16 3 2.7540 -0.0043
-6 16 4 4.3437 0.0266
-6 16 5 -2.1682 -0.0323
-6 16 6 -4.5484 -0.0008
-6 16 7 -4.3733 0.0190
-5 -15 1 2.4058 -0.0254
-5 -15 2 1.0413 -0.0255
-5 -14 1 2.2051 0.0089
-5 -14 2 -4.6009 0.0183
-5 -14 3 0.5185 -0.0348
-5 -13 1 -6.9102 0.0089
-5 -13 2 0.2475 0.0081
-5 -13 3 -3.3204 0.0025
-5 -13 4 0.1229 -0.0091
-5 -13 5 -3.1102 -0.0033
-5 -12 1 0.1372 0.0323
-5 -12 2 -8.1890 0.0006
-5 -12 3 -2.4194 0.0161
-5 -12 4 -2.5316 -0.0132
-5 -12 5 7.1563 0.0106
-5 -12 6 2.4540 -0.0033
-5 -11 1 -12.3075 0.0127
-5 -11 2 1.5359 0.0186
-5 -11 3 4.2929 -0.0444
-5 -11 4 13.7146 0.0086
-5 -11 5 1.8378 0.0288
-5 -11 6 -3.9835 0.0051
-5 -11 7 -0.5563 -0.0431
-5 -10 1 11.8206 -0.0028
-5 -10 2 10.8792 -0.0470
-5 -10 3 13.2164 0.0092
-5 -10 4 -5.6692 0.0240
-5 -10 5 -4.0751 -0.0214
-5 -10 6 -0.2617 -0.0004
-5 -10 7 -3.3966 0.0168
-5 -10 8 -0.8187 -0.0180
-5 -9 1 6.7621 -0.0351
-5 -9 2 4.1800 -0.0031
-5 -9 3 -12.3455 0.0172
-5 -9 4 0.3994 -0.0293
-5 -9 5 -0.5117 0.0245
-5 -9 6 -5.6599 -0.0093
-5 -9 7 -0.0563 -0.0051
-5 -9 8 3.4667 0.0159
-5 -9 9 6.3345 0.0005
-5 -8 1 -0.8475 -0.0237
-5 -8 2 -7.5865 0.0147
-5 -8 3 8.8115 -0.0332
-5 -8 4 -4.0492 0.0302
-5 -8 5 -7.2612 -0.0107
-5 -8 6 2.1709 -0.0062
-5 -8 7 2.8451 -0.0020
-5 -8 8 5.3090 -0.0043
-5 -8 9 -2.0680 0.0020
-5 -8 10 -3.7759 0.0208
-5 -7 1 3.2159 0.0114
-5 -7 2 13.8609 -0.0243
-5 -7 3 -7.9195 0.0381
-5 -7 4 -4.5744 0.0005
-5 -7 5 4.0886 -0.0286
-5 -7 6 0.2307 0.0015
-5 -7 7 4.1750 0.0075
-5 -7 8 -3.4861 0.0029
-5 -7 9 -2.5420 -0.0040
-5 -7 10 -2.6936 -0.0131
-5 -6 1 16.3998 -0.0023
-5 -6 2 -8.6822 0.0404
-5 -6 3 -1.6247 0.0094
-5 -6 4 -0.7877 -0.0485
-5 -6 5 -5.8648 0.0244
-5 -6 6 2.5608 0.0071
-5 -6 7 -4.9891 -0.0082
-5 -6 8 0.8842 -0.0062
-5 -6 9 0.9286 0.0015
-5 -6 10 2.5258 0.0052
-5 -6 11 -0.0663 -0.0104
-5 -5 1 -13.9664 0.0214
-5 -5 2 -7.1933 0.0075
-5 -5 3 -11.6674 -0.0462
-5 -5 4 -9.6802 0.0494
-5 -5 5 2.2575 -0.0002
-5 -5 6 -3.6773 -0.0076
-5 -5 7 10.4692 0.0080
-5 -5 8 7.6113 0.0024
-5 -5 9 4.1850 -0.0115
-5 -5 10 -2.6202 0.0123
-5 -5 11 -0.1563 -0.0086
-5 -5 12 0.4325 -0.0189
-5 -4 1 -11.6767 0.0244
-5 -4 2 -15.3442 -0.0134
-5 -4 3 -5.2732 0.0577
-5 -4 4 3.7674 -0.0108
-5 -4 5 1.4746 -0.0085
-5 -4 6 21.1676 0.0172
-5 -4 7 7.4993 0.0041
-5 -4 8 -1.2434 -0.0070
-5 -4 9 -9.0780 0.0209
-5 -4 10 -4.5255 -0.0136
-5 -4 11 -3.8892 0.0267
-5 -4 12 -2.1432 -0.0075
-5 -3 1 -10.8099 -0.0133
-5 -3 2 -1.6032 0.0159
-5 -3 3 2.0659 -0.0455
-5 -3 4 8.4942 -0.0345
-5 -3 5 26.4787 0.0189
-5 -3 6 -1.9128 0.0016
-5 -3 7 -7.6130 -0.0126
-5 -3 8 -11.2837 0.0079
-5 -3 9 -5.1453 -0.0062
-5 -3 10 -5.6529 0.0299
-5 -3 11 0.3961 -0.0263
-5 -3 12 4.1475 0.0044
-5 -3 13 6.2449 0.0289
-5 -2 1 -2.7012 0.0073
-5 -2 2 0.9819 -0.0470
-5 -2 3 15.7090 -0.0312
-5 -2 4 22.5034 0.0506
-5 -2 5 -15.5293 0.0017
-5 -2 6 -7.4776 -0.0182
-5 -2 7 -7.8461 -0.0017
-5 -2 8 -2.6875 -0.0025
-5 -2 9 -5.4555 0.0063
-5 -2 10 4.1644 -0.0228
-5 -2 11 8.5959 0.0045
-5 -2 12 7.0439 -0.0085
-5 -2 13 -2.1307 -0.0223
-5 -1 1 -1.4623 -0.0435
-5 -1 2 10.7449 -0.0103
-5 -1 3 5.0674 0.0661
-5 -1 4 -23.6611 -0.0244
-5 -1 5 5.8705 -0.0142
-5 -1 6 -1.7355 0.0052
-5 -1 7 -1.3712 -0.0026
-5 -1 8 -5.0758 -0.0004
-5 -1 9 6.6851 0.0016
-5 -1 10 7.2208 -0.0023
-5 -1 11 1.8982 -0.0046
-5 -1 12 -5.2120 0.0071
-5 -1 13 -1.0831 0.0116
-5 0 1 -1.8172 -0.0029
-5 0 2 -3.6197 0.0393
-5 0 3 -7.1463 -0.0574
-5 0 4 32.2697 -0.0005
-5 0 5 0.9020 0.0188
-5 0 6 -2.8343 -0.0112
-5 0 7 -5.3971 0.0015
-5 0 8 6.8311 0.0134
-5 0 9 1.5487 -0.0041
-5 0 10 -3.2467 0.0018
-5 0 11 -2.6263 -0.0040
-5 0 12 2.7697 -0.0036
-5 0 13 -1.4311 0.0043
-5 0 14 -0.6350 0.0007
-5 1 1 10.6537 0.0296
-5 1 2 20.2255 -0.0434
-5 1 3 42.4147 0.0223
-5 1 4 -12.4689 0.0406
-5 1 5 -7.1043 -0.0183
-5 1 6 -10.6219 0.0085
-5 1 7 -1.0315 0.0178
-5 1 8 -6.8938 0.0026
-5 1 9 -3.5544 -0.0015
-5 1 10 3.9438 -0.0106
-5 1 11 6.3293 0.0096
-5 1 12 -0.1800 0.0128
-5 1 13 0.8150 -0.0110
-5 1 14 1.4926 -0.0022
-5 2 1 28.1788 -0.0460
-5 2 2 27.1454 0.0203
-5 2 3 -27.8754 0.0448
-5 2 4 -5.9502 -0.0548
-5 2 5 -19.3415 -0.0017
-5 2 6 -11.0141 0.0136
-5 2 7 -9.5500 -0.0046
-5 2 8 4.8465 -0.0083
-5 2 9 12.1128 -0.0030
-5 2 10 7.8140 0.0079
-5 2 11 1.3800 0.0010
-5 2 12 0.3298 -0.0097
-5 2 13 -2.4537 0.0025
-5 2 14 -3.9104 -0.0152
-5 3 1 9.3368 0.0428
-5 3 2 -28.5075 0.0532
-5 3 3 -2.4005 -0.0754
-5 3 4 -28.6941 0.0204
-5 3 5 -10.7671 0.0362
-5 3 6 -1.6856 -0.0099
-5 3 7 16.1400 -0.0002
-5 3 8 17.9202 0.0044
-5 3 9 8.7916 -0.0080
-5 3 10 2.2305 -0.0010
-5 3 11 -3.4034 -0.0026
-5 3 12 -7.5824 0.0016
-5 3 13 -5.7404 -0.0039
-5 3 14 -1.2641 0.0162
-5 4 1 -22.2086 0.0428
-5 4 2 -2.1286 -0.0585
-5 4 3 -30.3267 0.0552
-5 4 4 1.8533 0.0352
-5 4 5 7.1273 -0.0360
-5 4 6 19.2606 0.0081
-5 4 7 16.2598 0.0038
-5 4 8 6.6815 -0.0127
-5 4 9 -1.9845 0.0057
-5 4 10 -11.4586 -0.0052
-5 4 11 -11.3951 0.0061
-5 4 12 -5.6698 0.0035
-5 4 13 -0.6990 -0.0114
-5 4 14 2.3628 0.0054
-5 4 15 4.6171 0.0275
-5 5 1 5.3613 -0.0477
-5 5 2 -15.0502 0.0416
-5 5 3 17.5577 -0.0124
-5 5 4 5.3693 -0.0691
-5 5 5 12.9669 0.0192
-5 5 6 9.6829 0.0031
-5 5 7 1.3721 -0.0167
-5 5 8 -7.4820 0.0028
-5 5 9 -14.6384 -0.0014
-5 5 10 -7.9833 0.0187
-5 5 11 -0.9189 0.0047
-5 5 12 2.3158 -0.0158
-5 5 13 5.5648 0.0207
-5 5 14 7.4225 -0.0067
-5 5 15 -0.4002 -0.0274
-5 6 1 -0.5790 0.0369
-5 6 2 16.1635 -0.0270
-5 6 3 -11.7911 -0.0662
-5 6 4 1.5458 0.0436
-5 6 5 2.0273 0.0171
-5 6 6 -3.6444 -0.0158
-5 6 7 -7.5538 0.0077
-5 6 8 -7.8230 0.0150
-5 6 9 -0.0729 0.0212
-5 6 10 1.5947 -0.0013
-5 6 11 2.0001 -0.0082
-5 6 12 4.6520 0.0122
-5 6 13 3.7626 -0.0150
-5 6 14 -4.8486 0.0131
-5 6 15 -2.7560 0.0198
-5 7 1 -1.7518 -0.0392
-5 7 2 -25.6489 -0.0714
-5 7 3 -1.0528 0.0519
-5 7 4 -1.0591 0.0095
-5 7 5 -0.8951 -0.0366
-5 7 6 2.9106 0.0065
-5 7 7 4.5372 0.0012
-5 7 8 4.9352 -0.0035
-5 7 9 -1.3623 -0.0053
-5 7 10 -0.5188 -0.0070
-5 7 11 3.4763 -0.0067
-5 7 12 0.2107 -0.0065
-5 7 13 -4.6761 0.0078
-5 7 14 1.7081 -0.0203
-5 7 15 2.1203 -0.0021
-5 8 1 -22.6331 -0.0629
-5 8 2 3.9322 0.0684
-5 8 3 -3.0282 -0.0107
-5 8 4 7.2493 -0.0492
-5 8 5 14.9709 0.0341
-5 8 6 9.1791 -0.0009
-5 8 7 -0.1392 -0.0097
-5 8 8 -7.8265 0.0093
-5 8 9 -2.2090 0.0083
-5 8 10 1.0781 -0.0004
-5 8 11 -2.4293 0.0010
-5 8 12 -1.4949 0.0026
-5 8 13 4.6644 -0.0029
-5 8 14 2.0877 0.0207
-5 9 1 4.9796 0.0953
-5 9 2 -3.0670 -0.0164
-5 9 3 17.1841 -0.0229
-5 9 4 17.5841 0.0758
-5 9 5 3.6122 0.0048
-5 9 6 -7.8340 -0.0007
-5 9 7 -11.1435 0.0201
-5 9 8 -2.7363 0.0112
-5 9 9 -3.6543 0.0060
-5 9 10 -2.8783 -0.0133
-5 9 11 4.2406 -0.0074
-5 9 12 7.0500 0.0113
-5 9 13 2.2142 -0.0001
-5 9 14 1.0780 -0.0338
-5 10 1 0.4774 -0.0353
-5 10 2 21.4658 -0.0166
-5 10 3 8.0721 0.0690
-5 10 4 -4.0487 -0.0232
-5 10 5 -9.4115 -0.0190
-5 10 6 -10.7471 0.0150
-5 10 7 -5.1501 -0.0182
-5 10 8 -6.9252 -0.0154
-5 10 9 2.1308 -0.0198
-5 10 10 9.4792 -0.0059
-5 10 11 6.8201 -0.0004
-5 10 12 -0.1967 -0.0176
-5 10 13 -2.1031 -0.0151
-5 10 14 -5.0844 -0.0271
-5 11 1 15.6672 -0.0188
-5 11 2 -3.2188 0.0638
-5 11 3 -4.7642 -0.0307
-5 11 4 -5.3156 -0.0362
-5 11 5 -7.8150 0.0318
-5 11 6 -5.2513 -0.0085
-5 11 7 -3.7996 -0.0047
-5 11 8 9.7177 0.0017
-5 11 9 10.4427 0.0169
-5 11 10 4.1597 0.0082
-5 11 11 -1.8964 -0.0156
-5 11 12 -3.6592 0.0085
-5 11 13 -6.8738 -0.0146
-5 12 1 -7.7522 0.0677
-5 12 2 0.4777 -0.0269
-5 12 3 -0.8861 -0.0331
-5 12 4 -3.9182 0.0496
-5 12 5 -1.8594 -0.0056
-5 12 6 0.0362 -0.0005
-5 12 7 9.7636 0.0037
-5 12 8 5.7879 0.0059
-5 12 9 1.7986 0.0193
-5 12 10 -1.6218 -0.0077
-5 12 11 -3.2593 0.0110
-5 12 12 -6.5525 0.0267
-5 12 13 -1.6066 -0.0035
-5 13 1 6.9640 -0.0405
-5 13 2 2.2259 -0.0306
-5 13 3 -0.3563 0.0354
-5 13 4 0.3901 -0.0467
-5 13 5 -0.9719 -0.0261
-5 13 6 2.9655 0.0172
-5 13 7 0.1281 -0.0114
-5 13 8 1.1827 0.0012
-5 13 9 -0.7427 0.0013
-5 13 10 -3.1441 0.0087
-5 13 11 -5.7253 0.0221
-5 13 12 -0.3886 -0.0253
-5 14 1 2.7941 -0.0311
-5 14 2 1.2225 0.0232
-5 14 3 -1.4172 -0.0378
-5 14 4 -5.3938 -0.0238
-5 14 5 -2.8470 0.0282
-5 14 6 -2.5706 -0.0188
-5 14 7 1.6116 -0.0097
-5 14 8 1.0430 0.0007
-5 14 9 -1.1716 -0.0117
-5 14 10 -3.5334 -0.0001
-5 14 11 -0.0703 -0.0376
-5 15 1 0.5600 0.0231
-5 15 2 -5.2929 -0.0167
-5 15 3 -8.1736 -0.0015
-5 15 4 -3.9358 0.0206
-5 15 5 -2.0719 -0.0221
-5 15 6 3.4793 0.0194
-5 15 7 4.2420 0.0161
-5 15 8 2.8894 -0.0284
-5 15 9 -1.0798 0.0251
-5 15 10 -0.7271 0.0064
-5 16 1 -6.9648 -0.0438
-5 16 2 -6.1428 0.0325
-5 16 3 -1.8980 0.0465
-5 16 4 -0.4803 -0.0195
-5 16 5 5.9281 0.0104
-5 16 6 6.5126 0.0331
-5 16 7 4.9989 -0.0077
-5 16 8 -1.1122 0.0272
-5 16 9 -2.5305 0.0034
-5 17 3 0.2092 -0.0215
-5 17 4 6.0731 -0.0103
-5 17 5 4.9427 0.0269
-4 -16 1 0.5962 0.0139
-4 -15 1 0.8824 0.0299
-4 -15 2 2.5894 0.0009
-4 -15 3 1.0045 -0.0425
-4 -14 1 2.6982 -0.0222
-4 -14 2 2.9510 -0.0253
-4 -14 3 -2.9848 -0.0111
-4 -14 4 2.2946 -0.0073
-4 -13 1 5.4128 -0.0137
-4 -13 2 -0.7181 -0.0163
-4 -13 3 4.6427 0.0301
-4 -13 4 -1.7392 -0.0037
-4 -13 5 2.7069 -0.0210
-4 -12 1 1.0652 -0.0178
-4 -12 2 6.3436 0.0274
-4 -12 3 -3.7001 -0.0356
-4 -12 4 -0.1908 0.0026
-4 -12 5 -7.5905 0.0009
-4 -12 6 -0.8694 -0.0065
-4 -12 7 3.6889 -0.0353
-4 -11 1 5.0637 0.0096
-4 -11 2 -10.4947 -0.0193
-4 -11 3 -7.5270 0.0478
-4 -11 4 -13.7187 0.0153
-4 -11 5 0.6309 -0.0163
-4 -11 6 3.8157 0.0121
-4 -11 7 -0.5346 0.0311
-4 -11 8 -2.0104 -0.0368
-4 -10 1 -21.0629 0.0033
-4 -10 2 -12.3586 0.0546
-4 -10 3 -10.3339 0.0333
-4 -10 4 11.0537 -0.0285
-4 -10 5 6.3995 0.0086
-4 -10 6 2.7323 -0.0007
-4 -10 7 3.4547 -0.0039
-4 -10 8 0.8120 0.0197
-4 -10 9 -1.5835 -0.0218
-4 -9 1 -6.7267 0.0409
-4 -9 2 2.1144 0.0376
-4 -9 3 20.6667 -0.0590
-4 -9 4 3.2014 0.0013
-4 -9 5 4.4240 -0.0056
-4 -9 6 5.7051 0.0132
-4 -9 7 -2.0341 -0.0038
-4 -9 8 -6.1317 -0.0094
-4 -9 9 -5.7936 0.0074
-4 -8 1 8.7147 0.0329
-4 -8 2 14.7657 -0.0694
-4 -8 3 -6.3587 0.0174
-4 -8 4 8.6727 0.0009
-4 -8 5 4.7555 -0.0090
-4 -8 6 -8.4103 -0.0058
-4 -8 7 -8.2536 0.0104
-4 -8 8 -5.1446 -0.0084
-4 -8 9 4.1468 -0.0021
-4 -8 10 5.4091 -0.0005
-4 -7 1 -0.4891 -0.0591
-4 -7 2 -9.2091 0.0070
-4 -7 3 17.4017 -0.0091
-4 -7 4 -0.6572 -0.0396
-4 -7 5 -14.1676 0.0151
-4 -7 6 -5.8497 0.0090
-4 -7 7 -2.2686 -0.0181
-4 -7 8 4.8482 0.0061
-4 -7 9 3.9361 0.0008
-4 -7 10 3.3625 0.0153
-4 -7 11 0.9117 -0.0038
-4 -6 1 -2.2253 -0.0157
-4 -6 2 22.8878 -0.0136
-4 -6 3 -8.6653 -0.0608
-4 -6 4 -9.4668 0.0441
-4 -6 5 3.2290 0.0042
-4 -6 6 -0.1571 -0.0129
-4 -6 7 4.2274 0.0085
-4 -6 8 1.4866 -0.0059
-4 -6 9 2.0577 0.0067
-4 -6 10 -0.5235 -0.0054
-4 -6 11 -0.9057 0.0053
-4 -6 12 -3.8733 -0.0181
-4 -5 1 24.7557 0.0081
-4 -5 2 -8.1524 -0.0537
-4 -5 3 7.9879 0.0741
-4 -5 4 9.5739 0.0058
-4 -5 5 -4.3592 -0.0137
-4 -5 6 -0.2520 0.0005
-4 -5 7 -5.5604 -0.0085
-4 -5 8 -1.6993 0.0052
-4 -5 9 -0.9311 0.0042
-4 -5 10 1.6110 -0.0048
-4 -5 11 -1.6971 0.0122
-4 -5 12 -0.1800 0.0132
-4 -4 1 -0.1722 -0.0423
-4 -4 2 22.1377 0.0629
-4 -4 3 -0.6497 -0.0080
-4 -4 4 -15.3223 -0.0205
-4 -4 5 -7.5752 0.0143
-4 -4 6 -14.2863 0.0004
-4 -4 7 -0.6318 0.0002
-4 -4 8 4.7465 0.0103
-4 -4 9 8.6625 -0.0085
-4 -4 10 3.2797 0.0107
-4 -4 11 3.1517 -0.0208
-4 -4 12 1.6857 -0.0004
-4 -4 13 0.6681 0.0102
-4 -3 1 24.5942 0.0410
-4 -3 2 -17.6664 -0.0009
-4 -3 3 -20.0188 -0.0072
-4 -3 4 -12.6378 0.0512
-4 -3 5 -17.4324 -0.0022
-4 -3 6 9.6588 -0.0128
-4 -3 7 12.4693 0.0160
-4 -3 8 13.0855 -0.0025
-4 -3 9 4.4412 0.0062
-4 -3 10 2.5847 -0.0203
-4 -3 11 -4.2832 0.0127
-4 -3 12 -7.0053 -0.0031
-4 -3 13 -7.8574 -0.0118
-4 -2 1 -28.3905 -0.0089
-4 -2 2 -16.4505 -0.0149
-4 -2 3 -18.3308 0.0598
-4 -2 4 -14.0589 -0.0393
-4 -2 5 24.2118 -0.0332
-4 -2 6 14.2449 0.0142
-4 -2 7 10.7678 0.0031
-4 -2 8 0.6668 0.0049
-4 -2 9 -0.4915 -0.0057
-4 -2 10 -11.5311 0.0108
-4 -2 11 -12.7222 0.0119
-4 -2 12 -6.7821 0.0164
-4 -2 13 5.2608 -0.0046
-4 -2 14 2.6169 -0.0107
-4 -1 1 -6.3593 -0.0043
-4 -1 2 -16.9787 0.0643
-4 -1 3 0.9256 -0.0581
-4 -1 4 34.6350 -0.0249
-4 -1 5 4.4738 0.0212
-4 -1 6 5.9261 0.0064
-4 -1 7 -1.8681 -0.0006
-4 -1 8 -1.7441 -0.0068
-4 -1 9 -14.8154 -0.0051
-4 -1 10 -10.4651 0.0144
-4 -1 11 0.5135 -0.0016
-4 -1 12 10.3847 -0.0197
-4 -1 13 4.0514 0.0093
-4 -1 14 3.8439 0.0000
-4 0 1 -10.4167 0.0535
-4 0 2 10.5447 -0.0522
-4 0 3 19.1053 -0.0051
-4 0 4 -20.6454 0.0245
-4 0 5 5.1388 -0.0142
-4 0 6 0.2304 -0.0084
-4 0 7 -1.7650 -0.0045
-4 0 8 -16.0436 -0.0104
-4 0 9 -4.1194 0.0076
-4 0 10 5.8363 -0.0093
-4 0 11 7.2728 -0.0020
-4 0 12 -0.0595 0.0109
-4 0 13 3.5223 -0.0190
-4 0 14 0.9483 0.0144
-4 1 1 -1.6967 -0.0509
-4 1 2 -13.0784 -0.0165
-4 1 3 -30.7496 0.0177
-4 1 4 24.1271 -0.0482
-4 1 5 8.2575 -0.0008
-4 1 6 3.0255 0.0113
-4 1 7 -10.3299 -0.0082
-4 1 8 5.1826 0.0019
-4 1 9 5.9398 0.0033
-4 1 10 -0.0525 0.0096
-4 1 11 -2.4129 -0.0039
-4 1 12 5.2932 -0.0183
-4 1 13 -0.0683 0.0137
-4 1 14 -4.2992 -0.0056
-4 1 15 -1.6560 0.0033
-4 2 1 -29.0722 -0.0173
-4 2 2 -10.5720 0.0409
-4 2 3 45.1372 -0.0496
-4 2 4 5.9972 0.0364
-4 2 5 8.6636 0.0350
-4 2 6 -2.8722 -0.0034
-4 2 7 6.2993 0.0059
-4 2 8 -7.0246 0.0094
-4 2 9 -10.3298 0.0049
-4 2 10 -2.0546 -0.0006
-4 2 11 6.1279 -0.0083
-4 2 12 -0.8226 0.0050
-4 2 13 -1.8175 0.0012
-4 2 14 1.6267 0.0064
-4 2 15 2.0028 -0.0179
-4 3 1 12.8266 0.0413
-4 3 2 42.6488 -0.0675
-4 3 3 -3.0217 0.0455
-4 3 4 18.4805 0.0232
-4 3 5 -2.0006 -0.0389
-4 3 6 -4.5656 -0.0075
-4 3 7 -24.4217 -0.0017
-4 3 8 -14.6130 -0.0006
-4 3 9 2.1874 0.0099
-4 3 10 7.3939 -0.0115
-4 3 11 2.5614 0.0019
-4 3 12 4.7447 0.0115
-4 3 13 4.4439 0.0014
-4 3 14 0.7982 -0.0015
-4 3 15 -1.6966 0.0117
-4 4 1 25.5397 -0.0797
-4 4 2 -2.9986 0.0443
-4 4 3 27.4320 0.0182
-4 4 4 -12.8372 -0.0626
-4 4 5 -17.0244 0.0136
-4 4 6 -29.4500 0.0174
-4 4 7 -7.5654 0.0024
-4 4 8 7.5878 0.0032
-4 4 9 10.8901 -0.0153
-4 4 10 11.0097 0.0103
-4 4 11 10.1928 0.0059
-4 4 12 2.4764 -0.0038
-4 4 13 -4.2898 0.0128
-4 4 15 -4.0095 -0.0134
-4 5 1 -1.8577 0.0574
-4 5 2 21.1127 0.0429
-4 5 3 -27.2737 -0.0414
-4 5 4 -16.0951 0.0619
-4 5 5 -19.8724 0.0283
-4 5 6 2.5418 -0.0125
-4 5 7 9.7306 0.0014
-4 5 8 14.1767 0.0019
-4 5 9 16.3430 0.0143
-4 5 10 7.1835 -0.0042
-4 5 11 -5.2048 -0.0040
-4 5 12 -9.6230 0.0141
-4 5 13 -8.6589 -0.0156
-4 5 15 2.0576 0.0065
-4 6 1 11.4530 0.0306
-4 6 2 -24.2715 -0.0504
-4 6 3 3.9763 0.0568
-4 6 4 -5.0193 -0.0137
-4 6 5 7.2008 -0.0514
-4 6 6 7.9075 0.0068
-4 6 7 13.2759 0.0029
-4 6 8 11.4616 -0.0121
-4 6 9 -1.8680 -0.0104
-4 6 10 -9.6455 -0.0008
-4 6 11 -9.1232 0.0107
-4 6 12 -7.0780 -0.0049
-4 6 13 -2.6261 -0.0063
-4 6 15 4.7615 -0.0015
-4 7 1 -6.1840 -0.0673
-4 7 2 21.5055 0.0528
-4 7 3 -2.2143 -0.0255
-4 7 4 1.9275 -0.0574
-4 7 5 -0.5658 0.0336
-4 7 6 4.4346 0.0136
-4 7 7 0.0993 -0.0059
-4 7 8 -6.9838 0.0076
-4 7 9 -5.0727 0.0076
-4 7 10 -4.6686 0.0204
-4 7 11 -5.4048 0.0086
-4 7 12 0.3140 -0.0114
-4 7 13 6.6626 0.0076
-4 7 15 -1.1022 -0.0004
-4 8 1 20.0876 0.0760
-4 8 2 -11.0328 -0.0139
-4 8 3 -3.8364 -0.0479
-4 8 4 -9.6313 0.0583
-4 8 5 -4.2919 0.0088
-4 8 6 -3.4846 -0.0115
-4 8 7 0.4057 -0.0017
-4 8 8 5.3920 -0.0092
-4 8 9 -0.4663 0.0061
-4 8 10 -2.9006 -0.0007
-4 8 11 2.8843 -0.0160
-4 8 12 4.2876 0.0108
-4 8 13 -0.9078 0.0085
-4 8 14 0.7714 -0.0273
-4 8 15 1.0636 0.0142
-4 9 1 -16.9545 -0.0345
-4 9 2 -5.3238 -0.0504
-4 9 3 -16.1406 0.0559
-4 9 4 -5.9568 -0.0337
-4 9 5 1.9908 -0.0467
-4 9 6 11.3899 -0.0080
-4 9 7 10.9799 -0.0108
-4 9 8 -0.3647 -0.0124
-4 9 9 -0.0832 -0.0109
-4 9 10 1.6945 -0.0018
-4 9 11 -1.8028 0.0076
-4 9 12 -2.3852 -0.0130
-4 9 13 1.0843 -0.0103
-4 9 14 -0.3900 0.0306
-4 9 15 0.2952 0.0004
-4 10 1 -6.4287 -0.0290
-4 10 2 -18.6732 0.0632
-4 10 3 0.6137 -0.0373
-4 10 4 8.3773 -0.0244
-4 10 5 14.8823 0.0418
-4 10 6 9.5470 0.0091
-4 10 7 -1.3739 0.0000
-4 10 8 0.1582 0.0076
-4 10 9 -5.4141 0.0141
-4 10 10 -8.5153 0.0159
-4 10 11 -2.4237 -0.0064
-4 10 12 3.1714 0.0079
-4 10 13 1.8591 0.0283
-4 10 14 3.7419 0.0188
-4 10 15 1.4884 -0.0334
-4 11 1 -14.3262 0.0635
-4 11 2 8.9481 -0.0237
-4 11 3 8.6925 -0.0018
-4 11 4 10.5725 0.0667
-4 11 5 5.3281 -0.0201
-4 11 6 -1.5215 -0.0128
-4 11 7 -3.1542 0.0094
-4 11 8 -13.4542 -0.0022
-4 11 9 -9.3406 0.0009
-4 11 10 0.7215 -0.0107
-4 11 11 5.4309 0.0023
-4 11 12 3.7924 -0.0048
-4 11 13 4.9888 0.0107
-4 11 14 0.0629 -0.0233
-4 12 1 11.7927 -0.0207
-4 12 2 3.1372 -0.0104
-4 12 3 4.9806 0.0549
-4 12 4 2.1694 -0.0511
-4 12 5 -1.1833 -0.0255
-4 12 6 -5.0242 0.0129
-4 12 7 -13.5892 0.0013
-4 12 8 -3.9558 0.0019
-4 12 9 3.5896 -0.0195
-4 12 10 5.4299 0.0056
-4 12 11 4.1809 -0.0023
-4 12 12 5.4181 -0.0027
-4 12 13 -2.2830 -0.0013
-4 12 14 -5.5399 -0.0210
-4 13 1 -4.4743 -0.0089
-4 13 2 1.9393 0.0431
-4 13 3 1.2084 -0.0466
-4 13 4 -0.3844 -0.0034
-4 13 5 -2.8387 0.0364
-4 13 6 -6.5362 -0.0065
-4 13 7 1.0741 0.0061
-4 13 8 2.0885 -0.0067
-4 13 9 3.9581 0.0113
-4 13 10 4.9636 0.0263
-4 13 11 5.4262 0.0027
-4 13 12 -3.3557 0.0180
-4 13 13 -4.7948 0.0038
-4 14 1 3.4516 0.0363
-4 14 2 2.2281 -0.0380
-4 14 3 1.6526 -0.0028
-4 14 4 1.4709 0.0504
-4 14 5 -0.2920 -0.0304
-4 14 6 1.3242 -0.0048
-4 14 7 -2.6150 0.0134
-4 14 8 1.2682 0.0083
-4 14 9 3.5162 0.0245
-4 14 10 2.9074 -0.0122
-4 14 11 -3.7274 0.0185
-4 14 12 -3.2818 0.0075
-4 14 13 -2.2886 0.0267
-4 15 1 2.8809 -0.0124
-4 15 2 4.5410 -0.0042
-4 15 3 4.6457 0.0544
-4 15 4 0.4698 -0.0221
-4 15 5 -1.8835 -0.0097
-4 15 6 -6.3429 -0.0004
-4 15 7 -1.5161 -0.0096
-4 15 8 -0.2563 0.0144
-4 15 9 1.4655 -0.0397
-4 15 10 -0.8587 0.0051
-4 15 11 -1.1950 0.0110
-4 16 1 6.7147 0.0215
-4 16 2 4.1508 0.0196
-4 16 3 -2.3120 -0.0461
-4 16 4 -4.6243 -0.0035
-4 16 5 -7.6456 0.0133
-4 16 6 -3.2337 -0.0319
-4 16 7 -2.3134 0.0027
-4 16 8 4.1840 -0.0180
-4 16 9 3.7440 0.0100
-4 16 10 0.5015 0.0119
-4 17 1 0.9558 -0.0274
-4 17 2 -3.7247 -0.0584
-4 17 3 -4.7865 0.0197
-4 17 4 -6.9093 0.0481
-4 17 5 -2.5967 -0.0574
-4 17 6 -0.4340 -0.0193
-4 17 7 7.5182 0.0220
-4 17 8 4.7851 0.0141
-3 -16 1 -3.0232 -0.0630
-3 -16 2 -0.7124 -0.0094
-3 -15 1 -1.3708 0.0139
-3 -15 2 -1.6452 0.0368
-3 -15 3 2.8430 0.0065
-3 -14 1 -2.1802 0.0194
-3 -14 2 3.6279 -0.0095
-3 -14 3 6.7001 0.0331
-3 -14 4 -4.1171 -0.0243
-3 -14 5 -1.3189 -0.0308
-3 -13 1 2.1098 -0.0243
-3 -13 2 3.2003 0.0307
-3 -13 3 -5.9507 -0.0401
-3 -13 4 3.4280 0.0130
-3 -13 5 -1.1119 0.0197
-3 -13 6 2.2116 -0.0120
-3 -12 1 -0.2143 0.0316
-3 -12 2 -3.4100 -0.0248
-3 -12 3 9.0907 0.0289
-3 -12 4 0.2165 -0.0073
-3 -12 5 4.3457 -0.0135
-3 -12 6 -0.9056 0.0046
-3 -12 7 -2.4760 -0.0000
-3 -11 1 3.8505 -0.0119
-3 -11 2 15.5755 -0.0032
-3 -11 3 2.7000 -0.0198
-3 -11 4 6.7343 -0.0156
-3 -11 5 -4.9582 -0.0014
-3 -11 6 -3.5915 -0.0121
-3 -11 7 0.5464 -0.0041
-3 -11 8 2.8798 0.0106
-3 -10 1 21.6122 -0.0161
-3 -10 2 1.8666 0.0011
-3 -10 3 0.8873 -0.0361
-3 -10 4 -16.5857 0.0268
-3 -10 5 -7.4368 0.0184
-3 -10 6 -3.4263 0.0065
-3 -10 7 -2.1748 -0.0087
-3 -10 8 -1.4831 -0.0108
-3 -10 9 1.2911 0.0287
-3 -9 1 -6.0370 0.0136
-3 -9 2 -11.3568 -0.0536
-3 -9 3 -26.4562 0.0605
-3 -9 4 -3.7896 0.0215
-3 -9 5 -2.3891 -0.0145
-3 -9 6 -0.2712 -0.0156
-3 -9 7 6.0517 0.0133
-3 -9 8 8.2470 0.0067
-3 -9 9 2.9879 -0.0116
-3 -9 10 -1.8169 0.0274
-3 -8 1 -18.0243 -0.0480
-3 -8 2 -21.3675 0.0498
-3 -8 3 7.6945 -0.0006
-3 -8 4 -2.4712 -0.0237
-3 -8 5 5.2284 0.0105
-3 -8 6 14.9991 0.0089
-3 -8 7 10.3728 -0.0121
-3 -8 8 0.6385 0.0098
-3 -8 9 -6.8376 -0.0055
-3 -8 10 -7.2680 -0.0147
-3 -8 11 -1.9373 0.0162
-3 -7 1 -4.8958 0.0245
-3 -7 2 11.5510 0.0310
-3 -7 3 -11.8229 -0.0222
-3 -7 4 12.5743 0.0337
-3 -7 5 21.3630 -0.0030
-3 -7 6 5.5032 -0.0149
-3 -7 7 -5.7196 0.0117
-3 -7 8 -8.8565 -0.0141
-3 -7 9 -6.4710 0.0053
-3 -7 10 -2.9777 -0.0028
-3 -7 11 0.0156 -0.0063
-3 -7 12 2.2516 -0.0056
-3 -6 1 -0.0988 0.0706
-3 -6 2 -20.5377 -0.0481
-3 -6 3 25.1566 0.0492
-3 -6 4 17.0276 -0.0154
-3 -6 5 -6.5889 -0.0263
-3 -6 6 -8.9791 0.0010
-3 -6 7 -6.4472 -0.0042
-3 -6 8 -4.3004 0.0134
-3 -6 9 -3.5044 -0.0107
-3 -6 10 1.3964 0.0075
-3 -6 11 6.3898 0.0090
-3 -6 12 7.5052 0.0147
-3 -5 1 -20.2380 -0.0820
-3 -5 2 31.2288 0.0505
-3 -5 3 -5.8725 -0.0465
-3 -5 4 -15.3468 -0.0525
-3 -5 5 0.1076 0.0107
-3 -5 6 0.7172 0.0126
-3 -5 7 -1.3791 0.0003
-3 -5 8 -3.0533 -0.0138
-3 -5 9 3.0246 0.0012
-3 -5 10 5.4852 -0.0005
-3 -5 11 3.3039 -0.0039
-3 -5 12 -1.5691 -0.0075
-3 -5 13 -1.9799 0.0144
-3 -4 1 18.5835 0.0345
-3 -4 2 -31.6022 -0.0286
-3 -4 3 1.8366 -0.0364
-3 -4 4 21.7355 0.0431
-3 -4 5 7.0367 0.0086
-3 -4 6 1.1731 -0.0151
-3 -4 7 -4.7405 -0.0023
-3 -4 8 -0.4643 -0.0053
-3 -4 9 -2.2384 0.0008
-3 -4 10 -2.4392 0.0017
-3 -4 11 -1.6350 0.0042
-3 -4 12 -0.2139 0.0038
-3 -4 13 -1.3548 -0.0036
-3 -3 1 -37.4349 0.0545
-3 -3 2 40.7355 -0.0218
-3 -3 3 33.9910 0.0530
-3 -3 4 3.3300 -0.0213
-3 -3 5 -1.4276 -0.0140
-3 -3 6 -14.0985 0.0168
-3 -3 7 -9.7012 -0.0089
-3 -3 8 -9.9347 0.0011
-3 -3 9 -1.6113 0.0026
-3 -3 10 3.4365 0.0004
-3 -3 11 6.4528 0.0027
-3 -3 12 5.0718 -0.0034
-3 -3 13 6.0048 -0.0001
-3 -3 14 -2.5479 0.0057
-3 -2 1 74.3624 -0.0580
-3 -2 2 24.4810 0.0552
-3 -2 3 -1.2009 -0.0530
-3 -2 4 -5.8521 -0.0076
-3 -2 5 -28.0318 0.0344
-3 -2 6 -15.0854 -0.0029
-3 -2 7 -7.8452 -0.0041
-3 -2 8 7.2927 -0.0021
-3 -2 9 9.6027 -0.0021
-3 -2 10 13.5276 0.0099
-3 -2 11 8.8631 -0.0176
-3 -2 12 1.2198 -0.0131
-3 -2 13 -10.4049 0.0119
-3 -2 14 -4.3279 -0.0130
-3 -1 1 -1.9480 0.0490
-3 -1 2 -1.5667 -0.0884
-3 -1 3 -15.3486 -0.0074
-3 -1 4 -40.7632 0.0525
-3 -1 5 -10.2681 -0.0049
-3 -1 6 0.0696 -0.0195
-3 -1 7 14.5207 -0.0024
-3 -1 8 10.6793 0.0054
-3 -1 9 15.7614 0.0166
-3 -1 10 4.6323 -0.0185
-3 -1 11 -8.8469 0.0031
-3 -1 12 -16.3887 0.0219
-3 -1 13 -5.1747 -0.0125
-3 -1 14 -2.7659 0.0091
-3 -1 15 -0.3121 0.0046
-3 0 1 5.8048 -0.0602
-3 0 2 -21.4173 0.0167
-3 0 3 -31.6566 0.0720
-3 0 4 10.5327 -0.0238
-3 0 5 4.8360 -0.0150
-3 0 6 15.2478 0.0090
-3 0 7 10.3850 0.0048
-3 0 8 16.9697 0.0094
-3 0 9 -2.7454 -0.0130
-3 0 10 -14.3350 0.0083
-3 0 11 -12.4279 0.0109
-3 0 12 -0.3301 -0.0077
-3 0 13 -0.6192 0.0200
-3 0 14 3.7530 -0.0112
-3 0 15 6.5319 0.0109
-3 1 1 -14.7134 -0.0066
-3 1 2 -3.8381 0.0619
-3 1 3 20.4112 -0.0576
-3 1 4 -13.5245 0.0092
-3 1 5 5.5578 0.0087
-3 1 6 6.0489 -0.0146
-3 1 7 12.7560 -0.0002
-3 1 8 -12.9362 -0.0063
-3 1 9 -14.3732 -0.0017
-3 1 10 -5.1818 -0.0006
-3 1 11 1.1324 -0.0056
-3 1 12 -2.8156 0.0088
-3 1 13 5.4688 -0.0065
-3 1 14 8.1648 0.0104
-3 1 15 3.9009 0.0008
-3 2 1 16.5210 0.0728
-3 2 2 -0.7584 -0.0827
-3 2 3 -39.4734 0.0223
-3 2 4 5.6260 0.0023
-3 2 5 3.8360 -0.0303
-3 2 6 8.9342 -0.0061
-3 2 7 -13.0752 -0.0028
-3 2 8 0.0619 -0.0046
-3 2 9 4.7300 -0.0030
-3 2 10 -0.2471 -0.0097
-3 2 11 -4.1953 0.0062
-3 2 12 7.7731 0.0037
-3 2 13 6.8450 -0.0079
-3 2 14 -0.0162 -0.0054
-3 2 15 -4.4564 0.0058
-3 2 16 -3.7180 -0.0238
-3 3 1 -32.7406 -0.0771
-3 3 2 -42.5843 0.0464
-3 3 3 14.9489 0.0306
-3 3 4 -4.7149 -0.0302
-3 3 5 8.2787 0.0090
-3 3 6 -1.1155 0.0183
-3 3 7 19.1416 0.0117
-3 3 8 5.3599 -0.0001
-3 3 9 -8.6728 -0.0115
-3 3 10 -7.3353 0.0149
-3 3 11 5.3366 0.0033
-3 3 12 0.4523 -0.0188
-3 3 13 -3.2525 0.0058
-3 3 14 -2.7187 0.0015
-3 3 15 0.9057 -0.0000
-3 3 16 1.9580 0.0239
-3 4 1 -25.0339 0.0484
-3 4 2 11.5354 0.0290
-3 4 3 -18.9687 -0.0749
-3 4 4 18.9803 0.0265
-3 4 5 15.8039 0.0200
-3 4 6 26.3838 -0.0106
-3 4 7 -6.5561 -0.0110
-3 4 8 -17.1683 -0.0070
-3 4 9 -10.5895 0.0129
-3 4 10 -1.5486 -0.0049
-3 4 11 -4.5810 -0.0112
-3 4 12 0.6412 0.0098
-3 4 13 5.2321 -0.0043
-3 4 14 5.3746 0.0084
-3 4 15 1.1424 -0.0001
-3 4 16 -1.3714 -0.0212
-3 5 1 -1.1291 0.0179
-3 5 2 -19.2429 -0.1085
-3 5 3 37.5340 0.0571
-3 5 4 21.4445 0.0030
-3 5 5 17.6486 -0.0429
-3 5 6 -19.2644 -0.0050
-3 5 7 -17.6886 0.0027
-3 5 8 -12.8645 -0.0058
-3 5 9 -7.7408 -0.0163
-3 5 10 -1.6052 -0.0090
-3 5 11 11.0166 0.0062
-3 5 12 12.5367 -0.0022
-3 5 13 6.4484 0.0103
-3 5 14 -0.4410 0.0058
-3 5 15 -3.8657 0.0013
-3 5 16 -2.1998 0.0047
-3 6 1 -8.9330 -0.0863
-3 6 2 40.1463 0.0892
-3 6 3 5.4898 0.0036
-3 6 4 3.6760 -0.0326
-3 6 5 -21.2079 0.0282
-3 6 6 -11.7261 0.0138
-3 6 7 -13.4831 -0.0022
-3 6 8 -6.0919 0.0052
-3 6 9 8.1916 0.0025
-3 6 10 18.3131 0.0197
-3 6 11 12.3249 0.0085
-3 6 12 3.2378 0.0006
-3 6 13 -3.8763 0.0149
-3 6 14 -8.9927 0.0023
-3 6 15 -5.5533 -0.0105
-3 6 16 -0.4108 0.0064
-3 7 1 25.3708 0.0796
-3 7 2 -12.0634 -0.0108
-3 7 3 2.6045 -0.0492
-3 7 4 -9.2661 0.0399
-3 7 5 -1.0962 0.0044
-3 7 6 -9.5861 -0.0123
-3 7 7 1.8337 0.0064
-3 7 8 13.6147 -0.0036
-3 7 9 13.5890 0.0110
-3 7 10 5.8574 -0.0073
-3 7 11 0.1503 -0.0098
-3 7 12 -6.5505 0.0178
-3 7 13 -9.8640 -0.0112
-3 7 14 -3.2231 -0.0146
-3 7 15 1.6282 0.0126
-3 7 16 2.1483 -0.0216
-3 8 1 -13.1367 -0.0355
-3 8 2 14.0339 -0.0813
-3 8 3 3.1606 0.0650
-3 8 4 6.3136 -0.0050
-3 8 5 -6.9051 -0.0340
-3 8 6 3.3772 0.0060
-3 8 7 5.6415 0.0081
-3 8 8 0.7167 0.0093
-3 8 9 0.4152 -0.0100
-3 8 10 -0.6095 -0.0012
-3 8 11 -7.2516 0.0217
-3 8 12 -7.6287 -0.0083
-3 8 13 -1.4760 -0.0031
-3 8 14 0.0684 0.0278
-3 8 15 1.2172 -0.0055
-3 8 16 1.7959 0.0303
-3 9 1 24.0152 -0.0698
-3 9 2 6.3259 0.1038
-3 9 3 7.3128 -0.0186
-3 9 4 -8.1111 -0.0311
-3 9 5 -1.6097 0.0392
-3 9 6 -6.3353 0.0181
-3 9 7 -5.8338 0.0008
-3 9 8 2.9084 0.0023
-3 9 9 1.6987 0.0043
-3 9 10 -2.9133 0.0129
-3 9 11 -1.2853 0.0019
-3 9 12 0.3808 0.0030
-3 9 13 0.5476 0.0177
-3 9 14 3.3000 -0.0033
-3 9 15 2.7257 0.0123
-3 9 16 4.0904 0.0077
-3 10 1 3.7940 0.0901
-3 10 2 5.6072 -0.0542
-3 10 3 -11.8059 -0.0328
-3 10 4 -6.6058 0.0476
-3 10 5 -12.2776 -0.0187
-3 10 6 -3.5419 -0.0228
-3 10 7 8.4763 -0.0007
-3 10 8 4.7585 -0.0096
-3 10 9 4.3845 -0.0085
-3 10 10 4.5278 -0.0192
-3 10 11 -0.2780 -0.0106
-3 10 12 -1.7721 0.0000
-3 10 13 1.3746 -0.0138
-3 10 14 -0.4347 -0.0071
-3 10 15 0.8963 0.0333
-3 11 1 2.5340 -0.0542
-3 11 2 -15.7778 -0.0288
-3 11 3 -8.3722 0.0607
-3 11 4 -11.3801 -0.0295
-3 11 5 1.0864 -0.0027
-3 11 6 9.8844 0.0090
-3 11 7 6.8375 -0.0101
-3 11 8 9.8290 -0.0014
-3 11 9 3.6650 -0.0205
-3 11 10 -4.9475 -0.0013
-3 11 11 -6.1414 0.0094
-3 11 12 -1.7922 -0.0008
-3 11 13 -1.6861 -0.0180
-3 11 14 2.2063 0.0347
-3 11 15 2.0186 0.0030
-3 12 1 -16.1486 -0.0390
-3 12 2 -5.3429 0.0768
-3 12 3 -6.7526 -0.0329
-3 12 4 4.1586 0.0042
-3 12 5 7.3273 0.0211
-3 12 6 7.5605 -0.0069
-3 12 7 10.7255 -0.0052
-3 12 8 -1.8187 -0.0142
-3 12 9 -9.0433 0.0141
-3 12 10 -7.5867 0.0024
-3 12 11 -3.0317 -0.0030
-3 12 12 -2.0853 -0.0142
-3 12 13 4.8489 0.0173
-3 12 14 5.0174 0.0251
-3 12 15 1.1744 0.0262
-3 13 1 1.3959 0.0675
-3 13 2 -2.6704 -0.0467
-3 13 3 4.5121 -0.0101
-3 13 4 4.3392 0.0290
-3 13 5 6.4960 -0.0159
-3 13 6 6.7579 -0.0136
-3 13 7 -5.8977 -0.0127
-3 13 8 -7.6258 0.0115
-3 13 9 -6.1026 -0.0070
-3 13 10 -3.7175 -0.0207
-3 13 11 -2.0627 -0.0012
-3 13 12 6.6796 0.0083
-3 13 13 5.3639 0.0038
-3 13 14 -0.2298 -0.0109
-3 14 1 -4.2222 -0.0379
-3 14 2 2.0931 -0.0012
-3 14 3 2.2834 0.0462
-3 14 4 3.7857 -0.0356
-3 14 5 1.5456 0.0046
-3 14 6 -4.6473 0.0089
-3 14 7 -0.5269 -0.0061
-3 14 8 -3.4804 -0.0006
-3 14 9 -3.5553 -0.0067
-3 14 10 -0.0258 0.0229
-3 14 11 7.2959 0.0086
-3 14 12 4.0475 -0.0054
-3 14 13 0.1225 -0.0106
-3 15 1 0.7825 -0.0181
-3 15 2 0.9793 0.0560
-3 15 3 1.1239 -0.0532
-3 15 4 0.3455 0.0017
-3 15 5 0.4890 0.0264
-3 15 6 5.0139 -0.0062
-3 15 7 -3.1163 0.0000
-3 15 8 -2.9286 -0.0041
-3 15 9 -0.0978 0.0237
-3 15 10 3.5412 -0.0073
-3 15 11 1.4177 -0.0169
-3 15 12 0.0548 0.0078
-3 16 1 -1.6456 0.0640
-3 16 2 -0.0664 -0.0194
-3 16 3 3.3311 0.0090
-3 16 4 4.5629 0.0254
-3 16 5 4.8245 -0.0033
-3 16 6 -3.8945 0.0060
-3 16 7 -1.3929 -0.0179
-3 16 8 -3.3906 -0.0028
-3 16 9 -1.3820 0.0011
-3 16 10 1.1545 -0.0117
-3 16 11 0.7589 0.0092
-3 17 1 1.2110 0.0039
-3 17 2 5.7958 0.0208
-3 17 3 4.9629 0.0106
-3 17 4 2.3577 -0.0344
-3 17 5 -3.6644 0.0277
-3 17 6 -1.3703 0.0149
-3 17 7 -7.1753 -0.0220
-3 17 8 -2.2573 0.0065
-3 17 9 3.1096 0.0057
-2 -16 1 2.5456 0.0675
-2 -16 2 -2.2965 -0.0184
-2 -15 1 -4.3813 -0.0339
-2 -15 2 -3.2604 -0.0389
-2 -15 3 -5.7841 0.0489
-2 -15 4 -5.7468 -0.0135
-2 -14 1 -1.3549 -0.0286
-2 -14 2 -7.2669 0.0436
-2 -14 3 -4.8715 -0.0444
-2 -14 4 7.8416 0.0176
-2 -14 5 4.2809 0.0013
-2 -13 1 -7.5474 0.0416
-2 -13 2 -0.5513 -0.0608
-2 -13 3 10.3852 0.0134
-2 -13 4 -1.1257 -0.0064
-2 -13 5 1.0010 -0.0041
-2 -13 6 0.3358 0.0256
-2 -13 7 -2.2586 -0.0314
-2 -12 1 3.4911 -0.0457
-2 -12 2 4.9246 0.0054
-2 -12 3 -7.9769 0.0127
-2 -12 4 3.1627 0.0153
-2 -12 5 0.4993 0.0081
-2 -12 6 0.7427 -0.0089
-2 -12 7 -0.0517 0.0174
-2 -12 8 1.9336 0.0042
-2 -11 1 -6.7223 -0.0135
-2 -11 2 -12.0269 0.0399
-2 -11 3 6.8446 -0.0178
-2 -11 4 -0.0652 0.0005
-2 -11 5 3.6496 0.0118
-2 -11 6 -0.0819 -0.0003
-2 -11 7 -0.9298 -0.0154
-2 -11 8 -3.3792 0.0056
-2 -11 9 2.7267 0.0216
-2 -10 1 -11.8525 0.0519
-2 -10 2 12.6740 -0.0552
-2 -10 3 3.8940 0.0354
-2 -10 4 11.6936 0.0055
-2 -10 5 1.6942 -0.0221
-2 -10 6 -0.0343 -0.0039
-2 -10 7 -0.9519 0.0108
-2 -10 8 1.7046 -0.0049
-2 -10 9 -1.7707 -0.0239
-2 -10 10 1.4109 0.0289
-2 -9 1 21.6625 -0.0425
-2 -9 2 11.4880 0.0767
-2 -9 3 19.0462 -0.0076
-2 -9 4 -3.2294 -0.0213
-2 -9 5 -5.1339 0.0176
-2 -9 6 -6.2469 0.0088
-2 -9 7 -6.9604 -0.0119
-2 -9 8 -7.1047 -0.0005
-2 -9 9 0.8707 0.0042
-2 -9 10 1.3153 -0.0304
-2 -9 11 2.3748 0.0384
-2 -8 1 15.6402 0.0490
-2 -8 2 16.9488 0.0034
-2 -8 3 -15.0101 -0.0329
-2 -8 4 -9.7728 0.0049
-2 -8 5 -13.3713 -0.0073
-2 -8 6 -12.7644 -0.0039
-2 -8 7 -4.8140 0.0033
-2 -8 8 6.9651 -0.0112
-2 -8 9 8.3768 0.0098
-2 -8 10 7.3926 0.0163
-2 -8 11 -0.0425 -0.0337
-2 -7 1 3.8891 0.0514
-2 -7 2 -21.9044 -0.0823
-2 -7 3 -2.7797 0.0155
-2 -7 4 -18.9296 -0.0048
-2 -7 5 -14.2274 -0.0040
-2 -7 6 4.1932 0.0012
-2 -7 7 16.3379 -0.0080
-2 -7 8 11.6272 0.0148
-2 -7 9 5.8489 -0.0083
-2 -7 10 -1.8501 -0.0115
-2 -7 11 -3.7816 0.0164
-2 -7 12 -5.6746 -0.0157
-2 -6 1 -11.1387 -0.1235
-2 -6 2 9.2820 0.0729
-2 -6 3 -30.2734 -0.0082
-2 -6 4 -8.3889 -0.0226
-2 -6 5 17.5576 0.0155
-2 -6 6 20.7045 0.0125
-2 -6 7 7.7657 0.0055
-2 -6 8 1.9585 -0.0086
-2 -6 9 -1.2102 0.0077
-2 -6 10 -4.9174 0.0004
-2 -6 11 -11.3508 -0.0066
-2 -6 12 -7.4308 0.0039
-2 -6 13 3.4039 -0.0051
-2 -5 1 12.4582 0.0942
-2 -5 2 -40.3740 -0.0248
-2 -5 3 15.9534 -0.0224
-2 -5 4 26.4653 0.0516
-2 -5 5 8.5856 0.0174
-2 -5 6 -1.6643 -0.0085
-2 -5 7 1.9712 0.0061
-2 -5 8 1.4078 0.0102
-2 -5 9 -7.9244 0.0015
-2 -5 10 -12.1845 0.0051
-2 -5 11 -0.0817 -0.0002
-2 -5 12 7.7557 0.0097
-2 -5 13 4.4876 0.0101
-2 -4 1 -30.7722 0.0107
-2 -4 2 44.7322 -0.0470
-2 -4 3 1.8228 0.0579
-2 -4 4 -21.8466 -0.0097
-2 -4 5 -6.7730 -0.0231
-2 -4 6 6.4638 0.0116
-2 -4 7 2.8836 -0.0047
-2 -4 8 -9.5386 -0.0010
-2 -4 9 -5.1405 -0.0012
-2 -4 10 6.8399 -0.0127
-2 -4 11 4.0637 0.0083
-2 -4 12 0.1201 -0.0031
-2 -4 13 3.1035 -0.0040
-2 -4 14 -1.9107 0.0086
-2 -3 1 42.2704 -0.1744
-2 -3 2 -59.9124 0.0585
-2 -3 3 -39.2687 -0.0254
-2 -3 4 8.7061 -0.0175
-2 -3 5 16.2482 0.0129
-2 -3 6 7.9465 -0.0110
-2 -3 7 -1.6569 0.0008
-2 -3 8 5.6104 -0.0016
-2 -3 9 3.3082 -0.0116
-2 -3 10 -6.3916 0.0103
-2 -3 11 -5.4049 -0.0119
-2 -3 12 0.4510 0.0004
-2 -3 13 -3.0301 -0.0036
-2 -3 14 2.0622 -0.0206
-2 -2 1 -113.9100 0.1623
-2 -2 2 -16.1981 -0.0182
-2 -2 3 32.0179 0.0150
-2 -2 4 22.9558 0.0385
-2 -2 5 17.3757 -0.0059
-2 -2 6 7.7643 -0.0066
-2 -2 7 4.1862 0.0025
-2 -2 8 -13.2751 -0.0050
-2 -2 9 -15.7272 0.0089
-2 -2 10 -8.5500 -0.0177
-2 -2 11 -0.0271 0.0077
-2 -2 12 2.3216 0.0026
-2 -2 13 9.1873 -0.0061
-2 -2 14 1.6658 0.0140
-2 -2 15 0.6169 0.0129
-2 -1 1 36.5482 -0.0466
-2 -1 2 38.7722 0.0373
-2 -1 3 26.6681 0.0609
-2 -1 4 31.1202 -0.0369
-2 -1 5 9.3392 -0.0301
-2 -1 6 -9.8024 0.0131
-2 -1 7 -28.2228 0.0028
-2 -1 8 -14.5845 0.0038
-2 -1 9 -6.5865 -0.0193
-2 -1 10 5.5403 0.0065
-2 -1 11 13.0115 0.0038
-2 -1 12 14.9418 -0.0098
-2 -1 13 0.6657 -0.0030
-2 -1 14 -1.9254 -0.0129
-2 -1 15 -2.8307 -0.0021
-2 0 1 17.7360 -0.0302
-2 0 2 28.0398 0.0432
-2 0 3 33.2477 -0.0908
-2 0 4 -5.6977 -0.0227
-2 0 5 -25.3988 0.0252
-2 0 6 -32.9971 0.0005
-2 0 7 -9.2103 -0.0017
-2 0 8 -5.0386 -0.0131
-2 0 9 13.3672 0.0037
-2 0 10 19.4838 0.0070
-2 0 11 11.2838 -0.0116
-2 0 12 -5.3539 -0.0074
-2 0 13 -6.0507 -0.0050
-2 0 14 -8.1646 0.0091
-2 0 15 -7.1004 -0.0139
-2 0 16 -3.4293 0.0175
-2 1 1 30.5103 0.1412
-2 1 2 19.5674 -0.0662
-2 1 3 -17.9549 0.0382
-2 1 4 -17.6554 0.0238
-2 1 5 -21.5689 -0.0050
-2 1 6 -1.0993 0.0060
-2 1 7 -0.7935 -0.0010
-2 1 8 23.8919 0.0021
-2 1 9 20.5519 0.0105
-2 1 10 4.1972 -0.0090
-2 1 11 -7.4523 0.0048
-2 1 12 -4.7592 0.0121
-2 1 13 -10.0213 0.0001
-2 1 14 -6.7883 -0.0046
-2 1 15 -0.3052 0.0064
-2 1 16 4.8923 -0.0174
-2 2 1 1.5022 -0.1238
-2 2 2 -6.2840 0.0329
-2 2 3 6.3519 -0.0070
-2 2 4 -15.9669 -0.0258
-2 2 5 -1.9706 0.0101
-2 2 6 -2.2187 0.0082
-2 2 7 23.1464 0.0013
-2 2 8 6.8162 0.0103
-2 2 9 -5.7055 -0.0051
-2 2 10 -6.8565 0.0105
-2 2 11 -4.0769 0.0055
-2 2 12 -13.1492 -0.0173
-2 2 13 -5.2287 0.0076
-2 2 14 3.8610 0.0057
-2 2 15 9.1187 0.0002
-2 2 16 6.7969 0.0208
-2 3 1 27.0372 0.0028
-2 3 2 19.2310 -0.0010
-2 3 3 -23.1536 -0.0593
-2 3 4 -2.3440 0.0179
-2 3 5 -5.9287 0.0191
-2 3 6 12.5288 -0.0086
-2 3 7 -10.1972 -0.0079
-2 3 8 -3.5866 -0.0109
-2 3 9 3.2845 0.0037
-2 3 10 -0.1680 -0.0090
-2 3 11 -11.6727 -0.0175
-2 3 12 0.7637 0.0116
-2 3 13 7.2438 -0.0105
-2 3 14 7.8802 -0.0028
-2 3 15 1.5704 0.0002
-2 3 16 -2.1341 0.0018
-2 4 1 9.1178 0.0945
-2 4 2 -24.1726 -0.0557
-2 4 3 4.2332 0.0766
-2 4 4 -18.9931 0.0286
-2 4 5 -5.7418 -0.0209
-2 4 6 -17.8863 -0.0084
-2 4 7 11.8557 -0.0001
-2 4 8 13.7256 0.0100
-2 4 9 2.4775 -0.0057
-2 4 10 -7.6883 -0.0146
-2 4 11 4.1118 0.0036
-2 4 12 2.2838 -0.0102
-2 4 13 -0.4485 0.0026
-2 4 14 -2.9634 0.0039
-2 4 15 -0.3008 0.0137
-2 4 16 0.8524 0.0019
-2 5 1 -11.9502 -0.1144
-2 5 2 2.1827 0.0868
-2 5 3 -43.0624 -0.0218
-2 5 4 -17.4207 -0.0435
-2 5 5 -8.7067 0.0148
-2 5 6 30.2428 0.0138
-2 5 7 16.1275 0.0050
-2 5 8 4.5531 0.0002
-2 5 9 -2.8804 -0.0070
-2 5 10 0.1698 0.0095
-2 5 11 -9.8025 0.0034
-2 5 12 -8.5499 -0.0004
-2 5 13 -2.3708 -0.0015
-2 5 14 4.2276 -0.0032
-2 5 15 2.7731 -0.0091
-2 5 16 -0.6950 0.0073
-2 5 17 2.7832 -0.0020
-2 6 1 -11.0386 0.0846
-2 6 2 -52.9999 -0.0325
-2 6 3 -5.5499 -0.0387
-2 6 4 8.4547 0.0433
-2 6 5 36.7771 0.0112
-2 6 6 11.4908 -0.0239
-2 6 7 7.3137 -0.0113
-2 6 8 -3.6737 -0.0083
-2 6 9 -11.5827 0.0030
-2 6 10 -20.4351 -0.0200
-2 6 11 -8.8729 -0.0203
-2 6 12 3.3946 0.0015
-2 6 13 9.9685 -0.0122
-2 6 14 7.3845 -0.0000
-2 6 15 2.5035 0.0040
-2 6 16 -0.1620 -0.0303
-2 6 17 -2.9926 -0.0017
-2 7 1 -39.2740 0.0376
-2 7 2 14.2902 -0.0287
-2 7 3 11.5329 0.0715
-2 7 4 24.4013 0.0018
-2 7 5 3.0972 -0.0406
-2 7 6 8.3719 -0.0037
-2 7 7 -10.2828 0.0034
-2 7 8 -19.8208 0.0077
-2 7 9 -17.9198 -0.0164
-2 7 10 -0.6502 -0.0043
-2 7 11 9.4034 0.0174
-2 7 12 13.1472 -0.0086
-2 7 13 8.4075 -0.0002
-2 7 14 1.2353 -0.0056
-2 7 15 -3.8795 -0.0115
-2 7 16 -4.8733 0.0266
-2 7 17 -1.2854 -0.0094
-2 8 1 19.3612 -0.0878
-2 8 2 -1.6646 0.0813
-2 8 3 7.9339 -0.0423
-2 8 4 -0.8229 -0.0513
-2 8 5 10.6544 0.0246
-2 8 6 -11.9868 0.0154
-2 8 7 -14.5250 0.0044
-2 8 8 -5.5848 -0.0014
-2 8 9 5.2759 0.0071
-2 8 10 8.7861 0.0124
-2 8 11 11.4803 -0.0061
-2 8 12 6.0880 -0.0023
-2 8 13 -0.4363 0.0036
-2 8 14 -4.1762 0.0000
-2 8 15 -5.1293 0.0141
-2 8 16 -2.5994 -0.0075
-2 8 17 -2.4096 0.0324
-2 9 1 -16.4499 0.1138
-2 9 2 2.6016 -0.0751
-2 9 3 2.9902 -0.0361
-2 9 4 13.8916 0.0524
-2 9 5 -8.3315 0.0029
-2 9 6 -3.5943 -0.0158
-2 9 7 1.0355 -0.0010
-2 9 8 0.4517 -0.0019
-2 9 9 2.0668 0.0053
-2 9 10 5.8181 -0.0081
-2 9 11 2.2013 -0.0159
-2 9 12 -1.7762 0.0119
-2 9 13 -5.2913 -0.0051
-2 9 14 -6.6303 -0.0084
-2 9 15 -3.6096 -0.0005
-2 9 16 -2.5700 0.0026
-2 10 1 7.2316 -0.0601
-2 10 2 7.9915 -0.0097
-2 10 3 14.8293 0.0625
-2 10 4 -4.2059 -0.0225
-2 10 5 4.3491 -0.0180
-2 10 6 -1.2537 0.0123
-2 10 7 -8.2040 0.0032
-2 10 8 -2.5239 0.0096
-2 10 9 1.5944 -0.0024
-2 10 10 0.7668 -0.0010
-2 10 11 0.4842 0.0261
-2 10 12 -2.1472 -0.0008
-2 10 13 -3.6252 -0.0013
-2 10 14 -0.0972 0.0204
-2 10 15 0.7141 0.0102
-2 10 16 5.6229 0.0601
-2 11 1 8.4231 -0.0462
-2 11 2 14.0980 0.0480
-2 11 3 -0.2262 -0.0643
-2 11 4 7.1896 -0.0188
-2 11 5 -6.8915 0.0221
-2 11 6 -12.0470 0.0082
-2 11 7 -2.8293 0.0010
-2 11 8 0.2256 -0.0083
-2 11 9 3.1490 0.0111
-2 11 10 5.5629 0.0113
-2 11 11 3.8145 -0.0184
-2 11 12 -0.1942 -0.0062
-2 11 13 0.1624 0.0249
-2 11 14 -0.7190 -0.0118
-2 11 15 1.1884 0.0163
-2 11 16 -0.0926 0.0048
-2 12 1 12.2936 0.0939
-2 12 2 0.6692 -0.0717
-2 12 3 3.7424 0.0104
-2 12 4 -12.2578 0.0483
-2 12 5 -10.7758 0.0008
-2 12 6 -3.4116 -0.0126
-2 12 7 -1.4884 -0.0045
-2 12 8 6.7441 0.0081
-2 12 9 9.4794 -0.0069
-2 12 10 6.1129 -0.0146
-2 12 11 -0.1446 -0.0085
-2 12 12 -1.7626 0.0149
-2 12 13 -4.3071 -0.0205
-2 12 14 -1.8795 -0.0193
-2 12 15 1.3131 0.0109
-2 13 1 -3.0119 -0.0681
-2 13 2 -1.4755 0.0252
-2 13 3 -13.1890 0.0540
-2 13 4 -6.5358 -0.0339
-2 13 5 -3.9890 -0.0197
-2 13 6 -1.1688 0.0175
-2 13 7 10.3460 0.0124
-2 13 8 10.0919 -0.0086
-2 13 9 4.3764 -0.0062
-2 13 10 -1.5839 -0.0005
-2 13 11 -3.1661 0.0037
-2 13 12 -7.4522 -0.0066
-2 13 13 -3.6411 -0.0045
-2 13 14 2.5681 0.0064
-2 13 15 3.5558 -0.0021
-2 14 1 -0.2984 -0.0184
-2 14 2 -8.6246 0.0253
-2 14 3 -2.3059 -0.0626
-2 14 4 -2.5169 -0.0028
-2 14 5 2.2273 0.0166
-2 14 6 9.9220 -0.0011
-2 14 7 4.2363 -0.0025
-2 14 8 1.2562 -0.0186
-2 14 9 -2.0230 -0.0062
-2 14 10 -4.6712 -0.0013
-2 14 11 -8.8737 -0.0044
-2 14 12 -3.3894 -0.0045
-2 14 13 2.6054 -0.0117
-2 14 14 3.8471 -0.0229
-2 15 1 -4.9777 0.0513
-2 15 2 -1.1516 -0.0571
-2 15 3 -0.6996 0.0335
-2 15 4 3.8218 0.0246
-2 15 5 4.5806 -0.0160
-2 15 6 -2.2618 0.0083
-2 15 7 2.5718 -0.0013
-2 15 8 0.6261 0.0018
-2 15 9 -3.8533 0.0030
-2 15 10 -6.3449 -0.0012
-2 15 11 -0.7033 0.0032
-2 15 12 2.5575 -0.0103
-2 15 13 3.0516 -0.0089
-2 16 1 0.6686 -0.0817
-2 16 2 0.6437 0.0186
-2 16 3 1.2547 0.0432
-2 16 4 -0.3125 -0.0175
-2 16 5 -2.1032 -0.0093
-2 16 6 5.9358 0.0155
-2 16 7 0.7099 0.0198
-2 16 8 -2.0401 -0.0043
-2 16 9 -3.0186 -0.0339
-2 16 10 -0.5402 0.0088
-2 16 11 0.5030 -0.0045
-2 16 12 0.4818 -0.0132
-2 17 1 -0.4902 -0.0031
-2 17 2 -3.3616 0.0457
-2 17 3 -1.9915 -0.0119
-2 17 4 1.3284 -0.0008
-2 17 5 5.8384 0.0127
-2 17 6 -1.2234 -0.0056
-2 17 7 1.2422 -0.0065
-2 17 8 -0.9596 -0.0411
-2 17 9 -2.5548 0.0120
-2 17 10 -1.3456 0.0097
-2 17 11 -0.2192 -0.0170
-2 18 3 2.7143 0.0410
-2 18 4 3.9778 0.0442
-2 18 5 -0.2158 -0.0375
-2 18 6 3.2915 0.0059
-2 18 7 -2.1405 0.0239
-2 18 8 -3.3056 0.0180
-1 -16 1 0.0760 -0.0163
-1 -16 2 5.2719 0.0277
-1 -16 3 3.4366 0.0180
-1 -15 1 9.0475 -0.0292
-1 -15 2 3.7326 0.0126
-1 -15 3 2.9294 -0.0475
-1 -15 4 0.8430 0.0185
-1 -14 1 0.8467 0.0774
-1 -14 2 3.7950 -0.0284
-1 -14 3 -1.4736 0.0368
-1 -14 4 -9.8513 0.0117
-1 -14 5 -5.8597 0.0192
-1 -14 6 -1.3671 0.0261
-1 -13 1 6.7744 -0.0399
-1 -13 2 -5.5125 0.0361
-1 -13 3 -12.1797 0.0042
-1 -13 4 -0.1027 -0.0185
-1 -13 5 1.5722 -0.0085
-1 -13 6 0.6327 -0.0118
-1 -13 7 3.9831 0.0327
-1 -12 1 -10.0919 -0.0113
-1 -12 2 -6.7197 0.0067
-1 -12 3 5.7885 -0.0523
-1 -12 4 -2.2440 -0.0105
-1 -12 5 0.3050 0.0106
-1 -12 6 3.5372 0.0067
-1 -12 7 3.9292 -0.0130
-1 -12 8 -2.2374 0.0102
-1 -11 1 5.2777 0.0925
-1 -11 2 6.5051 -0.0439
-1 -11 3 -9.4596 0.0416
-1 -11 4 2.1621 0.0168
-1 -11 5 4.2794 -0.0112
-1 -11 6 4.3811 0.0137
-1 -11 7 -0.6648 0.0112
-1 -11 8 1.7185 -0.0146
-1 -11 9 -2.0389 0.0169
-1 -10 1 0.4996 -0.0885
-1 -10 2 -17.7413 0.0533
-1 -10 3 2.7005 -0.0288
-1 -10 4 1.0307 -0.0255
-1 -10 5 2.8619 0.0176
-1 -10 6 -0.5700 -0.0029
-1 -10 7 0.6434 -0.0069
-1 -10 8 -3.0396 0.0108
-1 -10 9 0.2375 -0.0060
-1 -10 10 -1.5894 -0.0083
-1 -9 1 -27.0692 0.0188
-1 -9 2 0.0758 -0.0561
-1 -9 3 -4.9652 -0.0237
-1 -9 4 6.1544 0.0216
-1 -9 5 5.7437 0.0015
-1 -9 6 5.0489 0.0019
-1 -9 7 0.5441 0.0009
-1 -9 8 1.2382 -0.0092
-1 -9 9 -3.6041 0.0030
-1 -9 10 -0.1040 0.0072
-1 -9 11 -2.1479 -0.0358
-1 -8 1 -1.5802 0.0273
-1 -8 2 -7.6740 -0.0238
-1 -8 3 16.4967 0.0610
-1 -8 4 13.8305 0.0260
-1 -8 5 9.6752 -0.0048
-1 -8 6 -1.0189 -0.0052
-1 -8 7 -4.7426 0.0050
-1 -8 8 -10.2413 0.0090
-1 -8 9 -5.6555 -0.0085
-1 -8 10 -4.5430 -0.0094
-1 -8 11 3.1581 0.0234
-1 -8 12 2.3379 -0.0533
-1 -7 1 -0.9458 -0.1298
-1 -7 2 28.3310 0.0813
-1 -7 3 12.2473 -0.0083
-1 -7 4 11.5361 -0.0339
-1 -7 5 -5.8262 -0.0016
-1 -7 6 -14.1565 0.0053
-1 -7 7 -18.2313 0.0013
-1 -7 8 -7.3695 -0.0093
-1 -7 9 -0.3390 0.0014
-1 -7 10 8.3932 0.0112
-1 -7 11 6.0596 -0.0145
-1 -7 12 5.6649 0.0179
-1 -6 1 25.3768 0.1158
-1 -6 2 -0.6160 -0.0418
-1 -6 3 17.9596 -0.0215
-1 -6 4 -11.6621 0.0300
-1 -6 5 -23.1183 -0.0040
-1 -6 6 -21.5108 -0.0160
-1 -6 7 -1.5847 -0.0074
-1 -6 8 7.1729 -0.0062
-1 -6 9 9.7122 0.0016
-1 -6 10 6.4340 -0.0035
-1 -6 11 9.9552 -0.0049
-1 -6 12 1.6077 -0.0088
-1 -6 13 -8.3137 0.0277
-1 -5 1 -8.2071 0.0113
-1 -5 2 31.0677 0.0012
-1 -5 3 -28.9945 0.0496
-1 -5 4 -27.1111 -0.0220
-1 -5 5 -9.8879 -0.0338
-1 -5 6 9.0591 -0.0012
-1 -5 7 7.8621 -0.0032
-1 -5 8 6.6887 0.0104
-1 -5 9 10.0291 -0.0022
-1 -5 10 12.3279 -0.0055
-1 -5 11 -6.4584 0.0100
-1 -5 12 -12.9918 0.0003
-1 -5 13 -5.9827 -0.0162
-1 -5 14 -2.4099 0.0354
-1 -4 1 35.3458 -0.1111
-1 -4 2 -50.9676 0.0572
-1 -4 3 -0.7675 -0.0456
-1 -4 4 19.7439 -0.0372
-1 -4 5 12.5775 0.0241
-1 -4 6 -1.6817 0.0122
-1 -4 7 5.0993 0.0197
-1 -4 8 16.0536 0.0017
-1 -4 9 7.2366 0.0039
-1 -4 10 -14.4891 0.0203
-1 -4 11 -7.7185 -0.0054
-1 -4 12 0.8350 0.0030
-1 -4 13 -0.7506 0.0147
-1 -4 14 2.9558 -0.0176
-1 -3 1 -41.4955 0.2106
-1 -3 2 64.5849 -0.0451
-1 -3 3 31.3652 -0.0175
-1 -3 4 -14.3811 0.0492
-1 -3 5 -20.1479 0.0144
-1 -3 6 2.7487 0.0061
-1 -3 7 10.6697 0.0012
-1 -3 8 -6.0358 -0.0006
-1 -3 9 -11.8911 0.0136
-1 -3 10 4.6903 -0.0081
-1 -3 11 4.6664 0.0070
-1 -3 12 -2.5261 0.0021
-1 -3 13 2.5343 0.0037
-1 -3 14 2.1216 0.0179
-1 -3 15 3.3428 -0.0185
-1 -2 1 116.6551 -0.1429
-1 -2 2 -13.6612 -0.0273
-1 -2 3 -58.6948 0.0270
-1 -2 4 -30.5198 -0.0212
-1 -2 5 0.4597 -0.0211
-1 -2 6 -0.6018 0.0084
-1 -2 7 -6.3709 -0.0055
-1 -2 8 10.0891 0.0085
-1 -2 9 16.5719 -0.0066
-1 -2 10 2.3684 0.0056
-1 -2 11 -6.7306 -0.0007
-1 -2 12 -1.3360 -0.0016
-1 -2 13 -2.5476 -0.0084
-1 -2 14 1.2950 -0.0085
-1 -2 15 -1.3760 -0.0001
-1 -1 1 -92.6888 -0.0135
-1 -1 2 -73.0734 0.0239
-1 -1 3 -25.0134 -0.0558
-1 -1 4 -5.9541 -0.0084
-1 -1 5 -4.3057 0.0466
-1 -1 6 15.3235 -0.0021
-1 -1 7 34.6842 0.0001
-1 -1 8 13.2677 -0.0075
-1 -1 9 -7.2214 0.0047
-1 -1 10 -13.9788 0.0074
-1 -1 11 -9.6755 -0.0102
-1 -1 12 -7.9321 -0.0066
-1 -1 13 2.2133 0.0118
-1 -1 14 2.0421 0.0017
-1 -1 15 2.2765 -0.0079
-1 -1 16 1.7948 0.0288
-1 0 1 -35.9846 0.1416
-1 0 2 -14.4284 -0.0748
-1 0 3 -10.6572 0.0413
-1 0 4 11.3539 0.0700
-1 0 5 47.4583 -0.0135
-1 0 6 44.0208 -0.0135
-1 0 7 -2.0183 -0.0036
-1 0 8 -15.0621 0.0082
-1 0 9 -19.8104 0.0156
-1 0 10 -15.6423 -0.0180
-1 0 11 -5.7601 0.0008
-1 0 12 9.7851 0.0169
-1 0 13 8.7169 -0.0077
-1 0 14 7.6524 -0.0083
-1 0 15 3.2204 0.0056
-1 0 16 -0.4454 -0.0248
-1 1 1 -18.7774 -0.2657
-1 1 2 -7.5851 0.0230
-1 1 3 31.9817 0.0213
-1 1 4 56.8926 -0.0372
-1 1 5 27.2450 -0.0183
-1 1 6 -20.6797 -0.0011
-1 1 7 -18.9783 0.0022
-1 1 8 -25.9670 0.0114
-1 1 9 -17.6984 -0.0213
-1 1 10 1.7764 0.0047
-1 1 11 16.0345 0.0071
-1 1 12 10.3512 -0.0190
-1 1 13 9.0409 -0.0012
-1 1 14 0.3436 -0.0017
-1 1 15 -5.2409 -0.0074
-1 1 16 -7.6273 0.0093
-1 2 1 5.6192 0.1475
-1 2 2 36.6550 0.0543
-1 2 3 38.3619 -0.0073
-1 2 4 8.6857 0.0151
-1 2 5 -20.8583 0.0092
-1 2 6 -9.9564 -0.0027
-1 2 7 -23.4564 0.0077
-1 2 8 -7.5653 -0.0166
-1 2 9 13.3091 0.0073
-1 2 10 18.7258 0.0020
-1 2 11 10.2236 -0.0157
-1 2 12 11.0139 0.0162
-1 2 13 -2.6427 -0.0013
-1 2 14 -9.2932 -0.0059
-1 2 15 -11.2884 -0.0024
-1 2 16 -5.4594 -0.0106
-1 2 17 2.9140 0.0261
-1 3 1 10.8769 0.0829
-1 3 2 12.8592 -0.0516
-1 3 3 7.0737 0.0354
-1 3 4 -9.2138 0.0062
-1 3 5 -1.2214 -0.0178
-1 3 6 -20.4647 0.0040
-1 3 7 2.5275 -0.0019
-1 3 8 11.0571 0.0195
-1 3 9 8.3551 0.0109
-1 3 10 5.0597 -0.0063
-1 3 11 9.3088 0.0204
-1 3 12 -8.8228 0.0007
-1 3 13 -12.7677 -0.0000
-1 3 14 -10.7397 0.0002
-1 3 15 -0.2258 0.0055
-1 3 16 5.3645 -0.0120
-1 3 17 1.9446 -0.0245
-1 4 1 9.5083 -0.2475
-1 4 2 17.3920 0.0326
-1 4 3 0.5472 -0.0262
-1 4 4 8.5138 -0.0467
-1 4 5 -12.3532 0.0004
-1 4 6 7.5769 0.0129
-1 4 7 -4.2934 0.0186
-1 4 8 -2.8772 -0.0028
-1 4 9 3.3644 -0.0119
-1 4 10 8.3878 0.0187
-1 4 11 -10.5435 0.0032
-1 4 12 -7.8111 -0.0025
-1 4 13 -3.5566 -0.0029
-1 4 14 4.4851 -0.0050
-1 4 15 3.7878 -0.0142
-1 4 16 2.0750 0.0222
-1 4 17 5.7011 0.0120
-1 5 1 20.6642 0.1894
-1 5 2 9.6776 0.0120
-1 5 3 26.4431 -0.0163
-1 5 4 -4.3137 0.0326
-1 5 5 -2.7912 0.0236
-1 5 6 -27.5408 0.0026
-1 5 7 -7.3029 -0.0150
-1 5 8 3.2832 -0.0101
-1 5 9 6.9567 0.0178
-1 5 10 -5.4063 -0.0075
-1 5 11 4.0318 -0.0215
-1 5 12 3.1550 -0.0035
-1 5 13 2.3151 -0.0039
-1 5 14 -2.7051 -0.0017
-1 5 15 0.3904 0.0151
-1 5 16 2.8812 -0.0186
-1 5 17 -3.4801 0.0116
-1 6 1 21.0863 -0.0264
-1 6 2 35.6567 -0.0574
-1 6 3 -14.8340 0.0307
-1 6 4 -24.7639 -0.0039
-1 6 5 -41.6678 -0.0245
-1 6 6 -2.6079 0.0023
-1 6 7 3.9187 0.0037
-1 6 8 11.3290 0.0099
-1 6 9 8.5110 -0.0073
-1 6 10 15.6076 -0.0056
-1 6 11 2.0216 0.0156
-1 6 12 -6.8306 0.0026
-1 6 13 -11.1111 0.0033
-1 6 14 -2.6184 -0.0049
-1 6 15 0.9646 -0.0070
-1 6 16 -0.8884 0.0231
-1 6 17 2.0999 -0.0091
-1 7 1 23.3325 -0.1612
-1 7 2 -34.4125 0.0585
-1 7 3 -30.8944 -0.0180
-1 7 4 -31.1075 -0.0335
-1 7 5 6.9695 0.0298
-1 7 6 4.4747 0.0105
-1 7 7 21.2211 -0.0047
-1 7 8 19.9326 -0.0073
-1 7 9 13.7295 0.0033
-1 7 10 -9.4335 0.0108
-1 7 11 -16.9557 -0.0109
-1 7 12 -15.1404 -0.0035
-1 7 13 -2.1434 0.0001
-1 7 14 2.5329 0.0044
-1 7 15 4.4319 -0.0078
-1 7 16 5.3820 -0.0256
-1 7 17 1.0141 -0.0101
-1 8 1 -38.1140 0.2193
-1 8 2 -13.9099 0.0028
-1 8 3 -10.9798 -0.0089
-1 8 4 9.2441 0.0544
-1 8 5 0.8728 0.0116
-1 8 6 25.7271 -0.0138
-1 8 7 17.8590 -0.0092
-1 8 8 1.6044 -0.0024
-1 8 9 -17.4169 0.0084
-1 8 10 -17.1409 -0.0103
-1 8 11 -11.5230 -0.0114
-1 8 12 1.0852 0.0044
-1 8 13 4.5565 -0.0129
-1 8 14 7.7972 -0.0311
-1 8 15 7.6254 -0.0133
-1 8 16 1.3731 -0.0091
-1 8 17 -1.0007 -0.0127
-1 9 1 7.0542 -0.0924
-1 9 2 -3.9833 -0.0297
-1 9 3 0.9549 0.0469
-1 9 4 -4.0630 -0.0108
-1 9 5 22.9339 -0.0299
-1 9 6 7.7362 0.0023
-1 9 7 -5.4257 0.0074
-1 9 8 -12.3972 0.0167
-1 9 9 -9.2668 -0.0049
-1 9 10 -6.3162 -0.0061
-1 9 11 2.1227 0.0222
-1 9 12 5.8062 -0.0127
-1 9 13 10.3287 -0.0058
-1 9 14 8.0503 0.0152
-1 9 15 0.4205 -0.0078
-1 9 16 -2.6328 0.0047
-1 9 17 -7.7634 -0.0119
-1 10 1 -11.4243 -0.0472
-1 10 2 -7.9086 0.0710
-1 10 3 -4.6551 -0.0245
-1 10 4 17.7232 -0.0312
-1 10 5 -1.5179 0.0254
-1 10 6 -2.8237 0.0096
-1 10 7 -1.7810 0.0042
-1 10 8 -4.0743 -0.0088
-1 10 9 -5.2988 -0.0014
-1 10 10 -0.3330 0.0188
-1 10 11 4.1652 -0.0214
-1 10 12 8.0960 -0.0042
-1 10 13 3.7615 0.0065
-1 10 14 -3.5941 -0.0199
-1 10 15 -5.1651 -0.0157
-1 10 16 -7.9056 -0.0435
-1 10 17 -1.6579 0.0054
-1 11 1 -8.1400 0.1673
-1 11 2 -2.9191 -0.0310
-1 11 3 10.7240 -0.0060
-1 11 4 -5.6867 0.0403
-1 11 5 5.5652 -0.0086
-1 11 6 5.5625 -0.0114
-1 11 7 -3.9481 0.0004
-1 11 8 -6.2225 0.0031
-1 11 9 -2.5832 0.0017
-1 11 10 1.1914 -0.0170
-1 11 11 2.8672 0.0047
-1 11 12 1.3965 0.0083
-1 11 13 -1.9297 -0.0143
-1 11 14 -2.5409 -0.0016
-1 11 15 -3.1653 0.0012
-1 11 16 0.0722 0.0213
-1 12 1 -3.2323 -0.1419
-1 12 2 4.9974 -0.0146
-1 12 3 -2.2955 0.0138
-1 12 4 14.6874 -0.0424
-1 12 5 7.1898 -0.0133
-1 12 6 -3.7232 0.0138
-1 12 7 -4.7803 0.0053
-1 12 8 -3.7742 0.0031
-1 12 9 -1.7062 -0.0067
-1 12 10 -0.1855 0.0049
-1 12 11 3.2097 0.0155
-1 12 12 3.0515 -0.0101
-1 12 13 1.3907 0.0029
-1 12 14 -1.0070 0.0230
-1 12 15 -1.5919 -0.0127
-1 12 16 -0.8706 0.0105
-1 13 1 4.4661 0.0110
-1 13 2 3.4955 0.0279
-1 13 3 16.4018 -0.0403
-1 13 4 2.4414 0.0108
-1 13 5 -3.1637 0.0265
-1 13 6 -4.3863 -0.0065
-1 13 7 -8.0874 -0.0012
-1 13 8 -5.4364 -0.0087
-1 13 9 0.5286 0.0016
-1 13 10 6.5093 0.0139
-1 13 11 5.8767 -0.0092
-1 13 12 4.1619 -0.0132
-1 13 13 0.1519 0.0099
-1 13 14 -3.2177 -0.0061
-1 13 15 -1.4996 0.0111
-1 13 16 1.0833 -0.0113
-1 14 1 3.3866 0.1010
-1 14 2 10.3269 -0.0335
-1 14 3 -3.3493 0.0190
-1 14 4 -2.8994 0.0267
-1 14 5 -5.9290 -0.0112
-1 14 6 -10.1483 -0.0045
-1 14 7 -3.4959 -0.0034
-1 14 8 4.4919 0.0261
-1 14 9 8.4738 0.0099
-1 14 10 6.0596 -0.0158
-1 14 11 4.5320 -0.0039
-1 14 12 -0.0773 0.0223
-1 14 13 -5.0675 0.0221
-1 14 14 -4.3839 0.0021
-1 14 15 -0.9605 -0.0375
-1 15 1 6.1246 -0.1119
-1 15 2 -3.3797 -0.0066
-1 15 3 -1.6856 0.0012
-1 15 4 -5.9283 -0.0209
-1 15 5 -5.8384 -0.0019
-1 15 6 2.1382 -0.0114
-1 15 7 3.5220 0.0131
-1 15 8 4.2902 -0.0012
-1 15 9 3.6376 -0.0192
-1 15 10 2.4529 0.0058
-1 15 11 -2.7894 0.0110
-1 15 12 -6.6485 0.0015
-1 15 13 -5.1022 -0.0253
-1 15 14 -1.0852 -0.0112
-1 16 1 -2.2886 0.0396
-1 16 2 -0.9523 0.0098
-1 16 3 -3.5508 -0.0370
-1 16 4 -0.9741 0.0144
-1 16 5 3.0367 0.0159
-1 16 6 -1.2886 -0.0084
-1 16 7 1.4630 -0.0021
-1 16 8 3.2221 0.0070
-1 16 9 1.8246 0.0222
-1 16 10 -3.4677 -0.0263
-1 16 11 -4.8485 -0.0108
-1 16 12 -1.9054 -0.0048
-1 16 13 -0.5767 0.0104
-1 17 1 1.5681 0.0385
-1 17 2 1.5940 -0.0488
-1 17 3 0.9953 0.0129
-1 17 4 -0.1984 0.0387
-1 17 5 -2.6531 -0.0088
-1 17 6 3.0531 0.0043
-1 17 7 1.7668 0.0066
-1 17 8 0.2605 0.0278
-1 17 9 -2.1129 -0.0361
-1 17 10 -1.7663 -0.0127
-1 17 11 -0.7228 0.0072
-1 18 2 0.0349 -0.0034
-1 18 3 -2.8791 -0.0179
-1 18 4 -1.9318 -0.0276
-1 18 5 2.6493 0.0392
-1 18 6 -0.8169 -0.0121
-1 18 7 0.3352 -0.0151
-1 18 8 0.5568 -0.0056
-1 18 9 0.1942 0.0025
0 -17 1 0.0269 -0.0611
0 -16 1 -0.5673 -0.0234
0 -16 2 -4.1263 -0.0139
0 -16 3 -1.9667 -0.0021
0 -15 1 -7.8483 0.1218
0 -15 2 -0.4489 0.0024
0 -15 3 0.4944 0.0011
0 -15 4 1.2908 -0.0038
0 -14 1 2.7048 -0.1446
0 -14 2 0.3320 -0.0198
0 -14 3 4.2566 -0.0027
0 -14 4 6.3390 -0.0207
0 -14 5 3.1317 -0.0154
0 -14 6 -1.5721 -0.0042
0 -13 1 -3.0547 0.0316
0 -13 2 9.0897 0.0310
0 -13 3 8.3100 -0.0134
0 -13 4 -1.5235 0.0189
0 -13 5 -4.9322 0.0067
0 -13 6 -2.7824 -0.0040
0 -13 7 -4.3460 -0.0023
0 -12 1 15.7772 0.0910
0 -12 2 5.1710 -0.0352
0 -12 3 -5.5357 0.0359
0 -12 4 -1.6131 0.0010
0 -12 5 -2.4039 -0.0173
0 -12 6 -4.3665 0.0104
0 -12 7 -2.9019 0.0090
0 -12 8 4.2111 -0.0008
0 -11 1 -4.4290 -0.1908
0 -11 2 -4.6198 0.0120
0 -11 3 4.6425 -0.0243
0 -11 4 -6.3601 -0.0237
0 -11 5 -7.3514 0.0052
0 -11 6 -2.0148 -0.0150
0 -11 7 6.0085 0.0040
0 -11 8 2.7042 0.0175
0 -11 9 0.6793 -0.0312
0 -10 1 4.6610 0.1259
0 -10 2 12.0458 0.0226
0 -10 3 -11.1374 0.0164
0 -10 4 -6.9727 0.0194
0 -10 5 2.2285 -0.0022
0 -10 6 7.4206 0.0149
0 -10 7 1.9631 0.0042
0 -10 8 2.3528 -0.0108
0 -10 9 1.0355 0.0230
0 -10 10 1.0072 -0.0129
0 -9 1 20.0648 0.0462
0 -9 2 -12.9097 -0.0064
0 -9 3 -1.8931 0.0212
0 -9 4 1.9736 0.0017
0 -9 5 1.2719 -0.0084
0 -9 6 -1.4889 -0.0042
0 -9 7 3.9918 0.0056
0 -9 8 2.0715 0.0059
0 -9 9 0.5391 -0.0067
0 -9 10 -3.9497 0.0079
0 -9 11 1.3599 -0.0001
0 -8 1 -15.1601 -0.1432
0 -8 2 2.2166 0.0292
0 -8 3 -9.0952 -0.0350
0 -8 4 -10.6298 -0.0394
0 -8 5 -2.9854 0.0131
0 -8 6 11.4805 0.0056
0 -8 7 5.6832 -0.0137
0 -8 8 1.7092 -0.0040
0 -8 9 -1.7696 -0.0029
0 -8 10 1.5984 -0.0063
0 -8 11 -4.1239 -0.0031
0 -8 12 -1.0955 0.0180
0 -7 1 -1.2758 0.1893
0 -7 2 -28.1475 -0.0256
0 -7 3 -15.8596 -0.0057
0 -7 4 -0.1747 0.0425
0 -7 5 20.8663 -0.0005
0 -7 6 9.8691 -0.0065
0 -7 7 4.7355 0.0029
0 -7 8 -1.4155 -0.0049
0 -7 9 -3.9123 0.0068
0 -7 10 -10.6713 0.0029
0 -7 11 -3.8791 -0.0031
0 -7 12 -2.0622 -0.0055
0 -7 13 0.9438 0.0216
0 -6 1 -37.1234 -0.0796
0 -6 2 -3.4021 -0.0395
0 -6 3 2.1439 0.0061
0 -6 4 27.0393 -0.0212
0 -6 5 12.6715 -0.0051
0 -6 6 8.2264 -0.0028
0 -6 7 -6.7733 -0.0059
0 -6 8 -14.2517 0.0173
0 -6 9 -14.1054 -0.0026
0 -6 10 -2.5823 -0.0024
0 -6 11 -3.2406 0.0149
0 -6 12 4.6949 0.0040
0 -6 13 8.1340 -0.0264
0 -6 14 4.6290 0.0299
0 -5 1 10.7979 -0.1672
0 -5 2 -7.7612 0.0103
0 -5 3 35.5068 -0.0187
0 -5 4 12.9492 -0.0187
0 -5 5 4.8467 0.0098
0 -5 6 -15.2709 0.0023
0 -5 7 -18.1102 0.0071
0 -5 8 -11.6673 -0.0172
0 -5 9 -2.7344 -0.0003
0 -5 10 -4.0131 0.0076
0 -5 11 12.1266 -0.0100
0 -5 13 4.3728 0.0135
0 -5 14 -1.3008 -0.0283
0 -4 1 -24.3570 0.2300
0 -4 2 49.7614 0.0086
0 -4 3 -3.7025 -0.0017
0 -4 4 -11.3807 0.0529
0 -4 5 -17.8555 0.0002
0 -4 6 -8.4657 -0.0112
0 -4 7 -8.3419 -0.0162
0 -4 8 -7.4059 0.0040
0 -4 9 0.6121 0.0028
0 -4 10 21.5766 -0.0134
0 -4 11 9.3905 -0.0019
0 -4 12 -1.7825 0.0042
0 -4 13 -4.0167 -0.0077
0 -4 14 -5.8017 0.0148
0 -4 15 -4.3523 -0.0360
0 -3 1 46.0744 -0.1696
0 -3 2 -49.2023 -0.0343
0 -3 3 -12.3750 0.0359
0 -3 4 8.7832 -0.0372
0 -3 5 13.3423 -0.0263
0 -3 6 -6.7106 -0.0010
0 -3 7 -5.9807 0.0012
0 -3 8 12.3848 0.0067
0 -3 9 22.2552 -0.0102
0 -3 10 -1.2117 -0.0013
0 -3 11 -5.6296 0.0077
0 -3 12 -0.9840 0.0008
0 -3 13 -3.5585 -0.0040
0 -3 14 -4.0598 -0.0040
0 -3 15 -3.4928 0.0163
0 -2 1 -83.2258 -0.0031
0 -2 2 43.5069 0.0559
0 -2 3 57.4345 -0.0111
0 -2 4 22.2022 -0.0083
0 -2 5 -15.7621 0.0272
0 -2 6 -1.7979 -0.0008
0 -2 7 10.8931 0.0128
0 -2 8 -0.8351 -0.0084
0 -2 9 -15.3108 -0.0037
0 -2 10 -1.8545 0.0107
0 -2 11 5.5613 0.0003
0 -2 12 -1.8619 0.0022
0 -2 13 -2.8922 0.0124
0 -2 14 -1.0168 -0.0039
0 -2 15 5.8125 -0.0018
0 -2 16 2.9840 0.0337
0 -1 1 129.6723 0.1452
0 -1 2 69.4970 0.0108
0 -1 3 0.9622 0.0069
0 -1 4 -28.2125 0.0414
0 -1 5 -3.4185 -0.0231
0 -1 6 -15.1167 0.0014
0 -1 7 -30.5439 -0.0058
0 -1 8 -10.8690 -0.0018
0 -1 9 15.4438 0.0140
0 -1 10 14.7423 -0.0067
0 -1 11 1.6898 0.0082
0 -1 12 0.3974 0.0085
0 -1 13 -0.6489 -0.0113
0 -1 14 2.5622 0.0070
0 -1 15 -1.2688 0.0098
0 -1 16 -1.4693 -0.0199
0 0 1 15.5112 -0.1735
0 0 2 -26.5785 0.0111
0 0 3 -30.5789 0.0169
0 0 4 -19.5076 -0.0731
0 0 5 -54.3412 -0.0157
0 0 6 -37.7636 0.0082
0 0 7 17.7508 -0.0004
0 0 8 33.0562 0.0075
0 0 9 17.2619 -0.0202
0 0 10 3.6802 0.0111
0 0 11 -0.9700 0.0092
0 0 12 -8.9361 -0.0099
0 0 13 -6.7252 0.0028
0 0 14 -6.7010 0.0004
0 0 15 -0.1904 -0.0052
0 0 16 2.5183 0.0124
0 1 0 -53.7819 -0.2048
0 1 1 -22.6093 0.2387
0 1 2 -23.7063 0.0377
0 1 3 -40.2911 -0.0633
0 1 4 -69.6544 0.0085
0 1 5 -6.7959 0.0324
0 1 6 52.8824 0.0000
0 1 7 36.7184 0.0049
0 1 8 14.3909 -0.0180
0 1 9 5.5492 0.0174
0 1 10 -8.2281 0.0139
0 1 11 -20.0603 -0.0119
0 1 12 -11.7958 0.0014
0 1 13 -5.6160 0.0078
0 1 14 6.8082 0.0055
0 1 15 8.2023 0.0030
0 1 16 6.4781 -0.0006
0 1 17 2.1296 0.0270
0 2 0 9.8725 0.4070
0 2 1 -24.6941 -0.0953
0 2 2 -50.7400 -0.1017
0 2 3 -49.5105 -0.0054
0 2 4 30.6787 0.0064
0 2 5 57.4071 -0.0210
0 2 6 17.5568 -0.0004
0 2 7 8.3230 -0.0139
0 2 8 2.1327 0.0123
0 2 9 -21.1076 0.0097
0 2 10 -27.0573 -0.0136
0 2 11 -10.4136 0.0094
0 2 12 -2.0061 0.0062
0 2 13 13.0430 -0.0002
0 2 14 11.7021 0.0027
0 2 15 9.0663 -0.0000
0 2 16 0.4799 -0.0070
0 2 17 -5.1509 0.0017
0 3 0 -28.0111 -0.3393
0 3 1 -33.5984 -0.1193
0 3 2 -13.0251 0.0428
0 3 3 42.5953 -0.0080
0 3 4 34.0545 -0.0259
0 3 5 1.8684 0.0111
0 3 6 14.8139 -0.0012
0 3 7 0.5643 0.0083
0 3 8 -22.9290 0.0003
0 3 9 -18.2000 -0.0176
0 3 10 -2.0184 0.0126
0 3 11 2.6345 -0.0056
0 3 12 19.0444 -0.0112
0 3 13 14.2177 0.0075
0 3 14 8.6800 -0.0018
0 3 15 -5.0167 -0.0144
0 3 16 -9.2040 0.0175
0 3 17 -4.9123 -0.0169
0 4 0 -3.0982 0.0887
0 4 1 -0.1070 0.2561
0 4 2 20.7161 0.0033
0 4 3 4.6166 -0.0100
0 4 4 -2.5709 0.0468
0 4 5 20.8915 0.0242
0 4 6 -5.5716 0.0070
0 4 7 -15.8554 -0.0054
0 4 8 -7.9961 -0.0082
0 4 9 -0.5210 0.0198
0 4 10 0.8140 -0.0052
0 4 11 18.5239 -0.0102
0 4 12 9.8910 0.0097
0 4 13 2.9184 -0.0015
0 4 14 -10.3337 -0.0048
0 4 15 -8.5488 0.0120
0 4 16 -4.2823 -0.0229
0 4 17 -4.7430 0.0191
0 5 0 -18.9145 0.2621
0 5 1 -6.9505 -0.1840
0 5 2 -13.2113 -0.0845
0 5 3 -4.8079 0.0260
0 5 4 21.0222 -0.0014
0 5 5 -2.1334 -0.0296
0 5 6 3.8547 -0.0164
0 5 7 -2.9979 0.0045
0 5 8 -3.1297 0.0184
0 5 9 -1.8706 -0.0074
0 5 10 12.9101 -0.0037
0 5 11 0.9455 0.0201
0 5 12 -1.1780 0.0055
0 5 13 -7.7256 0.0083
0 5 14 -1.9474 0.0130
0 5 15 -2.6675 -0.0048
0 5 16 -1.9889 0.0294
0 5 17 6.0135 -0.0112
0 5 18 1.3451 -0.0071
0 6 0 -12.0930 -0.3325
0 6 1 -17.3582 -0.0427
0 6 2 -3.0055 0.0836
0 6 3 29.8260 -0.0018
0 6 4 17.5370 -0.0306
0 6 5 21.9246 0.0100
0 6 6 -10.4235 0.0159
0 6 7 -10.7572 0.0124
0 6 8 -10.4060 -0.0094
0 6 9 0.1251 -0.0062
0 6 10 -7.7097 0.0197
0 6 11 2.2999 -0.0022
0 6 12 3.0263 -0.0047
0 6 13 6.7970 0.0050
0 6 14 -2.0618 0.0066
0 6 15 -1.3807 0.0033
0 6 16 3.7256 -0.0145
0 6 17 -0.6525 0.0045
0 6 18 -0.1736 -0.0185
0 7 0 -16.2551 0.1390
0 7 1 7.4078 0.1780
0 7 2 43.6833 -0.0440
0 7 3 25.9954 -0.0304
0 7 4 15.3057 0.0391
0 7 5 -25.1694 0.0034
0 7 6 -17.4753 -0.0070
0 7 7 -22.1612 -0.0106
0 7 8 -8.7280 -0.0098
0 7 9 -2.6864 0.0117
0 7 10 16.6301 -0.0085
0 7 11 15.1996 -0.0090
0 7 12 9.9996 0.0040
0 7 13 -5.7460 0.0027
0 7 14 -4.6642 -0.0104
0 7 15 -2.8569 0.0020
0 7 16 -4.4012 -0.0072
0 7 17 -0.7405 -0.0109
0 7 18 0.2214 0.0282
0 8 0 18.6279 0.0896
0 8 1 43.2497 -0.2235
0 8 2 10.1912 -0.0612
0 8 3 -3.6240 0.0406
0 8 4 -27.4546 -0.0259
0 8 5 -13.9243 -0.0413
0 8 6 -27.0114 -0.0095
0 8 7 -5.4633 0.0021
0 8 8 11.5265 0.0103
0 8 9 27.0873 -0.0120
0 8 10 16.0768 -0.0014
0 8 11 3.7377 0.0168
0 8 12 -11.6061 0.0019
0 8 13 -8.1895 0.0054
0 8 14 -8.8165 0.0222
0 8 15 -6.8880 -0.0148
0 8 16 1.6031 0.0077
0 8 17 4.0686 0.0075
0 8 18 4.9385 -0.0231
0 9 0 25.0199 -0.2934
0 9 1 -9.7900 0.0495
0 9 2 -7.8677 0.1024
0 9 3 -14.2141 -0.0136
0 9 4 -6.3662 -0.0342
0 9 5 -24.0657 0.0282
0 9 6 4.2818 0.0203
0 9 7 18.9165 0.0064
0 9 8 23.2424 -0.0130
0 9 9 8.7252 0.0047
0 9 10 -1.9477 0.0197
0 9 11 -12.4408 -0.0118
0 9 12 -10.1324 -0.0024
0 9 13 -11.9521 0.0005
0 9 14 -4.8899 -0.0230
0 9 15 6.4034 0.0069
0 9 16 8.3383 -0.0171
0 9 17 7.9778 0.0051
0 10 0 -14.0170 0.2349
0 10 1 4.8551 0.1294
0 10 2 -0.9173 -0.0585
0 10 3 -4.8273 -0.0263
0 10 4 -18.6709 0.0579
0 10 5 11.7238 0.0002
0 10 6 13.8244 -0.0104
0 10 7 11.0172 -0.0056
0 10 8 3.3485 0.0084
0 10 9 -1.7116 0.0144
0 10 10 -8.8066 -0.0167
0 10 11 -10.2343 -0.0009
0 10 12 -10.3164 0.0093
0 10 13 1.3567 0.0015
0 10 14 11.0860 0.0054
0 10 15 9.1723 -0.0080
0 10 16 6.4198 0.0153
0 10 17 -1.9653 -0.0210
0 11 0 16.1201 -0.0061
0 11 1 1.2532 -0.1866
0 11 2 -6.3839 -0.0097
0 11 3 -11.8822 0.0593
0 11 4 12.5433 -0.0332
0 11 5 1.1906 -0.0184
0 11 6 0.9715 0.0032
0 11 7 3.4007 0.0076
0 11 8 0.9389 0.0124
0 11 9 -5.7231 -0.0075
0 11 10 -8.6420 0.0025
0 11 11 -6.0142 0.0154
0 11 12 3.3625 0.0002
0 11 13 8.4276 -0.0112
0 11 14 4.9911 0.0012
0 11 15 1.5219 -0.0029
0 11 16 -2.7021 -0.0165
0 11 17 -2.9630 -0.0235
0 12 0 -2.2859 -0.1740
0 12 1 -3.6074 0.1238
0 12 2 -5.4624 0.0748
0 12 3 5.8661 -0.0314
0 12 4 -11.3153 -0.0002
0 12 5 -1.4857 0.0201
0 12 6 5.9369 0.0115
0 12 7 2.6115 0.0052
0 12 8 -3.7244 -0.0118
0 12 9 -5.2918 0.0028
0 12 10 -2.0435 0.0104
0 12 11 0.7511 -0.0152
0 12 12 2.3112 -0.0064
0 12 13 2.2181 0.0154
0 12 14 1.3565 -0.0173
0 12 15 -0.5287 0.0166
0 12 16 -2.8504 -0.0108
0 12 17 -4.9497 -0.0254
0 13 0 0.6160 0.2421
0 13 1 -4.4776 0.0274
0 13 2 -2.5336 -0.0696
0 13 3 -14.6545 -0.0011
0 13 4 3.6676 0.0250
0 13 5 7.9541 -0.0030
0 13 6 4.8921 -0.0073
0 13 7 1.7567 -0.0103
0 13 8 0.2161 0.0190
0 13 9 -1.3090 0.0135
0 13 10 -3.2883 -0.0175
0 13 11 -1.6823 0.0020
0 13 12 1.3371 0.0257
0 13 13 2.6285 -0.0179
0 13 14 1.3004 0.0100
0 13 15 -2.6206 -0.0089
0 13 16 -2.6172 -0.0026
0 14 0 -6.0404 -0.1114
0 14 1 -5.1534 -0.1444
0 14 2 -9.4547 0.0145
0 14 3 8.5646 0.0278
0 14 4 6.1048 -0.0378
0 14 5 5.9953 -0.0140
0 14 6 5.5596 0.0030
0 14 7 0.6309 0.0141
0 14 8 -6.6296 -0.0122
0 14 9 -7.5994 -0.0102
0 14 10 -1.8646 0.0080
0 14 11 2.6216 0.0125
0 14 12 3.4053 -0.0205
0 14 13 4.0750 -0.0108
0 14 14 1.6182 0.0022
0 14 15 -0.2975 0.0178
0 15 0 -5.0323 -0.0807
0 15 1 -5.9684 0.1300
0 15 2 7.1911 0.0458
0 15 3 2.1972 -0.0486
0 15 4 5.2041 -0.0017
0 15 5 3.6932 0.0152
0 15 6 -2.9730 0.0143
0 15 7 -8.1378 -0.0152
0 15 8 -5.3068 0.0026
0 15 9 1.4597 0.0188
0 15 10 4.8118 0.0054
0 15 11 4.2065 -0.0060
0 15 12 6.0735 0.0071
0 15 13 3.6569 0.0284
0 15 14 -1.5661 0.0081
0 15 15 -3.5462 -0.0005
0 16 0 -2.0561 0.1731
0 16 1 5.4444 -0.0146
0 16 2 1.2210 -0.0575
0 16 3 4.5117 0.0054
0 16 4 0.8311 -0.0050
0 16 5 -3.7731 -0.0031
0 16 6 -3.7206 -0.0004
0 16 7 -1.5378 -0.0103
0 16 8 0.7760 0.0024
0 16 9 2.3164 0.0091
0 16 10 3.2882 0.0203
0 16 11 4.7041 -0.0034
0 16 12 0.1241 0.0047
0 16 13 -3.4387 -0.0047
0 16 14 -3.7244 0.0233
0 17 0 1.9683 -0.1069
0 17 1 -1.2681 -0.0608
0 17 2 1.4916 0.0186
0 17 3 -0.0012 -0.0061
0 17 4 -1.2258 -0.0317
0 17 5 -0.7360 0.0039
0 17 6 -1.4424 0.0033
0 17 7 -0.4666 0.0130
0 17 8 0.9140 -0.0055
0 17 9 2.8125 0.0115
0 17 10 2.4422 -0.0207
0 17 11 -2.1898 -0.0141
0 17 12 -2.4041 -0.0006
0 18 2 1.9984 0.0542
0 18 3 2.1831 -0.0143
0 18 4 0.1199 -0.0079
0 18 5 -1.7221 0.0089
0 18 6 0.2143 0.0389
0 18 7 0.6237 -0.0217
0 18 8 0.6491 -0.0285
0 18 9 -0.1895 0.0046
0 18 10 -0.7912 0.0176
1 -17 0 -1.0034 -0.1082
1 -17 1 0.8234 0.0671
1 -16 0 3.0216 0.1439
1 -16 1 -3.1734 0.0309
1 -16 2 -0.4336 -0.0012
1 -16 3 1.7411 0.0087
1 -15 0 0.4060 -0.0597
1 -15 1 3.6629 -0.1326
1 -15 2 -0.0926 0.0107
1 -15 3 -0.4188 0.0192
1 -15 4 -0.5333 -0.0346
1 -15 5 -0.0220 -0.0239
1 -14 0 4.5633 -0.1316
1 -14 1 -4.1115 0.1588
1 -14 2 -1.7295 0.0454
1 -14 3 -3.5457 -0.0207
1 -14 4 -1.7586 0.0151
1 -14 5 -1.0040 0.0040
1 -14 6 0.9677 -0.0023
1 -13 0 -4.1393 0.2579
1 -13 1 -0.4952 -0.0177
1 -13 2 -8.8327 -0.0657
1 -13 3 -2.7101 0.0095
1 -13 4 2.2016 -0.0012
1 -13 5 4.5518 -0.0026
1 -13 6 1.9171 -0.0014
1 -13 7 1.3704 -0.0260
1 -12 0 -3.2184 -0.1608
1 -12 1 -16.4396 -0.1285
1 -12 2 -0.4202 0.0329
1 -12 3 6.2125 -0.0024
1 -12 4 3.9173 -0.0158
1 -12 5 1.9463 0.0010
1 -12 6 1.1740 -0.0153
1 -12 7 -0.2014 -0.0015
1 -12 8 -4.3215 -0.0024
1 -12 9 -3.8929 -0.0333
1 -11 0 -18.6078 -0.0558
1 -11 1 7.4016 0.1880
1 -11 2 6.9492 0.0148
1 -11 3 1.5136 -0.0173
1 -11 4 6.4755 0.0252
1 -11 5 4.0802 0.0071
1 -11 6 -1.7744 0.0092
1 -11 7 -7.5141 0.0000
1 -11 8 -3.7275 -0.0027
1 -11 9 2.4668 0.0257
1 -11 10 2.2812 -0.0305
1 -10 0 14.2568 0.2459
1 -10 1 -1.2792 -0.1140
1 -10 2 -2.5433 -0.0836
1 -10 3 12.8102 0.0056
1 -10 4 3.8059 0.0011
1 -10 5 -8.7204 -0.0139
1 -10 6 -10.1414 -0.0153
1 -10 7 -0.6056 -0.0015
1 -10 8 2.6663 0.0027
1 -10 9 0.7141 -0.0133
1 -10 10 0.7507 0.0152
1 -10 11 3.0302 -0.0236
1 -9 0 -21.5379 -0.2872
1 -9 1 -6.0837 -0.0801
1 -9 2 18.6369 0.0635
1 -9 3 0.1670 0.0097
1 -9 4 -11.2571 -0.0262
1 -9 5 -4.7269 0.0072
1 -9 6 3.9428 0.0073
1 -9 7 -0.6166 -0.0058
1 -9 8 -0.8280 0.0027
1 -9 9 3.9373 -0.0079
1 -9 10 6.2918 -0.0121
1 -9 11 -2.6892 0.0284
1 -9 12 -1.5101 -0.0047
1 -8 0 3.3612 0.0890
1 -8 1 26.5663 0.2080
1 -8 2 -1.9051 -0.0065
1 -8 3 -0.3018 -0.0057
1 -8 4 7.6371 0.0492
1 -8 5 2.3407 0.0024
1 -8 6 -11.2252 -0.0003
1 -8 7 -0.4942 0.0162
1 -8 8 7.9442 -0.0090
1 -8 9 4.5576 0.0078
1 -8 10 -4.5725 0.0120
1 -8 11 0.0804 -0.0180
1 -8 12 -1.0987 0.0173
1 -7 0 28.3384 0.1886
1 -7 1 0.3217 -0.1715
1 -7 2 20.7112 -0.0232
1 -7 3 13.4172 0.0310
1 -7 4 -8.5149 -0.0251
1 -7 5 -24.9178 -0.0047
1 -7 6 1.4308 0.0005
1 -7 7 8.8434 -0.0102
1 -7 8 1.5774 0.0063
1 -7 9 -1.2261 -0.0127
1 -7 10 6.6206 -0.0147
1 -7 11 0.5853 0.0196
1 -7 12 -0.3844 -0.0123
1 -7 13 -2.1734 -0.0019
1 -6 0 11.3645 -0.3098
1 -6 1 35.6390 0.0362
1 -6 2 -2.3912 0.0843
1 -6 3 -23.5372 0.0071
1 -6 4 -33.5590 -0.0054
1 -6 5 3.8493 0.0008
1 -6 6 4.2448 0.0124
1 -6 7 4.1740 0.0096
1 -6 8 10.3747 -0.0173
1 -6 9 11.7023 -0.0044
1 -6 10 -3.2471 0.0106
1 -6 11 -2.9642 -0.0097
1 -6 12 -6.3068 0.0021
1 -6 13 -2.5416 0.0044
1 -6 14 -0.2071 -0.0061
1 -5 0 26.4649 0.2317
1 -5 1 -26.8161 0.2167
1 -5 2 -23.3691 -0.0204
1 -5 3 -33.8583 -0.0330
1 -5 4 7.5468 0.0334
1 -5 5 -0.7019 0.0114
1 -5 6 12.5629 -0.0068
1 -5 7 20.9801 -0.0156
1 -5 8 9.8470 0.0006
1 -5 9 -10.1719 0.0075
1 -5 10 -5.5705 0.0018
1 -5 11 -11.8583 0.0008
1 -5 12 -5.8441 0.0061
1 -5 13 -1.8343 0.0029
1 -5 14 2.5956 0.0045
1 -4 0 -21.9319 0.1246
1 -4 1 -2.8042 -0.2718
1 -4 2 -38.0725 -0.0806
1 -4 3 14.0225 0.0344
1 -4 4 1.7692 -0.0519
1 -4 5 21.6358 -0.0359
1 -4 6 19.8524 -0.0133
1 -4 7 4.3797 -0.0018
1 -4 8 -11.3566 0.0034
1 -4 9 -8.7220 -0.0032
1 -4 10 -19.1676 -0.0026
1 -4 11 -4.7288 0.0112
1 -4 12 3.0985 -0.0017
1 -4 13 8.3095 -0.0037
1 -4 14 8.0931 0.0092
1 -4 15 2.3880 0.0122
1 -3 0 10.5098 -0.3887
1 -3 1 -44.8098 0.0928
1 -3 2 32.4864 0.0946
1 -3 3 -0.2946 -0.0344
1 -3 4 12.9197 0.0034
1 -3 5 2.9708 0.0220
1 -3 6 0.7444 0.0111
1 -3 7 -8.7539 0.0128
1 -3 8 -14.1529 -0.0046
1 -3 9 -21.9730 0.0054
1 -3 10 3.4198 0.0129
1 -3 11 9.8625 -0.0118
1 -3 12 9.0675 -0.0034
1 -3 13 5.3368 0.0127
1 -3 14 1.8540 -0.0064
1 -3 15 0.0684 -0.0029
1 -3 16 -6.6706 0.0143
1 -2 0 -34.0454 0.3647
1 -2 1 46.3860 0.1177
1 -2 2 -43.6708 -0.0505
1 -2 3 -19.3965 -0.0220
1 -2 4 -4.9983 0.0339
1 -2 5 15.6792 -0.0025
1 -2 6 -2.5496 -0.0001
1 -2 7 -11.0061 -0.0140
1 -2 8 -6.4200 0.0035
1 -2 9 16.0554 0.0083
1 -2 10 8.5358 -0.0172
1 -2 11 3.0884 -0.0053
1 -2 12 3.1505 0.0005
1 -2 13 1.9190 -0.0075
1 -2 14 -2.6244 0.0066
1 -2 15 -9.6308 -0.0075
1 -2 16 -3.5810 -0.0253
1 -1 0 17.6730 -0.0839
1 -1 1 -114.8308 -0.2284
1 -1 2 -25.2164 -0.0821
1 -1 3 24.1735 0.0516
1 -1 4 44.3403 -0.0331
1 -1 5 2.5044 -0.0153
1 -1 6 5.9589 -0.0076
1 -1 7 14.8413 0.0034
1 -1 8 9.5442 0.0085
1 -1 9 -12.9163 -0.0211
1 -1 10 -8.2647 -0.0078
1 -1 11 2.1508 -0.0033
1 -1 12 0.6296 -0.0007
1 -1 13 -4.7489 -0.0007
1 -1 14 -7.7997 -0.0103
1 -1 15 1.7692 -0.0093
1 -1 16 3.0584 0.0040
1 0 0 -137.9344 -0.1802
1 0 1 32.3057 0.1421
1 0 2 62.1924 0.1224
1 0 3 54.4159 -0.0226
1 0 4 8.1952 0.0316
1 0 5 32.3215 0.0390
1 0 6 12.9295 0.0083
1 0 7 -27.2079 0.0100
1 0 8 -37.5875 -0.0175
1 0 9 -7.5442 0.0051
1 0 10 6.5191 0.0064
1 0 11 3.4662 -0.0043
1 0 12 2.3667 -0.0051
1 0 13 1.8790 0.0080
1 0 14 7.1523 0.0020
1 0 15 -0.5310 0.0061
1 0 16 -2.6160 0.0139
1 0 17 -0.6168 0.0217
1 1 0 99.4621 0.3053
1 1 1 55.1907 -0.0640
1 1 2 36.4726 -0.0823
1 1 3 16.2593 0.0310
1 1 4 41.2811 0.0315
1 1 5 -29.0642 -0.0318
1 1 6 -71.2838 -0.0110
1 1 7 -38.0485 -0.0172
1 1 8 7.3073 0.0083
1 1 9 9.0178 0.0037
1 1 10 10.6269 -0.0200
1 1 11 14.9211 0.0030
1 1 12 8.4353 0.0195
1 1 13 2.6516 -0.0116
1 1 14 -11.5329 -0.0035
1 1 15 -7.2072 0.0024
1 1 16 -2.1944 -0.0208
1 1 17 1.9525 0.0039
1 2 0 8.8479 -0.3219
1 2 1 22.6021 -0.0397
1 2 2 24.4585 0.0564
1 2 3 21.6465 0.0399
1 2 4 -74.5015 -0.0370
1 2 5 -73.7483 -0.0005
1 2 6 -5.5039 -0.0032
1 2 7 20.9168 0.0085
1 2 8 7.6712 0.0065
1 2 9 23.4286 -0.0239
1 2 10 24.3590 0.0124
1 2 11 4.6945 0.0107
1 2 12 -8.7633 -0.0237
1 2 13 -20.8197 -0.0014
1 2 14 -8.0015 0.0049
1 2 15 -2.3408 0.0019
1 2 16 5.1936 0.0217
1 2 17 5.7909 -0.0237
1 3 0 24.7143 0.1517
1 3 1 18.9141 0.1123
1 3 2 -11.6669 0.0368
1 3 3 -85.2716 -0.0244
1 3 4 -36.6643 0.0154
1 3 5 20.0636 -0.0049
1 3 6 9.6500 -0.0022
1 3 7 2.9104 0.0034
1 3 8 31.0139 -0.0245
1 3 9 18.3050 0.0150
1 3 10 -7.8522 0.0037
1 3 11 -18.3858 -0.0101
1 3 12 -24.4166 0.0136
1 3 13 -6.7562 0.0035
1 3 14 -1.0835 0.0086
1 3 15 11.0853 0.0118
1 3 16 10.6475 -0.0237
1 3 17 5.1535 0.0306
1 3 18 3.1150 0.0151
1 4 0 3.4786 0.0169
1 4 1 -23.0153 -0.1230
1 4 2 -52.5525 -0.0557
1 4 3 7.5409 -0.0013
1 4 4 20.5194 -0.0373
1 4 5 -7.1408 -0.0311
1 4 6 12.3061 -0.0157
1 4 7 34.5619 -0.0216
1 4 8 8.6488 0.0169
1 4 9 -11.6294 -0.0013
1 4 10 -14.9537 -0.0097
1 4 11 -19.6092 0.0107
1 4 12 -2.4998 -0.0021
1 4 13 3.3454 0.0046
1 4 14 17.0421 0.0108
1 4 15 10.9446 -0.0040
1 4 16 3.7349 0.0139
1 4 17 0.4695 -0.0229
1 4 18 -8.0759 -0.0019
1 5 0 -1.8880 -0.1867
1 5 1 -8.1293 0.0725
1 5 2 27.5443 0.0807
1 5 3 3.6820 0.0033
1 5 4 -16.4885 -0.0063
1 5 5 18.5419 0.0162
1 5 6 20.6211 0.0182
1 5 7 -0.5488 0.0263
1 5 8 -9.9866 -0.0005
1 5 9 -8.6480 -0.0110
1 5 10 -13.8251 0.0111
1 5 11 1.3862 -0.0005
1 5 12 5.3304 -0.0060
1 5 13 16.1033 -0.0071
1 5 14 5.6734 -0.0128
1 5 15 1.4002 -0.0059
1 5 16 -3.2262 -0.0179
1 5 17 -9.9295 0.0198
1 5 18 -2.4028 0.0130
1 6 0 8.9847 0.2075
1 6 1 17.6921 0.0878
1 6 2 -17.3790 -0.0231
1 6 3 -25.3414 -0.0248
1 6 4 5.8956 0.0225
1 6 5 0.1687 0.0126
1 6 6 5.4150 -0.0033
1 6 7 1.0728 -0.0138
1 6 8 1.7753 -0.0061
1 6 9 -5.6972 0.0160
1 6 10 4.6348 -0.0097
1 6 11 1.3845 -0.0122
1 6 12 7.1422 0.0007
1 6 13 -1.4357 -0.0018
1 6 14 1.9892 0.0042
1 6 15 -3.4361 0.0117
1 6 16 -7.2797 0.0095
1 6 17 -0.2695 -0.0029
1 6 18 -0.2003 0.0210
1 7 0 2.0864 -0.0328
1 7 1 -29.8330 -0.1088
1 7 2 -31.2247 -0.0326
1 7 3 -3.5482 0.0198
1 7 4 0.7147 -0.0189
1 7 5 24.9685 -0.0222
1 7 6 13.4099 -0.0084
1 7 7 10.6210 0.0073
1 7 8 -5.2075 0.0193
1 7 9 -3.9695 -0.0160
1 7 10 -12.2142 -0.0060
1 7 11 -4.1982 0.0201
1 7 12 -3.1515 0.0077
1 7 13 8.2893 0.0012
1 7 14 1.4152 0.0166
1 7 15 -0.5774 0.0028
1 7 16 2.4057 0.0172
1 7 17 0.4970 0.0235
1 7 18 1.4925 -0.0102
1 8 0 -31.7070 -0.0712
1 8 1 -27.1269 0.0880
1 8 2 5.2437 0.0610
1 8 3 15.1815 -0.0166
1 8 4 31.8430 0.0019
1 8 5 12.1682 0.0301
1 8 6 11.8021 0.0193
1 8 7 -13.5740 0.0094
1 8 8 -18.8272 -0.0141
1 8 9 -22.1418 -0.0024
1 8 10 -4.3479 0.0134
1 8 11 5.4881 -0.0045
1 8 12 16.7469 -0.0111
1 8 13 5.9415 0.0018
1 8 14 4.8321 -0.0086
1 8 15 2.0462 0.0150
1 8 16 -4.4240 -0.0173
1 8 17 -3.9608 -0.0260
1 8 18 -4.1286 -0.0225
1 9 0 -13.5489 0.1607
1 9 1 18.0688 0.0097
1 9 2 18.0777 -0.0700
1 9 3 19.9415 -0.0283
1 9 4 4.4690 0.0280
1 9 5 9.0418 -0.0086
1 9 6 -21.8235 -0.0254
1 9 7 -24.9333 -0.0227
1 9 8 -19.2300 -0.0069
1 9 9 3.0294 0.0037
1 9 10 13.1921 -0.0109
1 9 11 18.8079 -0.0061
1 9 12 7.0902 0.0094
1 9 13 5.6910 0.0004
1 9 14 -3.2256 0.0104
1 9 15 -11.9215 -0.0152
1 9 16 -8.9935 0.0056
1 9 17 -4.4303 -0.0063
1 9 18 4.3912 0.0300
1 10 0 17.4958 -0.1113
1 10 1 4.7444 -0.1173
1 10 2 6.8162 -0.0228
1 10 3 3.4683 0.0397
1 10 4 6.3252 -0.0226
1 10 5 -24.5247 -0.0231
1 10 6 -17.3456 -0.0098
1 10 7 -7.6710 0.0016
1 10 8 7.7923 0.0090
1 10 9 13.3692 -0.0079
1 10 10 15.5222 0.0014
1 10 11 7.2348 0.0161
1 10 12 2.8233 -0.0092
1 10 13 -10.6778 -0.0103
1 10 14 -16.0908 0.0040
1 10 15 -7.7424 0.0172
1 10 16 -0.6273 -0.0065
1 10 17 7.0898 0.0160
1 10 18 4.6791 -0.0077
1 11 0 -7.9818 -0.0353
1 11 1 4.2114 0.0922
1 11 2 6.6347 0.0637
1 11 3 3.3143 -0.0250
1 11 4 -20.8883 0.0037
1 11 5 -3.4559 0.0179
1 11 6 0.8525 0.0092
1 11 7 5.1500 0.0006
1 11 8 8.3038 -0.0122
1 11 9 10.6688 0.0018
1 11 10 5.9785 0.0150
1 11 11 -0.5091 -0.0201
1 11 12 -12.2800 -0.0096
1 11 13 -12.9736 0.0270
1 11 14 -2.2531 0.0005
1 11 15 3.9166 -0.0165
1 11 16 6.5650 -0.0107
1 11 17 5.0854 0.0056
1 12 0 6.4174 0.1150
1 12 1 4.9963 -0.0197
1 12 2 0.4736 -0.0559
1 12 3 -11.4013 0.0029
1 12 4 7.8820 0.0192
1 12 5 -0.2039 -0.0135
1 12 6 -2.0365 -0.0266
1 12 7 2.9498 -0.0095
1 12 8 6.8841 0.0084
1 12 9 3.3951 0.0126
1 12 10 -2.5319 -0.0142
1 12 11 -8.4832 0.0026
1 12 12 -7.3769 0.0181
1 12 13 -0.5964 -0.0182
1 12 14 2.9762 0.0004
1 12 15 4.1311 -0.0146
1 12 16 5.2661 0.0163
1 12 17 5.0528 0.0122
1 13 0 1.8194 -0.1113
1 13 1 2.1424 -0.0391
1 13 2 -0.6720 0.0307
1 13 3 10.8507 0.0235
1 13 4 -7.5658 -0.0307
1 13 5 -7.4763 -0.0163
1 13 6 -1.1426 0.0149
1 13 7 2.8416 0.0137
1 13 8 0.3837 -0.0024
1 13 9 -1.9480 -0.0155
1 13 10 -3.3497 0.0064
1 13 11 -2.4192 0.0082
1 13 12 -1.0017 -0.0184
1 13 13 0.4120 0.0173
1 13 14 3.3240 -0.0084
1 13 15 5.9163 0.0045
1 13 16 1.8688 0.0102
1 13 17 -4.9271 0.0223
1 14 0 5.7529 0.0312
1 14 1 3.9028 0.0963
1 14 2 6.3556 0.0262
1 14 3 -12.0994 -0.0305
1 14 4 -6.0548 0.0240
1 14 5 -2.7085 0.0247
1 14 6 0.3049 0.0071
1 14 7 1.6093 -0.0002
1 14 8 4.8072 -0.0002
1 14 9 2.7300 0.0117
1 14 10 -0.5078 0.0195
1 14 11 -2.9778 -0.0088
1 14 12 -1.1718 0.0059
1 14 13 1.0022 0.0016
1 14 14 2.6180 0.0030
1 14 15 -0.1391 0.0057
1 14 16 -3.3009 0.0120
1 15 0 4.7680 0.0755
1 15 1 2.3769 -0.0587
1 15 2 -10.8604 -0.0484
1 15 3 -2.3161 0.0319
1 15 4 -3.7212 -0.0019
1 15 5 -0.0806 -0.0137
1 15 6 4.3978 -0.0077
1 15 7 9.2010 0.0028
1 15 8 3.3481 0.0041
1 15 9 -3.9179 0.0096
1 15 10 -6.3249 -0.0079
1 15 11 -0.8282 0.0005
1 15 12 -0.9062 0.0087
1 15 13 0.1050 0.0036
1 15 14 2.5209 -0.0000
1 15 15 1.8174 -0.0129
1 16 0 -2.4502 -0.1211
1 16 1 -10.1918 -0.0078
1 16 2 -2.3963 0.0456
1 16 3 -4.9103 -0.0018
1 16 4 1.1182 -0.0093
1 16 5 5.2105 -0.0159
1 16 6 7.2711 -0.0023
1 16 7 0.9235 0.0172
1 16 8 -4.0386 0.0032
1 16 9 -4.2999 -0.0167
1 16 10 1.0520 0.0065
1 16 11 -0.9235 0.0248
1 16 12 1.8775 0.0025
1 16 13 5.4759 -0.0058
1 16 14 4.1502 -0.0079
1 17 0 -5.1061 0.0690
1 17 1 0.3537 0.0535
1 17 2 -2.4488 0.0113
1 17 3 2.4453 -0.0010
1 17 4 3.9166 0.0041
1 17 5 3.9145 -0.0034
1 17 6 -0.4253 0.0019
1 17 7 -1.9465 -0.0084
1 17 8 -1.8818 -0.0038
1 17 9 -0.4936 0.0123
1 17 10 -2.0759 0.0255
1 17 11 3.5337 0.0023
1 17 12 5.0591 -0.0069
1 17 13 2.6000 0.0163
1 18 2 0.1080 -0.0393
1 18 3 0.9674 0.0338
1 18 4 2.2278 0.0133
1 18 5 0.0071 -0.0382
1 18 6 -0.5824 -0.0238
1 18 7 -0.9851 0.0405
1 18 8 -0.9011 0.0199
1 18 9 -1.2476 -0.0298
1 18 10 2.7727 -0.0180
1 18 11 2.7805 0.0183
2 -17 0 2.2275 0.0899
2 -17 1 -0.3967 -0.0380
2 -16 0 -2.6705 -0.0763
2 -16 1 6.4884 -0.0340
2 -16 2 3.2136 0.0087
2 -16 3 -4.1224 -0.0122
2 -15 0 4.5640 0.0070
2 -15 1 -2.3296 0.0725
2 -15 2 -4.1800 -0.0090
2 -15 3 -1.5031 0.0048
2 -15 4 0.8749 0.0507
2 -15 5 -0.0780 0.0078
2 -14 0 -5.0082 0.1055
2 -14 1 2.2219 -0.0853
2 -14 2 2.4271 -0.0295
2 -14 3 2.8062 0.0062
2 -14 4 -1.6029 -0.0117
2 -14 5 0.7202 0.0084
2 -14 6 2.5376 -0.0013
2 -13 0 8.1402 -0.1565
2 -13 1 3.5727 -0.0210
2 -13 2 5.7310 0.0293
2 -13 3 -2.5904 0.0149
2 -13 4 -1.2371 -0.0033
2 -13 5 -1.8652 -0.0024
2 -13 6 -1.1939 0.0146
2 -13 7 -0.3940 0.0176
2 -13 8 -0.5159 -0.0015
2 -12 0 5.7922 0.0546
2 -12 1 10.7114 0.0945
2 -12 2 -5.3301 0.0197
2 -12 3 -5.6592 -0.0190
2 -12 4 -3.8768 0.0246
2 -12 5 -1.1549 0.0144
2 -12 6 1.2532 -0.0012
2 -12 7 1.2864 -0.0008
2 -12 8 1.5921 0.0018
2 -12 9 1.5707 -0.0008
2 -11 0 12.0095 0.0814
2 -11 1 -12.7313 -0.0843
2 -11 2 -9.3321 -0.0489
2 -11 3 -4.4762 0.0195
2 -11 4 -3.2382 -0.0265
2 -11 5 0.8308 -0.0146
2 -11 6 3.0252 0.0029
2 -11 7 4.6237 -0.0081
2 -11 8 2.4831 -0.0042
2 -11 9 -3.3805 0.0031
2 -11 10 -2.0344 -0.0051
2 -10 0 -20.1946 -0.1565
2 -10 1 -6.3036 0.0106
2 -10 2 -3.5212 0.0587
2 -10 3 -6.7847 -0.0055
2 -10 4 3.2832 -0.0014
2 -10 5 10.3230 0.0214
2 -10 6 7.4775 0.0103
2 -10 7 -0.9675 0.0083
2 -10 8 -5.6890 0.0175
2 -10 9 -2.4726 -0.0045
2 -10 10 -1.6162 0.0004
2 -10 11 -1.9508 0.0217
2 -9 0 7.7921 0.1131
2 -9 1 -3.9278 0.0710
2 -9 2 -12.4621 -0.0298
2 -9 3 7.0442 -0.0282
2 -9 4 15.0425 0.0288
2 -9 5 3.7153 0.0051
2 -9 6 -7.0166 -0.0051
2 -9 7 -3.7449 0.0091
2 -9 8 -0.1953 -0.0114
2 -9 9 -3.6772 0.0157
2 -9 10 -3.2592 0.0009
2 -9 11 5.5045 -0.0327
2 -9 12 4.0291 0.0256
2 -8 0 -17.4896 -0.0208
2 -8 1 -21.6667 -0.1382
2 -8 2 9.1893 -0.0400
2 -8 3 9.1999 0.0285
2 -8 4 -4.3187 -0.0278
2 -8 5 -4.5118 -0.0183
2 -8 6 6.2455 -0.0001
2 -8 7 -1.2869 -0.0157
2 -8 8 -8.3477 0.0100
2 -8 9 -0.9733 -0.0130
2 -8 10 8.5476 -0.0187
2 -8 11 3.1672 0.0112
2 -8 12 0.0496 -0.0333
2 -8 13 -3.8900 0.0254
2 -7 0 -21.8995 -0.1462
2 -7 1 10.5359 0.0709
2 -7 2 -4.8421 0.0576
2 -7 3 -5.2059 -0.0125
2 -7 4 11.1576 0.0124
2 -7 5 19.8604 0.0191
2 -7 6 -8.4005 0.0055
2 -7 7 -12.4882 0.0097
2 -7 8 4.2329 0.0011
2 -7 9 7.2363 0.0010
2 -7 10 -3.7353 0.0017
2 -7 11 -1.7630 -0.0211
2 -7 12 -1.4085 0.0160
2 -7 13 0.8728 -0.0165
2 -6 0 2.8219 0.1652
2 -6 1 -16.7139 0.0345
2 -6 2 13.1389 -0.0341
2 -6 3 32.7769 -0.0056
2 -6 4 26.6098 0.0226
2 -6 5 -18.7432 0.0028
2 -6 6 -11.2584 -0.0147
2 -6 7 3.7373 -0.0014
2 -6 8 -4.0912 -0.0028
2 -6 9 -10.2975 0.0005
2 -6 10 3.7656 -0.0071
2 -6 11 4.4625 -0.0014
2 -6 12 4.6255 0.0014
2 -6 13 -2.7264 0.0177
2 -6 14 -1.0599 -0.0193
2 -5 0 -9.7886 -0.0763
2 -5 1 43.4411 -0.1329
2 -5 2 39.0851 -0.0137
2 -5 3 16.8708 0.0375
2 -5 4 -30.7533 -0.0257
2 -5 5 -5.2226 -0.0211
2 -5 6 -6.3197 0.0036
2 -5 7 -19.8128 0.0013
2 -5 8 -7.1197 0.0150
2 -5 9 17.9823 -0.0047
2 -5 10 9.0129 -0.0140
2 -5 11 6.1985 0.0142
2 -5 12 -1.6303 0.0030
2 -5 13 1.5737 -0.0154
2 -5 14 0.0813 0.0191
2 -5 15 -3.6894 -0.0212
2 -4 0 51.4757 -0.1094
2 -4 1 19.3947 0.1579
2 -4 2 6.6310 0.0964
2 -4 3 -34.5813 -0.0204
2 -4 4 1.0835 0.0352
2 -4 5 -22.5156 0.0371
2 -4 6 -26.4521 0.0215
2 -4 7 4.7960 0.0226
2 -4 8 28.1380 -0.0067
2 -4 9 8.8750 -0.0022
2 -4 10 7.7410 0.0212
2 -4 11 -2.4719 -0.0072
2 -4 12 -2.3850 -0.0036
2 -4 13 -9.3832 0.0123
2 -4 14 -8.3734 -0.0249
2 -4 15 0.3371 0.0214
2 -3 0 0.1893 0.2681
2 -3 1 15.7885 0.0022
2 -3 2 -32.7188 -0.0755
2 -3 3 2.0600 0.0049
2 -3 4 -34.2217 0.0017
2 -3 5 -13.0802 -0.0121
2 -3 6 18.3928 -0.0176
2 -3 7 26.9413 -0.0248
2 -3 8 7.9117 -0.0014
2 -3 9 11.7469 0.0049
2 -3 10 -7.3383 -0.0133
2 -3 11 -11.1076 0.0009
2 -3 12 -14.2717 0.0058
2 -3 13 -4.1999 -0.0120
2 -3 14 3.7936 0.0133
2 -3 15 4.7382 -0.0071
2 -3 16 6.2265 0.0041
2 -2 0 27.4020 -0.1943
2 -2 1 -31.9434 -0.1308
2 -2 2 18.1020 -0.0181
2 -2 3 -25.5345 0.0161
2 -2 4 4.1260 -0.0309
2 -2 5 11.9562 -0.0188
2 -2 6 14.6335 -0.0029
2 -2 7 5.3555 0.0084
2 -2 8 8.7664 0.0068
2 -2 9 -16.4153 -0.0045
2 -2 10 -14.6194 0.0041
2 -2 11 -10.1764 0.0095
2 -2 12 2.2222 -0.0013
2 -2 13 5.8072 -0.0018
2 -2 14 7.3372 0.0017
2 -2 15 9.2578 0.0188
2 -2 16 1.4876 0.0032
2 -1 0 -13.3744 -0.0081
2 -1 1 58.4147 0.1469
2 -1 2 -22.4657 0.1070
2 -1 3 -13.5529 -0.0447
2 -1 4 -20.6897 0.0198
2 -1 5 7.6792 0.0372
2 -1 6 3.4675 0.0113
2 -1 7 1.4449 0.0098
2 -1 8 -13.1324 -0.0078
2 -1 9 1.1378 0.0033
2 -1 10 0.4929 0.0146
2 -1 11 3.7496 -0.0018
2 -1 12 4.9698 -0.0098
2 -1 13 8.5271 0.0132
2 -1 14 7.3987 0.0051
2 -1 15 -5.2231 -0.0024
2 -1 16 -6.1329 0.0124
2 -1 17 -2.4680 0.0055
2 0 0 71.6717 0.1744
2 0 1 -64.2948 -0.0615
2 0 2 -51.6294 -0.1623
2 0 3 -40.0840 -0.0015
2 0 4 15.6519 0.0107
2 0 5 -1.2700 -0.0356
2 0 6 7.2045 -0.0163
2 0 7 14.8922 -0.0232
2 0 8 22.5344 0.0002
2 0 9 -2.7639 0.0072
2 0 10 -6.2928 -0.0151
2 0 11 -1.7255 -0.0115
2 0 12 3.0768 0.0097
2 0 13 -0.3795 -0.0159
2 0 14 -10.2888 -0.0044
2 0 15 -1.9605 -0.0044
2 0 16 -0.1193 -0.0421
2 0 17 -1.6462 -0.0023
2 1 0 -112.2878 -0.2565
2 1 1 -47.3213 -0.0717
2 1 2 -20.8062 0.0792
2 1 3 24.8126 0.0462
2 1 4 -1.9852 -0.0320
2 1 5 43.5445 0.0158
2 1 6 51.7415 0.0133
2 1 7 18.8131 0.0150
2 1 8 -25.7818 0.0102
2 1 9 -15.4632 -0.0146
2 1 10 -8.3041 0.0049
2 1 11 -4.3233 0.0094
2 1 12 -4.0703 -0.0196
2 1 13 -3.1280 0.0037
2 1 14 10.4143 -0.0060
2 1 15 2.3678 -0.0127
2 1 16 -1.8313 0.0407
2 1 17 -2.4739 -0.0093
2 2 0 -1.5222 0.1880
2 2 1 -0.6179 0.1464
2 2 2 18.9599 0.0523
2 2 3 8.0093 -0.0576
2 2 4 81.1441 0.0395
2 2 5 48.8640 0.0256
2 2 6 -21.3516 -0.0018
2 2 7 -46.8873 0.0039
2 2 8 -13.2606 -0.0197
2 2 9 -16.6221 0.0161
2 2 10 -9.7330 0.0052
2 2 11 2.3685 -0.0178
2 2 12 13.3250 0.0129
2 2 13 20.4186 0.0005
2 2 14 -0.0741 -0.0069
2 2 15 -3.5752 0.0068
2 2 16 -5.7889 -0.0247
2 2 17 -1.8463 0.0131
2 2 18 -1.3239 0.0026
2 3 0 -6.5386 0.0230
2 3 1 9.7710 -0.0691
2 3 2 25.4654 -0.1254
2 3 3 85.2950 0.0313
2 3 4 6.9067 -0.0018
2 3 5 -51.4721 -0.0241
2 3 6 -34.8288 -0.0006
2 3 7 -3.2340 -0.0213
2 3 8 -24.6896 0.0245
2 3 9 -4.7708 0.0008
2 3 10 17.3483 -0.0192
2 3 11 26.7833 0.0094
2 3 12 19.6382 -0.0033
2 3 13 -6.7206 -0.0141
2 3 14 -6.3647 -0.0066
2 3 15 -11.4069 0.0024
2 3 16 -6.0049 0.0185
2 3 17 -2.0251 -0.0141
2 3 18 0.6242 -0.0270
2 4 0 7.3007 -0.1006
2 4 1 31.1882 -0.0278
2 4 2 52.7433 0.0912
2 4 3 -35.8263 0.0197
2 4 4 -45.2515 0.0058
2 4 5 -9.7980 0.0246
2 4 6 -10.2457 0.0086
2 4 7 -32.4233 0.0337
2 4 8 5.4981 -0.0037
2 4 9 24.7054 -0.0155
2 4 10 23.4669 0.0155
2 4 11 9.0676 0.0022
2 4 12 -12.5298 -0.0067
2 4 13 -9.8651 0.0012
2 4 14 -17.3039 -0.0024
2 4 15 -7.2073 -0.0059
2 4 16 -0.1613 -0.0022
2 4 17 5.6404 -0.0032
2 4 18 10.6995 0.0061
2 5 0 15.2958 0.0958
2 5 1 10.9478 0.0572
2 5 2 -47.0201 -0.0351
2 5 3 -11.8144 -0.0406
2 5 4 8.2517 0.0010
2 5 5 -20.2487 -0.0028
2 5 6 -20.9621 -0.0108
2 5 7 20.5902 -0.0320
2 5 8 26.1107 -0.0222
2 5 9 14.1168 0.0171
2 5 10 2.5728 -0.0048
2 5 11 -11.1509 -0.0157
2 5 12 -10.5891 0.0043
2 5 13 -18.7851 0.0017
2 5 14 -3.5027 0.0065
2 5 15 3.7835 0.0217
2 5 16 10.6225 0.0072
2 5 17 11.5213 -0.0052
2 5 18 0.6826 0.0019
2 6 0 -7.1536 -0.0423
2 6 1 -22.4777 -0.0894
2 6 2 25.4528 -0.0575
2 6 3 16.5430 0.0365
2 6 4 -16.7995 0.0075
2 6 5 -1.3909 -0.0228
2 6 6 18.1306 -0.0103
2 6 7 13.9038 -0.0016
2 6 8 1.2641 0.0222
2 6 9 -0.8423 -0.0062
2 6 10 -8.6147 -0.0103
2 6 11 -8.2020 0.0135
2 6 12 -13.4186 0.0071
2 6 13 2.6440 0.0030
2 6 14 5.0589 -0.0024
2 6 15 11.2780 -0.0072
2 6 16 7.6739 0.0075
2 6 17 -1.9535 0.0141
2 6 18 -1.8666 -0.0020
2 7 0 7.0618 -0.0524
2 7 1 39.4557 0.0200
2 7 2 11.1047 0.1028
2 7 3 -12.9155 0.0140
2 7 4 -0.3431 -0.0082
2 7 5 -5.9895 0.0236
2 7 6 -3.2533 0.0166
2 7 7 -4.4671 0.0145
2 7 8 6.3513 -0.0087
2 7 9 0.4347 0.0010
2 7 10 1.0632 0.0136
2 7 11 -4.1002 -0.0089
2 7 12 4.2896 -0.0111
2 7 13 -1.1784 -0.0028
2 7 14 6.0549 -0.0031
2 7 15 2.0657 0.0049
2 7 16 -2.5001 -0.0090
2 7 17 -2.2513 -0.0303
2 7 18 -4.9246 -0.0193
2 8 0 31.8937 0.0478
2 8 1 0.8210 0.0450
2 8 2 -16.1942 -0.0473
2 8 3 -12.5363 -0.0335
2 8 4 -21.9659 0.0063
2 8 5 -5.9778 -0.0046
2 8 6 0.4177 -0.0157
2 8 7 19.7997 -0.0228
2 8 8 11.1744 -0.0045
2 8 9 6.8263 0.0124
2 8 10 -4.9754 -0.0137
2 8 11 -5.1411 -0.0115
2 8 12 -11.1077 0.0144
2 8 13 1.5627 0.0023
2 8 14 -0.0264 -0.0017
2 8 15 1.6459 -0.0043
2 8 16 2.6916 0.0071
2 8 17 -0.6567 0.0130
2 8 18 1.8251 0.0437
2 9 0 -6.6724 -0.0408
2 9 1 -21.2688 -0.0591
2 9 2 -18.2899 -0.0078
2 9 3 -17.1101 0.0469
2 9 4 1.8964 0.0053
2 9 5 6.0582 -0.0149
2 9 6 27.3439 0.0048
2 9 7 14.5962 0.0157
2 9 8 4.1467 0.0249
2 9 9 -13.1219 -0.0077
2 9 10 -15.0617 -0.0070
2 9 11 -14.2848 0.0196
2 9 12 2.4029 -0.0009
2 9 13 2.4692 -0.0011
2 9 14 8.3323 0.0017
2 9 15 9.1467 0.0065
2 9 16 3.1377 -0.0047
2 9 17 0.4447 0.0068
2 9 18 -5.0111 -0.0481
2 10 0 -18.4055 -0.0001
2 10 1 -10.1886 0.0614
2 10 2 -5.8353 0.0984
2 10 3 5.5307 -0.0136
2 10 4 7.9543 -0.0299
2 10 5 26.8645 0.0262
2 10 6 7.9874 0.0246
2 10 7 -3.6506 0.0079
2 10 8 -17.6190 -0.0221
2 10 9 -17.0189 -0.0053
2 10 10 -11.5977 0.0174
2 10 11 3.8012 -0.0090
2 10 12 6.4095 -0.0003
2 10 13 14.2319 0.0037
2 10 14 11.3985 -0.0103
2 10 15 1.0130 -0.0111
2 10 16 -4.6532 0.0035
2 10 17 -9.0542 -0.0176
2 10 18 -3.0365 0.0210
2 11 0 0.5145 0.0594
2 11 1 -2.5630 0.0298
2 11 2 2.0924 -0.0831
2 11 3 7.6734 -0.0432
2 11 4 21.7621 0.0258
2 11 5 -2.3529 0.0014
2 11 6 -7.6150 -0.0198
2 11 7 -12.6821 -0.0221
2 11 8 -11.3130 -0.0005
2 11 9 -6.6335 0.0122
2 11 10 4.3504 -0.0149
2 11 11 8.5632 0.0019
2 11 12 15.0275 0.0077
2 11 13 8.2893 -0.0171
2 11 14 -4.7737 0.0029
2 11 15 -8.9069 0.0201
2 11 16 -8.3284 0.0139
2 11 17 -3.6568 0.0031
2 11 18 -2.9773 -0.0083
2 12 0 -4.8143 -0.0398
2 12 1 -0.1967 -0.0678
2 12 2 6.4174 0.0078
2 12 3 13.2837 0.0459
2 12 4 -8.8968 -0.0126
2 12 5 -2.8501 -0.0117
2 12 6 -3.6336 0.0110
2 12 7 -5.8519 0.0029
2 12 8 -3.8021 0.0056
2 12 9 3.9352 -0.0179
2 12 10 7.5718 -0.0021
2 12 11 11.0334 0.0102
2 12 12 4.6431 -0.0117
2 12 13 -6.0696 0.0021
2 12 14 -8.2289 0.0060
2 12 15 -5.8539 0.0035
2 12 16 -3.8038 -0.0256
2 12 17 -1.8603 -0.0131
2 13 0 -1.0387 -0.0018
2 13 1 2.3933 0.0430
2 13 2 3.3393 0.0461
2 13 3 -9.1496 -0.0262
2 13 4 6.2700 -0.0021
2 13 5 2.0230 0.0183
2 13 6 -3.8476 -0.0091
2 13 7 -3.2161 -0.0043
2 13 8 3.0957 -0.0190
2 13 9 5.0464 0.0001
2 13 10 6.0202 0.0130
2 13 11 1.1651 -0.0086
2 13 12 -4.4582 -0.0077
2 13 13 -5.5897 -0.0072
2 13 14 -5.5088 0.0069
2 13 15 -4.1084 0.0008
2 13 16 1.6872 -0.0077
2 13 17 8.1437 -0.0242
2 14 0 -1.0729 0.0366
2 14 1 -1.2019 -0.0137
2 14 2 -3.8766 -0.0632
2 14 3 11.7903 -0.0030
2 14 4 1.5375 0.0091
2 14 5 -2.9614 -0.0118
2 14 6 -3.5369 -0.0141
2 14 7 -0.4291 -0.0201
2 14 8 -1.1674 0.0081
2 14 9 0.7892 0.0029
2 14 10 -0.8034 -0.0270
2 14 11 -1.4139 -0.0020
2 14 12 -2.3047 0.0131
2 14 13 -3.0900 0.0039
2 14 14 -1.9739 0.0015
2 14 15 3.6105 -0.0155
2 14 16 6.9278 -0.0167
2 15 0 -1.7931 -0.0709
2 15 1 1.4186 -0.0488
2 15 2 11.4996 0.0375
2 15 3 -0.5930 0.0350
2 15 4 0.0219 0.0069
2 15 5 -3.1762 -0.0102
2 15 6 -4.1850 0.0019
2 15 7 -6.3549 0.0232
2 15 8 0.0305 0.0018
2 15 9 3.3382 -0.0203
2 15 10 3.7435 0.0165
2 15 11 -1.1241 0.0193
2 15 12 -0.8582 -0.0152
2 15 13 -0.7467 -0.0161
2 15 14 0.2520 -0.0001
2 15 15 2.3691 0.0158
2 15 16 -0.5837 -0.0047
2 16 0 6.7127 0.0216
2 16 1 10.8720 0.0441
2 16 2 -0.1440 0.0140
2 16 3 2.1066 -0.0129
2 16 4 -4.7821 -0.0084
2 16 5 -6.4642 0.0205
2 16 6 -6.9261 0.0104
2 16 7 2.0004 -0.0147
2 16 8 6.3172 -0.0044
2 16 9 4.9548 0.0250
2 16 10 -2.6491 0.0026
2 16 11 -0.6875 -0.0055
2 16 12 -1.7084 0.0138
2 16 13 -3.1785 0.0248
2 16 14 -1.1732 0.0085
2 16 15 -0.1883 -0.0161
2 17 0 5.0218 -0.0104
2 17 1 -2.8196 -0.0408
2 17 2 -0.7028 -0.0400
2 17 3 -7.1404 -0.0030
2 17 4 -5.4169 0.0055
2 17 5 -3.2930 -0.0099
2 17 6 4.4445 -0.0159
2 17 7 5.8119 -0.0052
2 17 8 4.0809 0.0173
2 17 9 -0.8068 0.0035
2 17 10 0.9613 0.0076
2 17 11 -2.9995 0.0148
2 17 12 -3.8607 0.0134
2 17 13 -0.6190 -0.0181
2 18 3 -1.4080 -0.0188
2 18 4 -0.5730 0.0072
2 18 5 3.9170 0.0292
2 18 6 2.8140 -0.0130
2 18 7 2.0741 -0.0109
2 18 8 -0.0055 0.0181
2 18 9 0.4907 0.0239
2 18 10 -4.0859 -0.0113
2 18 11 -3.3370 0.0000
3 -17 0 -2.6830 -0.0461
3 -16 0 0.6929 0.0317
3 -16 1 -7.8131 0.0360
3 -16 2 -3.0406 -0.0065
3 -16 3 5.5956 -0.0061
3 -15 0 -8.4302 0.0427
3 -15 1 3.0004 -0.0085
3 -15 2 7.8646 -0.0181
3 -15 3 2.4450 -0.0190
3 -15 4 -2.0987 -0.0217
3 -15 5 -0.6071 0.0050
3 -14 0 5.7842 -0.0497
3 -14 1 -0.3586 -0.0047
3 -14 2 -3.3942 0.0089
3 -14 3 -2.6671 0.0217
3 -14 4 3.5161 0.0038
3 -14 5 -1.5200 -0.0223
3 -14 6 -5.4413 0.0016
3 -13 0 -10.6576 0.0461
3 -13 1 -4.2722 0.0581
3 -13 2 -0.9639 0.0251
3 -13 3 6.3856 -0.0401
3 -13 4 -1.5594 -0.0072
3 -13 5 -1.7343 0.0093
3 -13 6 1.8581 -0.0184
3 -13 7 2.3123 0.0142
3 -13 8 1.1266 0.0140
3 -12 0 -1.3114 0.0479
3 -12 1 -0.4971 -0.0376
3 -12 2 9.0585 -0.0827
3 -12 3 1.8265 0.0155
3 -12 4 1.7963 -0.0163
3 -12 5 1.3144 -0.0238
3 -12 6 -2.4087 0.0113
3 -12 7 -2.5689 -0.0065
3 -12 8 0.7183 -0.0018
3 -12 9 0.2826 0.0243
3 -11 0 0.6343 -0.0679
3 -11 1 15.2447 -0.0359
3 -11 2 6.9668 0.0595
3 -11 3 3.6643 -0.0006
3 -11 4 -0.3802 0.0078
3 -11 5 -5.6568 0.0053
3 -11 6 -3.7143 -0.0046
3 -11 7 -0.3578 0.0147
3 -11 8 -1.0900 0.0058
3 -11 9 1.6127 -0.0131
3 -11 10 0.7048 0.0305
3 -10 0 23.5029 0.0344
3 -10 1 8.2886 0.0752
3 -10 2 2.1270 -0.0053
3 -10 3 -3.6632 -0.0290
3 -10 4 -10.7674 -0.0140
3 -10 5 -7.8861 -0.0022
3 -10 6 -2.3085 0.0000
3 -10 7 0.9646 -0.0055
3 -10 8 5.9280 -0.0128
3 -10 9 4.3932 0.0210
3 -10 10 2.6160 -0.0039
3 -10 11 0.0656 -0.0063
3 -9 0 -1.5695 0.0504
3 -9 1 -0.8340 -0.0475
3 -9 2 -5.0812 -0.0676
3 -9 3 -15.3341 0.0264
3 -9 4 -11.2176 0.0056
3 -9 5 0.4666 -0.0126
3 -9 6 8.0648 0.0094
3 -9 7 7.3162 -0.0032
3 -9 8 2.2939 0.0179
3 -9 9 1.0544 -0.0007
3 -9 10 -2.6440 0.0064
3 -9 11 -7.1274 0.0089
3 -9 12 -3.3200 -0.0156
3 -8 0 7.8751 -0.0599
3 -8 1 0.0091 -0.0071
3 -8 2 -17.4107 0.0849
3 -8 3 -9.5611 -0.0090
3 -8 4 5.4842 -0.0076
3 -8 5 9.8462 0.0291
3 -8 6 1.8541 0.0051
3 -8 7 1.1975 0.0147
3 -8 8 3.0752 0.0016
3 -8 9 -3.5229 0.0059
3 -8 10 -7.8057 0.0120
3 -8 11 -2.4996 0.0041
3 -8 12 1.6804 0.0139
3 -8 13 6.1765 -0.0136
3 -7 0 -0.6988 0.0519
3 -7 1 -19.6100 0.0469
3 -7 2 -2.8885 -0.0606
3 -7 3 5.2442 -0.0330
3 -7 4 -0.4485 0.0066
3 -7 5 -6.4256 -0.0130
3 -7 6 9.2482 -0.0125
3 -7 7 8.3729 -0.0083
3 -7 8 -7.6917 -0.0146
3 -7 9 -7.0763 0.0057
3 -7 10 2.6051 0.0068
3 -7 11 3.3344 -0.0080
3 -7 12 3.9755 -0.0105
3 -7 13 -0.7962 0.0166
3 -7 14 0.7919 -0.0319
3 -6 0 -13.1831 -0.0089
3 -6 1 4.5003 -0.0818
3 -6 2 -8.4836 -0.0414
3 -6 3 -17.8568 0.0243
3 -6 4 -8.3356 -0.0065
3 -6 5 24.1918 -0.0119
3 -6 6 10.1352 0.0119
3 -6 7 -10.9319 -0.0126
3 -6 8 -0.4526 0.0149
3 -6 9 8.1030 0.0042
3 -6 10 -2.0219 -0.0141
3 -6 11 -3.2715 0.0050
3 -6 12 -3.6532 -0.0070
3 -6 13 4.2168 -0.0223
3 -6 14 -0.2100 0.0204
3 -5 0 -4.1104 -0.0607
3 -5 1 -34.6020 0.0240
3 -5 2 -24.4929 0.0857
3 -5 3 6.7502 -0.0005
3 -5 4 40.6409 0.0003
3 -5 5 4.4488 0.0262
3 -5 6 -5.3105 -0.0010
3 -5 7 11.7449 0.0154
3 -5 8 2.3792 -0.0132
3 -5 9 -18.6731 -0.0083
3 -5 10 -7.6944 0.0191
3 -5 11 -1.2780 -0.0130
3 -5 12 6.1724 -0.0024
3 -5 13 -2.4466 0.0175
3 -5 14 -2.9749 -0.0230
3 -5 15 2.9763 0.0344
3 -4 0 -47.1546 0.0791
3 -4 1 -7.2591 0.0267
3 -4 2 27.0677 -0.0725
3 -4 3 44.3560 -0.0304
3 -4 4 -8.1649 -0.0078
3 -4 5 9.2567 -0.0153
3 -4 6 18.3567 -0.0170
3 -4 7 -16.3080 -0.0339
3 -4 8 -34.0712 -0.0052
3 -4 9 -2.6239 0.0107
3 -4 10 3.8369 -0.0163
3 -4 11 6.9703 0.0002
3 -4 12 -0.5341 0.0060
3 -4 13 7.6392 -0.0072
3 -4 14 7.6422 0.0202
3 -4 15 -0.9905 -0.0329
3 -4 16 -2.7037 0.0068
3 -3 0 13.4841 -0.0857
3 -3 1 24.5892 -0.0874
3 -3 2 33.2032 0.0023
3 -3 3 -11.1316 0.0367
3 -3 4 29.8247 0.0112
3 -3 5 5.4163 -0.0081
3 -3 6 -39.7716 0.0091
3 -3 7 -34.7870 0.0224
3 -3 8 5.9053 0.0172
3 -3 9 2.6443 0.0021
3 -3 10 9.3169 0.0084
3 -3 11 7.6890 0.0164
3 -3 12 14.8195 0.0016
3 -3 13 1.4306 0.0029
3 -3 14 -8.4326 -0.0070
3 -3 15 -7.4852 0.0165
3 -3 16 -3.2208 -0.0019
3 -2 0 4.5140 0.0092
3 -2 1 25.4963 0.0853
3 -2 2 -4.3422 0.1026
3 -2 3 37.5395 0.0018
3 -2 4 -24.8382 -0.0045
3 -2 5 -46.8227 0.0280
3 -2 6 -17.2455 0.0140
3 -2 7 12.6349 0.0106
3 -2 8 -0.3639 -0.0028
3 -2 9 17.5330 0.0024
3 -2 10 16.8288 0.0193
3 -2 11 12.9838 -0.0062
3 -2 12 -9.9432 -0.0039
3 -2 13 -12.5647 0.0112
3 -2 14 -8.0615 -0.0050
3 -2 15 -3.6084 -0.0180
3 -2 16 2.5217 0.0077
3 -2 17 5.0548 -0.0031
3 -1 0 17.3791 0.0584
3 -1 1 -12.6319 0.0061
3 -1 2 31.7321 -0.1017
3 -1 3 -33.0401 -0.0275
3 -1 4 -19.2975 -0.0099
3 -1 5 -1.8978 -0.0240
3 -1 6 8.5225 -0.0062
3 -1 7 -1.6408 -0.0218
3 -1 8 22.2249 -0.0003
3 -1 9 11.9227 0.0161
3 -1 10 2.5645 -0.0142
3 -1 11 -16.1446 -0.0040
3 -1 12 -10.1868 0.0113
3 -1 13 -5.9498 -0.0168
3 -1 14 -0.6554 -0.0014
3 -1 15 9.2028 0.0122
3 -1 16 7.8800 -0.0220
3 -1 17 3.9554 0.0001
3 0 0 -19.2120 -0.0617
3 0 1 47.7330 -0.0497
3 0 2 -4.5035 0.0644
3 0 3 12.5103 0.0323
3 0 4 -13.5284 -0.0028
3 0 5 -3.4494 0.0170
3 0 6 -4.7571 0.0080
3 0 7 12.7254 0.0246
3 0 8 -2.6578 0.0187
3 0 9 0.9630 -0.0126
3 0 10 -7.6210 -0.0019
3 0 11 -1.4029 0.0145
3 0 12 -3.3347 -0.0054
3 0 13 2.4534 0.0089
3 0 14 11.8829 0.0063
3 0 15 3.4492 -0.0074
3 0 16 1.4580 0.0367
3 0 17 0.1352 0.0057
3 1 0 74.6089 0.0731
3 1 1 7.4277 0.0793
3 1 2 7.2777 0.0018
3 1 3 -38.9040 -0.0642
3 1 4 -11.9757 -0.0034
3 1 5 -23.4381 0.0076
3 1 6 -7.6961 -0.0026
3 1 7 -1.7932 -0.0084
3 1 8 20.0347 -0.0283
3 1 9 5.2351 -0.0063
3 1 10 3.2447 0.0107
3 1 11 -5.2488 -0.0121
3 1 12 1.0847 -0.0036
3 1 13 4.9703 0.0047
3 1 14 -6.3158 0.0012
3 1 15 0.5400 0.0116
3 1 16 -0.3875 -0.0338
3 1 17 -2.8939 -0.0071
3 1 18 -5.1791 -0.0003
3 2 0 -15.2119 -0.0517
3 2 1 -9.8812 -0.1021
3 2 2 -42.6523 -0.1248
3 2 3 -12.8875 0.0279
3 2 4 -45.4278 0.0051
3 2 5 -3.8996 -0.0270
3 2 6 32.2808 -0.0018
3 2 7 44.4614 -0.0222
3 2 8 6.2685 0.0090
3 2 9 3.7402 0.0087
3 2 10 -7.9076 -0.0187
3 2 11 -4.2423 0.0015
3 2 12 -8.1299 0.0120
3 2 13 -12.5590 -0.0057
3 2 14 5.4050 -0.0042
3 2 15 2.5265 -0.0165
3 2 16 0.5344 0.0089
3 2 17 -3.2158 0.0167
3 2 18 0.2150 -0.0138
3 3 0 -4.4601 -0.0689
3 3 1 -28.1995 -0.0054
3 3 2 -15.2223 0.1445
3 3 3 -48.8169 0.0191
3 3 4 27.0720 -0.0008
3 3 5 59.0635 0.0392
3 3 6 36.9025 0.0002
3 3 7 -7.2799 0.0248
3 3 8 4.7508 0.0018
3 3 9 -13.4691 -0.0144
3 3 10 -16.0228 0.0155
3 3 11 -20.3214 0.0088
3 3 12 -7.3651 -0.0112
3 3 13 16.1051 0.0058
3 3 14 7.5964 -0.0030
3 3 15 6.2847 -0.0135
3 3 16 -0.0014 0.0029
3 3 17 1.1686 -0.0199
3 3 18 -0.7601 0.0185
3 4 0 -18.0240 0.0832
3 4 1 -19.8841 0.1034
3 4 2 -31.7343 -0.0565
3 4 3 53.4272 -0.0281
3 4 4 48.0978 0.0122
3 4 5 9.9330 -0.0226
3 4 6 -7.7676 -0.0070
3 4 7 10.3383 -0.0231
3 4 8 -22.3212 -0.0194
3 4 9 -24.9795 0.0114
3 4 10 -18.7298 -0.0043
3 4 11 7.3202 -0.0145
3 4 12 23.8536 0.0050
3 4 13 10.0840 -0.0059
3 4 14 10.1298 -0.0067
3 4 15 0.7912 0.0175
3 4 16 -1.2925 -0.0092
3 4 17 -7.6720 0.0272
3 4 18 -8.0003 -0.0068
3 5 0 -16.4938 -0.0198
3 5 1 -7.2738 -0.0905
3 5 2 53.7855 -0.0190
3 5 3 11.3732 0.0390
3 5 4 -9.1531 0.0003
3 5 5 2.9423 -0.0046
3 5 6 3.2824 0.0058
3 5 7 -36.9738 0.0076
3 5 8 -27.4788 0.0295
3 5 9 -7.6801 0.0050
3 5 10 15.1006 -0.0003
3 5 11 19.2809 0.0167
3 5 12 9.0472 0.0049
3 5 13 11.0940 0.0073
3 5 14 -3.3171 0.0035
3 5 15 -7.9998 -0.0259
3 5 16 -14.4893 0.0048
3 5 17 -7.8424 -0.0112
3 5 18 3.9665 -0.0163
3 5 19 3.5912 0.0270
3 6 0 5.3504 -0.0497
3 6 1 25.8967 0.0348
3 6 2 -26.1192 0.0912
3 6 3 -10.8221 -0.0140
3 6 4 11.4875 -0.0192
3 6 5 -8.3641 0.0195
3 6 6 -34.3195 0.0045
3 6 7 -13.3199 0.0238
3 6 8 8.7242 -0.0094
3 6 9 15.7213 -0.0098
3 6 10 12.5524 0.0159
3 6 11 8.7226 0.0002
3 6 12 8.4397 -0.0095
3 6 13 -10.3585 -0.0089
3 6 14 -13.2931 -0.0026
3 6 15 -15.8319 0.0045
3 6 16 -2.8166 -0.0053
3 6 17 6.5218 -0.0048
3 6 18 4.0600 -0.0010
3 6 19 5.0245 -0.0103
3 7 0 -6.8551 0.0537
3 7 1 -36.2011 0.0533
3 7 2 6.9842 -0.0908
3 7 3 18.0929 -0.0344
3 7 4 -6.5311 0.0124
3 7 5 -9.1111 -0.0209
3 7 6 5.3126 -0.0041
3 7 7 12.5226 -0.0275
3 7 8 3.9522 -0.0183
3 7 9 4.8698 0.0097
3 7 10 4.5993 -0.0062
3 7 11 1.5019 -0.0138
3 7 12 -12.8121 -0.0007
3 7 13 -8.8191 0.0085
3 7 14 -10.0376 -0.0044
3 7 15 2.7104 0.0013
3 7 16 6.0368 0.0128
3 7 17 4.4956 0.0317
3 7 18 6.4993 0.0420
3 7 19 1.7842 -0.0043
3 8 0 -21.1098 -0.0053
3 8 1 23.2871 -0.0804
3 8 2 17.7790 0.0204
3 8 3 2.3923 0.0450
3 8 4 10.8488 -0.0053
3 8 5 7.0463 -0.0017
3 8 6 -0.9107 0.0057
3 8 7 -13.5715 0.0172
3 8 8 -0.0969 0.0247
3 8 9 2.8406 -0.0042
3 8 10 2.1542 -0.0008
3 8 11 -3.9996 0.0133
3 8 12 1.8783 0.0001
3 8 13 -5.0544 -0.0008
3 8 14 2.5694 0.0149
3 8 15 0.7089 0.0029
3 8 16 2.3976 0.0054
3 8 17 4.7838 0.0049
3 8 18 -1.6974 -0.0484
3 8 19 -4.0353 0.0027
3 9 0 25.2871 -0.0099
3 9 1 14.8215 0.0478
3 9 2 9.5469 0.0458
3 9 3 10.8903 -0.0298
3 9 4 -5.3897 -0.0215
3 9 5 -14.3697 0.0189
3 9 6 -22.0822 0.0085
3 9 7 -0.1110 0.0035
3 9 8 5.3538 -0.0276
3 9 9 10.0709 -0.0067
3 9 10 6.5169 0.0115
3 9 11 5.6997 -0.0128
3 9 12 -7.3167 -0.0075
3 9 13 -2.2948 0.0017
3 9 14 -5.1714 -0.0105
3 9 15 -0.1734 -0.0008
3 9 16 2.9850 0.0040
3 9 17 -0.6581 -0.0191
3 9 18 0.7962 0.0137
3 10 0 11.4081 0.0186
3 10 1 8.0902 -0.0041
3 10 2 -0.0898 -0.0925
3 10 3 -15.1944 -0.0209
3 10 4 -17.1673 0.0363
3 10 5 -19.0100 -0.0171
3 10 6 4.9300 -0.0143
3 10 7 9.9199 -0.0202
3 10 8 16.2177 0.0052
3 10 9 10.6654 0.0096
3 10 10 2.7993 -0.0144
3 10 11 -11.2895 -0.0058
3 10 12 -7.1908 0.0065
3 10 13 -8.8256 0.0048
3 10 14 -0.8521 0.0088
3 10 15 4.2096 -0.0004
3 10 16 4.6433 -0.0078
3 10 17 6.6110 0.0064
3 10 18 0.3224 -0.0062
3 11 0 1.8912 -0.0303
3 11 1 -4.9711 -0.0743
3 11 2 -12.5931 0.0470
3 11 3 -12.4398 0.0691
3 11 4 -12.2121 -0.0166
3 11 5 11.4167 -0.0028
3 11 6 11.3628 0.0121
3 11 7 13.3307 0.0246
3 11 8 7.1979 0.0129
3 11 9 -1.6134 -0.0094
3 11 10 -12.5674 0.0036
3 11 11 -9.8316 0.0187
3 11 12 -9.6891 0.0008
3 11 13 1.1874 -0.0047
3 11 14 8.8837 -0.0056
3 11 15 9.2151 -0.0027
3 11 16 7.0186 0.0001
3 11 17 -0.0588 -0.0003
3 11 18 -0.9924 -0.0165
3 12 0 -2.3242 -0.0062
3 12 1 -5.9927 0.0665
3 12 2 -7.8836 0.0340
3 12 3 -6.9068 -0.0386
3 12 4 13.7815 -0.0008
3 12 5 6.6642 0.0156
3 12 6 6.6780 0.0058
3 12 7 4.0662 0.0020
3 12 8 -2.6794 -0.0189
3 12 9 -10.5454 0.0005
3 12 10 -8.7871 0.0180
3 12 11 -7.4241 -0.0148
3 12 12 2.8872 -0.0069
3 12 13 10.6114 0.0169
3 12 14 9.0476 0.0042
3 12 15 3.7120 0.0019
3 12 16 -0.9630 0.0143
3 12 17 -2.2338 0.0029
3 12 18 -7.7259 0.0292
3 13 0 -1.9483 0.0219
3 13 1 -4.3655 -0.0177
3 13 2 -1.5947 -0.0642
3 13 3 10.8944 0.0065
3 13 4 -1.6682 0.0199
3 13 5 3.3006 -0.0160
3 13 6 4.4678 -0.0076
3 13 7 -1.7805 -0.0171
3 13 8 -8.4789 0.0097
3 13 9 -6.2125 0.0130
3 13 10 -3.6606 -0.0237
3 13 11 3.7711 -0.0048
3 13 12 8.3783 0.0256
3 13 13 6.7451 -0.0081
3 13 14 2.4392 -0.0141
3 13 15 -1.8109 -0.0072
3 13 16 -5.3425 0.0015
3 13 17 -8.3178 0.0082
3 14 0 -3.6271 -0.0288
3 14 1 0.6548 -0.0352
3 14 2 3.8621 0.0509
3 14 3 -8.1245 0.0321
3 14 4 3.6562 -0.0237
3 14 5 4.7848 -0.0018
3 14 6 -0.1507 0.0068
3 14 7 -4.7146 0.0201
3 14 8 -1.4382 -0.0026
3 14 9 -0.0267 -0.0163
3 14 10 3.7647 0.0056
3 14 11 4.4563 0.0117
3 14 12 3.1672 -0.0207
3 14 13 0.6821 -0.0069
3 14 14 -2.4794 -0.0080
3 14 15 -6.4553 0.0155
3 14 16 -6.8488 0.0151
3 14 17 1.3168 -0.0165
3 15 0 0.9248 0.0402
3 15 1 -2.1978 0.0816
3 15 2 -8.4185 -0.0140
3 15 3 4.8498 -0.0582
3 15 4 2.0527 0.0079
3 15 5 1.4736 0.0235
3 15 6 0.1392 -0.0022
3 15 7 2.3749 -0.0249
3 15 8 -1.4411 -0.0067
3 15 9 -1.3682 0.0051
3 15 10 -0.6185 -0.0090
3 15 11 0.9828 -0.0182
3 15 12 -0.4738 0.0138
3 15 13 -0.3513 0.0086
3 15 14 -2.3988 0.0035
3 15 15 -3.9062 -0.0001
3 15 16 1.9681 0.0101
3 16 0 -7.4015 0.0399
3 16 1 -6.5702 -0.0597
3 16 2 4.6234 -0.0528
3 16 3 0.1546 0.0328
3 16 4 4.9849 0.0259
3 16 5 4.1097 -0.0189
3 16 6 3.0486 -0.0117
3 16 7 -5.2784 0.0076
3 16 8 -6.2633 0.0011
3 16 9 -2.7380 -0.0098
3 16 10 2.4465 -0.0054
3 16 11 1.0274 -0.0075
3 16 12 2.0262 -0.0118
3 16 13 0.6129 -0.0161
3 16 14 -1.6273 -0.0064
3 16 15 0.5171 0.0015
3 17 0 -0.9479 -0.0268
3 17 1 6.2340 0.0085
3 17 2 2.5310 0.0318
3 17 3 7.7704 0.0036
3 17 4 2.8013 -0.0078
3 17 5 -0.9396 0.0113
3 17 6 -8.5820 0.0103
3 17 7 -6.9432 0.0103
3 17 8 -2.6311 -0.0111
3 17 9 2.6780 -0.0075
3 17 10 2.1446 -0.0112
3 17 11 3.0074 0.0080
3 17 12 0.8282 0.0129
3 17 13 -1.4971 0.0184
3 18 3 -1.8764 -0.0105
3 18 4 -3.1755 -0.0217
3 18 5 -6.3774 -0.0141
3 18 6 -2.0802 0.0230
3 18 7 0.3791 -0.0275
3 18 8 3.6310 -0.0256
3 18 9 3.6833 0.0135
3 18 10 4.1141 0.0373
3 18 11 1.2162 -0.0042
4 -16 0 2.6260 -0.0070
4 -16 1 6.6236 -0.0055
4 -16 2 0.1532 -0.0040
4 -15 0 6.9683 -0.0326
4 -15 1 -6.3445 -0.0205
4 -15 2 -9.6876 0.0435
4 -15 3 -3.2947 0.0071
4 -15 4 1.9075 -0.0195
4 -14 0 -9.2308 -0.0037
4 -14 1 -2.6177 0.0618
4 -14 2 1.9552 0.0113
4 -14 3 2.6461 -0.0220
4 -14 4 -2.0728 0.0061
4 -14 5 3.7365 0.0193
4 -14 6 5.6024 -0.0137
4 -13 0 7.5657 0.0328
4 -13 1 1.2586 -0.0347
4 -13 2 -1.8667 -0.0413
4 -13 3 -5.7434 0.0263
4 -13 4 5.5247 0.0089
4 -13 5 4.0660 -0.0154
4 -13 6 -3.4616 0.0091
4 -13 7 -5.2562 -0.0366
4 -13 8 -0.4143 -0.0156
4 -12 0 -6.0571 -0.0546
4 -12 1 -5.6546 -0.0103
4 -12 2 -6.9504 0.0812
4 -12 3 4.5406 0.0007
4 -12 4 0.4481 0.0043
4 -12 5 -3.0840 0.0199
4 -12 6 1.6191 -0.0096
4 -12 7 4.1123 0.0098
4 -12 8 -2.3635 0.0013
4 -12 9 -0.9163 -0.0210
4 -11 0 -6.7330 0.0105
4 -11 1 -8.9644 0.0821
4 -11 2 1.0773 -0.0302
4 -11 3 -1.4575 -0.0165
4 -11 4 1.5715 -0.0001
4 -11 5 8.4596 -0.0021
4 -11 6 3.6228 -0.0153
4 -11 7 -5.2550 -0.0200
4 -11 8 -0.2436 -0.0011
4 -11 9 1.3161 0.0003
4 -11 10 0.8240 -0.0186
4 -10 0 -14.4987 0.0558
4 -10 1 -0.7439 -0.0587
4 -10 2 2.7953 -0.0376
4 -10 3 11.2490 0.0282
4 -10 4 14.2646 0.0103
4 -10 5 1.7068 -0.0291
4 -10 6 -5.3365 -0.0034
4 -10 7 -0.7066 0.0010
4 -10 8 -4.3269 -0.0078
4 -10 9 -4.9771 -0.0067
4 -10 10 -2.6633 0.0033
4 -10 11 2.5650 -0.0050
4 -9 0 7.5940 -0.0729
4 -9 1 12.4118 -0.0065
4 -9 2 19.5871 0.1009
4 -9 3 14.7196 -0.0091
4 -9 4 -2.3074 -0.0329
4 -9 5 -8.2208 0.0188
4 -9 6 -7.6278 -0.0073
4 -9 7 -9.2881 0.0031
4 -9 8 -3.9752 0.0026
4 -9 9 2.9532 -0.0108
4 -9 10 9.2764 0.0024
4 -9 11 6.8068 0.0188
4 -9 12 -0.0302 -0.0144
4 -8 0 10.1559 0.0384
4 -8 1 15.3359 0.0957
4 -8 2 9.3328 -0.0710
4 -8 3 -6.4685 -0.0250
4 -8 4 -12.7185 0.0235
4 -8 5 -14.1945 -0.0169
4 -8 6 -7.4002 0.0016
4 -8 7 1.6290 -0.0036
4 -8 8 5.7927 -0.0118
4 -8 9 8.8199 0.0065
4 -8 10 3.9077 0.0006
4 -8 11 -1.0847 -0.0179
4 -8 12 -2.4575 0.0059
4 -8 13 -6.8032 -0.0163
4 -7 0 9.9092 0.0321
4 -7 1 6.6209 -0.0859
4 -7 2 -8.5779 0.0140
4 -7 3 -13.8319 0.0468
4 -7 4 -11.7920 -0.0093
4 -7 5 -0.9261 -0.0013
4 -7 6 1.1628 0.0197
4 -7 7 3.8346 0.0072
4 -7 8 10.0387 0.0139
4 -7 9 2.9176 -0.0040
4 -7 10 -1.8817 -0.0076
4 -7 11 -3.6907 0.0231
4 -7 12 -7.3373 -0.0054
4 -7 13 -0.2343 -0.0066
4 -7 14 0.8348 0.0323
4 -6 0 1.2292 -0.0713
4 -6 1 -9.7698 0.0383
4 -6 2 -5.5830 0.0670
4 -6 3 0.1935 -0.0316
4 -6 4 2.3281 -0.0192
4 -6 5 -8.2604 0.0278
4 -6 6 2.7905 -0.0095
4 -6 7 15.3828 0.0053
4 -6 8 1.1929 -0.0142
4 -6 9 -5.1931 -0.0130
4 -6 10 -1.4753 0.0165
4 -6 11 -2.0047 -0.0101
4 -6 12 2.2836 -0.0022
4 -6 13 -2.6409 0.0128
4 -6 14 1.5771 0.0049
4 -5 0 3.7053 0.0598
4 -5 1 14.0153 0.0492
4 -5 2 8.1647 -0.0978
4 -5 3 -8.4388 -0.0301
4 -5 4 -22.0680 0.0217
4 -5 5 6.8035 -0.0328
4 -5 6 14.8914 -0.0055
4 -5 7 -5.6786 -0.0212
4 -5 8 -2.0085 -0.0150
4 -5 9 8.9506 0.0059
4 -5 10 1.0460 -0.0153
4 -5 11 -0.9281 -0.0050
4 -5 12 -6.6262 -0.0013
4 -5 13 3.2668 -0.0015
4 -5 14 4.6162 0.0098
4 -5 15 -2.6938 -0.0119
4 -4 0 22.8218 -0.0024
4 -4 1 -4.5982 -0.1092
4 -4 2 -29.3563 0.0303
4 -4 3 -26.9574 0.0598
4 -4 4 18.1347 -0.0112
4 -4 5 4.9137 0.0018
4 -4 6 -10.3822 0.0095
4 -4 7 14.3080 0.0161
4 -4 8 20.4620 0.0166
4 -4 9 -7.1291 -0.0032
4 -4 10 -9.2607 0.0012
4 -4 11 -7.4625 0.0119
4 -4 12 3.9734 0.0097
4 -4 13 -3.5204 0.0053
4 -4 14 -5.4949 0.0082
4 -4 15 0.3471 0.0099
4 -4 16 2.9232 -0.0233
4 -3 0 -23.0103 -0.0320
4 -3 1 -35.6086 0.0969
4 -3 2 -17.1592 0.0606
4 -3 3 23.1453 -0.0400
4 -3 4 -13.3133 -0.0132
4 -3 5 0.5548 0.0239
4 -3 6 37.7470 -0.0014
4 -3 7 20.1271 -0.0061
4 -3 8 -20.7863 -0.0189
4 -3 9 -12.2166 -0.0153
4 -3 10 -7.2056 0.0066
4 -3 11 -0.4910 -0.0094
4 -3 12 -10.8853 -0.0053
4 -3 13 1.1947 0.0083
4 -3 14 9.6764 -0.0084
4 -3 15 7.8046 -0.0097
4 -3 16 0.3085 -0.0061
4 -2 0 -22.8490 0.0735
4 -2 1 -9.8825 -0.0153
4 -2 2 10.3807 -0.1153
4 -2 3 -23.6367 -0.0116
4 -2 4 35.1408 0.0280
4 -2 5 50.8783 -0.0337
4 -2 6 -0.4943 -0.0173
4 -2 7 -33.1790 -0.0189
4 -2 8 -9.3103 -0.0075
4 -2 9 -12.5532 0.0090
4 -2 10 -9.3190 -0.0169
4 -2 11 -9.1103 0.0019
4 -2 12 16.4150 0.0111
4 -2 13 15.2261 -0.0093
4 -2 14 5.6124 0.0044
4 -2 15 -3.1456 0.0028
4 -2 16 -5.1050 0.0075
4 -2 17 -3.8618 0.0290
4 -1 0 -8.4348 -0.0412
4 -1 1 1.6178 -0.0885
4 -1 2 -12.5804 0.0657
4 -1 3 64.0206 0.0679
4 -1 4 29.7957 -0.0063
4 -1 5 -27.0971 0.0079
4 -1 6 -32.1345 0.0111
4 -1 7 -2.6758 0.0283
4 -1 8 -18.5438 0.0200
4 -1 9 -9.0489 -0.0063
4 -1 10 4.7745 0.0123
4 -1 11 29.6318 0.0163
4 -1 12 11.8371 0.0009
4 -1 13 -0.3929 0.0065
4 -1 14 -6.5206 -0.0003
4 -1 15 -9.2504 -0.0005
4 -1 16 -5.8329 0.0147
4 -1 17 -3.2080 -0.0023
4 0 0 1.1026 -0.0313
4 0 1 -8.5649 0.0841
4 0 2 48.8435 0.0339
4 0 3 -12.0009 -0.0485
4 0 4 -24.1034 -0.0269
4 0 5 -12.8145 0.0030
4 0 6 0.9605 0.0067
4 0 7 -21.2823 -0.0087
4 0 8 1.9096 -0.0176
4 0 9 16.0760 0.0012
4 0 10 25.9690 0.0176
4 0 11 -0.1222 -0.0043
4 0 12 -2.9775 -0.0061
4 0 13 -6.1545 0.0068
4 0 14 -10.1388 -0.0033
4 0 15 -2.9913 0.0105
4 0 16 -0.4465 -0.0083
4 0 17 4.5503 -0.0261
4 1 0 -22.4202 0.0403
4 1 1 20.0888 -0.0291
4 1 2 -23.7888 -0.0900
4 1 3 13.2265 0.0078
4 1 4 7.1194 0.0377
4 1 5 3.6099 -0.0142
4 1 6 -16.9605 -0.0035
4 1 7 9.2332 0.0006
4 1 8 8.6745 0.0128
4 1 9 9.7856 0.0239
4 1 10 -7.2036 -0.0148
4 1 11 3.4820 -0.0032
4 1 12 -3.7344 0.0217
4 1 13 -8.4665 -0.0101
4 1 14 0.4512 0.0080
4 1 15 -0.3721 -0.0021
4 1 16 6.1113 -0.0066
4 1 17 7.1479 0.0128
4 1 18 3.9249 0.0221
4 2 0 16.8689 -0.0345
4 2 1 -5.4048 -0.0223
4 2 2 40.4675 0.1125
4 2 3 8.0954 0.0448
4 2 4 7.2766 -0.0360
4 2 5 -19.9452 0.0196
4 2 6 -8.4984 0.0147
4 2 7 -14.7747 0.0194
4 2 8 0.9206 0.0071
4 2 9 -2.2390 -0.0268
4 2 10 12.2634 0.0065
4 2 11 -3.7930 0.0145
4 2 12 -3.9316 -0.0260
4 2 13 2.7803 0.0074
4 2 14 -3.8847 0.0039
4 2 15 3.3467 -0.0031
4 2 16 3.0362 0.0095
4 2 17 2.5741 -0.0196
4 2 18 -3.3611 0.0014
4 3 0 5.2778 0.0287
4 3 1 37.8736 0.0767
4 3 2 -0.0257 -0.0618
4 3 3 9.3340 -0.0754
4 3 4 -34.6462 0.0004
4 3 5 -29.3072 -0.0179
4 3 6 -18.4586 -0.0061
4 3 7 13.9113 -0.0229
4 3 8 8.3493 -0.0318
4 3 9 19.3822 0.0056
4 3 10 0.7975 0.0002
4 3 11 5.2226 -0.0246
4 3 12 -0.9234 0.0078
4 3 13 -12.4775 0.0001
4 3 14 -2.1828 -0.0041
4 3 15 -1.4815 0.0109
4 3 16 2.0453 -0.0196
4 3 17 -3.9377 0.0316
4 3 18 -2.1339 0.0141
4 4 0 27.9721 0.0004
4 4 1 0.7390 -0.0779
4 4 2 8.3817 -0.0257
4 4 3 -45.2811 0.0287
4 4 4 -25.3431 0.0043
4 4 5 -1.5637 0.0117
4 4 6 22.3986 0.0049
4 4 7 8.6783 0.0027
4 4 8 23.7369 0.0238
4 4 9 7.8129 0.0099
4 4 10 6.7382 -0.0087
4 4 11 -14.9542 0.0107
4 4 12 -20.4425 0.0041
4 4 13 -3.1247 0.0000
4 4 14 -1.1010 0.0064
4 4 15 4.0716 -0.0229
4 4 16 0.1462 0.0116
4 4 17 6.1841 -0.0233
4 4 18 4.0671 -0.0141
4 4 19 -1.3437 0.0523
4 5 0 3.9018 -0.0136
4 5 1 0.1918 0.0300
4 5 2 -44.9267 0.0603
4 5 3 -4.6683 0.0022
4 5 4 9.0231 -0.0072
4 5 5 13.4084 0.0076
4 5 6 9.0459 -0.0019
4 5 7 31.3770 0.0116
4 5 8 10.0882 -0.0140
4 5 9 -3.5192 -0.0266
4 5 10 -25.1462 -0.0009
4 5 11 -16.9266 -0.0030
4 5 12 -0.3130 -0.0144
4 5 13 0.9511 -0.0093
4 5 14 9.0051 -0.0104
4 5 15 8.0979 0.0143
4 5 16 13.3573 -0.0062
4 5 17 2.5083 0.0087
4 5 18 -6.2637 0.0112
4 5 19 -2.9776 -0.0329
4 6 0 -7.5418 0.0510
4 6 1 -28.0374 0.0420
4 6 2 18.3688 -0.0654
4 6 3 4.3223 -0.0319
4 6 4 -0.9935 0.0139
4 6 5 12.6675 -0.0040
4 6 6 28.9685 0.0066
4 6 7 -2.0418 -0.0281
4 6 8 -19.9862 -0.0145
4 6 9 -24.7421 0.0164
4 6 10 -9.0349 -0.0002
4 6 11 -1.3587 -0.0103
4 6 12 2.4715 0.0077
4 6 13 16.0359 0.0106
4 6 14 14.3470 0.0053
4 6 15 12.6278 0.0009
4 6 16 -4.6971 -0.0018
4 6 17 -9.5545 0.0030
4 6 18 -3.7774 0.0106
4 6 19 -2.6738 -0.0017
4 7 0 -2.7407 -0.0094
4 7 1 24.0838 -0.0953
4 7 2 -15.9269 0.0106
4 7 3 -11.7665 0.0442
4 7 4 11.7219 0.0125
4 7 5 12.2437 0.0161
4 7 6 -14.5452 -0.0083
4 7 7 -20.5979 0.0240
4 7 8 -10.0264 0.0372
4 7 9 -1.8050 0.0025
4 7 10 -0.7510 -0.0020
4 7 11 7.2483 0.0243
4 7 12 18.7555 0.0142
4 7 13 10.5774 -0.0072
4 7 14 4.2840 0.0088
4 7 15 -12.5780 -0.0001
4 7 16 -10.4633 0.0008
4 7 17 -5.0651 -0.0068
4 7 18 -4.5753 -0.0319
4 7 19 -0.6827 0.0103
4 8 0 9.1436 -0.0568
4 8 1 -31.8446 0.0312
4 8 2 -8.0039 0.0255
4 8 3 9.4434 -0.0127
4 8 4 -1.8318 -0.0063
4 8 5 -10.4404 -0.0059
4 8 6 -1.0858 0.0030
4 8 7 8.4081 -0.0009
4 8 8 -1.3362 -0.0249
4 8 9 -1.0247 -0.0182
4 8 10 7.5851 0.0077
4 8 11 11.1919 -0.0027
4 8 12 0.2143 -0.0181
4 8 13 -1.2996 -0.0062
4 8 14 -12.2678 -0.0121
4 8 15 -5.6878 0.0009
4 8 16 -4.6292 -0.0048
4 8 17 -3.7431 -0.0090
4 8 18 3.5582 0.0253
4 8 19 8.3040 -0.0030
4 9 0 -30.4811 -0.0003
4 9 1 0.1926 0.0023
4 9 2 3.1900 -0.0411
4 9 3 -3.9742 -0.0099
4 9 4 5.1966 0.0154
4 9 5 16.9195 -0.0074
4 9 6 14.3452 -0.0068
4 9 7 -7.3745 -0.0160
4 9 8 -4.5758 0.0054
4 9 9 0.6306 0.0196
4 9 10 1.2567 -0.0003
4 9 11 -3.6573 -0.0082
4 9 12 2.2119 0.0061
4 9 13 -5.1958 0.0079
4 9 14 0.3475 0.0162
4 9 15 -4.3542 0.0035
4 9 16 -2.5415 -0.0038
4 9 17 4.7338 0.0081
4 9 18 4.7226 0.0234
4 9 19 -0.0666 0.0076
4 10 0 2.9165 0.0064
4 10 1 -1.1052 -0.0383
4 10 2 5.1626 0.0315
4 10 3 17.8191 0.0467
4 10 4 17.9718 -0.0001
4 10 5 5.8539 0.0051
4 10 6 -14.7271 -0.0076
4 10 7 -9.1434 0.0216
4 10 8 -8.0535 0.0228
4 10 9 -4.0851 -0.0047
4 10 10 0.4993 -0.0094
4 10 11 9.3765 0.0140
4 10 12 1.6631 0.0032
4 10 13 3.3297 -0.0080
4 10 14 -4.7537 -0.0081
4 10 15 -2.4787 -0.0002
4 10 16 0.9283 0.0026
4 10 17 -1.3334 0.0168
4 10 18 0.9059 -0.0334
4 11 0 0.0620 -0.0123
4 11 1 11.1654 0.0590
4 11 2 15.7127 0.0268
4 11 3 7.7262 -0.0348
4 11 4 -3.5179 -0.0203
4 11 5 -18.0641 -0.0109
4 11 6 -9.7025 0.0106
4 11 7 -9.1692 -0.0063
4 11 8 -2.1148 -0.0207
4 11 9 6.9592 -0.0162
4 11 10 13.8183 0.0054
4 11 11 5.4934 -0.0172
4 11 12 3.3376 -0.0100
4 11 13 -7.0034 0.0096
4 11 14 -6.1082 0.0025
4 11 15 -4.2282 -0.0098
4 11 16 -3.0596 0.0004
4 11 17 3.7313 -0.0132
4 11 18 3.7463 0.0395
4 12 0 9.4461 0.0414
4 12 1 7.5372 0.0048
4 12 2 1.9299 -0.0469
4 12 3 -4.0288 -0.0153
4 12 4 -15.9425 0.0197
4 12 5 -5.9299 0.0114
4 12 6 -5.2018 -0.0139
4 12 7 0.9940 -0.0086
4 12 8 9.1773 0.0106
4 12 9 12.8508 0.0173
4 12 10 5.5452 -0.0162
4 12 11 1.2959 0.0075
4 12 12 -9.2172 0.0140
4 12 13 -9.0907 -0.0207
4 12 14 -4.9717 -0.0100
4 12 15 0.7254 0.0072
4 12 16 6.1076 0.0081
4 12 17 5.1010 0.0167
4 12 18 5.4525 -0.0338
4 13 0 2.4489 0.0161
4 13 1 0.8312 -0.0242
4 13 2 -2.9157 0.0227
4 13 3 -11.2088 0.0322
4 13 4 -0.3714 -0.0070
4 13 5 -3.2317 -0.0006
4 13 6 1.3238 0.0085
4 13 7 8.8869 0.0206
4 13 8 10.8191 0.0081
4 13 9 3.5427 -0.0216
4 13 10 -1.9464 0.0063
4 13 11 -9.1477 0.0109
4 13 12 -7.7742 -0.0209
4 13 13 -3.5476 0.0145
4 13 14 2.7515 0.0170
4 13 15 6.7525 0.0083
4 13 16 6.3051 -0.0026
4 13 17 5.4712 0.0003
4 14 0 2.0533 -0.0174
4 14 1 -2.6256 0.0385
4 14 2 -4.2140 -0.0019
4 14 3 4.5798 -0.0420
4 14 4 -4.4440 0.0010
4 14 5 0.0599 0.0002
4 14 6 6.7415 0.0030
4 14 7 7.2874 -0.0126
4 14 8 -0.5730 -0.0219
4 14 9 -4.6355 0.0007
4 14 10 -6.6705 0.0154
4 14 11 -4.0334 -0.0150
4 14 12 -1.8159 0.0036
4 14 13 2.6965 -0.0017
4 14 14 5.7619 0.0043
4 14 15 6.0248 -0.0130
4 14 16 3.0572 -0.0047
4 14 17 -3.4585 -0.0083
4 15 0 -3.1754 0.0093
4 15 1 0.6229 -0.0395
4 15 2 3.9189 -0.0266
4 15 3 -6.5166 0.0158
4 15 4 0.1071 -0.0082
4 15 5 2.9155 0.0052
4 15 6 2.7949 0.0023
4 15 7 -2.2429 -0.0044
4 15 8 -1.0691 0.0052
4 15 9 -0.6950 0.0232
4 15 10 -0.7970 -0.0117
4 15 11 -0.5231 -0.0082
4 15 12 2.1533 -0.0017
4 15 13 1.8864 0.0083
4 15 14 2.8301 -0.0075
4 15 15 1.8064 -0.0142
4 15 16 -4.0666 -0.0193
4 16 0 4.6552 -0.0441
4 16 1 0.9152 0.0196
4 16 2 -6.3773 0.0401
4 16 3 0.7848 -0.0089
4 16 4 -2.1259 -0.0003
4 16 5 -0.8557 0.0134
4 16 6 -0.8870 0.0053
4 16 7 4.5683 0.0088
4 16 8 3.2109 0.0125
4 16 9 -1.0328 -0.0177
4 16 10 -1.7666 -0.0015
4 16 11 -0.0003 0.0222
4 16 12 -1.1258 0.0065
4 16 13 1.5810 -0.0004
4 16 14 2.5683 0.0051
4 16 15 -1.9068 0.0129
4 17 1 -6.6128 0.0406
4 17 2 -0.8712 0.0096
4 17 3 -4.8869 -0.0180
4 17 4 0.4844 0.0003
4 17 5 3.1015 0.0063
4 17 6 7.9141 0.0056
4 17 7 3.2356 -0.0149
4 17 8 -1.8909 -0.0112
4 17 9 -3.1543 0.0062
4 17 10 -2.8614 0.0106
4 17 11 -1.3936 -0.0222
4 17 12 2.4177 -0.0215
4 17 13 2.5668 -0.0061
4 18 4 3.8560 0.0140
4 18 5 4.7393 -0.0039
4 18 6 -1.5954 -0.0203
4 18 7 -4.1741 0.0305
4 18 8 -5.0193 0.0073
4 18 9 -5.0217 -0.0227
4 18 10 -1.0831 -0.0124
4 18 11 2.0582 0.0098
5 -16 0 -0.6571 -0.0120
5 -16 1 -0.8765 -0.0303
5 -16 2 4.1611 0.0076
5 -15 0 0.7402 0.0049
5 -15 1 9.8850 0.0305
5 -15 2 8.0619 -0.0251
5 -15 3 1.8210 0.0103
5 -15 4 -2.8648 0.0366
5 -14 0 11.3709 0.0441
5 -14 1 2.5957 -0.0533
5 -14 2 -2.2491 -0.0163
5 -14 3 -5.8001 0.0104
5 -14 4 -3.0999 0.0056
5 -14 5 -5.4048 -0.0047
5 -14 6 -2.1949 0.0239
5 -13 0 -5.2819 -0.0608
5 -13 1 -1.5324 -0.0094
5 -13 2 -2.2766 0.0404
5 -13 3 0.5166 0.0287
5 -13 4 -6.7644 -0.0046
5 -13 5 -1.7489 0.0091
5 -13 6 5.7742 -0.0045
5 -13 7 7.2378 0.0209
5 -12 0 6.0047 0.0056
5 -12 1 1.8856 0.0483
5 -12 2 1.2909 -0.0154
5 -12 3 -7.4974 -0.0229
5 -12 4 0.7215 -0.0082
5 -12 5 6.4354 -0.0070
5 -12 6 1.1185 0.0009
5 -12 7 -5.0900 -0.0074
5 -12 8 2.1826 -0.0033
5 -12 9 -0.6424 0.0087
5 -11 0 2.5630 0.0481
5 -11 1 0.1096 -0.0570
5 -11 2 -6.3069 -0.0236
5 -11 3 2.8299 0.0116
5 -11 4 1.4151 0.0065
5 -11 5 -7.2510 -0.0026
5 -11 6 -2.6445 0.0244
5 -11 7 8.8334 0.0174
5 -11 8 -0.7286 -0.0055
5 -11 9 -4.2225 0.0188
5 -11 10 -1.5315 -0.0004
5 -10 0 2.0268 -0.0845
5 -10 1 -5.2304 -0.0190
5 -10 2 -1.3072 0.0487
5 -10 3 -9.5248 0.0048
5 -10 4 -11.3854 -0.0121
5 -10 5 5.2481 0.0271
5 -10 6 11.1434 -0.0025
5 -10 7 -1.8251 -0.0040
5 -10 8 0.4536 0.0234
5 -10 9 3.8110 -0.0127
5 -10 10 3.3032 0.0078
5 -10 11 -3.1011 0.0162
5 -9 0 -11.7067 0.0102
5 -9 1 -13.7174 0.0707
5 -9 2 -19.2877 -0.0438
5 -9 3 -4.6968 -0.0275
5 -9 4 16.7243 0.0146
5 -9 5 12.2093 -0.0156
5 -9 6 2.1276 0.0041
5 -9 7 6.4853 -0.0022
5 -9 8 2.8605 -0.0229
5 -9 9 -5.9805 0.0152
5 -9 10 -12.2098 -0.0064
5 -9 11 -2.9874 -0.0257
5 -9 12 4.3875 0.0234
5 -8 0 -16.3524 0.0709
5 -8 1 -13.1196 -0.0713
5 -8 2 10.6597 -0.0017
5 -8 3 23.8803 0.0401
5 -8 4 12.3589 0.0077
5 -8 5 7.4554 0.0032
5 -8 6 4.3196 -0.0032
5 -8 7 -7.5069 0.0068
5 -8 8 -14.1142 0.0204
5 -8 9 -11.7359 -0.0050
5 -8 10 2.9734 -0.0078
5 -8 11 6.4160 0.0084
5 -8 12 2.4887 -0.0171
5 -8 13 5.9268 0.0161
5 -7 0 -1.5481 -0.0622
5 -7 1 16.4270 0.0237
5 -7 2 18.7677 0.0508
5 -7 3 10.3129 -0.0042
5 -7 4 7.5606 -0.0142
5 -7 5 -5.2783 0.0140
5 -7 6 -16.5835 -0.0004
5 -7 7 -14.7419 -0.0013
5 -7 8 -7.0337 -0.0013
5 -7 9 6.7409 -0.0107
5 -7 10 4.4892 -0.0064
5 -7 11 4.1453 -0.0130
5 -7 12 9.0524 -0.0013
5 -7 13 -0.1397 -0.0170
5 -7 14 -4.0921 -0.0209
5 -6 0 13.8648 0.0403
5 -6 1 9.5435 0.0429
5 -6 2 5.3091 -0.0490
5 -6 3 -0.2978 -0.0136
5 -6 4 -13.0061 0.0307
5 -6 5 -14.3089 -0.0244
5 -6 6 -10.3996 0.0012
5 -6 7 -5.7832 0.0101
5 -6 8 8.6144 -0.0062
5 -6 9 6.0012 0.0076
5 -6 10 5.8634 -0.0029
5 -6 11 6.8616 -0.0027
5 -6 12 -4.1114 0.0081
5 -6 13 -3.9312 -0.0022
5 -6 14 -4.5238 -0.0265
5 -5 0 -6.9739 0.0056
5 -5 1 -6.2368 -0.0918
5 -5 2 -8.0557 0.0134
5 -5 3 -6.9143 0.0380
5 -5 4 -0.9873 -0.0191
5 -5 5 -6.4081 0.0182
5 -5 6 -4.2934 0.0075
5 -5 7 12.3789 0.0078
5 -5 8 6.8660 0.0276
5 -5 9 3.2888 -0.0012
5 -5 10 3.0711 -0.0053
5 -5 11 -4.2939 0.0166
5 -5 12 0.1434 -0.0012
5 -5 13 -4.8748 -0.0161
5 -5 14 -4.1411 0.0194
5 -5 15 2.6987 -0.0048
5 -4 0 -5.3259 -0.0873
5 -4 1 2.8260 0.0561
5 -4 2 13.6137 0.0288
5 -4 3 10.0725 -0.0331
5 -4 4 -9.1520 -0.0056
5 -4 5 0.4540 -0.0065
5 -4 6 12.8978 -0.0045
5 -4 7 -3.2441 0.0024
5 -4 8 -3.1117 -0.0262
5 -4 9 6.3122 -0.0257
5 -4 10 0.7605 0.0019
5 -4 11 1.7706 -0.0175
5 -4 12 -6.4927 -0.0213
5 -4 13 0.1647 0.0012
5 -4 14 4.3906 -0.0287
5 -4 15 2.4014 0.0266
5 -4 16 -1.7975 0.0243
5 -3 0 19.9706 0.0672
5 -3 1 26.4125 -0.0044
5 -3 2 6.5262 -0.0660
5 -3 3 -15.3824 -0.0120
5 -3 4 7.2560 0.0114
5 -3 5 1.6372 -0.0156
5 -3 6 -21.3427 -0.0042
5 -3 7 -3.7182 -0.0141
5 -3 8 16.3181 -0.0047
5 -3 9 4.8697 0.0191
5 -3 10 -0.0560 -0.0069
5 -3 11 -6.6422 -0.0026
5 -3 12 6.1060 0.0092
5 -3 13 -0.4896 -0.0039
5 -3 14 -5.6400 0.0304
5 -3 15 -5.4689 -0.0054
5 -3 16 1.1937 0.0003
5 -2 0 24.6563 -0.0250
5 -2 1 -0.2554 -0.0469
5 -2 2 -12.6082 0.0516
5 -2 3 8.3224 0.0412
5 -2 4 -26.9272 -0.0087
5 -2 5 -31.8328 0.0274
5 -2 6 13.4256 0.0104
5 -2 7 29.3839 0.0146
5 -2 8 5.0023 0.0230
5 -2 9 0.8118 -0.0072
5 -2 10 -2.7516 0.0032
5 -2 11 4.7414 0.0104
5 -2 12 -15.2048 -0.0003
5 -2 13 -11.4373 0.0052
5 -2 14 -1.6622 -0.0042
5 -2 15 7.3651 0.0190
5 -2 16 5.0073 -0.0124
5 -2 17 0.7890 -0.0188
5 -1 0 -4.1346 -0.0148
5 -1 1 -8.3255 0.0866
5 -1 2 -6.7490 0.0156
5 -1 3 -56.6687 -0.0417
5 -1 4 -14.1926 0.0070
5 -1 5 43.2100 -0.0078
5 -1 6 33.1470 -0.0117
5 -1 7 -3.4160 -0.0124
5 -1 8 1.6845 -0.0240
5 -1 9 -3.2580 -0.0100
5 -1 10 -9.1461 0.0022
5 -1 11 -30.0654 -0.0128
5 -1 12 -5.3742 -0.0156
5 -1 13 8.7573 0.0094
5 -1 14 11.6685 0.0084
5 -1 15 6.1302 -0.0220
5 -1 16 1.6409 -0.0015
5 -1 17 1.9461 0.0165
5 0 0 -6.6796 0.0711
5 0 1 -18.0972 -0.0180
5 0 2 -50.4920 -0.0674
5 0 3 27.9856 0.0108
5 0 4 51.1050 0.0267
5 0 5 15.3571 -0.0054
5 0 6 -11.7854 -0.0039
5 0 7 6.1983 0.0006
5 0 8 -10.2829 0.0105
5 0 9 -23.6723 0.0236
5 0 10 -27.0595 -0.0097
5 0 11 12.5833 -0.0084
5 0 12 15.0903 0.0169
5 0 13 10.3775 -0.0134
5 0 14 6.3269 -0.0078
5 0 15 1.7201 -0.0004
5 0 16 -0.8421 -0.0109
5 0 17 -8.4474 0.0187
5 0 18 -8.9585 0.0315
5 1 0 -10.5843 -0.0263
5 1 1 -19.4823 -0.0414
5 1 2 46.6390 0.0683
5 1 3 13.0641 0.0458
5 1 4 -10.5563 -0.0353
5 1 5 -7.9994 0.0034
5 1 6 11.9058 0.0025
5 1 7 -22.0436 0.0095
5 1 8 -25.6826 0.0234
5 1 9 -7.4917 -0.0211
5 1 10 24.9438 -0.0024
5 1 11 7.9155 0.0157
5 1 12 7.1343 -0.0169
5 1 13 8.1326 0.0117
5 1 14 1.7807 -0.0039
5 1 15 -4.0617 -0.0077
5 1 16 -12.2519 0.0270
5 1 17 -6.4884 -0.0039
5 1 18 2.0295 -0.0469
5 2 0 -6.4979 0.0031
5 2 1 23.6216 0.0622
5 2 2 -32.2369 -0.0391
5 2 3 -12.8059 -0.0941
5 2 4 5.8271 0.0106
5 2 5 17.2089 -0.0151
5 2 6 -20.9449 -0.0138
5 2 7 -7.1574 0.0015
5 2 8 9.5383 -0.0262
5 2 9 18.0372 0.0028
5 2 10 -5.9592 0.0098
5 2 11 8.9083 -0.0126
5 2 12 7.5370 0.0143
5 2 13 -2.4364 -0.0022
5 2 14 -7.0506 0.0058
5 2 15 -11.0844 0.0245
5 2 16 -1.8482 -0.0147
5 2 17 2.0650 -0.0082
5 2 18 5.6988 0.0234
5 3 0 -2.7107 -0.0003
5 3 1 -40.6863 -0.0764
5 3 2 8.3608 -0.0473
5 3 3 15.2201 0.0733
5 3 4 22.6874 0.0146
5 3 5 -7.1866 0.0013
5 3 6 7.7169 0.0175
5 3 7 0.7760 0.0122
5 3 8 -3.3101 0.0280
5 3 9 -15.5660 0.0152
5 3 10 10.9077 -0.0102
5 3 11 0.1433 0.0138
5 3 12 -4.8166 0.0092
5 3 13 -2.8451 0.0009
5 3 14 -4.1644 0.0089
5 3 15 1.6498 -0.0115
5 3 16 -0.4447 0.0037
5 3 17 6.1956 -0.0063
5 3 18 4.0496 -0.0217
5 4 0 -26.8747 -0.0385
5 4 1 21.0062 -0.0002
5 4 2 11.2847 0.0830
5 4 3 24.3140 0.0026
5 4 4 -0.2591 -0.0214
5 4 5 4.3080 0.0055
5 4 6 -16.5579 0.0017
5 4 7 -13.4612 0.0047
5 4 8 -14.6516 -0.0097
5 4 9 10.1655 -0.0323
5 4 10 -2.9079 0.0027
5 4 11 6.5656 0.0046
5 4 12 7.0966 -0.0193
5 4 13 -0.9921 -0.0039
5 4 14 -0.6694 -0.0115
5 4 15 -4.1059 0.0031
5 4 16 2.6483 -0.0036
5 4 17 -2.8884 -0.0001
5 4 18 -2.0685 0.0298
5 4 19 0.0420 0.0176
5 5 0 19.8554 -0.0015
5 5 1 8.0508 0.0480
5 5 2 26.6730 -0.0456
5 5 3 -1.5602 -0.0422
5 5 4 -1.1760 0.0112
5 5 5 -19.3776 -0.0090
5 5 6 -12.7714 -0.0077
5 5 7 -13.9957 -0.0099
5 5 8 8.6367 -0.0148
5 5 9 4.6461 0.0194
5 5 10 20.1399 0.0072
5 5 11 8.5570 -0.0125
5 5 12 -4.4551 0.0115
5 5 13 -5.2722 0.0000
5 5 14 -7.8330 0.0067
5 5 15 -3.1650 0.0037
5 5 16 -7.7590 -0.0088
5 5 17 1.5655 0.0047
5 5 18 4.8249 0.0112
5 5 19 0.3029 -0.0028
5 6 0 8.6579 0.0083
5 6 1 22.0770 -0.0606
5 6 2 -10.9347 0.0086
5 6 3 -1.7166 0.0558
5 6 4 -13.6922 -0.0023
5 6 5 -13.6118 -0.0083
5 6 6 -13.0873 0.0002
5 6 7 14.1768 0.0113
5 6 8 17.3564 0.0218
5 6 9 21.4995 -0.0015
5 6 10 1.7333 -0.0086
5 6 11 -5.4461 0.0102
5 6 12 -8.4094 -0.0027
5 6 13 -13.4190 0.0000
5 6 14 -7.1050 -0.0015
5 6 15 -4.2599 -0.0130
5 6 16 9.7365 0.0084
5 6 17 8.5485 -0.0017
5 6 18 2.0392 -0.0271
5 6 19 0.2510 0.0055
5 7 0 7.8367 -0.0073
5 7 1 -16.1789 0.0744
5 7 2 8.4833 0.0580
5 7 3 -6.3483 -0.0314
5 7 4 -13.5478 -0.0305
5 7 5 -6.2703 -0.0011
5 7 6 19.3810 0.0072
5 7 7 17.9100 -0.0074
5 7 8 8.6119 -0.0211
5 7 9 -5.3040 -0.0188
5 7 10 -5.2500 -0.0021
5 7 11 -12.5699 -0.0123
5 7 12 -16.2894 -0.0117
5 7 13 -3.3809 -0.0065
5 7 14 5.4173 -0.0158
5 7 15 17.7823 -0.0026
5 7 16 9.4683 -0.0124
5 7 17 2.6738 -0.0084
5 7 18 0.5244 0.0310
5 7 19 -0.9820 -0.0078
5 8 0 -6.8797 0.0606
5 8 1 20.1889 0.0223
5 8 2 -7.9107 -0.0575
5 8 3 -13.1680 -0.0264
5 8 4 0.5485 0.0192
5 8 5 13.8323 0.0093
5 8 6 3.1315 -0.0001
5 8 7 -4.6515 0.0000
5 8 8 -2.9069 0.0052
5 8 9 -3.5749 0.0290
5 8 10 -13.1705 0.0069
5 8 11 -10.2469 -0.0037
5 8 12 4.9772 0.0162
5 8 13 9.8911 0.0120
5 8 14 16.7876 0.0064
5 8 15 3.8542 0.0059
5 8 16 -0.2057 0.0172
5 8 17 -2.5879 0.0207
5 8 18 -5.8093 0.0088
5 8 19 -9.2571 0.0201
5 9 0 20.6965 0.0152
5 9 1 -13.4659 -0.0526
5 9 2 -7.4000 0.0040
5 9 3 3.2155 0.0315
5 9 4 1.3329 -0.0051
5 9 5 -10.9692 0.0009
5 9 6 -5.2955 0.0040
5 9 7 8.0426 0.0084
5 9 8 0.7837 0.0217
5 9 9 -7.8541 -0.0105
5 9 10 -1.6039 -0.0144
5 9 11 7.8850 0.0157
5 9 12 4.9317 0.0039
5 9 13 8.6308 -0.0153
5 9 14 -2.6718 -0.0100
5 9 15 -0.6115 -0.0021
5 9 16 -3.9064 -0.0016
5 9 17 -8.1706 0.0105
5 9 18 -6.9844 -0.0369
5 9 19 2.3545 -0.0187
5 10 0 -14.4889 -0.0384
5 10 1 -1.4926 0.0246
5 10 2 -3.7442 0.0081
5 10 3 -10.1111 -0.0481
5 10 4 -10.7767 -0.0266
5 10 5 5.8946 0.0018
5 10 6 17.2379 0.0106
5 10 7 4.2759 -0.0071
5 10 8 -0.5827 -0.0276
5 10 9 1.9816 -0.0087
5 10 10 1.7132 0.0189
5 10 11 -4.5329 -0.0101
5 10 12 1.1650 -0.0160
5 10 13 -4.2174 0.0065
5 10 14 2.4647 0.0059
5 10 15 -2.8928 -0.0004
5 10 16 -5.7810 0.0083
5 10 17 -1.8325 -0.0386
5 10 18 1.4769 0.0332
5 10 19 0.6333 0.0047
5 11 0 0.0824 0.0053
5 11 1 -10.2140 -0.0307
5 11 2 -9.4195 -0.0662
5 11 3 0.4563 -0.0089
5 11 4 14.5032 0.0436
5 11 5 16.3574 0.0187
5 11 6 2.1266 -0.0150
5 11 7 1.2903 -0.0036
5 11 8 -1.8466 0.0135
5 11 9 -8.6223 0.0327
5 11 10 -11.3082 -0.0014
5 11 11 -1.1159 0.0011
5 11 12 -0.5989 0.0146
5 11 13 7.4557 0.0017
5 11 14 0.7588 -0.0020
5 11 15 -0.7972 0.0097
5 11 16 0.7994 -0.0105
5 11 17 -2.3569 0.0272
5 11 18 -1.9300 -0.0303
5 12 0 -9.9709 -0.0372
5 12 1 -2.9374 -0.0438
5 12 2 5.2872 0.0367
5 12 3 10.5041 0.0591
5 12 4 10.0197 -0.0206
5 12 5 -0.9755 -0.0212
5 12 6 -0.2248 0.0178
5 12 7 -6.4211 0.0063
5 12 8 -12.9542 0.0099
5 12 9 -10.1815 -0.0151
5 12 10 0.7357 -0.0063
5 12 11 3.8027 -0.0008
5 12 12 11.0468 -0.0042
5 12 13 3.7254 0.0066
5 12 14 0.3750 0.0048
5 12 15 -2.5316 -0.0086
5 12 16 -6.1175 -0.0041
5 12 17 -3.8467 -0.0086
5 12 18 -0.6975 0.0299
5 13 0 1.8731 -0.0210
5 13 1 4.7848 0.0517
5 13 2 5.3141 0.0297
5 13 3 6.6522 -0.0424
5 13 4 -1.5297 -0.0038
5 13 5 -0.5152 0.0174
5 13 6 -7.9291 -0.0037
5 13 7 -11.6873 -0.0067
5 13 8 -6.2885 -0.0169
5 13 9 2.7825 0.0051
5 13 10 6.7083 0.0108
5 13 11 11.0637 -0.0066
5 13 12 3.4683 -0.0023
5 13 13 -0.4622 -0.0108
5 13 14 -5.3573 -0.0048
5 13 15 -6.9756 -0.0006
5 13 16 -4.0043 0.0128
5 13 17 -0.4120 0.0046
5 14 0 3.0500 0.0398
5 14 1 3.0845 -0.0061
5 14 2 2.2568 -0.0230
5 14 3 -2.9149 0.0261
5 14 4 1.3383 0.0161
5 14 5 -6.1365 0.0020
5 14 6 -7.9602 -0.0082
5 14 7 -2.6000 0.0003
5 14 8 5.4802 0.0223
5 14 9 8.2880 0.0146
5 14 10 7.6198 -0.0243
5 14 11 1.0815 -0.0010
5 14 12 -0.4827 0.0139
5 14 13 -5.0314 0.0104
5 14 14 -6.1164 -0.0050
5 14 15 -3.4180 0.0028
5 14 16 1.9836 -0.0094
5 14 17 5.4352 0.0219
5 15 0 2.9610 -0.0259
5 15 1 -0.8672 -0.0042
5 15 2 -1.3588 0.0411
5 15 3 4.2015 0.0234
5 15 4 -3.7822 -0.0100
5 15 5 -3.8476 -0.0370
5 15 6 -0.7513 0.0043
5 15 7 4.9515 0.0222
5 15 8 4.3025 -0.0066
5 15 9 1.8647 -0.0411
5 15 10 -0.1488 0.0127
5 15 11 -0.3991 0.0210
5 15 12 -3.9208 -0.0204
5 15 13 -3.5698 -0.0263
5 15 14 -2.3733 0.0030
5 15 15 2.0917 0.0113
5 15 16 5.4698 0.0197
5 16 0 -2.9955 0.0172
5 16 1 1.3415 0.0340
5 16 2 3.4995 -0.0004
5 16 3 -3.3747 -0.0311
5 16 4 0.2938 -0.0273
5 16 5 0.1141 0.0139
5 16 6 2.0549 0.0129
5 16 7 -0.5899 -0.0131
5 16 8 0.1840 -0.0193
5 16 9 2.2997 0.0281
5 16 10 0.1824 0.0046
5 16 11 -2.2587 -0.0331
5 16 12 -1.2630 0.0016
5 16 13 -2.3504 0.0148
5 16 14 -0.2111 -0.0034
5 16 15 3.4913 -0.0154
5 17 2 -1.9414 -0.0315
5 17 3 2.5860 0.0449
5 17 4 -1.4229 0.0161
5 17 5 -1.5786 -0.0130
5 17 6 -3.4470 0.0021
5 17 7 0.5869 0.0231
5 17 8 3.1588 0.0236
5 17 9 0.4476 -0.0035
5 17 10 0.3974 -0.0048
5 17 11 -0.8591 0.0272
5 17 12 -2.4750 0.0165
5 17 13 -0.3574 -0.0016
5 18 5 -1.9853 0.0148
5 18 6 2.8217 0.0125
5 18 7 3.9183 -0.0140
5 18 8 2.1907 0.0060
5 18 9 2.7762 0.0074
5 18 10 -1.5610 -0.0187
5 18 11 -1.9468 -0.0013
6 -16 0 -1.9248 -0.0327
6 -15 0 -4.8080 -0.0344
6 -15 1 -6.8004 -0.0178
6 -15 2 -1.4068 -0.0250
6 -15 3 1.9634 -0.0177
6 -14 0 -6.5069 -0.0270
6 -14 1 2.3236 0.0142
6 -14 2 4.3567 0.0169
6 -14 3 8.2243 0.0153
6 -14 4 4.9867 -0.0238
6 -14 5 2.2141 0.0035
6 -13 0 6.3770 0.0582
6 -13 1 3.8435 0.0436
6 -13 2 6.6884 -0.0035
6 -13 3 1.1476 -0.0507
6 -13 4 1.1664 0.0149
6 -13 5 -4.3326 0.0050
6 -13 6 -6.7975 -0.0019
6 -13 7 -6.2318 0.0055
6 -12 0 -1.7843 0.0365
6 -12 1 2.6708 -0.0341
6 -12 2 -1.2472 -0.0318
6 -12 3 2.3192 0.0379
6 -12 4 -5.0846 0.0206
6 -12 5 -8.1984 -0.0077
6 -12 6 -2.1976 0.0056
6 -12 7 6.4897 0.0020
6 -12 8 0.8284 0.0043
6 -11 0 1.7056 -0.0630
6 -11 1 0.6695 0.0023
6 -11 2 3.3315 0.0451
6 -11 3 -6.6181 0.0077
6 -11 4 -4.3836 -0.0128
6 -11 5 5.3201 0.0081
6 -11 6 3.7364 -0.0101
6 -11 7 -6.2185 -0.0092
6 -11 8 3.4150 0.0085
6 -11 9 3.4568 -0.0168
6 -11 10 -0.3519 0.0108
6 -10 0 3.0834 0.0363
6 -10 1 4.3921 0.0494
6 -10 2 -4.2767 -0.0312
6 -10 3 4.5943 -0.0323
6 -10 4 8.2236 0.0087
6 -10 5 -5.9623 -0.0135
6 -10 6 -9.2211 -0.0062
6 -10 7 6.1770 0.0092
6 -10 8 2.0731 -0.0178
6 -10 9 -3.2987 0.0165
6 -10 10 -5.2557 -0.0030
6 -10 11 2.0287 -0.0002
6 -9 0 10.2374 0.0293
6 -9 1 6.3342 -0.0826
6 -9 2 12.3278 -0.0330
6 -9 3 -1.6961 0.0342
6 -9 4 -18.9337 0.0068
6 -9 5 -7.0930 -0.0093
6 -9 6 6.0977 -0.0063
6 -9 7 -2.4223 0.0014
6 -9 8 -1.8340 0.0240
6 -9 9 4.7271 -0.0022
6 -9 10 10.5165 0.0147
6 -9 11 -0.3170 0.0260
6 -9 12 -4.7143 -0.0004
6 -8 0 11.8033 -0.1189
6 -8 1 5.0172 -0.0056
6 -8 2 -22.6551 0.0594
6 -8 3 -25.9023 -0.0183
6 -8 4 -1.0170 -0.0457
6 -8 5 4.5885 -0.0014
6 -8 6 -0.2161 0.0022
6 -8 7 9.0782 -0.0106
6 -8 8 14.5726 -0.0069
6 -8 9 8.8435 -0.0007
6 -8 10 -9.8982 0.0040
6 -8 11 -8.7269 0.0121
6 -8 12 0.1260 0.0087
6 -8 13 -2.7854 -0.0141
6 -7 0 -9.1614 0.0433
6 -7 1 -30.4284 0.0793
6 -7 2 -15.0181 -0.0441
6 -7 3 5.6169 -0.0347
6 -7 4 4.1198 0.0443
6 -7 5 9.6928 -0.0035
6 -7 6 20.6241 -0.0141
6 -7 7 13.3007 0.0159
6 -7 8 -3.1531 -0.0004
6 -7 9 -17.7879 0.0202
6 -7 10 -6.1930 0.0174
6 -7 11 -1.3045 -0.0167
6 -7 12 -5.7630 0.0047
6 -7 13 2.8283 0.0123
6 -7 14 6.9880 -0.0219
6 -6 0 -20.9358 0.0591
6 -6 1 0.7167 -0.0541
6 -6 2 4.8766 0.0128
6 -6 3 5.2895 0.0648
6 -6 4 18.6371 -0.0158
6 -6 5 20.7610 0.0074
6 -6 6 1.9205 0.0221
6 -6 7 -13.5275 -0.0070
6 -6 8 -19.1015 0.0245
6 -6 9 -2.8456 0.0005
6 -6 10 -3.5253 -0.0215
6 -6 11 -4.7044 0.0124
6 -6 12 9.2835 -0.0156
6 -6 13 9.8066 -0.0231
6 -6 14 4.0478 0.0100
6 -5 0 12.5041 -0.0430
6 -5 1 3.1697 0.0561
6 -5 2 8.7113 0.0564
6 -5 3 15.6686 -0.0346
6 -5 4 7.0299 -0.0102
6 -5 5 -9.3734 0.0086
6 -5 6 -14.9682 -0.0087
6 -5 7 -15.6578 0.0001
6 -5 8 -1.5137 -0.0182
6 -5 9 -3.9723 -0.0103
6 -5 10 1.5656 0.0089
6 -5 11 13.7721 -0.0233
6 -5 12 6.0736 -0.0051
6 -5 13 1.5284 0.0159
6 -5 14 -1.9986 -0.0313
6 -5 15 -5.0382 0.0031
6 -4 0 -7.4286 0.0621
6 -4 1 0.2807 0.0145
6 -4 2 -2.7543 -0.0722
6 -4 3 -7.9137 -0.0338
6 -4 4 -9.7481 0.0274
6 -4 5 -8.9138 -0.0002
6 -4 6 -8.0876 -0.0135
6 -4 7 4.0284 -0.0053
6 -4 8 -0.5220 0.0144
6 -4 9 6.2455 0.0271
6 -4 10 12.6290 -0.0015
6 -4 11 0.8337 0.0079
6 -4 12 1.1387 0.0194
6 -4 13 -3.1673 -0.0011
6 -4 14 -6.0267 0.0344
6 -4 15 -4.8611 -0.0140
6 -4 16 1.2260 0.0069
6 -3 0 -11.3889 -0.0365
6 -3 1 -14.6652 -0.0822
6 -3 2 -5.1922 0.0148
6 -3 3 2.7892 0.0635
6 -3 4 0.2248 -0.0172
6 -3 5 4.2586 -0.0110
6 -3 6 13.3428 0.0106
6 -3 7 0.3616 0.0117
6 -3 8 2.2859 0.0196
6 -3 9 5.9579 -0.0117
6 -3 10 -1.2986 -0.0125
6 -3 11 2.9437 0.0071
6 -3 12 -6.5590 -0.0000
6 -3 13 -3.4459 0.0038
6 -3 14 0.4604 -0.0242
6 -3 15 4.5772 0.0161
6 -3 16 1.5764 0.0150
6 -2 0 -13.9843 -0.0376
6 -2 1 7.2081 0.0690
6 -2 2 14.3609 0.0344
6 -2 3 8.1968 -0.0609
6 -2 4 19.0444 -0.0176
6 -2 5 14.2687 -0.0026
6 -2 6 -12.1264 -0.0083
6 -2 7 -10.2246 -0.0083
6 -2 8 -1.3324 -0.0271
6 -2 9 -1.2362 -0.0127
6 -2 10 3.9171 0.0057
6 -2 11 -6.6019 -0.0082
6 -2 12 6.8205 -0.0082
6 -2 13 5.3701 0.0004
6 -2 14 1.2730 0.0060
6 -2 15 -4.9726 -0.0229
6 -2 16 -2.1893 -0.0110
6 -2 17 1.7803 -0.0241
6 -1 0 18.7871 0.0594
6 -1 1 20.4198 -0.0262
6 -1 2 18.4531 -0.0682
6 -1 3 30.9244 0.0075
6 -1 4 -3.9068 0.0186
6 -1 5 -35.9678 0.0097
6 -1 6 -18.0214 0.0013
6 -1 7 3.0247 -0.0016
6 -1 8 3.8285 0.0148
6 -1 9 7.1159 0.0197
6 -1 10 3.0734 -0.0048
6 -1 11 18.4336 0.0059
6 -1 12 -1.7408 0.0237
6 -1 13 -10.7373 -0.0124
6 -1 14 -10.4450 -0.0124
6 -1 15 -1.3998 0.0258
6 -1 16 2.0556 -0.0006
6 -1 17 -2.1183 -0.0109
6 0 0 18.3826 -0.0430
6 0 1 21.9787 -0.0415
6 0 2 22.3935 0.0605
6 0 3 -38.4304 0.0493
6 0 4 -47.8568 -0.0068
6 0 5 -7.2673 -0.0072
6 0 6 14.9897 0.0017
6 0 7 5.4362 0.0038
6 0 8 11.0274 0.0042
6 0 9 14.1324 -0.0208
6 0 10 15.0483 -0.0016
6 0 11 -21.3269 0.0168
6 0 12 -18.9756 -0.0142
6 0 13 -8.2477 0.0056
6 0 14 0.9034 0.0139
6 0 15 1.5895 -0.0053
6 0 16 1.4615 0.0075
6 0 17 9.1035 0.0091
6 0 18 7.2043 0.0213
6 1 0 12.5009 -0.0199
6 1 1 -1.7150 0.0811
6 1 2 -54.6423 0.0149
6 1 3 -20.6139 -0.0648
6 1 4 15.3015 -0.0063
6 1 5 15.6298 0.0076
6 1 6 0.2076 0.0015
6 1 7 20.9175 -0.0044
6 1 8 19.4781 -0.0262
6 1 9 -3.3119 0.0082
6 1 10 -34.9789 0.0210
6 1 11 -10.8578 -0.0100
6 1 12 -1.4157 -0.0043
6 1 13 1.1240 -0.0107
6 1 14 2.4026 -0.0041
6 1 15 9.6056 0.0080
6 1 16 15.0121 -0.0129
6 1 17 1.8388 -0.0175
6 1 18 -8.2369 0.0081
6 2 0 -10.9484 0.0544
6 2 1 -31.8984 -0.0270
6 2 2 22.8278 -0.0540
6 2 3 17.4130 0.0571
6 2 4 -2.5191 0.0303
6 2 5 -5.7911 0.0117
6 2 6 28.6125 0.0042
6 2 7 7.5443 -0.0072
6 2 8 -23.6137 0.0349
6 2 9 -28.9342 0.0333
6 2 10 6.0911 -0.0110
6 2 11 -0.7835 -0.0063
6 2 12 1.1940 0.0090
6 2 13 8.2089 0.0020
6 2 14 16.7422 -0.0078
6 2 15 12.4888 -0.0190
6 2 16 -5.7894 -0.0083
6 2 17 -8.2479 0.0082
6 2 18 -5.0277 -0.0309
6 3 0 -2.7288 -0.0106
6 3 1 33.1801 -0.0092
6 3 2 -10.2858 0.0765
6 3 3 -20.3688 -0.0167
6 3 4 -7.1469 -0.0349
6 3 5 23.7039 -0.0117
6 3 6 -10.3667 -0.0176
6 3 7 -20.3398 0.0004
6 3 8 -3.8780 -0.0066
6 3 9 16.8220 -0.0350
6 3 10 -7.7220 -0.0082
6 3 11 4.7230 0.0079
6 3 12 12.3915 -0.0203
6 3 13 12.2033 -0.0054
6 3 14 0.6482 -0.0015
6 3 15 -10.3493 0.0037
6 3 16 -4.3212 0.0156
6 3 17 -6.5313 -0.0183
6 3 18 -4.1329 0.0008
6 4 0 16.5784 -0.0044
6 4 1 -31.3146 0.0539
6 4 2 -15.6023 -0.0632
6 4 3 -1.6680 -0.0495
6 4 4 15.5082 0.0148
6 4 5 -12.8265 -0.0050
6 4 6 3.4481 -0.0089
6 4 7 14.7251 -0.0046
6 4 8 11.3054 -0.0107
6 4 9 -15.7814 0.0247
6 4 10 6.5681 0.0109
6 4 11 3.9832 -0.0177
6 4 12 -0.5510 0.0232
6 4 13 -6.2208 0.0119
6 4 14 -6.3363 0.0059
6 4 15 1.1521 0.0185
6 4 16 -4.7220 -0.0075
6 4 17 0.1620 0.0110
6 4 18 2.9944 -0.0051
6 4 19 3.2245 -0.0372
6 5 0 -31.9241 0.0391
6 5 1 -3.9723 -0.0637
6 5 2 -2.5054 -0.0139
6 5 3 7.9762 0.0543
6 5 4 -6.1987 0.0077
6 5 5 20.1840 0.0049
6 5 6 15.2231 0.0132
6 5 7 0.8473 0.0012
6 5 8 -17.9704 0.0288
6 5 9 2.7973 0.0032
6 5 10 -9.6504 -0.0144
6 5 11 -5.1684 0.0134
6 5 12 -0.2933 -0.0026
6 5 13 2.6383 -0.0008
6 5 14 5.2115 -0.0015
6 5 15 -0.6425 -0.0200
6 5 16 3.6242 0.0124
6 5 17 -0.5441 -0.0083
6 5 18 0.0041 -0.0246
6 5 19 1.5879 0.0412
6 6 0 1.4210 -0.0384
6 6 1 -5.7810 0.0190
6 6 2 8.9596 0.0455
6 6 3 2.8053 -0.0281
6 6 4 24.9345 -0.0149
6 6 5 10.1860 0.0034
6 6 6 -5.2127 -0.0140
6 6 7 -19.1378 0.0064
6 6 8 -5.4819 -0.0110
6 6 9 -14.5413 -0.0210
6 6 10 1.0148 -0.0035
6 6 11 7.2587 -0.0034
6 6 12 9.8120 -0.0046
6 6 13 8.7882 -0.0122
6 6 14 1.0682 -0.0090
6 6 15 0.2436 0.0147
6 6 16 -7.2307 -0.0116
6 6 17 -3.5155 -0.0131
6 6 18 -0.8896 0.0313
6 6 19 -0.0424 -0.0008
6 7 0 -3.7198 0.0078
6 7 1 13.0517 0.0080
6 7 2 3.2174 -0.0610
6 7 3 19.0480 -0.0114
6 7 4 3.0205 0.0229
6 7 5 -10.0172 -0.0049
6 7 6 -20.2228 0.0054
6 7 7 -9.0672 -0.0045
6 7 8 -7.5324 -0.0066
6 7 9 8.9062 0.0217
6 7 10 9.7116 0.0180
6 7 11 13.7049 -0.0008
6 7 12 9.6335 0.0051
6 7 13 -3.5316 0.0225
6 7 14 -8.6700 0.0209
6 7 15 -13.3361 0.0023
6 7 16 -3.7494 0.0091
6 7 17 -0.6424 0.0192
6 7 18 1.8893 -0.0219
6 7 19 1.8617 0.0075
6 8 0 9.3366 0.0151
6 8 1 -4.1456 -0.0412
6 8 2 13.8324 0.0339
6 8 3 -0.7855 0.0479
6 8 4 -10.5209 -0.0069
6 8 5 -15.0379 -0.0006
6 8 6 -3.2589 -0.0042
6 8 7 1.1848 -0.0025
6 8 8 9.2248 0.0191
6 8 9 8.2986 -0.0136
6 8 10 13.2855 -0.0230
6 8 11 4.4010 0.0016
6 8 12 -10.0336 0.0029
6 8 13 -12.3913 -0.0121
6 8 14 -12.3375 -0.0115
6 8 15 2.0352 -0.0169
6 8 16 4.3717 -0.0201
6 8 17 6.7318 -0.0224
6 8 18 5.7153 -0.0093
6 8 19 6.0662 -0.0108
6 9 0 -8.1109 -0.0318
6 9 1 13.7489 0.0480
6 9 2 -3.1548 0.0328
6 9 3 -7.6552 -0.0250
6 9 4 -6.0635 -0.0070
6 9 5 4.8664 -0.0011
6 9 6 2.0224 0.0008
6 9 7 1.2411 0.0086
6 9 8 5.0337 -0.0288
6 9 9 9.5997 -0.0104
6 9 10 -2.2350 0.0155
6 9 11 -11.6500 -0.0025
6 9 12 -7.7681 -0.0125
6 9 13 -6.3092 0.0049
6 9 14 6.9432 -0.0013
6 9 15 5.2732 0.0015
6 9 16 7.3909 0.0120
6 9 17 5.8795 -0.0071
6 9 18 2.9875 0.0238
6 9 19 -5.7150 0.0257
6 10 0 14.5086 0.0282
6 10 1 -3.9350 0.0090
6 10 2 0.4792 -0.0287
6 10 3 2.3960 0.0078
6 10 4 5.4335 0.0212
6 10 5 -6.0532 0.0017
6 10 6 -7.0177 0.0036
6 10 7 3.0760 -0.0097
6 10 8 5.8194 0.0088
6 10 9 -3.4554 0.0218
6 10 10 -5.1899 0.0027
6 10 11 1.0580 0.0000
6 10 12 -1.0985 0.0126
6 10 13 6.1986 0.0020
6 10 14 0.7529 0.0011
6 10 15 5.0141 0.0021
6 10 16 3.8249 -0.0221
6 10 17 -0.9175 0.0239
6 10 18 -5.9282 -0.0013
6 10 19 -3.7444 0.0008
6 11 0 -4.1240 0.0167
6 11 1 6.4443 -0.0143
6 11 2 1.8820 0.0312
6 11 3 -3.4082 0.0282
6 11 4 -13.0600 -0.0291
6 11 5 -5.9811 -0.0133
6 11 6 5.7429 -0.0043
6 11 7 4.4881 -0.0014
6 11 8 1.2862 0.0106
6 11 9 5.1247 -0.0155
6 11 10 6.0772 -0.0141
6 11 11 -2.5398 0.0057
6 11 12 -0.1756 -0.0070
6 11 13 -5.0953 -0.0104
6 11 14 2.3579 -0.0008
6 11 15 1.3315 -0.0150
6 11 16 -2.1437 0.0060
6 11 17 -2.6044 -0.0185
6 11 18 -1.6895 -0.0067
6 12 0 7.4074 -0.0109
6 12 1 -1.8868 0.0257
6 12 2 -6.8841 -0.0015
6 12 3 -8.8157 -0.0533
6 12 4 -0.2383 -0.0035
6 12 5 6.3512 0.0017
6 12 6 2.6817 -0.0085
6 12 7 5.3163 0.0128
6 12 8 8.9381 -0.0195
6 12 9 2.2152 -0.0067
6 12 10 -7.6111 0.0277
6 12 11 -5.3248 0.0042
6 12 12 -7.5765 -0.0087
6 12 13 1.5940 0.0087
6 12 14 1.5733 0.0033
6 12 15 1.2431 0.0018
6 12 16 2.0967 -0.0008
6 12 17 1.4108 -0.0039
6 12 18 -0.8112 0.0068
6 13 0 -4.9663 0.0036
6 13 1 -5.8377 -0.0265
6 13 2 -3.4451 -0.0473
6 13 3 -0.4080 0.0096
6 13 4 2.2424 0.0060
6 13 5 1.4564 -0.0091
6 13 6 7.7818 0.0039
6 13 7 6.7551 -0.0121
6 13 8 -2.9647 0.0090
6 13 10 -6.1141 -0.0122
6 13 11 -7.3758 -0.0085
6 13 12 1.5341 0.0174
6 13 13 2.4875 0.0068
6 13 14 4.8430 -0.0064
6 13 15 4.1725 0.0044
6 13 16 1.9068 -0.0036
6 13 17 -2.5021 0.0185
6 14 0 -3.8107 -0.0129
6 14 1 -0.0001 -0.0259
6 14 2 0.7620 0.0131
6 14 3 1.4485 0.0136
6 14 4 1.5150 -0.0082
6 14 5 7.7241 -0.0111
6 14 6 2.8620 -0.0012
6 14 7 -4.8155 0.0062
6 14 8 -7.1583 0.0007
6 14 9 -6.3853 -0.0212
6 14 10 -5.6598 0.0038
6 14 11 2.3151 0.0119
6 14 12 2.7063 -0.0179
6 14 13 6.1879 -0.0141
6 14 14 4.3643 0.0107
6 14 15 0.7857 0.0071
6 14 16 -5.4904 0.0171
6 14 17 -5.6468 -0.0102
6 15 0 0.6081 -0.0023
6 15 1 2.1062 0.0205
6 15 2 0.0488 -0.0059
6 15 3 -0.8734 -0.0295
6 15 4 4.7807 0.0025
6 15 5 0.2928 0.0266
6 15 6 -2.9690 -0.0097
6 15 7 -4.9936 -0.0094
6 15 8 -4.2621 0.0010
6 15 9 -1.6438 0.0180
6 15 10 3.1973 0.0016
6 15 11 2.8200 -0.0119
6 15 12 5.7548 0.0219
6 15 13 3.4653 0.0219
6 15 14 0.4201 -0.0016
6 15 15 -5.7604 -0.0065
6 15 16 -4.9074 -0.0133
6 16 1 -1.7023 -0.0486
6 16 2 -0.5178 -0.0292
6 16 3 3.4224 0.0322
6 16 4 -1.3523 0.0259
6 16 5 -1.0926 -0.0254
6 16 6 -3.0822 -0.0136
6 16 7 -2.0332 0.0052
6 16 8 -0.4750 0.0127
6 16 9 1.2376 -0.0049
6 16 10 2.5611 -0.0035
6 16 11 4.1742 0.0130
6 16 12 2.2068 -0.0189
6 16 13 0.6445 -0.0194
6 16 14 -3.8141 -0.0002
6 16 15 -3.6690 0.0047
6 17 3 -2.8170 -0.0263
6 17 4 0.5087 0.0050
6 17 5 -0.4005 0.0135
6 17 6 0.5481 -0.0065
6 17 7 0.4052 0.0050
6 17 8 1.0698 0.0031
6 17 9 2.9036 -0.0063
6 17 10 1.7870 -0.0118
6 17 11 1.4912 -0.0171
6 17 12 -0.1619 0.0021
6 17 13 -3.0827 0.0044
6 18 8 0.3251 -0.0103
6 18 9 -1.2681 0.0119
7 -15 0 4.5222 0.0529
7 -15 1 1.7599 -0.0463
7 -15 2 -3.3299 0.0383
7 -14 0 0.3307 -0.0462
7 -14 1 -5.1826 -0.0021
7 -14 2 -2.6326 -0.0180
7 -14 3 -5.5002 -0.0454
7 -14 4 -2.5559 0.0256
7 -14 5 1.8774 -0.0070
7 -13 0 -6.1064 -0.0348
7 -13 1 -2.7490 -0.0366
7 -13 2 -6.2521 -0.0432
7 -13 3 1.1465 0.0323
7 -13 4 5.2432 -0.0093
7 -13 5 6.6691 -0.0118
7 -13 6 3.5716 0.0067
7 -12 0 -0.7484 -0.0197
7 -12 1 -3.3704 -0.0042
7 -12 2 4.8526 0.0518
7 -12 3 4.0164 0.0006
7 -12 4 5.8831 -0.0165
7 -12 5 4.5111 0.0128
7 -12 6 -0.5840 -0.0144
7 -12 7 -7.6587 -0.0125
7 -12 8 -3.9546 -0.0126
7 -11 0 -2.6676 0.0459
7 -11 1 3.1289 0.0544
7 -11 2 0.5308 -0.0024
7 -11 3 5.7540 -0.0234
7 -11 4 2.1881 0.0097
7 -11 5 -5.8405 -0.0057
7 -11 6 -6.3944 -0.0154
7 -11 7 0.7942 0.0041
7 -11 8 -3.2368 -0.0021
7 -11 9 2.1477 -0.0011
7 -10 0 -2.1170 0.0196
7 -10 1 -2.3623 -0.0309
7 -10 2 5.3687 -0.0162
7 -10 3 -3.6200 0.0246
7 -10 4 -7.8438 0.0099
7 -10 5 1.5110 0.0048
7 -10 6 3.4885 0.0204
7 -10 7 -5.9666 -0.0048
7 -10 8 1.2585 0.0130
7 -10 9 3.6663 0.0094
7 -10 10 5.2157 -0.0046
7 -9 0 -6.2852 -0.0451
7 -9 1 1.1155 0.0124
7 -9 2 -7.1226 0.0475
7 -9 3 1.1809 -0.0062
7 -9 4 12.0723 -0.0187
7 -9 5 0.9520 0.0150
7 -9 6 -7.2776 0.0014
7 -9 7 3.5961 -0.0014
7 -9 8 2.7997 -0.0009
7 -9 9 -0.7382 -0.0016
7 -9 10 -7.0969 -0.0058
7 -9 11 0.0067 -0.0030
7 -9 12 1.9066 0.0079
7 -8 0 -1.3269 0.0558
7 -8 1 1.3350 0.0527
7 -8 2 21.6250 -0.0507
7 -8 3 17.1733 -0.0306
7 -8 4 -7.4768 0.0317
7 -8 5 -7.9730 0.0058
7 -8 6 2.2771 -0.0070
7 -8 7 -5.0025 0.0054
7 -8 8 -8.4312 -0.0049
7 -8 9 -4.2478 0.0118
7 -8 10 11.0270 0.0137
7 -8 11 6.3196 -0.0112
7 -8 12 -2.6505 0.0067
7 -8 13 0.6749 0.0220
7 -7 0 15.5495 0.0146
7 -7 1 31.3162 -0.1077
7 -7 2 4.5587 -0.0230
7 -7 3 -17.9916 0.0385
7 -7 4 -8.7525 -0.0258
7 -7 5 -5.0801 -0.0131
7 -7 6 -14.0205 0.0055
7 -7 7 -5.6208 -0.0265
7 -7 8 9.9897 0.0039
7 -7 9 19.7226 -0.0066
7 -7 10 1.8488 -0.0228
7 -7 11 -4.4821 0.0153
7 -7 12 1.2598 -0.0073
7 -7 13 -3.1212 -0.0063
7 -6 0 21.0019 -0.1040
7 -6 1 -13.0854 0.0071
7 -6 2 -14.8791 0.0457
7 -6 3 -6.1986 -0.0329
7 -6 4 -13.5402 -0.0030
7 -6 5 -14.7311 0.0099
7 -6 6 8.8517 -0.0222
7 -6 7 23.2548 0.0033
7 -6 8 16.8656 -0.0158
7 -6 9 -7.8213 -0.0074
7 -6 10 -3.6929 0.0165
7 -6 11 0.6681 -0.0201
7 -6 12 -10.4405 -0.0000
7 -6 13 -8.8457 0.0166
7 -6 14 0.5014 0.0002
7 -5 0 -20.0952 0.0318
7 -5 1 -3.4774 0.0433
7 -5 2 -7.3829 -0.0379
7 -5 3 -16.6789 0.0084
7 -5 4 -4.1865 0.0361
7 -5 5 22.5609 -0.0096
7 -5 6 22.3232 0.0089
7 -5 7 5.4957 0.0047
7 -5 8 -12.3821 0.0031
7 -5 9 -0.2963 0.0156
7 -5 10 -5.1007 0.0010
7 -5 11 -16.3478 0.0063
7 -5 12 -4.3293 0.0056
7 -5 13 6.4164 -0.0067
7 -5 14 8.0441 0.0010
7 -5 15 4.4634 0.0064
7 -4 0 10.5115 0.0272
7 -4 1 -6.0628 -0.0568
7 -4 2 -5.9022 0.0295
7 -4 3 9.7832 0.0711
7 -4 4 21.8332 -0.0252
7 -4 5 7.9399 0.0013
7 -4 6 -5.1618 0.0209
7 -4 7 -10.7853 -0.0069
7 -4 8 1.1636 0.0067
7 -4 9 -13.1813 -0.0008
7 -4 10 -15.3698 -0.0116
7 -4 11 5.8633 -0.0010
7 -4 12 9.5322 -0.0114
7 -4 13 6.7634 -0.0099
7 -4 14 4.1081 -0.0136
7 -4 15 2.1091 -0.0197
7 -4 16 -3.5190 -0.0266
7 -3 0 -4.3665 -0.0527
7 -3 1 2.0205 0.0476
7 -3 2 6.5085 0.0446
7 -3 3 3.7344 -0.0662
7 -3 4 -9.0313 -0.0055
7 -3 5 -10.5953 0.0121
7 -3 6 -7.2463 -0.0216
7 -3 7 1.9861 0.0003
7 -3 8 -13.5198 -0.0183
7 -3 9 -5.0447 -0.0137
7 -3 10 13.4233 0.0190
7 -3 11 6.4006 -0.0083
7 -3 12 5.7258 -0.0109
7 -3 13 2.6719 0.0037
7 -3 14 -0.7317 0.0060
7 -3 15 -7.0822 0.0062
7 -3 16 -5.6951 0.0063
7 -2 0 0.4111 0.0315
7 -2 1 -8.6631 -0.0174
7 -2 2 -13.1373 -0.0699
7 -2 3 -14.8835 0.0195
7 -2 4 -7.6636 0.0184
7 -2 5 1.9618 -0.0149
7 -2 6 9.8451 0.0077
7 -2 7 -2.9848 -0.0035
7 -2 8 7.3817 0.0061
7 -2 9 12.0345 0.0283
7 -2 10 -1.0106 -0.0022
7 -2 11 4.7272 -0.0038
7 -2 12 -2.6696 0.0138
7 -2 13 -4.2274 0.0081
7 -2 14 -5.8366 0.0125
7 -2 15 -0.6101 0.0201
7 -2 16 1.7484 0.0396
7 -2 17 0.4094 0.0587
7 -1 0 -22.2378 -0.0237
7 -1 1 -19.6115 -0.0263
7 -1 2 -11.9792 0.0487
7 -1 3 -0.0384 0.0274
7 -1 4 18.0323 -0.0201
7 -1 5 22.1910 -0.0023
7 -1 6 5.0983 0.0077
7 -1 7 6.1347 -0.0023
7 -1 8 -0.7832 0.0013
7 -1 9 -10.2399 -0.0107
7 -1 10 -0.7590 -0.0083
7 -1 11 -9.6486 0.0010
7 -1 12 0.8132 -0.0068
7 -1 13 3.7234 0.0110
7 -1 14 5.5081 0.0054
7 -1 15 0.6820 -0.0035
7 -1 16 -1.0670 0.0006
7 -1 17 4.1736 -0.0206
7 0 0 -14.1963 -0.0016
7 0 1 -3.7104 0.0556
7 0 2 12.1265 0.0011
7 0 3 37.8377 -0.0522
7 0 4 27.7214 -0.0062
7 0 5 -0.8612 0.0161
7 0 6 -8.5119 -0.0092
7 0 7 -12.7415 -0.0035
7 0 8 -13.8320 -0.0092
7 0 9 -5.0725 -0.0028
7 0 10 -5.9608 0.0119
7 0 11 17.0875 -0.0062
7 0 12 12.2031 0.0030
7 0 13 4.1312 0.0039
7 0 14 -4.7412 -0.0032
7 0 15 -3.0580 0.0015
7 0 16 0.0904 0.0002
7 0 17 -6.7133 -0.0200
7 0 18 -4.6779 -0.0500
7 1 0 6.8677 0.0539
7 1 1 24.0369 -0.0342
7 1 2 43.6605 -0.0549
7 1 3 9.7777 0.0384
7 1 4 -18.3712 0.0383
7 1 5 -19.4103 -0.0070
7 1 6 -14.6976 0.0002
7 1 7 -16.4175 -0.0044
7 1 8 -6.1726 0.0062
7 1 9 8.7457 0.0187
7 1 10 29.3525 -0.0103
7 1 11 6.0306 -0.0049
7 1 12 -4.3517 0.0194
7 1 13 -9.0395 0.0092
7 1 14 -5.1898 -0.0018
7 1 15 -8.7633 -0.0032
7 1 16 -11.1623 -0.0027
7 1 17 3.4895 0.0218
7 1 18 10.2432 0.0382
7 2 0 21.7836 -0.0412
7 2 1 22.7482 -0.0216
7 2 2 -21.7591 0.0725
7 2 3 -22.6902 0.0125
7 2 4 -10.6845 -0.0421
7 2 5 -9.0397 -0.0148
7 2 6 -19.1989 -0.0038
7 2 7 3.4382 -0.0002
7 2 8 27.3089 -0.0095
7 2 9 26.4026 -0.0305
7 2 10 -9.3067 -0.0076
7 2 11 -7.6013 0.0145
7 2 12 -8.8097 -0.0208
7 2 13 -8.2051 -0.0109
7 2 14 -14.6896 0.0011
7 2 15 -5.2354 0.0014
7 2 16 14.7427 0.0219
7 2 17 11.6008 0.0045
7 2 18 1.9060 -0.0100
7 3 0 -0.7150 -0.0139
7 3 1 -28.8724 0.0577
7 3 2 0.9770 -0.0352
7 3 3 7.1527 -0.0484
7 3 4 -4.6611 0.0190
7 3 5 -16.1996 0.0205
7 3 6 18.8151 0.0092
7 3 7 28.4122 0.0029
7 3 8 5.4401 -0.0000
7 3 9 -19.4570 0.0276
7 3 10 0.2214 0.0321
7 3 11 -7.9436 -0.0120
7 3 12 -10.1592 0.0167
7 3 13 -9.4946 0.0133
7 3 14 8.3387 -0.0019
7 3 15 18.8506 0.0079
7 3 16 6.3026 -0.0169
7 3 17 2.5126 -0.0030
7 3 18 0.4952 -0.0023
7 4 0 -12.3299 0.0362
7 4 1 22.4406 -0.0537
7 4 2 5.9390 -0.0167
7 4 3 -9.3839 0.0522
7 4 4 -11.4998 0.0072
7 4 5 20.9642 -0.0053
7 4 6 5.8439 0.0103
7 4 7 -14.1969 0.0043
7 4 8 -12.1497 0.0120
7 4 9 12.9154 0.0064
7 4 10 -9.1514 -0.0182
7 4 11 -6.7628 0.0065
7 4 12 1.2160 -0.0091
7 4 13 14.3839 -0.0082
7 4 14 10.7240 0.0065
7 4 15 -2.1777 -0.0252
7 4 16 1.6080 -0.0043
7 4 17 -1.7977 -0.0084
7 4 18 -6.1588 -0.0268
7 4 19 -6.0899 -0.0091
7 5 0 25.6721 -0.0498
7 5 1 -5.1902 0.0111
7 5 2 -8.9367 0.0549
7 5 3 -3.9706 -0.0254
7 5 4 13.3279 -0.0290
7 5 5 -14.7967 -0.0021
7 5 6 -13.2288 -0.0111
7 5 7 5.6283 -0.0069
7 5 8 18.6613 -0.0191
7 5 9 -10.3447 -0.0252
7 5 10 1.7421 0.0001
7 5 11 5.3742 -0.0042
7 5 12 6.1779 -0.0075
7 5 13 -2.0072 0.0039
7 5 14 -6.7188 -0.0113
7 5 15 0.0334 0.0106
7 5 16 -3.5472 0.0031
7 5 17 -3.9200 0.0001
7 5 18 -4.0978 0.0134
7 5 19 0.1645 -0.0084
7 6 0 -11.3443 0.0075
7 6 1 -2.8608 0.0345
7 6 2 -2.4769 -0.0453
7 6 3 0.7235 -0.0202
7 6 4 -22.9522 0.0210
7 6 5 -1.3909 0.0096
7 6 6 17.6950 0.0109
7 6 7 16.5491 -0.0101
7 6 8 -7.7666 -0.0051
7 6 9 8.1491 0.0222
7 6 10 -0.3437 0.0197
7 6 11 -6.3006 -0.0069
7 6 12 -10.2027 0.0077
7 6 13 -5.3857 0.0106
7 6 14 1.8530 0.0145
7 6 15 -0.3981 0.0035
7 6 16 2.3070 0.0031
7 6 17 0.8637 0.0238
7 6 18 3.6432 -0.0020
7 6 19 2.5467 -0.0060
7 7 0 1.1138 0.0133
7 7 1 -7.1459 -0.0473
7 7 2 -6.5279 0.0213
7 7 3 -17.4784 0.0481
7 7 4 12.0797 -0.0012
7 7 5 21.3288 -0.0081
7 7 6 11.7813 -0.0133
7 7 7 -4.4276 0.0056
7 7 8 5.7519 0.0143
7 7 9 -10.2451 -0.0058
7 7 10 -12.4866 -0.0250
7 7 11 -11.3150 0.0015
7 7 12 -0.3361 -0.0046
7 7 13 8.0139 -0.0187
7 7 14 6.8562 -0.0110
7 7 15 7.7903 -0.0114
7 7 16 1.8785 -0.0048
7 7 17 2.5606 -0.0271
7 7 18 -1.6909 -0.0105
7 7 19 -2.6152 -0.0063
7 8 0 -9.4972 -0.0478
7 8 1 -4.3101 0.0430
7 8 2 -8.5592 0.0255
7 8 3 17.5530 -0.0407
7 8 4 14.9839 -0.0238
7 8 5 4.2418 -0.0050
7 8 6 -4.8594 0.0072
7 8 7 -1.5266 -0.0018
7 8 8 -15.9837 -0.0172
7 8 9 -11.4609 -0.0037
7 8 10 -7.5949 0.0189
7 8 11 5.3866 0.0051
7 8 12 12.4825 -0.0062
7 8 13 10.1379 0.0136
7 8 14 7.1627 0.0151
7 8 15 -4.1033 0.0180
7 8 16 -3.7242 0.0066
7 8 17 -7.2516 0.0177
7 8 18 -5.2722 0.0094
7 8 19 -2.7724 -0.0035
7 9 0 1.1288 0.0491
7 9 1 -4.6743 0.0073
7 9 2 15.5795 -0.0389
7 9 3 5.7931 0.0010
7 9 4 -0.8463 0.0177
7 9 5 -6.1718 0.0054
7 9 6 -4.4807 -0.0018
7 9 7 -12.7694 -0.0032
7 9 8 -6.4082 0.0184
7 9 9 -2.3994 0.0177
7 9 10 9.7211 0.0026
7 9 11 12.6740 -0.0067
7 9 12 7.4634 0.0101
7 9 13 3.1244 0.0117
7 9 14 -8.9878 0.0057
7 9 15 -6.5348 -0.0051
7 9 16 -7.9321 -0.0097
7 9 17 -2.6568 -0.0009
7 9 18 1.8859 0.0033
7 9 19 6.5867 0.0053
7 10 0 -6.3422 0.0101
7 10 1 10.1423 -0.0275
7 10 2 -2.6735 0.0236
7 10 3 -2.3125 0.0296
7 10 4 -4.3098 -0.0053
7 10 5 0.3563 -0.0052
7 10 6 -4.5326 -0.0060
7 10 7 -1.9598 0.0133
7 10 8 0.4388 0.0072
7 10 9 9.3990 -0.0158
7 10 10 7.7099 -0.0275
7 10 11 0.9575 0.0002
7 10 12 -0.5992 0.0014
7 10 13 -8.5613 -0.0158
7 10 14 -4.3606 -0.0127
7 10 15 -5.8253 -0.0056
7 10 16 0.3956 0.0143
7 10 17 4.8664 -0.0017
7 10 18 6.5879 -0.0325
7 11 0 6.8026 -0.0364
7 11 1 -6.2608 0.0290
7 11 2 1.5642 0.0124
7 11 3 2.6611 -0.0328
7 11 4 6.4412 -0.0071
7 11 5 -2.1716 0.0037
7 11 6 -2.9826 0.0208
7 11 7 -0.2129 0.0102
7 11 8 4.3494 -0.0205
7 11 9 0.3404 -0.0116
7 11 10 -1.8376 0.0256
7 11 11 2.0201 0.0074
7 11 12 -2.8464 -0.0060
7 11 13 -0.2802 0.0065
7 11 14 -3.6902 0.0043
7 11 15 1.4316 0.0111
7 11 16 4.0901 -0.0060
7 11 17 4.4984 -0.0209
7 11 18 2.2615 0.0234
7 12 0 -7.0594 0.0301
7 12 1 3.9744 -0.0054
7 12 2 4.5578 -0.0385
7 12 3 4.0283 0.0137
7 12 4 -5.3436 0.0286
7 12 5 -3.6483 0.0186
7 12 6 0.2359 -0.0035
7 12 7 -0.0704 -0.0196
7 12 8 -2.5707 0.0147
7 12 9 2.7124 0.0279
7 12 10 7.0387 -0.0190
7 12 11 0.2786 -0.0074
7 12 12 0.5480 0.0100
7 12 13 -3.6133 -0.0107
7 12 14 0.1910 -0.0078
7 12 15 0.8335 -0.0003
7 12 16 1.6279 -0.0127
7 12 17 0.0162 0.0047
7 12 18 -1.7393 -0.0397
7 13 0 5.7807 0.0089
7 13 1 3.8695 -0.0163
7 13 2 1.0500 0.0345
7 13 3 -2.7554 0.0333
7 13 4 0.3359 -0.0080
7 13 5 -0.3824 -0.0091
7 13 6 -4.5665 0.0005
7 13 7 -1.9053 0.0156
7 13 8 6.3964 0.0036
7 13 9 5.4691 -0.0293
7 13 10 -1.1274 0.0037
7 13 11 0.8674 0.0148
7 13 12 -3.0302 -0.0122
7 13 13 -0.9719 -0.0047
7 13 14 -2.4835 0.0112
7 13 15 -0.0998 -0.0079
7 13 16 -0.4781 -0.0032
7 13 17 1.8177 -0.0255
7 14 0 2.3634 -0.0167
7 14 1 -1.6477 0.0336
7 14 2 -1.1802 0.0057
7 14 3 0.7975 -0.0439
7 14 4 -3.6084 -0.0029
7 14 5 -6.8880 0.0165
7 14 6 0.9246 -0.0026
7 14 7 6.5516 -0.0109
7 14 8 2.2054 -0.0177
7 14 9 0.0983 0.0097
7 14 10 2.6233 0.0164
7 14 11 -3.3310 -0.0077
7 14 12 -2.8511 0.0053
7 14 13 -5.2309 0.0124
7 14 14 -0.5500 -0.0036
7 14 15 1.2728 0.0050
7 14 16 5.8503 0.0054
7 14 17 4.0853 0.0133
7 15 0 -1.8912 0.0291
7 15 1 -0.7659 -0.0236
7 15 2 1.4214 -0.0353
7 15 3 -1.8891 0.0163
7 15 4 -3.6054 0.0124
7 15 5 3.0707 -0.0111
7 15 6 3.7858 -0.0064
7 15 7 1.0637 -0.0197
7 15 8 1.8495 -0.0023
7 15 9 1.1101 0.0166
7 15 10 -5.6715 -0.0194
7 15 11 -4.2856 -0.0159
7 15 12 -5.0964 -0.0102
7 15 13 0.2657 -0.0065
7 15 14 2.1743 -0.0016
7 15 15 6.3989 0.0016
7 15 16 2.0083 -0.0023
7 16 2 -0.9372 0.0219
7 16 3 -1.5728 -0.0049
7 16 4 2.3554 -0.0127
7 16 5 0.8753 -0.0058
7 16 6 1.6619 -0.0075
7 16 7 2.1184 0.0050
7 16 8 -1.0179 0.0058
7 16 9 -5.1884 -0.0286
7 16 10 -2.8694 -0.0036
7 16 11 -2.4425 0.0176
7 16 12 0.8840 0.0209
7 16 13 1.9274 -0.0008
7 16 14 5.2891 -0.0000
7 17 5 0.3811 0.0076
7 17 6 -0.5200 0.0113
7 17 7 -3.2622 -0.0331
7 17 8 -4.0997 -0.0221
7 17 9 -1.4635 0.0325
7 17 10 -0.1087 0.0261
7 17 11 0.6879 -0.0105
7 17 12 2.7139 -0.0218
8 -15 0 -3.2915 -0.0449
8 -14 0 3.8382 0.0487
8 -14 1 5.2719 0.0040
8 -14 2 -0.5165 -0.0036
8 -14 3 2.0370 0.0309
8 -13 0 4.7512 0.0225
8 -13 1 0.4806 -0.0075
8 -13 2 4.6830 0.0431
8 -13 3 -2.0833 0.0032
8 -13 4 -7.6275 -0.0139
8 -13 5 -5.1610 0.0113
8 -13 6 -0.1688 -0.0020
8 -12 0 1.9046 -0.0110
8 -12 1 3.1359 0.0343
8 -12 2 -6.9015 -0.0266
8 -12 3 -7.1976 -0.0477
8 -12 4 -3.0513 0.0109
8 -12 5 0.7666 -0.0028
8 -12 6 2.5816 0.0067
8 -12 7 5.3717 0.0097
8 -11 0 1.2471 -0.0042
8 -11 1 -6.8590 -0.0463
8 -11 2 -2.3093 -0.0385
8 -11 3 -1.5824 0.0361
8 -11 4 1.5099 0.0066
8 -11 5 5.4851 -0.0070
8 -11 6 6.2792 0.0215
8 -11 7 1.8212 -0.0202
8 -11 8 -0.4145 -0.0198
8 -11 9 -7.4770 0.0107
8 -10 0 -2.4693 -0.0127
8 -10 1 0.7297 0.0097
8 -10 2 -3.0221 0.0528
8 -10 3 3.6704 0.0050
8 -10 4 6.4432 -0.0281
8 -10 5 1.9023 0.0014
8 -10 6 -0.2632 -0.0251
8 -10 7 0.3150 -0.0110
8 -10 8 -6.5036 -0.0134
8 -10 9 -1.2885 -0.0280
8 -10 10 -0.9816 0.0176
8 -9 0 1.5933 0.0301
8 -9 1 -4.8188 0.0376
8 -9 2 4.2125 -0.0205
8 -9 3 0.6708 -0.0315
8 -9 4 -5.1456 0.0154
8 -9 5 0.3968 0.0013
8 -9 6 1.3182 0.0010
8 -9 7 -6.5526 0.0032
8 -9 8 -0.9444 -0.0082
8 -9 9 -0.3560 0.0117
8 -9 10 4.6856 0.0084
8 -9 11 2.2495 -0.0015
8 -8 0 -6.5547 -0.0044
8 -8 1 -2.2677 -0.0590
8 -8 2 -12.6308 -0.0158
8 -8 3 -7.1179 0.0398
8 -8 4 7.4341 0.0036
8 -8 5 3.6600 -0.0203
8 -8 6 -4.4375 0.0091
8 -8 7 3.2921 0.0044
8 -8 8 3.6035 0.0050
8 -8 9 3.3952 0.0047
8 -8 10 -5.3290 0.0031
8 -8 11 -2.2142 0.0156
8 -8 12 2.1304 0.0137
8 -7 0 -12.1472 -0.0551
8 -7 1 -19.9098 0.0388
8 -7 2 5.3869 0.0603
8 -7 3 19.6784 -0.0113
8 -7 4 6.7350 -0.0257
8 -7 5 0.0565 0.0160
8 -7 6 8.0222 0.0127
8 -7 7 0.9093 0.0128
8 -7 8 -7.6569 0.0014
8 -7 9 -12.3444 0.0031
8 -7 10 3.2525 0.0293
8 -7 11 6.4441 0.0171
8 -7 12 -0.0625 0.0060
8 -7 13 0.5446 0.0064
8 -6 0 -11.8589 0.0715
8 -6 1 22.3913 0.0514
8 -6 2 19.3653 -0.0510
8 -6 3 3.8847 -0.0300
8 -6 4 4.2933 0.0211
8 -6 5 6.4086 -0.0002
8 -6 6 -12.6285 -0.0001
8 -6 7 -19.6004 -0.0005
8 -6 8 -8.0474 -0.0010
8 -6 9 14.3584 0.0120
8 -6 10 5.2870 0.0091
8 -6 11 -1.7997 -0.0006
8 -6 12 5.3345 -0.0061
8 -6 13 4.0200 -0.0074
8 -6 14 -2.8950 -0.0223
8 -5 0 28.3377 0.0277
8 -5 1 6.1617 -0.0726
8 -5 2 3.4099 -0.0078
8 -5 3 9.3360 0.0384
8 -5 4 -2.4235 -0.0170
8 -5 5 -26.9707 -0.0070
8 -5 6 -18.4724 0.0043
8 -5 7 5.5808 -0.0049
8 -5 8 19.0912 -0.0001
8 -5 9 -1.3015 -0.0119
8 -5 10 1.9603 -0.0231
8 -5 11 11.2019 -0.0049
8 -5 12 -0.6489 -0.0208
8 -5 13 -10.6022 -0.0321
8 -5 14 -8.3135 0.0025
8 -5 15 -0.1736 -0.0359
8 -4 0 -7.9602 -0.0513
8 -4 1 6.4923 0.0483
8 -4 2 5.3667 0.0419
8 -4 3 -15.4752 -0.0524
8 -4 4 -28.1497 -0.0032
8 -4 5 -3.5979 0.0123
8 -4 6 15.1201 -0.0111
8 -4 7 12.8250 0.0026
8 -4 8 -5.3349 -0.0203
8 -4 9 11.8419 -0.0228
8 -4 10 10.3995 0.0181
8 -4 11 -12.7522 -0.0116
8 -4 12 -14.7147 -0.0142
8 -4 13 -4.5570 0.0125
8 -4 14 2.1895 -0.0180
8 -4 15 1.7468 0.0214
8 -3 0 11.7629 0.0707
8 -3 1 -0.4559 0.0152
8 -3 2 -15.1681 -0.0836
8 -3 3 -10.5073 0.0049
8 -3 4 12.8968 0.0346
8 -3 5 12.9354 -0.0019
8 -3 6 2.4773 0.0063
8 -3 7 -3.6660 -0.0080
8 -3 8 17.3016 0.0079
8 -3 9 -0.7248 0.0305
8 -3 10 -22.0944 -0.0066
8 -3 11 -9.1323 0.0048
8 -3 12 1.1592 0.0126
8 -3 13 3.1133 -0.0119
8 -3 14 2.9212 0.0129
8 -3 15 7.8433 -0.0107
8 -3 16 5.7198 -0.0135
8 -2 0 -0.8504 -0.0036
8 -2 1 -2.5148 -0.0676
8 -2 2 5.8104 0.0217
8 -2 3 13.3668 0.0471
8 -2 4 -0.8830 -0.0103
8 -2 5 -8.3879 -0.0054
8 -2 6 -3.2598 -0.0042
8 -2 7 11.5611 0.0093
8 -2 8 -13.8086 0.0116
8 -2 9 -18.3532 -0.0225
8 -2 10 3.4298 -0.0084
8 -2 11 3.3073 0.0065
8 -2 12 3.1804 -0.0114
8 -2 13 4.7584 -0.0047
8 -2 14 9.1357 -0.0126
8 -2 15 2.3712 -0.0003
8 -2 16 -5.5929 -0.0190
8 -1 0 10.9047 -0.0377
8 -1 1 9.8586 0.0328
8 -1 2 1.4817 0.0224
8 -1 3 -15.4077 -0.0493
8 -1 4 -15.8705 -0.0106
8 -1 5 -3.7413 0.0024
8 -1 6 5.3387 -0.0083
8 -1 7 -12.9742 0.0047
8 -1 8 -0.0308 -0.0141
8 -1 9 15.6461 -0.0105
8 -1 10 2.8553 0.0209
8 -1 11 3.7164 0.0010
8 -1 12 2.4359 -0.0095
8 -1 13 3.6676 0.0011
8 -1 14 -4.1746 0.0163
8 -1 15 -5.8253 -0.0049
8 -1 16 -2.3658 0.0030
8 -1 17 -4.0967 0.0371
8 0 0 3.5912 0.0290
8 0 1 -11.5972 -0.0165
8 0 2 -24.3401 -0.0565
8 0 3 -19.9268 0.0219
8 0 4 -1.4091 0.0295
8 0 5 8.2731 -0.0056
8 0 6 2.3382 0.0130
8 0 7 17.9981 0.0022
8 0 8 16.2875 0.0016
8 0 9 -2.6524 0.0229
8 0 10 -1.8446 -0.0110
8 0 11 -8.8078 -0.0063
8 0 12 -4.7970 0.0117
8 0 13 -5.5854 0.0024
8 0 14 1.4375 -0.0075
8 0 15 2.2284 -0.0002
8 0 16 -1.1679 0.0018
8 0 17 5.0183 0.0217
8 1 0 -19.8066 -0.0370
8 1 1 -25.7595 -0.0187
8 1 2 -16.9286 0.0594
8 1 3 9.8502 0.0315
8 1 4 19.9302 -0.0268
8 1 5 18.1409 -0.0044
8 1 6 22.3829 -0.0012
8 1 7 7.1962 0.0040
8 1 8 -10.2804 0.0060
8 1 9 -12.5273 -0.0318
8 1 10 -18.0812 -0.0038
8 1 11 -2.3331 0.0163
8 1 12 2.9702 -0.0156
8 1 13 10.9669 -0.0068
8 1 14 5.3278 0.0102
8 1 15 3.8618 0.0040
8 1 16 5.4621 0.0081
8 1 17 -5.0006 0.0040
8 1 18 -6.8678 -0.0165
8 2 0 -16.4961 0.0102
8 2 1 -1.8664 0.0609
8 2 2 26.2592 -0.0009
8 2 3 23.6892 -0.0502
8 2 4 16.7839 0.0089
8 2 5 12.1443 0.0192
8 2 6 -3.2805 0.0097
8 2 7 -19.8108 0.0046
8 2 8 -23.9830 -0.0154
8 2 9 -16.1834 0.0111
8 2 10 10.2014 0.0324
8 2 11 10.2028 0.0024
8 2 12 13.0074 0.0132
8 2 13 4.6584 0.0122
8 2 14 6.4013 0.0063
8 2 15 -1.9695 0.0043
8 2 16 -16.1547 -0.0002
8 2 17 -8.4134 0.0030
8 2 18 1.5783 0.0313
8 3 0 10.5273 0.0488
8 3 1 25.7810 -0.0277
8 3 2 5.4592 -0.0327
8 3 3 0.8321 0.0475
8 3 4 -0.0749 0.0154
8 3 5 -9.3918 -0.0144
8 3 6 -27.4580 -0.0077
8 3 7 -23.1908 -0.0112
8 3 8 -0.2882 -0.0032
8 3 9 20.4586 0.0083
8 3 10 6.5683 -0.0274
8 3 11 9.9797 -0.0127
8 3 12 3.4113 -0.0161
8 3 13 2.9135 -0.0163
8 3 14 -12.6412 -0.0063
8 3 15 -18.7898 -0.0068
8 3 16 -2.9247 -0.0035
8 3 17 3.6770 0.0120
8 3 18 4.8596 -0.0026
8 4 0 9.6511 -0.0352
8 4 1 -12.6630 -0.0056
8 4 2 -2.6731 0.0563
8 4 3 0.6226 -0.0161
8 4 4 -7.0762 -0.0308
8 4 5 -22.7023 -0.0032
8 4 6 -4.0812 -0.0042
8 4 7 15.9742 -0.0044
8 4 8 15.5551 0.0053
8 4 9 -4.2011 -0.0301
8 4 10 10.4494 0.0048
8 4 11 3.2622 0.0147
8 4 12 -3.4163 -0.0071
8 4 13 -16.4876 -0.0051
8 4 14 -9.7991 -0.0050
8 4 15 5.0457 0.0117
8 4 16 3.7807 0.0146
8 4 17 5.5569 -0.0009
8 4 18 6.8902 0.0108
8 5 0 -16.0320 -0.0009
8 5 1 5.2039 0.0320
8 5 2 2.7989 -0.0463
8 5 3 -5.7215 -0.0296
8 5 4 -12.3205 0.0189
8 5 5 13.2229 0.0111
8 5 6 13.2669 0.0027
8 5 7 -2.1644 0.0140
8 5 8 -10.2912 -0.0037
8 5 9 14.0957 0.0300
8 5 10 -0.6156 0.0264
8 5 11 -7.4320 -0.0086
8 5 12 -10.5494 0.0100
8 5 13 1.5679 0.0077
8 5 14 7.5129 0.0248
8 5 15 1.6818 0.0130
8 5 16 4.6825 -0.0165
8 5 17 5.8872 -0.0015
8 5 18 3.3469 0.0049
8 5 19 -4.3788 -0.0513
8 6 0 12.0662 0.0286
8 6 1 1.3042 -0.0504
8 6 2 -2.6661 -0.0083
8 6 3 0.0127 0.0445
8 6 4 19.2963 0.0022
8 6 5 -0.9927 -0.0208
8 6 6 -14.8585 -0.0038
8 6 7 -6.3714 -0.0027
8 6 8 14.9823 0.0088
8 6 9 -6.7779 -0.0066
8 6 10 -3.6478 -0.0297
8 6 11 1.1510 0.0073
8 6 12 7.6849 -0.0090
8 6 13 2.0371 -0.0072
8 6 14 -2.6915 -0.0140
8 6 15 1.9060 -0.0260
8 6 16 0.5474 0.0043
8 6 17 -2.1496 -0.0155
8 6 18 -7.7812 -0.0347
8 6 19 -4.5558 0.0093
8 7 0 -1.1562 -0.0371
8 7 1 3.3850 0.0097
8 7 2 7.4135 0.0287
8 7 3 12.5678 -0.0325
8 7 4 -16.1818 -0.0234
8 7 5 -16.8553 0.0118
8 7 6 1.3334 0.0046
8 7 7 12.2600 -0.0058
8 7 8 -7.1614 -0.0036
8 7 9 6.8118 -0.0164
8 7 10 9.1538 0.0110
8 7 11 5.6975 0.0010
8 7 12 -7.3972 0.0034
8 7 13 -7.4672 0.0028
8 7 14 -1.5616 -0.0008
8 7 15 -3.9969 0.0317
8 7 16 -2.8757 0.0107
8 7 17 -3.9056 0.0165
8 7 18 2.5245 0.0401
8 7 19 4.6288 0.0149
8 8 0 7.9192 0.0073
8 8 1 5.7107 -0.0108
8 8 2 1.0734 -0.0420
8 8 3 -22.6400 0.0085
8 8 4 -8.5539 0.0340
8 8 5 8.3345 0.0011
8 8 6 9.0868 -0.0103
8 8 7 -1.8344 0.0089
8 8 8 14.7459 -0.0052
8 8 9 7.4982 0.0088
8 8 10 -1.5979 0.0066
8 8 11 -13.3150 -0.0054
8 8 12 -8.1410 -0.0054
8 8 13 -2.9805 -0.0084
8 8 14 -3.0249 0.0045
8 8 15 4.5893 -0.0047
8 8 16 4.1023 -0.0030
8 8 17 7.9310 -0.0139
8 8 18 5.5120 -0.0206
8 8 19 0.8211 0.0052
8 9 0 -1.3319 -0.0198
8 9 1 -5.3273 -0.0336
8 9 2 -19.3717 0.0184
8 9 3 1.4581 0.0255
8 9 4 8.7771 -0.0104
8 9 5 5.2573 -0.0107
8 9 6 1.9216 -0.0010
8 9 7 13.7563 -0.0121
8 9 8 -0.4297 0.0027
8 9 9 -8.4791 -0.0017
8 9 10 -14.1934 -0.0232
8 9 11 -6.4528 -0.0002
8 9 12 -2.7100 0.0034
8 9 13 0.7370 -0.0099
8 9 14 11.4286 -0.0013
8 9 15 7.6291 0.0023
8 9 16 6.8302 -0.0032
8 9 17 0.2361 -0.0015
8 9 18 -5.1227 -0.0143
8 10 0 -2.0588 -0.0297
8 10 1 -10.4873 0.0236
8 10 2 8.4006 0.0145
8 10 3 4.6791 -0.0225
8 10 4 2.2905 -0.0112
8 10 5 1.3676 0.0006
8 10 6 7.3884 0.0015
8 10 7 -6.3476 0.0020
8 10 8 -9.6252 -0.0062
8 10 9 -10.5142 -0.0078
8 10 10 -2.7012 0.0279
8 10 11 1.1765 0.0131
8 10 12 4.9206 -0.0088
8 10 13 12.2528 0.0201
8 10 14 5.9670 0.0163
8 10 15 2.9675 0.0092
8 10 16 -5.3213 0.0075
8 10 17 -8.2498 -0.0030
8 10 18 -5.2209 0.0405
8 11 0 -5.0882 0.0333
8 11 1 8.8636 -0.0015
8 11 2 -2.1618 -0.0247
8 11 3 -1.5447 0.0131
8 11 4 -1.1119 0.0298
8 11 5 4.6977 0.0090
8 11 6 -4.7397 -0.0160
8 11 7 -4.8650 -0.0111
8 11 8 -3.9368 0.0055
8 11 9 1.8201 0.0222
8 11 10 3.2337 -0.0134
8 11 11 3.2344 -0.0208
8 11 12 6.6408 0.0084
8 11 13 1.7552 -0.0014
8 11 14 -0.5501 -0.0090
8 11 15 -7.1288 -0.0055
8 11 16 -6.5542 -0.0045
8 11 17 -3.6421 0.0197
8 11 18 -1.0696 -0.0384
8 12 0 7.1319 -0.0127
8 12 1 -5.1482 -0.0097
8 12 2 -1.7212 0.0366
8 12 3 0.3531 0.0235
8 12 4 6.5926 -0.0271
8 12 5 -1.5063 -0.0216
8 12 6 -1.3556 0.0058
8 12 7 0.1852 0.0064
8 12 8 2.4063 0.0060
8 12 9 -0.8127 -0.0163
8 12 10 -0.8897 -0.0052
8 12 11 3.8113 0.0064
8 12 12 0.8572 0.0057
8 12 13 -0.8678 0.0020
8 12 14 -4.9294 -0.0007
8 12 15 -2.6008 -0.0088
8 12 16 -2.7679 0.0065
8 12 17 -0.2329 -0.0111
8 12 18 4.8695 0.0301
8 13 0 -6.7156 -0.0203
8 13 1 -1.8508 0.0269
8 13 2 0.1167 -0.0066
8 13 3 3.1418 -0.0451
8 13 4 -2.9026 0.0066
8 13 5 0.8258 0.0121
8 13 6 3.0867 -0.0071
8 13 7 0.6534 0.0077
8 13 8 -4.2920 -0.0022
8 13 9 0.3896 0.0058
8 13 10 4.8682 0.0114
8 13 11 -0.1366 0.0107
8 13 12 -0.9797 -0.0001
8 13 13 -2.4010 -0.0005
8 13 14 1.0038 -0.0083
8 13 15 -1.9603 0.0060
8 13 16 0.7964 0.0047
8 13 17 2.4645 0.0006
8 14 0 -0.5392 0.0336
8 14 1 1.3794 -0.0059
8 14 2 0.6771 -0.0135
8 14 3 -1.7540 0.0332
8 14 4 5.1884 0.0012
8 14 5 4.7736 -0.0064
8 14 6 -2.7279 0.0195
8 14 7 -5.5053 0.0019
8 14 8 1.9342 0.0038
8 14 9 1.7285 0.0163
8 14 10 -3.2969 -0.0063
8 14 11 0.4813 -0.0104
8 14 12 0.8397 0.0056
8 14 13 3.7821 -0.0032
8 14 14 -1.9630 -0.0077
8 14 15 -0.2344 -0.0152
8 14 16 -1.2754 -0.0221
8 15 1 -0.1799 0.0150
8 15 2 -1.1552 0.0259
8 15 3 4.2111 -0.0037
8 15 4 1.4962 -0.0101
8 15 5 -5.2252 -0.0028
8 15 6 -3.9368 0.0048
8 15 7 1.3698 0.0160
8 15 8 -1.8590 0.0092
8 15 9 -2.0619 -0.0336
8 15 10 4.7246 0.0110
8 15 11 2.5774 0.0317
8 15 12 2.5926 0.0031
8 15 13 -3.6915 -0.0038
8 15 14 -1.3427 0.0132
8 15 15 -2.3508 0.0197
8 16 3 -0.0771 -0.0325
8 16 4 -2.4833 -0.0201
8 16 5 -0.3279 0.0267
8 16 6 -0.0136 0.0051
8 16 7 -2.2519 -0.0190
8 16 8 1.3586 -0.0306
8 16 9 5.1349 0.0315
8 16 10 -0.0655 0.0096
8 16 11 -0.7905 -0.0283
8 16 12 -3.8872 -0.0122
8 16 13 -1.0212 0.0153
8 16 14 -2.4138 -0.0110
8 17 7 3.5932 0.0327
8 17 8 2.5873 0.0160
8 17 9 -2.2211 -0.0358
8 17 10 -1.3758 -0.0109
8 17 11 -1.6366 0.0266
9 -14 0 -5.3710 0.0132
9 -14 1 -3.8093 -0.0250
9 -13 0 -2.0997 -0.0620
9 -13 1 2.1211 0.0205
9 -13 2 -2.6126 -0.0050
9 -13 3 1.9731 -0.0481
9 -13 4 7.5514 0.0193
9 -12 0 -0.5633 0.0094
9 -12 1 -1.6432 -0.0261
9 -12 2 7.8943 -0.0312
9 -12 3 8.2181 0.0516
9 -12 4 -0.7639 0.0051
9 -12 5 -4.9727 -0.0058
9 -12 6 -3.1703 0.0123
9 -11 0 2.8514 0.0062
9 -11 1 10.3637 0.0053
9 -11 2 3.1020 0.0617
9 -11 3 -3.1638 -0.0012
9 -11 4 -4.3771 -0.0107
9 -11 5 -3.8623 0.0196
9 -11 6 -4.6753 -0.0134
9 -11 7 -3.1691 0.0120
9 -11 8 2.4699 0.0019
9 -10 0 7.3441 -0.0088
9 -10 1 -0.8283 0.0280
9 -10 2 -0.9553 -0.0153
9 -10 3 -3.5380 -0.0219
9 -10 4 -4.8055 0.0289
9 -10 5 -4.3749 -0.0031
9 -10 6 -0.8770 0.0102
9 -10 7 5.3537 0.0096
9 -10 8 7.9252 -0.0029
9 -10 9 -3.4801 0.0170
9 -9 0 -0.8228 0.0036
9 -9 1 2.7796 -0.0152
9 -9 2 -4.1109 -0.0166
9 -9 3 -3.0057 0.0384
9 -9 4 -0.2713 0.0031
9 -9 5 1.1788 -0.0147
9 -9 6 5.6941 0.0032
9 -9 7 6.5697 -0.0058
9 -9 8 -3.7715 -0.0008
9 -9 9 0.0774 -0.0124
9 -9 10 -1.4043 -0.0021
9 -9 11 -2.1322 0.0124
9 -8 0 5.6368 0.0060
9 -8 1 -1.9956 0.0152
9 -8 2 2.8535 0.0487
9 -8 3 0.8546 -0.0057
9 -8 4 -2.3348 -0.0281
9 -8 5 1.8021 0.0221
9 -8 6 3.1360 -0.0066
9 -8 7 -4.3469 -0.0046
9 -8 8 -0.1212 0.0090
9 -8 9 -3.3159 -0.0193
9 -8 10 0.1780 -0.0085
9 -8 11 1.0544 0.0036
9 -8 12 1.3376 -0.0169
9 -7 0 2.9827 0.0258
9 -7 1 6.9959 0.0228
9 -7 2 -7.9585 -0.0437
9 -7 3 -11.5075 -0.0414
9 -7 4 -2.1880 0.0335
9 -7 5 1.3086 -0.0089
9 -7 6 -4.1617 -0.0185
9 -7 7 2.1118 0.0105
9 -7 8 2.2083 -0.0122
9 -7 9 5.2816 -0.0003
9 -7 10 -2.0426 -0.0003
9 -7 11 -1.7849 -0.0082
9 -7 12 1.1645 0.0103
9 -7 13 0.9163 -0.0013
9 -6 0 2.3333 -0.0182
9 -6 1 -20.8942 -0.0709
9 -6 2 -13.3536 -0.0192
9 -6 3 0.5640 0.0467
9 -6 4 3.1942 -0.0092
9 -6 5 0.3467 -0.0171
9 -6 6 11.3715 0.0159
9 -6 7 10.6847 -0.0026
9 -6 8 2.7842 0.0105
9 -6 9 -11.0745 -0.0029
9 -6 10 -1.1366 -0.0172
9 -6 11 3.4371 0.0240
9 -6 12 -1.1994 0.0211
9 -6 13 -1.0569 -0.0025
9 -5 0 -26.8934 -0.0601
9 -5 1 -3.6704 0.0189
9 -5 2 3.2151 0.0498
9 -5 3 2.1330 -0.0230
9 -5 4 7.7028 -0.0128
9 -5 5 21.4016 0.0222
9 -5 6 8.8883 -0.0067
9 -5 7 -9.8466 0.0031
9 -5 8 -17.0314 0.0035
9 -5 9 3.6992 -0.0061
9 -5 10 -0.2149 0.0251
9 -5 11 -6.6242 0.0122
9 -5 12 1.5187 0.0069
9 -5 13 6.8878 0.0279
9 -5 14 4.9920 0.0081
9 -4 0 8.6611 0.0075
9 -4 1 1.1750 0.0211
9 -4 2 3.3124 -0.0322
9 -4 3 17.4764 0.0062
9 -4 4 22.8089 0.0344
9 -4 5 -4.3789 -0.0053
9 -4 6 -20.0952 0.0023
9 -4 7 -12.7812 0.0131
9 -4 8 6.7983 0.0076
9 -4 9 -9.6515 0.0121
9 -4 10 -5.1123 -0.0121
9 -4 11 13.0291 0.0065
9 -4 12 11.5593 0.0133
9 -4 13 0.3677 -0.0232
9 -4 14 -6.8198 0.0009
9 -4 15 -2.4477 -0.0211
9 -3 0 -5.7708 -0.0041
9 -3 1 6.6856 -0.0299
9 -3 2 18.6282 0.0439
9 -3 3 8.7483 0.0489
9 -3 4 -18.6079 -0.0307
9 -3 5 -17.3884 -0.0089
9 -3 6 -3.1775 0.0133
9 -3 7 3.5794 -0.0060
9 -3 8 -15.4457 -0.0096
9 -3 9 6.9971 -0.0226
9 -3 10 22.6392 -0.0137
9 -3 11 6.0602 -0.0077
9 -3 12 -7.2662 -0.0172
9 -3 13 -7.3377 -0.0050
9 -3 14 -2.1698 -0.0225
9 -3 15 -5.0115 -0.0202
9 -3 16 -3.3882 -0.0261
9 -2 0 8.1323 -0.0456
9 -2 1 9.9102 0.0520
9 -2 2 -5.2166 0.0361
9 -2 3 -17.1798 -0.0794
9 -2 4 -1.8813 -0.0179
9 -2 5 5.2136 0.0186
9 -2 6 -1.7096 -0.0141
9 -2 7 -11.2641 -0.0135
9 -2 8 20.6672 -0.0124
9 -2 9 18.9849 -0.0068
9 -2 10 -6.5521 0.0123
9 -2 11 -9.1138 0.0058
9 -2 12 -3.4109 0.0012
9 -2 13 -3.1493 -0.0072
9 -2 14 -8.2391 -0.0045
9 -2 15 -0.3482 -0.0083
9 -2 16 9.1343 0.0017
9 -1 0 -2.0993 0.0219
9 -1 1 -7.6857 0.0071
9 -1 2 -2.8275 -0.0737
9 -1 3 12.1998 0.0191
9 -1 4 5.9263 0.0303
9 -1 5 -6.9960 -0.0073
9 -1 6 -4.7867 0.0024
9 -1 7 21.1357 -0.0006
9 -1 8 1.0687 0.0073
9 -1 9 -16.9257 0.0266
9 -1 10 -3.9679 -0.0114
9 -1 11 0.4773 -0.0066
9 -1 12 -4.4316 0.0124
9 -1 13 -6.9044 -0.0046
9 -1 14 6.7605 -0.0094
9 -1 15 11.3977 0.0141
9 -1 16 3.1003 0.0092
9 -1 17 0.7322 0.0114
9 0 0 0.0082 0.0152
9 0 1 12.3730 -0.0137
9 0 2 17.6525 0.0530
9 0 3 1.5239 0.0179
9 0 4 -11.2789 -0.0273
9 0 5 -3.9009 -0.0031
9 0 6 7.5201 -0.0026
9 0 7 -16.5014 -0.0050
9 0 8 -12.9955 0.0089
9 0 9 8.0569 -0.0220
9 0 10 5.5383 0.0006
9 0 11 -0.3091 0.0119
9 0 12 -0.1126 -0.0094
9 0 13 10.3751 -0.0042
9 0 14 3.6813 0.0131
9 0 15 -2.7405 0.0132
9 0 16 -0.5552 0.0083
9 0 17 -5.0584 -0.0235
9 1 0 20.2865 0.0149
9 1 1 15.1149 0.0328
9 1 2 -4.2634 -0.0132
9 1 3 -16.5752 -0.0540
9 1 4 -10.1518 0.0065
9 1 5 -7.8238 0.0237
9 1 6 -18.4516 -0.0006
9 1 7 4.8335 0.0056
9 1 8 20.0309 -0.0013
9 1 9 9.6104 0.0174
9 1 10 3.3743 0.0044
9 1 11 -0.2224 -0.0048
9 1 12 1.8139 0.0085
9 1 13 -10.2048 0.0026
9 1 14 -5.8982 -0.0024
9 1 15 -0.6484 -0.0045
9 1 16 -2.9814 -0.0171
9 1 17 2.4262 -0.0243
9 2 0 5.1224 0.0070
9 2 1 -12.6714 -0.0328
9 2 2 -22.2212 -0.0483
9 2 3 -13.4214 0.0491
9 2 4 -9.6717 0.0407
9 2 5 -3.9399 -0.0128
9 2 6 22.6118 -0.0087
9 2 7 24.7336 -0.0033
9 2 8 10.3047 0.0097
9 2 9 0.0749 -0.0004
9 2 10 -9.9728 -0.0233
9 2 11 -8.8713 -0.0174
9 2 12 -14.7947 -0.0038
9 2 13 -0.9757 -0.0021
9 2 14 1.5682 -0.0130
9 2 15 4.1768 -0.0031
9 2 16 10.2501 -0.0205
9 2 17 2.4908 -0.0083
9 2 18 -2.1314 0.0065
9 3 0 -16.5252 -0.0287
9 3 1 -17.3841 -0.0131
9 3 2 -2.7889 0.0685
9 3 3 1.1641 0.0114
9 3 4 10.5825 -0.0295
9 3 5 26.7063 -0.0056
9 3 6 20.5929 0.0075
9 3 7 4.1893 0.0111
9 3 8 -11.0001 0.0103
9 3 9 -19.0894 -0.0226
9 3 10 -9.3050 0.0031
9 3 11 -9.2672 0.0380
9 3 12 5.4383 0.0238
9 3 13 4.6502 0.0013
9 3 14 11.7779 0.0113
9 3 15 12.5087 0.0028
9 3 16 -1.2533 0.0274
9 3 17 -5.9973 0.0197
9 3 18 -6.4888 0.0265
9 4 0 -4.3629 0.0151
9 4 1 7.7110 0.0452
9 4 2 4.0582 -0.0287
9 4 3 9.6343 -0.0243
9 4 4 16.0230 0.0179
9 4 5 9.0049 0.0169
9 4 6 -9.2820 -0.0016
9 4 7 -20.4082 0.0069
9 4 8 -16.2154 -0.0131
9 4 9 -1.5574 0.0251
9 4 10 -5.9856 0.0199
9 4 11 6.8487 -0.0173
9 4 12 7.4889 -0.0008
9 4 13 14.0785 0.0077
9 4 14 6.1327 -0.0041
9 4 15 -6.5822 0.0083
9 4 16 -7.1672 -0.0076
9 4 17 -7.1720 -0.0120
9 4 18 -3.3781 0.0001
9 5 0 7.6659 0.0305
9 5 1 -1.8167 -0.0353
9 5 2 4.0638 -0.0044
9 5 3 6.3947 0.0459
9 5 4 -0.0284 0.0087
9 5 5 -17.0277 -0.0235
9 5 6 -14.0410 0.0041
9 5 7 -1.6476 -0.0100
9 5 8 4.2564 0.0094
9 5 9 -7.3046 -0.0186
9 5 10 8.9317 -0.0363
9 5 11 10.3770 0.0055
9 5 12 10.7536 -0.0101
9 5 13 -2.4192 -0.0256
9 5 14 -8.2144 -0.0290
9 5 15 -5.1885 -0.0269
9 5 16 -5.9950 -0.0057
9 5 17 -3.5828 -0.0001
9 5 18 1.1241 -0.0129
9 6 0 -7.4620 -0.0358
9 6 1 1.1416 0.0081
9 6 2 0.5386 0.0462
9 6 3 -5.6308 -0.0285
9 6 4 -15.6312 -0.0340
9 6 5 1.0268 0.0186
9 6 6 9.0055 0.0025
9 6 7 1.6448 0.0067
9 6 8 -8.0347 -0.0041
9 6 9 12.7929 -0.0078
9 6 10 7.2439 0.0197
9 6 11 1.8444 -0.0002
9 6 12 -7.6150 0.0079
9 6 13 -3.6767 0.0077
9 6 14 -1.6292 0.0117
9 6 15 -4.0977 0.0278
9 6 16 -0.3463 0.0091
9 6 17 5.0706 0.0103
9 6 18 9.2841 0.0338
9 7 0 1.0787 0.0196
9 7 1 -3.1488 0.0342
9 7 2 -6.3618 -0.0478
9 7 3 -6.1218 -0.0135
9 7 4 14.5535 0.0326
9 7 5 9.6800 0.0020
9 7 6 -4.7447 0.0016
9 7 7 -6.3151 0.0008
9 7 8 11.9064 -0.0139
9 7 9 -3.0973 0.0171
9 7 10 -5.5783 0.0096
9 7 11 -4.7789 0.0002
9 7 12 5.7638 -0.0017
9 7 13 0.9223 0.0001
9 7 14 -3.0742 -0.0000
9 7 15 3.1166 -0.0274
9 7 16 4.7803 -0.0060
9 7 17 3.7895 0.0076
9 7 18 -3.2385 -0.0283
9 8 0 -5.0865 0.0370
9 8 1 -1.9509 -0.0271
9 8 2 4.9176 0.0080
9 8 3 18.9541 0.0263
9 8 4 1.4725 -0.0110
9 8 5 -10.2518 -0.0050
9 8 6 -3.9616 0.0017
9 8 7 6.1936 -0.0170
9 8 8 -11.0589 0.0145
9 8 9 -3.2306 -0.0035
9 8 10 4.2900 -0.0279
9 8 11 11.8536 -0.0028
9 8 12 -0.7689 0.0075
9 8 13 -2.6985 0.0008
9 8 14 2.7322 -0.0158
9 8 15 -2.6226 0.0036
9 8 16 -3.9288 0.0225
9 8 17 -6.4114 0.0112
9 8 18 -3.8711 0.0142
9 9 0 4.8004 -0.0218
9 9 1 9.6819 0.0106
9 9 2 13.8195 0.0135
9 9 3 -7.9977 -0.0287
9 9 4 -9.9633 -0.0158
9 9 5 -1.2977 0.0082
9 9 6 0.9167 -0.0002
9 9 7 -10.9132 0.0089
9 9 8 5.2422 -0.0155
9 9 9 11.0149 -0.0110
9 9 10 10.3822 0.0292
9 9 11 -3.2481 0.0115
9 9 12 -0.9521 -0.0064
9 9 13 -0.7723 0.0027
9 9 14 -10.1087 0.0035
9 9 15 -5.4166 0.0163
9 9 16 -1.6384 0.0142
9 9 17 3.1272 0.0082
9 9 18 6.2663 0.0091
9 10 0 4.2634 0.0198
9 10 1 4.0955 0.0007
9 10 2 -13.0971 -0.0424
9 10 3 -5.2363 -0.0090
9 10 4 -0.6787 0.0272
9 10 5 -1.9142 0.0082
9 10 6 -6.0923 -0.0041
9 10 7 10.8041 -0.0108
9 10 8 10.2578 0.0039
9 10 9 4.4653 0.0210
9 10 10 -5.0188 -0.0120
9 10 11 -2.1939 -0.0224
9 10 12 -6.0817 0.0035
9 10 13 -11.5715 -0.0130
9 10 14 -1.4233 -0.0072
9 10 15 4.4248 -0.0100
9 10 16 8.2221 -0.0201
9 10 17 7.7211 -0.0098
9 10 18 2.6206 -0.0398
9 11 0 0.5920 -0.0064
9 11 1 -9.9352 -0.0241
9 11 2 2.5626 0.0165
9 11 3 0.4631 0.0250
9 11 4 -1.3991 -0.0227
9 11 5 -2.6425 -0.0170
9 11 6 9.5344 0.0065
9 11 7 4.5199 0.0045
9 11 8 -1.1520 0.0073
9 11 9 -5.9607 -0.0142
9 11 10 -3.5189 -0.0134
9 11 11 -5.4704 0.0125
9 11 12 -5.0826 -0.0031
9 11 13 3.6026 0.0017
9 11 14 6.7482 0.0072
9 11 15 8.1228 0.0001
9 11 16 4.8480 0.0163
9 11 17 0.1993 0.0117
9 11 18 -2.0440 0.0411
9 12 0 -5.7462 -0.0094
9 12 1 5.8569 0.0131
9 12 2 -0.5223 -0.0014
9 12 3 -1.8059 -0.0355
9 12 4 -3.2958 0.0064
9 12 5 5.5200 0.0192
9 12 6 0.6850 0.0017
9 12 7 -2.1656 0.0085
9 12 8 -3.2918 -0.0211
9 12 9 0.1037 -0.0146
9 12 10 -1.3581 0.0164
9 12 11 -1.2153 0.0011
9 12 12 3.1004 -0.0160
9 12 13 4.0191 0.0034
9 12 14 4.1300 0.0063
9 12 15 0.3861 0.0104
9 12 16 -0.5859 0.0002
9 12 17 -2.8093 -0.0131
9 13 0 5.8893 0.0150
9 13 1 -0.7393 -0.0055
9 13 2 -0.1064 -0.0145
9 13 3 -1.2393 0.0274
9 13 4 4.3797 0.0102
9 13 5 -0.7301 0.0050
9 13 6 -1.0820 0.0116
9 13 7 0.6025 -0.0266
9 13 8 3.3714 -0.0012
9 13 9 -2.1071 0.0252
9 13 10 -2.3177 -0.0115
9 13 11 2.1528 -0.0324
9 13 12 2.2527 0.0120
9 13 13 1.2880 0.0090
9 13 14 -2.8174 -0.0060
9 13 15 -0.2238 -0.0159
9 13 16 -3.1370 -0.0215
9 14 1 -0.7061 -0.0168
9 14 2 -0.5070 0.0173
9 14 3 1.3045 0.0102
9 14 4 -4.4969 0.0057
9 14 5 -1.1979 -0.0074
9 14 6 3.6789 -0.0194
9 14 7 4.1445 0.0155
9 14 8 -3.6247 0.0179
9 14 9 -0.3730 -0.0314
9 14 10 3.5157 -0.0132
9 14 11 0.3845 0.0337
9 14 12 -0.8038 0.0042
9 14 13 -4.1707 -0.0038
9 14 14 1.4664 0.0156
9 14 15 -1.6506 0.0192
9 14 16 -2.4200 0.0270
9 15 3 -4.1136 -0.0142
9 15 4 0.9049 -0.0073
9 15 5 5.3681 0.0173
9 15 6 2.8300 0.0031
9 15 7 -3.2937 -0.0038
9 15 8 1.6913 -0.0250
9 15 9 0.9196 0.0172
9 15 10 -3.5649 0.0137
9 15 11 -0.9469 -0.0204
9 15 12 -1.8474 -0.0039
9 15 13 3.7895 0.0075
9 15 14 -0.8063 -0.0187
9 16 5 -0.5119 -0.0431
9 16 6 -2.0018 -0.0014
9 16 7 1.4067 0.0019
9 16 8 -2.4052 0.0164
9 16 9 -3.4181 -0.0157
9 16 10 1.8893 -0.0120
9 16 11 0.8099 0.0097
9 16 12 3.2122 0.0027
10 -13 0 -1.5123 0.0492
10 -13 1 -4.1094 -0.0160
10 -13 2 1.1136 -0.0497
10 -12 0 -1.8016 0.0054
10 -12 1 0.6695 -0.0307
10 -12 2 -5.9766 0.0468
10 -12 3 -5.9343 -0.0199
10 -12 4 4.4112 -0.0290
10 -12 5 6.7564 0.0124
10 -11 0 -5.1627 -0.0560
10 -11 1 -9.8506 0.0095
10 -11 2 -1.1972 -0.0490
10 -11 3 7.8285 -0.0525
10 -11 4 5.5949 0.0081
10 -11 5 0.7398 -0.0132
10 -11 6 1.5466 0.0002
10 -11 7 2.6246 0.0154
10 -10 0 -6.8240 0.0197
10 -10 1 4.9959 -0.0274
10 -10 2 6.4018 -0.0321
10 -10 3 3.5527 0.0408
10 -10 4 2.8336 0.0025
10 -10 5 4.4636 -0.0006
10 -10 6 -0.6579 0.0063
10 -10 7 -10.0745 -0.0097
10 -10 8 -7.5738 -0.0125
10 -10 9 5.4062 -0.0367
10 -9 0 5.7907 0.0108
10 -9 1 2.4005 -0.0084
10 -9 2 4.5210 0.0557
10 -9 3 4.0861 -0.0002
10 -9 4 1.9406 -0.0201
10 -9 5 -6.0483 0.0168
10 -9 6 -12.3777 -0.0056
10 -9 7 -4.5623 -0.0002
10 -9 8 7.2596 -0.0006
10 -9 9 -1.6480 -0.0042
10 -9 10 -1.7593 -0.0090
10 -8 0 -0.7788 -0.0288
10 -8 1 5.1364 0.0270
10 -8 2 1.1306 -0.0221
10 -8 3 -1.4091 -0.0355
10 -8 4 -5.6170 0.0294
10 -8 5 -6.4625 -0.0024
10 -8 6 0.2571 0.0053
10 -8 7 5.6654 0.0050
10 -8 8 -2.3140 -0.0040
10 -8 9 3.9814 0.0273
10 -8 10 2.8637 0.0102
10 -8 11 -0.4482 0.0136
10 -7 0 2.7686 0.0047
10 -7 1 -2.3193 -0.0259
10 -7 2 2.4005 -0.0107
10 -7 3 0.6163 0.0578
10 -7 4 -0.6293 -0.0032
10 -7 5 0.6169 -0.0030
10 -7 6 1.7794 0.0142
10 -7 7 -2.5821 -0.0049
10 -7 8 4.5063 0.0275
10 -7 9 -0.6790 0.0072
10 -7 10 -1.0942 -0.0086
10 -7 11 -2.0246 0.0069
10 -7 12 0.3068 0.0202
10 -6 0 -0.0161 0.0066
10 -6 1 11.4680 0.0325
10 -6 2 4.0403 0.0667
10 -6 3 -1.6032 -0.0232
10 -6 4 -4.0328 -0.0301
10 -6 5 -2.7762 0.0187
10 -6 6 -5.9122 -0.0041
10 -6 7 -0.4550 0.0081
10 -6 8 -0.9301 -0.0021
10 -6 9 4.9195 0.0022
10 -6 10 -1.0943 0.0171
10 -6 11 0.0575 0.0027
10 -6 12 1.9556 -0.0017
10 -6 13 -0.2739 0.0055
10 -5 0 17.1731 0.0380
10 -5 1 -0.8733 0.0360
10 -5 2 -5.0776 -0.0524
10 -5 3 -7.0874 -0.0387
10 -5 4 -6.7032 0.0273
10 -5 5 -9.2103 -0.0071
10 -5 6 0.7373 -0.0026
10 -5 7 8.0434 0.0000
10 -5 8 12.0347 0.0013
10 -5 9 -2.6366 0.0167
10 -5 10 2.0057 -0.0114
10 -5 11 3.3663 -0.0228
10 -5 12 -1.3538 0.0096
10 -5 13 -1.2698 -0.0058
10 -5 14 -3.0852 -0.0487
10 -4 0 -10.9483 0.0487
10 -4 1 -6.7398 -0.0528
10 -4 2 -8.8913 -0.0208
10 -4 3 -11.0129 0.0427
10 -4 4 -8.5771 -0.0198
10 -4 5 10.1713 -0.0136
10 -4 6 16.8590 0.0068
10 -4 7 10.0172 -0.0103
10 -4 8 -6.4327 0.0059
10 -4 9 5.7851 -0.0035
10 -4 10 -1.5496 -0.0220
10 -4 11 -10.4468 -0.0077
10 -4 12 -5.8499 -0.0065
10 -4 13 -0.4760 -0.0085
10 -4 14 5.4580 0.0008
10 -4 15 1.0421 0.0083
10 -3 0 -2.3817 -0.0363
10 -3 1 -9.7253 0.0003
10 -3 2 -10.2262 0.0352
10 -3 3 0.6587 -0.0424
10 -3 4 20.1889 -0.0058
10 -3 5 15.8231 0.0219
10 -3 6 1.6409 -0.0051
10 -3 7 -6.9794 0.0153
10 -3 8 7.1044 0.0059
10 -3 9 -13.0405 -0.0117
10 -3 10 -17.1729 0.0109
10 -3 11 -1.5735 0.0080
10 -3 12 7.4172 0.0087
10 -3 13 7.4965 0.0145
10 -3 14 0.2520 0.0020
10 -3 15 1.5083 0.0287
10 -2 0 -10.3658 0.0214
10 -2 1 -4.7022 -0.0044
10 -2 2 9.7431 -0.0737
10 -2 3 18.8250 0.0260
10 -2 4 3.9230 0.0398
10 -2 5 -5.2949 -0.0070
10 -2 6 -3.0318 0.0141
10 -2 7 2.8163 0.0074
10 -2 8 -23.6002 -0.0007
10 -2 9 -12.2007 0.0260
10 -2 10 9.1638 -0.0042
10 -2 11 10.6732 -0.0148
10 -2 12 4.3453 0.0116
10 -2 13 1.4466 0.0059
10 -2 14 4.8701 0.0081
10 -2 15 -1.7781 0.0074
10 -2 16 -8.6116 -0.0084
10 -1 0 3.1914 -0.0254
10 -1 1 10.2406 -0.0938
10 -1 2 7.0405 0.0279
10 -1 3 -6.9519 0.0274
10 -1 4 -3.9417 -0.0327
10 -1 5 3.2853 -0.0165
10 -1 6 -2.9494 -0.0017
10 -1 7 -23.7705 -0.0060
10 -1 8 3.1540 0.0010
10 -1 9 17.2713 -0.0285
10 -1 10 6.3677 -0.0118
10 -1 11 0.4262 0.0135
10 -1 12 5.1838 -0.0037
10 -1 13 5.2806 -0.0026
10 -1 14 -9.4364 -0.0112
10 -1 15 -12.2141 -0.0161
10 -1 16 -0.7483 -0.0129
10 0 0 0.8793 -0.1133
10 0 1 -6.9784 -0.0106
10 0 2 -9.7319 0.0039
10 0 3 3.2871 -0.0451
10 0 4 7.5425 -0.0159
10 0 5 -5.5413 0.0094
10 0 6 -12.5721 -0.0052
10 0 7 17.0667 0.0050
10 0 8 11.7974 -0.0139
10 0 9 -5.1410 0.0045
10 0 10 -2.7817 0.0129
10 0 11 5.7919 -0.0072
10 0 12 -0.2345 -0.0017
10 0 13 -14.5229 0.0019
10 0 14 -5.9294 -0.0034
10 0 15 5.0606 -0.0074
10 0 16 3.6819 -0.0160
10 0 17 4.7747 0.0228
10 1 0 -13.2665 -0.0092
10 1 1 -4.6783 0.0141
10 1 2 10.8963 -0.0308
10 1 3 10.1539 0.0272
10 1 4 -2.0600 0.0287
10 1 5 0.8077 -0.0137
10 1 6 16.2983 0.0104
10 1 7 -7.9112 -0.0084
10 1 8 -15.9694 -0.0054
10 1 9 -1.6523 0.0086
10 1 10 5.9258 0.0016
10 1 11 -2.4539 -0.0127
10 1 12 -8.0580 0.0005
10 1 13 7.6422 0.0081
10 1 14 6.6993 -0.0065
10 1 15 0.2587 -0.0015
10 1 16 2.7451 0.0273
10 1 17 0.2376 0.0237
10 2 0 4.6844 0.0271
10 2 1 16.3241 -0.0044
10 2 2 11.7594 0.0618
10 2 3 2.1896 0.0141
10 2 4 3.8707 -0.0361
10 2 5 0.4964 0.0067
10 2 6 -25.6206 0.0071
10 2 7 -14.7147 0.0071
10 2 8 4.9702 0.0102
10 2 9 9.1131 -0.0016
10 2 10 2.8571 -0.0081
10 2 11 2.3223 0.0202
10 2 12 12.3735 0.0123
10 2 13 -1.9096 -0.0032
10 2 14 -6.1306 0.0111
10 2 15 -2.8496 0.0039
10 2 16 -4.0336 0.0136
10 2 17 -0.5452 -0.0012
10 3 0 16.0543 0.0035
10 3 1 7.0227 0.0463
10 3 2 -1.1181 -0.0216
10 3 3 -2.7442 -0.0464
10 3 4 -13.5571 0.0136
10 3 5 -26.1296 0.0279
10 3 6 -3.1208 0.0019
10 3 7 12.1653 -0.0099
10 3 8 13.8389 -0.0136
10 3 9 8.7943 0.0063
10 3 10 4.7589 0.0208
10 3 11 4.9913 -0.0247
10 3 12 -12.4230 -0.0228
10 3 13 -9.2227 0.0105
10 3 14 -6.6989 -0.0150
10 3 15 -4.8218 -0.0112
10 3 16 2.3170 -0.0260
10 3 17 3.3132 -0.0282
10 3 18 3.9394 -0.0383
10 4 0 -2.2039 0.0166
10 4 1 -5.0310 -0.0142
10 4 2 -4.8625 -0.0218
10 4 3 -13.3161 0.0287
10 4 4 -13.2620 0.0267
10 4 5 7.7465 -0.0164
10 4 6 16.4931 -0.0052
10 4 7 15.5212 -0.0027
10 4 8 7.3225 0.0085
10 4 9 -0.1609 0.0037
10 4 10 -2.0289 -0.0238
10 4 11 -15.4163 -0.0006
10 4 12 -7.5976 0.0147
10 4 13 -5.3435 -0.0056
10 4 14 0.5112 -0.0063
10 4 15 7.1459 -0.0174
10 4 16 7.4693 0.0004
10 4 17 5.8900 0.0255
10 4 18 0.1051 0.0103
10 5 0 -1.9815 0.0041
10 5 1 -1.4460 -0.0010
10 5 2 -7.7772 0.0298
10 5 3 -2.5686 -0.0115
10 5 4 10.1713 -0.0283
10 5 5 14.2031 0.0138
10 5 6 7.8139 -0.0006
10 5 7 -1.5387 0.0037
10 5 8 -4.5711 0.0087
10 5 9 -3.7752 0.0038
10 5 10 -15.3423 0.0155
10 5 11 -6.0140 0.0108
10 5 12 -1.8219 0.0103
10 5 13 6.7883 0.0167
10 5 14 9.2007 0.0183
10 5 15 8.0178 0.0233
10 5 16 5.2822 0.0379
10 5 17 -0.3392 0.0041
10 5 18 -4.4922 -0.0043
10 6 0 1.5771 0.0045
10 6 1 -2.9238 0.0272
10 6 2 3.1939 -0.0405
10 6 3 8.0442 -0.0139
10 6 4 7.7461 0.0322
10 6 5 -3.3067 0.0017
10 6 6 -6.6091 -0.0005
10 6 7 -2.6224 0.0028
10 6 8 -3.0107 -0.0060
10 6 9 -14.6879 0.0026
10 6 10 -1.7290 0.0042
10 6 11 3.5039 -0.0069
10 6 12 10.2600 -0.0147
10 6 13 6.4159 -0.0095
10 6 14 5.1033 -0.0150
10 6 15 2.0209 -0.0173
10 6 16 -3.7925 -0.0356
10 6 17 -7.7632 -0.0260
10 6 18 -6.7961 -0.0027
10 7 0 0.0112 0.0178
10 7 1 4.2704 -0.0387
10 7 2 2.9464 0.0125
10 7 3 -0.5556 0.0352
10 7 4 -10.6408 -0.0036
10 7 5 -4.2710 -0.0150
10 7 6 2.4386 -0.0037
10 7 7 -1.6315 0.0040
10 7 8 -10.1345 0.0176
10 7 9 6.5888 -0.0005
10 7 10 6.7979 -0.0246
10 7 11 7.0602 -0.0082
10 7 12 -1.1957 0.0033
10 7 13 2.1460 0.0048
10 7 14 -0.3661 0.0033
10 7 15 -6.7295 -0.0020
10 7 16 -6.7043 -0.0028
10 7 17 -2.6145 -0.0018
10 7 18 3.1868 -0.0015
10 8 0 2.4758 -0.0359
10 8 1 -2.7437 0.0179
10 8 2 -6.6003 0.0246
10 8 3 -10.6532 -0.0234
10 8 4 3.1066 -0.0227
10 8 5 6.6956 0.0098
10 8 6 -0.4465 0.0113
10 8 7 -3.7959 0.0109
10 8 8 11.2463 -0.0109
10 8 9 1.9482 -0.0103
10 8 10 -2.1230 0.0248
10 8 11 -7.0865 0.0131
10 8 12 3.6524 0.0032
10 8 13 -0.3352 -0.0005
10 8 14 -5.8639 0.0041
10 8 15 -0.1778 -0.0031
10 8 16 2.9942 -0.0111
10 8 17 4.3189 0.0146
10 8 18 2.9465 0.0224
10 9 0 -6.8328 0.0195
10 9 1 -7.2706 0.0230
10 9 2 -4.8707 -0.0269
10 9 3 10.1503 0.0026
10 9 4 6.6480 0.0334
10 9 5 -0.6933 -0.0010
10 9 6 0.4035 -0.0036
10 9 7 8.8385 0.0046
10 9 8 -6.9431 0.0066
10 9 9 -8.2236 0.0049
10 9 10 -5.1558 -0.0125
10 9 11 6.8941 -0.0105
10 9 12 -0.8713 -0.0061
10 9 13 -1.7057 0.0009
10 9 14 6.6459 0.0012
10 9 15 2.9698 -0.0124
10 9 16 -1.5025 -0.0026
10 9 17 -3.1773 -0.0054
10 9 18 -4.0101 -0.0017
10 10 0 -1.2100 0.0068
10 10 1 2.3478 -0.0212
10 10 2 12.4270 0.0250
10 10 3 2.6949 0.0248
10 10 4 -0.2601 -0.0285
10 10 5 2.0335 -0.0152
10 10 6 2.5032 0.0061
10 10 7 -12.1642 -0.0023
10 10 8 -6.5439 -0.0059
10 10 9 0.7756 -0.0034
10 10 10 7.6049 -0.0009
10 10 11 0.1181 0.0121
10 10 12 4.7464 0.0077
10 10 13 8.5019 0.0102
10 10 14 -2.2921 0.0028
10 10 15 -7.3931 0.0103
10 10 16 -4.9687 0.0238
10 10 17 -2.4741 0.0328
10 11 0 2.3589 -0.0210
10 11 1 7.2006 0.0110
10 11 2 -3.7796 -0.0034
10 11 3 -0.1986 -0.0385
10 11 4 0.4665 -0.0034
10 11 5 -2.8204 0.0102
10 11 6 -10.8177 0.0006
10 11 7 -0.9959 0.0115
10 11 8 4.4982 -0.0014
10 11 9 6.3487 -0.0095
10 11 10 1.8079 0.0188
10 11 11 5.6222 0.0030
10 11 12 2.1579 -0.0046
10 11 13 -7.4574 -0.0081
10 11 14 -7.2705 -0.0018
10 11 15 -2.1168 0.0074
10 11 16 -0.1260 -0.0156
10 11 17 1.9561 -0.0316
10 12 0 3.6921 -0.0007
10 12 1 -5.0593 0.0039
10 12 2 1.9459 -0.0196
10 12 3 0.3004 0.0164
10 12 4 -2.0242 0.0160
10 12 5 -5.4180 -0.0024
10 12 6 2.2023 -0.0006
10 12 7 3.5824 -0.0139
10 12 8 3.4422 0.0093
10 12 9 -0.0230 0.0260
10 12 10 1.6445 -0.0111
10 12 11 -2.2273 -0.0144
10 12 12 -5.0187 -0.0001
10 12 13 -1.7872 -0.0031
10 12 14 0.8278 -0.0011
10 12 15 1.0275 -0.0088
10 12 16 2.0468 -0.0044
10 12 17 4.5808 0.0353
10 13 1 2.3242 -0.0221
10 13 2 -1.1991 0.0133
10 13 3 -1.1507 0.0117
10 13 4 -2.6276 -0.0154
10 13 5 1.5226 -0.0153
10 13 6 0.3085 -0.0045
10 13 7 0.1159 0.0243
10 13 8 -1.9663 0.0008
10 13 9 2.0144 -0.0296
10 13 10 -0.5138 -0.0049
10 13 11 -1.7024 0.0180
10 13 12 0.0168 -0.0084
10 13 13 0.3660 -0.0041
10 13 14 1.7501 0.0162
10 13 15 0.8533 0.0169
10 13 16 2.9682 0.0175
10 14 2 -0.0990 0.0064
10 14 3 0.0755 -0.0299
10 14 4 2.6382 0.0044
10 14 5 -0.7874 0.0203
10 14 6 -1.6061 0.0059
10 14 7 -1.1925 -0.0100
10 14 8 4.6567 -0.0075
10 14 9 -0.6039 0.0198
10 14 10 -2.1560 0.0171
10 14 11 -0.2133 -0.0234
10 14 12 0.2730 -0.0096
10 14 13 2.6522 0.0021
10 14 14 -1.8053 -0.0226
10 14 15 0.1272 -0.0322
10 15 5 -2.6965 -0.0232
10 15 6 -0.1873 0.0155
10 15 7 4.4828 0.0071
10 15 8 -1.8695 0.0187
10 15 9 -0.1021 0.0101
10 15 10 1.4859 -0.0173
10 15 11 -0.3427 -0.0043
10 15 12 1.3393 0.0037
10 15 13 -3.3645 0.0043
11 -12 0 1.0923 -0.0495
11 -12 1 -2.1342 0.0425
11 -12 2 1.5527 -0.0317
11 -11 0 2.7589 0.0643
11 -11 1 5.0752 -0.0059
11 -11 2 -0.5843 -0.0248
11 -11 3 -8.1834 0.0471
11 -11 4 -3.2960 -0.0038
11 -11 5 3.1510 0.0032
11 -10 0 2.0183 -0.0039
11 -10 1 -8.0151 -0.0271
11 -10 2 -8.4410 0.0366
11 -10 3 -1.5168 -0.0314
11 -10 4 1.2036 -0.0295
11 -10 5 -1.7158 0.0021
11 -10 6 1.6008 -0.0150
11 -10 7 10.0155 0.0027
11 -9 0 -9.8482 -0.0492
11 -9 1 -4.1507 0.0192
11 -9 2 -1.2268 -0.0353
11 -9 3 -0.6527 -0.0312
11 -9 4 0.6663 0.0247
11 -9 5 9.8675 -0.0090
11 -9 6 13.8267 -0.0075
11 -9 7 -0.9625 -0.0066
11 -9 8 -10.9299 -0.0122
11 -9 9 1.6998 -0.0170
11 -8 0 -0.4467 0.0430
11 -8 1 -2.5827 -0.0088
11 -8 2 1.2754 -0.0159
11 -8 3 5.4363 0.0525
11 -8 4 10.8870 -0.0087
11 -8 5 6.3018 -0.0209
11 -8 6 -7.5694 -0.0087
11 -8 7 -9.2636 -0.0099
11 -8 8 1.7703 -0.0181
11 -8 9 -6.2337 -0.0210
11 -8 10 -4.5090 -0.0190
11 -7 0 -2.3611 0.0057
11 -7 1 3.9652 -0.0156
11 -7 2 4.0155 0.0471
11 -7 3 4.4345 -0.0204
11 -7 4 -1.9517 -0.0278
11 -7 5 -6.1862 0.0034
11 -7 6 -2.2344 -0.0051
11 -7 7 0.1063 -0.0074
11 -7 8 -9.5500 -0.0084
11 -7 9 0.3205 0.0044
11 -7 10 4.7117 0.0072
11 -7 11 3.8986 0.0072
11 -6 0 2.7096 -0.0478
11 -6 1 -2.9983 0.0096
11 -6 2 -0.3661 -0.0416
11 -6 3 -2.3837 -0.0230
11 -6 4 0.4741 0.0303
11 -6 5 2.5315 -0.0101
11 -6 6 -0.6361 -0.0078
11 -6 7 -5.8784 0.0052
11 -6 8 3.9607 0.0040
11 -6 9 2.5052 0.0072
11 -6 10 2.5326 0.0105
11 -6 11 -2.9355 -0.0116
11 -6 12 -1.7207 0.0119
11 -5 0 -7.8606 0.0132
11 -5 1 1.9465 -0.0280
11 -5 2 1.8953 0.0006
11 -5 3 6.1551 0.0566
11 -5 4 3.7425 -0.0161
11 -5 5 -0.5025 -0.0161
11 -5 6 -3.5184 0.0127
11 -5 7 -0.7904 0.0056
11 -5 8 -5.0655 0.0030
11 -5 9 2.1034 0.0067
11 -5 10 -2.1440 0.0102
11 -5 11 0.8601 0.0270
11 -5 12 3.1244 0.0078
11 -5 13 -1.7075 0.0140
11 -4 0 10.0463 -0.0262
11 -4 1 6.1379 0.0199
11 -4 2 8.8667 0.0589
11 -4 3 3.3292 -0.0296
11 -4 4 -1.8331 -0.0148
11 -4 5 -7.3506 0.0213
11 -4 6 -7.0682 -0.0003
11 -4 7 -5.3965 0.0026
11 -4 8 6.1580 0.0003
11 -4 9 -0.8039 0.0039
11 -4 10 6.2423 0.0306
11 -4 11 5.7238 0.0024
11 -4 12 -0.3534 -0.0076
11 -4 13 2.1280 0.0367
11 -4 14 -1.6986 0.0039
11 -3 0 4.0325 0.0333
11 -3 1 6.9345 0.0605
11 -3 2 -1.0339 -0.0344
11 -3 3 -7.0979 0.0005
11 -3 4 -13.1159 0.0355
11 -3 5 -7.6417 -0.0116
11 -3 6 0.8393 -0.0095
11 -3 7 8.9232 -0.0044
11 -3 8 -0.6517 -0.0012
11 -3 9 12.5265 0.0176
11 -3 10 6.4798 -0.0100
11 -3 11 -3.8196 -0.0280
11 -3 12 -4.3443 -0.0124
11 -3 13 -5.8099 -0.0174
11 -3 14 -0.8679 -0.0092
11 -3 15 -0.6702 -0.0443
11 -2 0 5.7766 0.0847
11 -2 1 -5.1898 0.0102
11 -2 2 -10.8698 0.0430
11 -2 3 -12.4793 0.0405
11 -2 4 -1.1409 -0.0281
11 -2 5 6.3106 -0.0157
11 -2 6 7.5479 0.0033
11 -2 7 1.6610 -0.0026
11 -2 8 16.6434 -0.0037
11 -2 9 0.0447 -0.0257
11 -2 10 -10.6156 -0.0220
11 -2 11 -8.4511 -0.0019
11 -2 12 -5.2958 -0.0154
11 -2 13 -0.7021 0.0033
11 -2 14 -0.8857 -0.0055
11 -2 15 2.9934 -0.0255
11 -1 0 -8.2823 0.0350
11 -1 1 -9.3857 0.0673
11 -1 2 -5.6431 0.0144
11 -1 3 5.5794 -0.0640
11 -1 4 6.0375 -0.0047
11 -1 5 3.3858 0.0295
11 -1 6 5.4411 -0.0078
11 -1 7 15.2419 -0.0004
11 -1 8 -11.1505 0.0050
11 -1 9 -14.7456 0.0111
11 -1 10 -6.2463 0.0250
11 -1 11 -2.0770 -0.0017
11 -1 12 -2.1977 0.0110
11 -1 13 0.9895 0.0199
11 -1 14 10.1876 0.0137
11 -1 15 8.2177 0.0043
11 -1 16 -0.9430 0.0228
11 0 0 -0.5022 0.0675
11 0 1 3.5230 -0.0002
11 0 2 6.6759 -0.0889
11 0 3 0.5598 0.0062
11 0 4 0.2122 0.0352
11 0 5 7.7039 -0.0251
11 0 6 7.6060 -0.0026
11 0 7 -19.4161 0.0028
11 0 8 -9.7176 0.0039
11 0 9 1.4553 0.0134
11 0 10 1.5583 -0.0106
11 0 11 -1.8434 0.0084
11 0 12 6.1898 0.0169
11 0 13 14.7459 0.0067
11 0 14 4.1300 -0.0006
11 0 15 -6.2616 -0.0021
11 0 16 -5.3534 0.0273
11 1 0 5.9084 -0.0026
11 1 1 0.3181 -0.0873
11 1 2 -6.8984 0.0090
11 1 3 -1.3454 0.0030
11 1 4 5.7861 -0.0505
11 1 5 -1.8037 -0.0145
11 1 6 -16.6582 -0.0157
11 1 7 6.1890 0.0019
11 1 8 8.8441 0.0092
11 1 9 0.0987 -0.0208
11 1 10 -2.5072 -0.0024
11 1 11 8.5401 0.0171
11 1 12 10.0894 -0.0035
11 1 13 -5.9635 -0.0081
11 1 14 -7.2894 0.0075
11 1 15 -1.7757 0.0174
11 1 16 -2.2217 -0.0107
11 1 17 -0.7901 -0.0162
11 2 0 -7.1503 -0.0708
11 2 1 -10.7206 0.0001
11 2 2 -1.4671 -0.0338
11 2 3 2.2425 -0.0573
11 2 4 -3.5855 0.0024
11 2 5 -2.0086 0.0100
11 2 6 20.3160 0.0054
11 2 7 4.6958 -0.0055
11 2 8 -8.5577 -0.0145
11 2 9 -5.6756 0.0024
11 2 10 5.8453 0.0217
11 2 11 1.6562 -0.0107
11 2 12 -10.4499 -0.0180
11 2 13 0.4017 -0.0006
11 2 14 4.8122 -0.0005
11 2 15 0.2478 -0.0076
11 2 16 0.7637 -0.0113
11 2 17 1.7924 -0.0053
11 3 0 -9.5966 -0.0041
11 3 1 1.2407 -0.0260
11 3 2 2.2296 -0.0217
11 3 3 2.5341 0.0487
11 3 4 11.3002 0.0356
11 3 5 18.6740 -0.0180
11 3 6 -8.9033 -0.0059
11 3 7 -14.7251 0.0178
11 3 8 -6.6868 0.0099
11 3 9 2.2172 0.0098
11 3 10 -2.0363 -0.0205
11 3 11 -4.4507 -0.0049
11 3 12 10.6676 0.0101
11 3 13 7.0491 0.0030
11 3 14 -0.2844 0.0196
11 3 15 -0.8962 0.0058
11 3 16 -1.3260 -0.0058
11 3 17 -0.9333 -0.0014
11 4 0 6.3930 -0.0072
11 4 1 3.4458 -0.0161
11 4 2 6.0060 0.0570
11 4 3 12.6121 0.0128
11 4 4 6.6303 -0.0481
11 4 5 -17.2551 0.0055
11 4 6 -12.8990 0.0175
11 4 7 -4.8385 -0.0094
11 4 8 1.3885 0.0012
11 4 9 0.0452 -0.0165
11 4 10 4.2253 0.0085
11 4 11 14.5153 0.0194
11 4 12 2.2347 0.0000
11 4 13 -4.9819 0.0078
11 4 14 -5.3504 0.0108
11 4 15 -5.3491 0.0045
11 4 16 -5.4270 0.0001
11 4 17 -3.8138 0.0011
11 5 0 -0.5214 -0.0438
11 5 1 3.8861 0.0387
11 5 2 7.5341 -0.0040
11 5 3 -2.6550 -0.0298
11 5 4 -15.2157 0.0182
11 5 5 -6.8695 0.0100
11 5 6 -0.7213 -0.0054
11 5 7 3.6587 0.0048
11 5 8 3.2278 -0.0171
11 5 9 8.7803 0.0048
11 5 10 12.8618 0.0134
11 5 11 -3.2462 -0.0159
11 5 12 -7.8998 -0.0163
11 5 13 -7.2779 -0.0001
11 5 14 -5.5390 -0.0126
11 5 15 -5.8787 -0.0266
11 5 16 -1.6454 -0.0506
11 5 17 2.8899 -0.0150
11 6 0 2.1947 0.0236
11 6 1 2.4708 -0.0106
11 6 2 -6.7280 0.0059
11 6 3 -8.6631 0.0264
11 6 4 -0.7609 0.0017
11 6 5 3.3044 -0.0183
11 6 6 3.4988 -0.0034
11 6 7 2.7769 -0.0055
11 6 8 8.6832 0.0158
11 6 9 8.9486 0.0123
11 6 10 -7.6423 -0.0216
11 6 11 -8.3334 0.0006
11 6 12 -6.9976 0.0193
11 6 13 -3.0658 0.0002
11 6 14 -2.9479 0.0054
11 6 15 3.6213 -0.0018
11 6 16 8.0923 0.0306
11 6 17 8.6209 0.0241
11 6 18 3.2022 -0.0187
11 7 0 -1.1589 -0.0165
11 7 1 -5.2690 0.0142
11 7 2 -0.2700 0.0261
11 7 3 4.3124 -0.0199
11 7 4 4.7646 -0.0438
11 7 5 0.0134 0.0142
11 7 6 0.4464 0.0141
11 7 7 5.7279 -0.0046
11 7 8 3.1893 -0.0084
11 7 9 -11.5885 -0.0146
11 7 10 -6.5758 0.0186
11 7 11 -4.6160 0.0117
11 7 12 0.9278 -0.0075
11 7 13 0.0478 -0.0055
11 7 14 7.1113 -0.0077
11 7 15 9.3145 0.0068
11 7 16 5.5471 -0.0056
11 7 17 -0.3864 -0.0167
11 7 18 -3.0523 0.0259
11 8 0 -0.3939 0.0105
11 8 1 5.5633 0.0248
11 8 2 5.3097 -0.0261
11 8 3 2.6702 -0.0188
11 8 4 -4.2174 0.0418
11 8 5 -1.6063 0.0035
11 8 6 2.0573 -0.0185
11 8 7 -1.3081 0.0066
11 8 8 -10.8519 0.0066
11 8 9 0.3308 0.0138
11 8 10 1.2884 -0.0083
11 8 11 4.2007 -0.0128
11 8 12 -0.7777 -0.0084
11 8 13 6.1535 0.0018
11 8 14 5.6873 0.0038
11 8 15 -1.0279 -0.0042
11 8 16 -3.8759 -0.0168
11 8 17 -3.9567 -0.0236
11 9 0 6.1561 0.0224
11 9 1 2.4715 -0.0280
11 9 2 -1.2021 0.0078
11 9 3 -7.5887 0.0219
11 9 4 -2.2559 -0.0237
11 9 5 0.1392 -0.0057
11 9 6 -2.5357 0.0115
11 9 7 -5.4862 -0.0167
11 9 8 8.3939 0.0012
11 9 9 4.9074 0.0070
11 9 10 1.7102 -0.0084
11 9 11 -4.8920 0.0027
11 9 12 3.9039 0.0197
11 9 13 0.9696 -0.0018
11 9 14 -5.4479 -0.0078
11 9 15 -2.8039 -0.0042
11 9 16 0.3602 0.0077
11 9 17 0.7262 0.0364
11 10 0 -2.4088 -0.0173
11 10 1 -4.4598 0.0116
11 10 2 -8.1422 0.0044
11 10 3 -0.4163 -0.0162
11 10 4 -0.3239 0.0052
11 10 5 -1.4000 0.0099
11 10 6 1.5031 -0.0077
11 10 7 11.7218 0.0164
11 10 8 2.1271 0.0090
11 10 9 -3.7218 -0.0223
11 10 10 -6.3836 0.0091
11 10 11 1.9155 0.0115
11 10 12 -3.9296 -0.0125
11 10 13 -5.4580 -0.0076
11 10 14 2.5797 -0.0002
11 10 15 5.4471 0.0064
11 10 16 1.2954 -0.0051
11 10 17 -0.6101 -0.0363
11 11 0 -1.9261 0.0076
11 11 1 -3.3264 0.0105
11 11 2 3.7186 -0.0120
11 11 3 0.0699 -0.0003
11 11 4 1.6950 0.0218
11 11 5 6.6719 0.0063
11 11 6 8.3451 -0.0090
11 11 7 -3.6858 -0.0237
11 11 8 -5.9632 -0.0056
11 11 9 -4.5159 0.0345
11 11 10 -0.1750 -0.0026
11 11 11 -4.9313 -0.0109
11 11 12 0.7569 0.0065
11 11 13 8.2720 0.0054
11 11 14 5.5116 -0.0025
11 11 15 -1.6772 -0.0069
11 11 16 -1.3736 0.0166
11 12 1 3.5623 -0.0409
11 12 2 -1.5762 -0.0028
11 12 3 2.3042 0.0191
11 12 4 4.9045 -0.0259
11 12 5 1.2939 -0.0265
11 12 6 -6.0501 -0.0024
11 12 7 -3.7453 0.0203
11 12 8 -2.1759 0.0125
11 12 9 0.1004 -0.0226
11 12 10 -1.0339 -0.0090
11 12 11 5.5155 0.0075
11 12 12 6.1476 0.0071
11 12 13 0.3333 -0.0068
11 12 14 -2.8014 -0.0024
11 12 15 0.3853 0.0162
11 12 16 -0.7184 0.0068
11 13 3 2.0324 -0.0462
11 13 4 -1.0269 0.0090
11 13 5 -2.3160 0.0236
11 13 6 0.4955 -0.0015
11 13 7 -0.2932 -0.0116
11 13 8 1.5189 -0.0010
11 13 9 0.2595 0.0030
11 13 10 3.7657 0.0095
11 13 11 1.4957 0.0085
11 13 12 -0.9450 -0.0117
11 13 13 -0.1739 -0.0125
11 13 14 0.4801 -0.0131
11 13 15 -1.1219 -0.0053
11 14 5 1.4656 -0.0141
11 14 6 -0.4177 0.0157
11 14 7 0.0412 -0.0027
11 14 8 -2.4612 -0.0155
11 14 9 2.2461 0.0124
11 14 10 1.2274 -0.0002
11 14 11 0.4103 -0.0181
11 14 12 -0.3129 0.0000
11 14 13 -1.9065 0.0166
11 15 9 0.3990 -0.0216
11 15 10 -0.3762 -0.0090
12 -11 0 -1.0375 -0.0182
12 -11 1 -2.0199 -0.0090
12 -10 0 1.0580 -0.0334
12 -10 1 5.4680 0.0549
12 -10 2 5.8714 -0.0234
12 -10 3 -0.6308 -0.0224
12 -10 4 -3.9360 0.0190
12 -10 5 0.0439 0.0078
12 -9 0 8.5072 0.0609
12 -9 1 2.3857 -0.0114
12 -9 2 -2.7471 -0.0228
12 -9 3 -3.7325 0.0421
12 -9 4 -2.2269 0.0014
12 -9 5 -6.6283 -0.0057
12 -9 6 -8.7082 0.0159
12 -9 7 5.2622 0.0054
12 -8 0 -1.1997 -0.0035
12 -8 1 -1.9696 -0.0223
12 -8 2 -4.3018 0.0466
12 -8 3 -5.4735 -0.0166
12 -8 4 -7.8785 -0.0106
12 -8 5 -1.3724 0.0278
12 -8 6 13.5656 0.0056
12 -8 7 10.3692 -0.0059
12 -8 8 -3.1239 0.0098
12 -8 9 4.0150 -0.0154
12 -7 0 -0.5561 -0.0331
12 -7 1 -5.3526 0.0409
12 -7 2 -4.8051 -0.0315
12 -7 3 -2.2106 -0.0225
12 -7 4 6.4807 0.0392
12 -7 5 10.6578 0.0054
12 -7 6 1.7334 -0.0122
12 -7 7 -1.3970 0.0050
12 -7 8 6.2879 -0.0187
12 -7 9 -4.8358 -0.0079
12 -7 10 -8.2662 -0.0011
12 -6 0 -4.5791 0.0583
12 -6 1 -0.3293 -0.0137
12 -6 2 1.7374 -0.0157
12 -6 3 6.2444 0.0543
12 -6 4 1.5886 0.0070
12 -6 5 -3.8079 -0.0085
12 -6 6 2.4408 0.0027
12 -6 7 4.3233 -0.0121
12 -6 8 -9.8475 0.0026
12 -6 9 -8.0089 0.0009
12 -6 10 -1.7947 -0.0108
12 -6 11 5.0594 0.0115
12 -5 0 3.7644 -0.0232
12 -5 1 0.5800 -0.0165
12 -5 2 1.4895 0.0464
12 -5 3 -4.8984 -0.0224
12 -5 4 -2.9351 -0.0189
12 -5 5 4.3751 0.0103
12 -5 6 0.5140 -0.0110
12 -5 7 -6.6777 -0.0069
12 -5 8 0.1705 -0.0034
12 -5 9 0.5170 -0.0186
12 -5 10 3.8495 -0.0017
12 -5 11 -1.2341 0.0014
12 -5 12 -2.0538 -0.0178
12 -4 0 -5.5370 -0.0290
12 -4 1 -3.4032 0.0287
12 -4 2 -7.0047 -0.0469
12 -4 3 0.7879 -0.0280
12 -4 4 5.1825 0.0275
12 -4 5 0.6225 -0.0061
12 -4 6 -0.3360 -0.0175
12 -4 7 4.1913 -0.0023
12 -4 8 -2.9506 -0.0036
12 -4 9 -0.3206 0.0030
12 -4 10 -3.9978 -0.0029
12 -4 11 1.0112 -0.0069
12 -4 12 4.4968 -0.0025
12 -4 13 -2.9812 -0.0341
12 -3 0 -3.0469 0.0239
12 -3 1 -3.4053 -0.0501
12 -3 2 6.8197 -0.0121
12 -3 3 7.0390 0.0503
12 -3 4 3.9006 -0.0111
12 -3 5 2.1572 -0.0168
12 -3 6 0.9479 0.0091
12 -3 7 -6.2706 0.0013
12 -3 8 -0.7766 0.0007
12 -3 9 -6.0112 -0.0069
12 -3 10 2.5984 -0.0102
12 -3 11 4.8466 0.0161
12 -3 12 -1.1358 -0.0025
12 -3 13 2.0048 -0.0108
12 -3 14 1.7519 0.0254
12 -2 0 -1.3417 -0.0898
12 -2 1 9.3335 -0.0158
12 -2 2 6.3131 0.0498
12 -2 3 3.8461 -0.0376
12 -2 4 -1.0522 -0.0131
12 -2 5 -4.0785 0.0264
12 -2 6 -7.3093 -0.0034
12 -2 7 -1.5269 -0.0018
12 -2 8 -7.2352 0.0098
12 -2 9 6.2744 -0.0029
12 -2 10 6.5440 0.0209
12 -2 11 2.3928 0.0064
12 -2 12 3.3445 -0.0120
12 -2 13 -0.2472 -0.0099
12 -2 14 -1.7670 0.0174
12 -1 0 9.1694 -0.0063
12 -1 1 3.9725 0.0592
12 -1 2 1.1521 -0.0152
12 -1 3 -5.3150 0.0338
12 -1 4 -6.1359 0.0423
12 -1 5 -6.4231 -0.0101
12 -1 6 -3.3527 0.0055
12 -1 7 -4.9128 0.0051
12 -1 8 13.0746 -0.0236
12 -1 9 7.0129 0.0028
12 -1 10 2.2611 -0.0249
12 -1 11 1.5777 -0.0267
12 -1 12 -2.0317 -0.0223
12 -1 13 -5.9907 -0.0132
12 -1 14 -7.7525 0.0115
12 -1 15 -1.7480 0.0098
12 0 0 -1.3758 0.0596
12 0 1 -2.4864 0.0063
12 0 2 -6.0001 0.0694
12 0 3 -3.8451 0.0319
12 0 4 -3.9964 -0.0283
12 0 5 -3.1119 0.0079
12 0 6 0.4574 0.0010
12 0 7 17.2536 -0.0165
12 0 8 3.5218 0.0125
12 0 9 -0.9440 -0.0180
12 0 10 -2.2096 -0.0033
12 0 11 -4.5756 -0.0039
12 0 12 -9.6700 -0.0047
12 0 13 -8.6917 0.0035
12 0 14 1.4953 0.0062
12 0 15 5.9091 -0.0008
12 1 0 -1.2515 -0.0327
12 1 1 -0.2241 0.0520
12 1 2 1.8451 0.0152
12 1 3 -1.8166 -0.0389
12 1 4 -0.7764 0.0059
12 1 5 5.5434 0.0196
12 1 6 13.9465 0.0095
12 1 7 -5.5687 0.0048
12 1 8 -4.1574 -0.0112
12 1 9 -3.0335 0.0180
12 1 10 -4.5811 0.0074
12 1 11 -8.7670 0.0041
12 1 12 -3.4979 0.0125
12 1 13 7.5244 0.0148
12 1 14 7.5143 0.0146
12 1 15 4.0781 -0.0124
12 1 16 1.5645 0.0012
12 2 0 4.7934 0.0420
12 2 1 4.3662 0.0244
12 2 2 -2.1335 -0.0252
12 2 3 0.8914 0.0202
12 2 4 4.7974 0.0262
12 2 5 2.6899 -0.0165
12 2 6 -14.2933 -0.0206
12 2 7 -0.0498 -0.0038
12 2 8 3.6363 0.0088
12 2 9 -0.5759 0.0010
12 2 10 -5.5077 -0.0079
12 2 11 2.3287 -0.0015
12 2 12 10.3574 0.0153
12 2 13 3.2379 0.0176
12 2 14 -0.4891 0.0064
12 2 15 0.8792 0.0210
12 2 16 -0.6545 0.0340
12 3 0 3.9636 0.0353
12 3 1 -3.2932 -0.0228
12 3 2 0.3266 0.0182
12 3 3 -2.1513 -0.0088
12 3 4 -7.7186 -0.0570
12 3 5 -11.2864 -0.0088
12 3 6 11.8203 0.0056
12 3 7 8.9696 -0.0172
12 3 8 0.4496 -0.0025
12 3 9 -3.9659 -0.0116
12 3 10 4.2126 -0.0030
12 3 11 5.9392 0.0173
12 3 12 -4.7925 0.0101
12 3 13 -3.4477 -0.0141
12 3 14 2.2608 -0.0170
12 3 15 0.7841 0.0141
12 3 16 -1.1541 0.0181
12 3 17 -0.3505 -0.0032
12 4 0 -6.3690 -0.0238
12 4 1 -2.2147 0.0178
12 4 2 -7.4362 -0.0280
12 4 3 -8.3806 -0.0380
12 4 4 0.4083 0.0317
12 4 5 18.7930 0.0121
12 4 6 5.3508 -0.0108
12 4 7 -1.9741 0.0151
12 4 8 -3.2962 -0.0097
12 4 9 2.2899 0.0045
12 4 10 -3.1665 0.0098
12 4 11 -9.8533 -0.0139
12 4 12 0.3467 -0.0226
12 4 13 6.8543 -0.0073
12 4 14 2.9177 0.0097
12 4 15 0.4445 -0.0007
12 4 16 1.5240 -0.0242
12 4 17 0.8162 -0.0500
12 5 0 -0.4313 0.0372
12 5 1 -5.4069 -0.0255
12 5 2 -2.5294 -0.0246
12 5 3 8.2799 0.0358
12 5 4 15.3217 0.0143
12 5 5 -0.7370 -0.0164
12 5 6 -2.9851 -0.0026
12 5 7 -3.0485 -0.0136
12 5 8 -1.2509 0.0111
12 5 9 -9.5935 0.0048
12 5 10 -7.8450 -0.0127
12 5 11 7.2610 0.0072
12 5 12 8.7731 0.0248
12 5 13 1.6277 0.0057
12 5 14 -0.6599 0.0070
12 5 15 1.4071 0.0253
12 5 16 -1.9695 0.0370
12 5 17 -3.3343 0.0286
12 6 0 -3.3270 -0.0135
12 6 1 0.9724 -0.0315
12 6 2 8.5626 0.0170
12 6 3 7.0864 0.0072
12 6 4 -4.2267 -0.0340
12 6 5 -2.4154 0.0025
12 6 6 -2.1575 0.0101
12 6 7 -3.2998 0.0069
12 6 8 -10.1691 -0.0106
12 6 9 -2.0447 -0.0117
12 6 10 11.6542 0.0158
12 6 11 6.7050 0.0077
12 6 12 0.0528 -0.0144
12 6 13 -1.1851 0.0025
12 6 14 0.5123 0.0035
12 6 15 -6.2095 0.0047
12 6 16 -7.7559 -0.0174
12 6 17 -6.3453 -0.0167
12 7 0 2.3593 -0.0350
12 7 1 4.8722 0.0029
12 7 2 -0.9424 -0.0171
12 7 3 -5.4939 -0.0122
12 7 4 -0.9626 0.0523
12 7 5 0.0626 0.0044
12 7 6 -3.8310 -0.0178
12 7 7 -7.0614 0.0034
12 7 8 3.3967 0.0020
12 7 9 12.6416 0.0146
12 7 10 3.2019 0.0002
12 7 11 0.0997 -0.0091
12 7 12 -1.1941 -0.0041
12 7 13 -1.1158 -0.0084
12 7 14 -9.0429 0.0043
12 7 15 -6.9706 0.0002
12 7 16 -1.0282 -0.0038
12 7 17 4.6172 -0.0204
12 8 0 -0.2109 0.0105
12 8 1 -5.0119 -0.0321
12 8 2 -3.3028 0.0107
12 8 3 1.3013 0.0477
12 8 4 2.0107 -0.0320
12 8 5 -3.0913 -0.0236
12 8 6 -2.2091 0.0154
12 8 7 5.6817 -0.0155
12 8 8 8.6866 -0.0066
12 8 9 -3.0032 -0.0024
12 8 10 -1.4364 -0.0076
12 8 11 -2.3365 -0.0092
12 8 12 -2.2317 0.0033
12 8 13 -8.6016 0.0070
12 8 14 -1.9155 -0.0022
12 8 15 4.6947 -0.0061
12 8 16 5.7025 0.0013
12 8 17 4.3299 -0.0014
12 9 0 -3.6607 -0.0252
12 9 1 0.5772 0.0149
12 9 2 2.7311 0.0224
12 9 3 3.3734 -0.0121
12 9 4 -0.9231 -0.0041
12 9 5 1.5884 0.0062
12 9 6 3.9230 -0.0101
12 9 7 1.6128 0.0197
12 9 8 -8.6684 0.0064
12 9 9 -1.7489 -0.0110
12 9 10 -0.2255 0.0129
12 9 11 0.4075 0.0109
12 9 12 -5.6587 -0.0112
12 9 13 2.1991 0.0042
12 9 14 5.6434 0.0069
12 9 15 2.7696 0.0090
12 9 16 1.2052 -0.0238
12 10 0 2.5860 0.0105
12 10 1 2.4685 0.0251
12 10 2 3.4690 0.0005
12 10 3 -0.6493 -0.0127
12 10 4 1.2768 0.0163
12 10 5 -0.5081 0.0041
12 10 6 -4.7989 0.0079
12 10 7 -9.3879 -0.0161
12 10 8 1.6546 -0.0147
12 10 9 4.1052 0.0288
12 10 10 2.8915 -0.0033
12 10 11 -3.1599 -0.0185
12 10 12 3.9625 0.0143
12 10 13 3.0811 0.0047
12 10 14 -1.5097 0.0002
12 10 15 -2.5200 -0.0199
12 10 16 -0.5701 -0.0079
12 11 1 0.4095 -0.0136
12 11 2 -3.1500 0.0017
12 11 3 -0.9411 0.0438
12 11 4 -4.4317 -0.0307
12 11 5 -7.3325 -0.0265
12 11 6 -4.1484 0.0081
12 11 7 6.3456 0.0128
12 11 8 5.3168 0.0077
12 11 9 1.9881 -0.0264
12 11 10 -1.1479 -0.0047
12 11 11 3.7440 0.0085
12 11 12 -2.3649 -0.0053
12 11 13 -6.0438 0.0099
12 11 14 -3.1194 0.0062
12 11 15 1.8220 -0.0052
12 12 3 -3.6985 -0.0628
12 12 4 -3.4812 0.0088
12 12 5 3.2372 0.0344
12 12 6 7.3363 -0.0042
12 12 7 2.5693 -0.0138
12 12 8 0.2588 -0.0059
12 12 9 -0.3452 0.0180
12 12 10 0.7265 0.0173
12 12 11 -6.5856 0.0084
12 12 12 -5.1634 0.0053
12 12 13 1.0469 0.0009
12 12 14 3.9183 -0.0286
12 13 5 2.1556 -0.0239
12 13 6 -1.1969 0.0164
12 13 7 -0.4298 0.0080
12 13 8 -1.1512 -0.0042
12 13 9 -1.5051 0.0144
12 13 10 -4.9797 -0.0078
12 13 11 -0.3207 -0.0349
12 13 12 2.8438 -0.0010
12 13 13 2.3145 -0.0020
12 14 9 -1.8150 -0.0399
12 14 10 1.3323 -0.0282
13 -9 0 -4.9031 -0.0204
13 -9 1 -0.8586 -0.0187
13 -9 2 3.5751 0.0368
13 -9 3 4.9904 -0.0313
13 -9 4 1.1203 -0.0332
13 -9 5 0.3693 0.0177
13 -8 0 2.9516 -0.0526
13 -8 1 4.8671 0.0333
13 -8 2 5.2938 -0.0284
13 -8 3 1.9015 -0.0285
13 -8 4 1.0529 0.0278
13 -8 5 -1.6805 -0.0006
13 -8 6 -11.3230 0.0023
13 -8 7 -6.4236 0.0152
13 -7 0 3.6409 0.0506
13 -7 1 5.1897 0.0035
13 -7 2 1.4685 -0.0074
13 -7 3 -1.7128 0.0473
13 -7 4 -6.6880 -0.0033
13 -7 5 -9.3027 0.0009
13 -7 6 0.7470 0.0259
13 -7 7 5.2211 -0.0034
13 -7 8 0.1901 0.0099
13 -7 9 5.5284 -0.0077
13 -6 0 3.9953 -0.0116
13 -6 1 -0.5835 -0.0248
13 -6 2 -3.6811 0.0448
13 -6 3 -6.4712 -0.0338
13 -6 4 -1.5303 -0.0226
13 -6 5 5.4013 0.0297
13 -6 6 -0.1671 0.0075
13 -6 7 -0.2012 0.0066
13 -6 8 9.1223 0.0079
13 -6 9 5.5591 0.0133
13 -6 10 -2.4086 0.0111
13 -5 0 -3.4658 -0.0471
13 -5 1 -3.4504 0.0311
13 -5 2 -3.2603 -0.0349
13 -5 3 3.6903 -0.0147
13 -5 4 3.2571 0.0365
13 -5 5 -4.7015 0.0122
13 -5 6 1.8910 0.0068
13 -5 7 7.6735 0.0154
13 -5 8 -0.2854 0.0161
13 -5 9 -5.5519 0.0298
13 -5 10 -6.5889 0.0255
13 -5 11 0.5789 0.0057
13 -4 0 1.6651 0.0474
13 -4 1 2.1146 -0.0126
13 -4 2 5.7106 0.0040
13 -4 3 -1.5094 0.0464
13 -4 4 -5.0975 -0.0070
13 -4 5 3.6879 -0.0068
13 -4 6 2.2430 0.0224
13 -4 7 -5.4093 0.0046
13 -4 8 -1.6363 0.0050
13 -4 9 -0.1432 0.0027
13 -4 10 1.5890 -0.0105
13 -4 11 -2.5595 0.0193
13 -4 12 -1.9874 0.0208
13 -3 0 3.7709 -0.0419
13 -3 1 1.8121 -0.0187
13 -3 2 -7.5967 0.0413
13 -3 3 -4.3702 -0.0415
13 -3 4 1.8842 -0.0241
13 -3 5 -1.6769 0.0282
13 -3 6 -4.3104 0.0009
13 -3 7 3.6033 -0.0133
13 -3 8 2.2479 -0.0029
13 -3 9 1.0977 0.0008
13 -3 10 -3.9826 0.0143
13 -3 11 0.4794 -0.0086
13 -3 12 6.0345 -0.0175
13 -3 13 0.3465 -0.0106
13 -2 0 -2.6602 0.0097
13 -2 1 -9.7578 0.0453
13 -2 2 -1.7471 -0.0541
13 -2 3 0.4576 0.0077
13 -2 4 -0.1834 0.0501
13 -2 5 1.2105 -0.0043
13 -2 6 6.7947 -0.0139
13 -2 7 1.9235 0.0034
13 -2 8 1.4238 -0.0093
13 -2 9 -4.6256 0.0063
13 -2 10 0.1081 -0.0243
13 -2 11 1.2821 -0.0386
13 -2 12 -2.9287 -0.0118
13 -2 13 -1.2032 -0.0401
13 -1 0 -8.9286 0.0248
13 -1 1 -0.4156 -0.0763
13 -1 2 -0.1161 0.0167
13 -1 3 3.4370 0.0348
13 -1 4 5.0825 -0.0363
13 -1 5 6.9482 -0.0240
13 -1 6 0.6682 0.0072
13 -1 7 -1.3168 -0.0083
13 -1 8 -9.0046 0.0147
13 -1 9 -0.6740 -0.0139
13 -1 10 -1.3127 -0.0065
13 -1 11 -2.2253 0.0153
13 -1 12 2.8029 0.0011
13 -1 13 4.8205 -0.0172
13 -1 14 3.4195 -0.0152
13 0 0 1.2229 -0.0808
13 0 1 0.7405 0.0026
13 0 2 5.3564 0.0177
13 0 3 4.6035 -0.0391
13 0 4 3.6829 -0.0092
13 0 5 -2.4457 0.0178
13 0 6 -5.3724 -0.0015
13 0 7 -11.5463 0.0093
13 0 8 1.6353 -0.0205
13 0 9 0.0427 0.0038
13 0 10 1.8809 0.0064
13 0 11 7.0437 -0.0044
13 0 12 7.6017 -0.0118
13 0 13 1.6957 -0.0009
13 0 14 -5.5337 0.0179
13 0 15 -3.3566 0.0326
13 1 0 -0.2620 0.0297
13 1 1 2.3000 0.0301
13 1 2 0.7195 -0.0336
13 1 3 0.5379 0.0207
13 1 4 -4.7519 0.0340
13 1 5 -6.1041 -0.0170
13 1 6 -8.1033 -0.0089
13 1 7 6.0012 -0.0073
13 1 8 1.5543 0.0065
13 1 9 5.4757 -0.0070
13 1 10 8.2366 -0.0046
13 1 11 4.1633 -0.0190
13 1 12 -4.1045 -0.0102
13 1 13 -8.2503 -0.0091
13 1 14 -4.8199 -0.0213
13 1 15 -3.2398 0.0048
13 2 0 -0.4060 0.0149
13 2 1 -0.7942 -0.0620
13 2 2 1.3840 0.0266
13 2 3 -3.9941 0.0229
13 2 4 -2.7165 -0.0444
13 2 5 -0.5374 -0.0036
13 2 6 9.9293 0.0223
13 2 7 -0.7821 0.0108
13 2 8 2.8789 -0.0014
13 2 9 4.1351 0.0013
13 2 10 -0.7971 -0.0043
13 2 11 -7.5536 0.0153
13 2 12 -7.8042 -0.0004
13 2 13 -2.6468 -0.0152
13 2 14 -0.5949 -0.0052
13 2 15 1.3926 -0.0188
13 3 0 -1.1830 -0.0722
13 3 1 2.5015 0.0268
13 3 2 -1.9768 0.0045
13 3 3 3.3364 -0.0384
13 3 4 5.2166 0.0280
13 3 5 6.4376 0.0296
13 3 6 -8.7162 0.0039
13 3 7 -1.6179 0.0085
13 3 8 1.2154 0.0020
13 3 9 -0.7582 0.0104
13 3 10 -5.7288 0.0268
13 3 11 -3.7529 -0.0093
13 3 12 2.2288 -0.0163
13 3 13 2.8304 0.0138
13 3 14 1.6585 0.0236
13 3 15 3.4985 0.0082
13 3 16 2.9959 0.0239
13 4 0 5.2639 0.0266
13 4 1 1.7651 0.0063
13 4 2 7.9220 -0.0192
13 4 3 3.2553 0.0316
13 4 4 -4.3127 0.0144
13 4 5 -13.9068 -0.0113
13 4 6 1.0971 -0.0053
13 4 7 2.4742 -0.0045
13 4 8 1.1067 0.0097
13 4 9 -2.0893 0.0036
13 4 10 3.2465 -0.0192
13 4 11 5.9124 -0.0035
13 4 12 0.9217 0.0226
13 4 13 -1.7462 0.0110
13 4 14 1.6278 -0.0127
13 4 15 1.3786 0.0212
13 4 16 -0.4679 0.0473
13 5 0 1.4640 0.0173
13 5 1 4.8303 -0.0088
13 5 2 -3.8602 0.0325
13 5 3 -10.7234 0.0054
13 5 4 -9.9032 -0.0277
13 5 5 6.6044 0.0008
13 5 6 2.7661 0.0177
13 5 7 2.0696 0.0102
13 5 8 1.3737 -0.0108
13 5 9 8.1919 -0.0176
13 5 10 3.0133 -0.0062
13 5 11 -6.1134 0.0005
13 5 12 -4.6301 -0.0179
13 5 13 1.4218 -0.0137
13 5 14 0.9194 0.0059
13 5 15 -1.1393 -0.0148
13 5 16 1.1826 -0.0257
13 6 0 1.6284 -0.0293
13 6 1 -5.4246 0.0425
13 6 2 -7.2494 -0.0073
13 6 3 -2.0242 -0.0382
13 6 4 7.6659 0.0332
13 6 5 1.4489 0.0258
13 6 6 3.2486 -0.0170
13 6 7 3.6794 -0.0134
13 6 8 7.5840 -0.0006
13 6 9 -3.4481 0.0017
13 6 10 -10.3102 0.0102
13 6 11 -3.2605 0.0049
13 6 12 1.7540 0.0041
13 6 13 0.1817 0.0040
13 6 14 -1.0231 0.0009
13 6 15 4.2481 0.0077
13 6 16 3.2806 0.0111
13 7 0 -3.7761 0.0624
13 7 1 -2.5572 0.0005
13 7 2 2.3727 -0.0161
13 7 3 5.2671 0.0256
13 7 4 0.1764 -0.0133
13 7 5 3.1464 -0.0264
13 7 6 4.5182 0.0006
13 7 7 4.1724 0.0034
13 7 8 -7.8695 0.0004
13 7 9 -9.9929 -0.0028
13 7 10 -0.2467 -0.0113
13 7 11 1.1809 -0.0067
13 7 12 0.2358 0.0143
13 7 13 1.1493 0.0186
13 7 14 7.2717 -0.0045
13 7 15 2.7462 -0.0075
13 7 16 -2.7372 0.0124
13 8 0 0.7071 -0.0084
13 8 1 3.6133 -0.0024
13 8 2 2.3957 -0.0026
13 8 3 -0.7571 -0.0214
13 8 4 1.5478 0.0015
13 8 5 3.8614 0.0194
13 8 6 -0.0943 0.0027
13 8 7 -8.7445 0.0086
13 8 8 -6.0722 0.0033
13 8 9 4.0673 -0.0068
13 8 10 1.4613 0.0117
13 8 11 1.8440 0.0294
13 8 12 4.0395 -0.0053
13 8 13 7.7651 -0.0279
13 8 14 -1.3194 -0.0013
13 8 15 -6.0963 0.0148
13 8 16 -5.1293 0.0182
13 9 1 -0.3313 0.0066
13 9 2 -1.0161 -0.0137
13 9 3 -0.3815 -0.0232
13 9 4 1.2650 0.0220
13 9 5 -3.6095 0.0038
13 9 6 -5.2549 -0.0080
13 9 7 0.4266 -0.0095
13 9 8 6.9451 -0.0091
13 9 9 -0.3665 0.0012
13 9 10 0.4907 -0.0065
13 9 11 3.0501 -0.0217
13 9 12 4.6421 -0.0055
13 9 13 -5.3674 0.0021
13 9 14 -5.3950 -0.0058
13 9 15 -1.6540 -0.0098
13 10 2 -1.3043 -0.0261
13 10 3 0.1770 0.0489
13 10 4 -2.4549 -0.0145
13 10 5 1.2527 -0.0186
13 10 6 5.2594 0.0041
13 10 7 4.9776 0.0081
13 10 8 -4.3365 0.0111
13 10 9 -2.6467 -0.0106
13 10 10 0.2228 0.0015
13 10 11 1.7457 0.0168
13 10 12 -5.6530 -0.0051
13 10 13 -2.1972 0.0025
13 10 14 0.5301 0.0068
13 10 15 0.8303 0.0236
13 11 4 4.4019 0.0292
13 11 5 4.1157 0.0351
13 11 6 -0.9833 -0.0054
13 11 7 -6.8826 0.0093
13 11 8 -3.3549 -0.0048
13 11 9 -0.5112 -0.0052
13 11 10 0.7025 0.0079
13 11 11 -3.3027 0.0155
13 11 12 2.0497 0.0176
13 11 13 2.5423 -0.0149
13 11 14 1.2334 -0.0015
13 12 6 -5.6008 0.0092
13 12 7 -1.2229 -0.0176
13 12 8 0.4344 -0.0235
13 12 9 0.4972 0.0088
13 12 10 -0.4469 0.0137
13 12 11 5.3240 -0.0129
13 12 12 2.7468 -0.0272
14 -7 0 -3.9011 -0.0243
14 -7 1 -2.6880 -0.0572
14 -7 2 2.7770 0.0558
14 -7 3 4.3931 -0.0397
14 -7 4 4.0627 -0.0514
14 -7 5 4.8496 -0.0011
14 -7 6 -1.8463 -0.0046
14 -6 0 -0.6959 -0.0498
14 -6 1 4.3352 0.0637
14 -6 2 5.2368 -0.0318
14 -6 3 4.5971 -0.0083
14 -6 4 1.1623 0.0307
14 -6 5 -4.9819 -0.0064
14 -6 6 -2.2866 0.0024
14 -6 7 -2.1764 0.0064
14 -6 8 -2.5446 -0.0264
14 -5 0 5.1376 0.0796
14 -5 1 4.5737 -0.0180
14 -5 2 2.9977 -0.0068
14 -5 3 -2.6230 0.0344
14 -5 4 -4.4275 -0.0094
14 -5 5 2.1243 -0.0110
14 -5 6 -2.3570 0.0153
14 -5 7 -3.4185 -0.0013
14 -5 8 1.1164 0.0013
14 -5 9 6.1580 0.0084
14 -4 0 -0.1534 -0.0350
14 -4 1 -2.1904 -0.0631
14 -4 2 -5.4975 0.0218
14 -4 3 -1.1322 -0.0096
14 -4 4 2.9528 -0.0240
14 -4 5 -4.5178 0.0080
14 -4 6 -1.4782 0.0066
14 -4 7 4.5219 0.0152
14 -4 8 3.6234 0.0133
14 -4 9 -0.5181 0.0198
14 -4 10 -2.8842 0.0474
14 -3 0 -3.7065 -0.0280
14 -3 1 -1.1508 0.0647
14 -3 2 5.6253 -0.0206
14 -3 3 2.2528 -0.0194
14 -3 4 -3.6514 0.0242
14 -3 5 2.5996 0.0024
14 -3 6 5.4040 -0.0012
14 -3 7 -2.1579 0.0150
14 -3 8 -4.0878 0.0093
14 -3 9 0.1858 0.0117
14 -3 10 2.2226 0.0273
14 -3 11 -3.6900 0.0186
14 -2 0 6.1866 0.0512
14 -2 1 8.8406 -0.0627
14 -2 2 -0.7179 -0.0170
14 -2 3 -1.5395 0.0270
14 -2 4 2.1853 -0.0198
14 -2 5 -0.1236 -0.0272
14 -2 6 -7.0617 0.0150
14 -2 7 -3.0535 0.0013
14 -2 8 1.7472 -0.0024
14 -2 9 1.9419 0.0079
14 -2 10 -3.4385 0.0062
14 -2 11 0.2533 0.0363
14 -2 12 5.3750 0.0079
14 -1 0 6.4652 -0.0409
14 -1 1 -2.8152 0.0101
14 -1 2 -0.3991 0.0225
14 -1 3 -2.5859 -0.0257
14 -1 4 -5.9589 0.0020
14 -1 5 -6.9862 0.0421
14 -1 6 1.3616 -0.0008
14 -1 7 4.1293 0.0032
14 -1 8 4.0537 -0.0001
14 -1 9 -1.4624 -0.0060
14 -1 10 3.9530 0.0111
14 -1 11 3.0202 -0.0247
14 -1 12 -3.3203 -0.0303
14 -1 13 -3.0834 -0.0352
14 0 0 -3.5856 0.0176
14 0 1 -1.6508 0.0329
14 0 2 -6.9026 -0.0323
14 0 3 -6.2706 0.0255
14 0 4 -2.0161 0.0464
14 0 5 6.1194 -0.0147
14 0 6 6.2010 0.0018
14 0 7 5.6648 0.0035
14 0 8 -3.1119 0.0013
14 0 9 1.7250 0.0004
14 0 10 -2.7130 -0.0118
14 0 11 -8.1365 -0.0114
14 0 12 -4.5845 -0.0161
14 0 13 0.7210 -0.0253
14 1 0 -1.8891 0.0487
14 1 1 -5.6729 -0.0559
14 1 2 -2.1160 0.0232
14 1 3 2.2148 0.0206
14 1 4 7.1643 -0.0320
14 1 5 4.0910 -0.0048
14 1 6 3.4049 -0.0029
14 1 7 -5.5908 -0.0045
14 1 8 -0.7261 -0.0012
14 1 9 -7.0054 -0.0040
14 1 10 -8.0823 -0.0076
14 1 11 0.5902 0.0141
14 1 12 7.1097 0.0136
14 1 13 6.7679 0.0068
14 1 14 1.5415 0.0346
14 2 0 -2.5282 -0.0711
14 2 1 0.4032 0.0388
14 2 2 1.4192 0.0045
14 2 3 4.8337 -0.0358
14 2 4 0.2141 0.0079
14 2 5 -0.3834 0.0083
14 2 6 -6.4764 -0.0125
14 2 7 -0.0925 -0.0091
14 2 8 -6.6545 -0.0085
14 2 9 -3.5193 -0.0089
14 2 10 7.1891 0.0128
14 2 11 9.9890 -0.0079
14 2 12 4.2718 -0.0114
14 2 13 -0.2929 0.0022
14 2 14 -0.4036 0.0030
14 3 0 1.8976 0.0496
14 3 1 -0.1461 0.0075
14 3 2 2.6666 -0.0274
14 3 3 -3.1917 0.0229
14 3 4 -2.5777 0.0139
14 3 5 -3.7155 -0.0271
14 3 6 4.1927 -0.0181
14 3 7 -2.7537 -0.0031
14 3 8 0.8923 -0.0002
14 3 9 6.8217 -0.0025
14 3 10 5.9016 -0.0268
14 3 11 -0.0577 0.0002
14 3 12 -2.3776 0.0102
14 3 13 -2.5162 -0.0023
14 3 14 -4.0966 -0.0209
14 4 0 -3.3220 0.0244
14 4 1 -0.7579 -0.0344
14 4 2 -5.9516 0.0224
14 4 3 -0.0125 -0.0003
14 4 4 3.7840 -0.0448
14 4 5 7.1833 -0.0054
14 4 6 -3.1912 0.0172
14 4 7 1.2888 -0.0004
14 4 8 2.1297 0.0034
14 4 9 0.4287 0.0031
14 4 10 -3.5962 0.0189
14 4 11 -2.6133 0.0128
14 4 12 -1.8036 0.0005
14 4 13 -2.5898 -0.0072
14 4 14 -2.2408 -0.0030
14 4 15 2.0303 -0.0081
14 5 0 -0.5481 -0.0689
14 5 1 -3.0332 0.0181
14 5 2 5.9803 -0.0152
14 5 3 8.0430 -0.0402
14 5 4 3.0580 0.0191
14 5 5 -7.6826 0.0208
14 5 6 0.6947 -0.0143
14 5 7 -1.3498 0.0065
14 5 8 -2.5902 0.0104
14 5 9 -5.1741 0.0098
14 5 10 1.0250 0.0127
14 5 11 3.1281 0.0088
14 5 12 0.3888 0.0077
14 5 13 0.1271 0.0080
14 5 14 2.9093 0.0005
14 5 15 2.3558 0.0218
14 6 0 -0.3739 0.0516
14 6 1 5.8308 -0.0133
14 6 2 3.3376 -0.0057
14 6 3 -3.1352 0.0324
14 6 4 -7.7556 -0.0011
14 6 5 1.0951 -0.0235
14 6 6 -3.8584 0.0086
14 6 7 -2.6824 0.0033
14 6 8 -2.7286 0.0032
14 6 9 6.1161 0.0050
14 6 10 5.7606 -0.0272
14 6 11 0.3000 -0.0241
14 6 12 0.1948 0.0044
14 6 13 1.3103 -0.0017
14 6 14 -0.1724 -0.0103
14 6 15 -3.6108 -0.0249
14 7 1 -0.1958 -0.0187
14 7 2 -3.3512 0.0121
14 7 3 -3.1907 -0.0023
14 7 4 1.1668 -0.0210
14 7 5 -4.5900 0.0152
14 7 6 -0.9914 0.0182
14 7 7 1.2737 -0.0022
14 7 8 8.5281 -0.0022
14 7 9 4.5951 -0.0085
14 7 10 -1.3266 0.0136
14 7 11 -0.4760 0.0337
14 7 12 -1.2361 -0.0057
14 7 13 -3.1158 -0.0232
14 7 14 -5.7280 0.0013
14 8 2 -0.7784 0.0219
14 8 3 0.5647 -0.0301
14 8 4 -2.5306 0.0163
14 8 5 0.4082 0.0176
14 8 6 3.9732 -0.0241
14 8 7 8.4238 -0.0049
14 8 8 2.2936 0.0064
14 8 9 -3.6083 0.0029
14 8 10 -1.5763 -0.0112
14 8 11 -2.9410 -0.0337
14 8 12 -4.3457 0.0015
14 8 13 -4.6141 0.0244
14 8 14 3.1737 -0.0054
14 9 3 0.5585 0.0581
14 9 4 1.4723 -0.0053
14 9 5 4.9203 -0.0259
14 9 6 4.9384 0.0223
14 9 7 -1.6621 -0.0060
14 9 8 -4.9349 -0.0118
14 9 9 -0.0581 0.0111
14 9 10 -1.6305 0.0069
14 9 11 -3.2277 0.0115
14 9 12 -1.3531 -0.0022
14 9 13 6.4615 -0.0124
14 10 5 -1.3447 0.0226
14 10 6 -4.4573 -0.0323
14 10 7 -2.1744 -0.0035
14 10 8 3.2039 0.0208
14 10 9 -0.1694 -0.0091
14 10 10 -1.8572 -0.0267
14 10 11 0.6374 -0.0106
14 10 12 5.9691 0.0166
14 11 8 -0.3122 -0.0101
14 11 9 -0.9640 0.0229
14 11 10 0.1380 0.0114
15 -5 3 3.4809 -0.0271
15 -5 4 5.6969 -0.0055
15 -5 5 0.7932 0.0164
15 -4 1 3.5404 0.0826
15 -4 2 5.5358 -0.0058
15 -4 3 3.9043 -0.0079
15 -4 4 -1.4144 0.0423
15 -4 5 1.9081 -0.0061
15 -4 6 -1.1041 -0.0080
15 -4 7 -2.2733 0.0162
15 -4 8 -3.1183 0.0111
15 -3 1 1.2005 -0.0520
15 -3 2 -2.6803 -0.0279
15 -3 3 -2.2971 0.0462
15 -3 4 1.3404 0.0001
15 -3 5 -3.7122 -0.0229
15 -3 6 -4.2469 0.0125
15 -3 7 0.3928 0.0193
15 -3 8 3.7405 0.0140
15 -3 9 0.4684 0.0181
15 -2 0 -5.1376 -0.0430
15 -2 1 -5.3463 0.0227
15 -2 2 1.3761 0.0478
15 -2 3 0.9103 -0.0335
15 -2 4 -3.1727 -0.0388
15 -2 5 0.1518 0.0335
15 -2 6 5.8646 0.0086
15 -2 7 3.6996 -0.0039
15 -2 8 -2.1881 0.0154
15 -2 9 -1.0859 -0.0104
15 -2 10 3.2910 0.0419
15 -1 0 -1.2986 0.0002
15 -1 1 5.3874 0.0264
15 -1 2 1.0670 -0.0510
15 -1 3 2.0022 -0.0253
15 -1 4 6.2319 0.0400
15 -1 5 5.4049 -0.0205
15 -1 6 -2.1955 -0.0257
15 -1 7 -4.5687 0.0004
15 -1 8 -1.4435 -0.0076
15 -1 9 1.3834 0.0128
15 -1 10 -5.7018 -0.0266
15 -1 11 -2.3895 0.0228
15 0 0 5.2063 0.0579
15 0 1 1.9118 -0.0371
15 0 2 6.1730 0.0044
15 0 3 5.5441 0.0166
15 0 4 -1.7283 -0.0300
15 0 5 -8.4169 -0.0080
15 0 6 -5.3683 0.0022
15 0 7 -2.1806 -0.0095
15 0 8 1.8856 0.0018
15 0 9 -3.5598 -0.0190
15 0 10 4.0272 -0.0060
15 0 11 8.1600 -0.0173
15 0 12 1.8257 0.0082
15 1 0 1.4102 -0.0795
15 1 1 4.4547 0.0283
15 1 2 -0.0174 0.0110
15 1 3 -6.7625 -0.0145
15 1 4 -8.2501 0.0048
15 1 5 -2.2230 0.0259
15 1 6 -1.1961 0.0163
15 1 7 4.3047 0.0111
15 1 8 0.7565 -0.0040
15 1 9 7.3433 -0.0009
15 1 10 5.0393 -0.0018
15 1 11 -4.3669 0.0015
15 1 12 -7.5303 -0.0322
15 2 1 -2.3647 0.0218
15 2 2 -4.7800 -0.0148
15 2 3 -4.2877 -0.0023
15 2 4 1.1727 0.0384
15 2 5 0.3440 -0.0004
15 2 6 5.1211 -0.0124
15 2 7 2.1379 -0.0041
15 2 8 6.8187 0.0138
15 2 9 -0.2492 0.0134
15 2 10 -10.1291 -0.0067
15 2 11 -8.7501 -0.0051
15 2 12 -0.6808 0.0340
15 3 1 -1.3623 -0.0520
15 3 2 -1.8068 -0.0017
15 3 3 2.8352 0.0221
15 3 4 1.6463 -0.0487
15 3 5 3.7569 -0.0082
15 3 6 -0.1144 0.0186
15 3 7 3.3136 0.0048
15 3 8 -4.0419 -0.0064
15 3 9 -9.3872 -0.0064
15 3 10 -4.0045 0.0146
15 3 11 4.4133 0.0151
15 3 12 4.0286 0.0026
15 3 13 2.2130 -0.0064
15 4 1 0.9338 0.0304
15 4 2 4.3352 0.0082
15 4 3 0.3101 -0.0405
15 4 4 -0.8908 0.0389
15 4 5 -2.7268 0.0228
15 4 6 1.3562 -0.0132
15 4 7 -4.7962 -0.0033
15 4 8 -3.3941 -0.0092
15 4 9 1.6087 -0.0031
15 4 10 5.0396 -0.0103
15 4 11 1.7549 -0.0118
15 4 12 2.3170 -0.0169
15 4 13 4.0712 -0.0090
15 5 2 -4.0381 -0.0044
15 5 3 -4.3041 0.0433
15 5 4 -0.3763 -0.0012
15 5 5 3.7836 -0.0136
15 5 6 -3.7962 0.0065
15 5 7 1.8395 -0.0138
15 5 8 3.9960 0.0042
15 5 9 3.2283 0.0114
15 5 10 -2.0598 -0.0063
15 5 11 0.5285 -0.0234
15 5 12 2.4001 -0.0109
15 5 13 -2.0574 0.0093
15 6 3 3.2977 -0.0035
15 6 4 4.0469 -0.0111
15 6 5 -3.5319 -0.0026
15 6 6 3.7963 0.0108
15 6 7 1.8911 0.0241
15 6 8 -0.2461 -0.0070
15 6 9 -5.2614 -0.0166
15 6 10 -0.7509 0.0172
15 6 11 1.3765 0.0229
15 6 12 -2.0658 0.0041
15 6 13 -1.1450 0.0065
15 7 4 -2.8595 0.0133
15 7 5 3.8364 0.0298
15 7 6 -1.7602 -0.0199
15 7 7 -3.3680 -0.0324
15 7 8 -5.1543 -0.0058
15 7 9 0.7013 0.0152
15 7 10 1.3693 -0.0218
15 7 11 -0.6396 -0.0506
15 7 12 2.0586 -0.0016
15 8 6 -3.9248 0.0173
15 8 7 -3.4900 0.0156
15 8 8 2.2566 -0.0139
15 8 9 2.0893 -0.0079
15 8 10 1.0013 0.0141
15 8 11 2.9095 0.0328
16 -1 6 1.1402 0.0306
16 0 5 7.0442 0.0222
16 0 6 3.4742 -0.0032
16 0 7 1.1215 -0.0021
16 0 8 -0.6062 0.0049
16 1 4 5.6489 0.0233
16 1 5 -0.5669 -0.0090
16 1 6 -0.8647 -0.0197
16 1 7 -3.8675 -0.0150
16 1 8 -1.4934 -0.0124
16 1 9 -6.9493 -0.0156
16 2 5 -1.5951 -0.0136
16 2 6 -5.3308 0.0198
16 2 7 -3.5188 0.0092
16 2 8 -4.5263 -0.0126
16 2 9 3.4221 -0.0131
16 3 5 -3.8211 0.0262
16 3 6 -1.2059 -0.0107
16 3 7 -0.7772 -0.0110
16 3 8 5.8777 0.0103
16 3 9 6.9266 0.0114
16 4 6 1.5210 -0.0041
16 4 7 5.3329 0.0029
16 4 8 2.2187 0.0021
16 4 9 -2.6522 -0.0002
16 5 8 -4.1010 -0.0073
0 0 0 0.0 0.0
;
_shelx_fab_checksum              32303
_olex2_submission_special_instructions 'No special instructions were received'
_oxdiff_exptl_absorpt_empirical_details
;
Empirical correction (ABSPACK) includes:
- Absorption correction using spherical harmonics
- Frame scaling
;
_oxdiff_exptl_absorpt_empirical_full_max 1.402
_oxdiff_exptl_absorpt_empirical_full_min 0.704
loop_
_space_group_symop_operation_xyz
'x, y, z'
'-x, -y, -z'
loop_
_atom_site_label
_atom_site_type_symbol
_atom_site_fract_x
_atom_site_fract_y
_atom_site_fract_z
_atom_site_U_iso_or_equiv
_atom_site_adp_type
_atom_site_occupancy
_atom_site_site_symmetry_order
_atom_site_calc_flag
_atom_site_refinement_flags_posn
_atom_site_refinement_flags_adp
_atom_site_refinement_flags_occupancy
_atom_site_disorder_assembly
_atom_site_disorder_group
Ni1 Ni 0.70144(5) 0.64498(4) 0.24681(4) 0.02879(18) Uani 1 1 d . . . . .
N21 N 0.7843(2) 0.5689(2) 0.2009(2) 0.0270(7) Uani 1 1 d . . . . .
N20 N 0.9556(2) 0.3915(2) 0.07461(19) 0.0256(7) Uani 1 1 d . . . . .
N22 N 0.7560(2) 0.6324(2) 0.3313(2) 0.0285(7) Uani 1 1 d . . . . .
N24 N 0.6375(2) 0.6472(2) 0.1720(2) 0.0290(7) Uani 1 1 d . . . . .
N110 N 0.4939(2) 0.9177(2) 0.3919(2) 0.0307(7) Uani 1 1 d . . . . .
N23 N 0.6113(2) 0.7149(2) 0.2983(2) 0.0315(7) Uani 1 1 d . . . . .
C32 C 1.1160(3) 0.2046(2) -0.0370(3) 0.0286(8) Uani 1 1 d . . . . .
C21 C 0.8693(3) 0.4326(2) 0.0593(2) 0.0258(8) Uani 1 1 d . . . . .
C2 C 0.8340(3) 0.4817(2) 0.1163(2) 0.0249(8) Uani 1 1 d . . . . .
C151 C 0.3851(3) 0.7600(2) 0.2191(2) 0.0265(8) Uani 1 1 d . . . . .
C56 C 0.8652(3) 0.3468(3) 0.3993(2) 0.0288(8) Uani 1 1 d . . . . .
C9 C 0.7020(3) 0.6683(3) 0.3965(3) 0.0307(9) Uani 1 1 d . . . . .
C30 C 1.0966(3) 0.2935(2) 0.0571(2) 0.0260(8) Uani 1 1 d . . . . .
C18 C 0.6745(3) 0.5947(2) 0.1198(2) 0.0274(8) Uani 1 1 d . . . . .
C3 C 0.8985(3) 0.4664(2) 0.1691(2) 0.0253(8) Uani 1 1 d . . . . .
C44 C 0.9766(3) 0.4129(2) 0.1397(2) 0.0255(8) Uani 1 1 d . . . . .
C156 C 0.2987(3) 0.7164(3) 0.2909(3) 0.0296(8) Uani 1 1 d . . . . .
C29 C 1.0120(3) 0.3332(2) 0.0336(2) 0.0272(8) Uani 1 1 d . . . . .
C6 C 0.8144(3) 0.5664(2) 0.3638(2) 0.0267(8) Uani 1 1 d . . . . .
C53 C 1.0263(3) 0.3643(3) 0.4490(2) 0.0311(9) Uani 1 1 d . . . . .
H53 H 1.081332 0.370232 0.466596 0.037 Uiso 1 1 calc R . . . .
C4 C 0.8586(3) 0.5154(2) 0.2317(2) 0.0256(8) Uani 1 1 d . . . . .
C28 C 0.9807(3) 0.3122(3) -0.0272(2) 0.0284(8) Uani 1 1 d . . . . .
C152 C 0.3748(3) 0.8255(3) 0.1411(3) 0.0302(8) Uani 1 1 d . . . . .
C54 C 0.9830(3) 0.2828(3) 0.4792(3) 0.0326(9) Uani 1 1 d . . . . .
C22 C 0.8340(3) 0.4112(2) -0.0018(2) 0.0254(8) Uani 1 1 d . . . . .
C27 C 0.8900(3) 0.3544(2) -0.0471(2) 0.0275(8) Uani 1 1 d . . . . .
C19 C 0.7622(3) 0.5477(2) 0.1387(2) 0.0260(8) Uani 1 1 d . . . . .
C118 C 0.4071(3) 0.8918(2) 0.5529(3) 0.0296(8) Uani 1 1 d . . . . .
C31 C 1.1462(3) 0.2304(3) 0.0206(3) 0.0311(9) Uani 1 1 d . . . . .
H31 H 1.203555 0.203380 0.035741 0.037 Uiso 1 1 calc R . . . .
C112 C 0.5868(3) 0.8536(2) 0.4983(3) 0.0284(8) Uani 1 1 d . . . . .
C123 C 0.3173(3) 0.8898(3) 0.6249(3) 0.0349(9) Uani 1 1 d . . . . .
H123 H 0.320408 0.875023 0.683743 0.042 Uiso 1 1 calc R . . . .
C10 C 0.6183(3) 0.7163(3) 0.3744(3) 0.0322(9) Uani 1 1 d . . . . .
C14 C 0.4884(3) 0.7330(2) 0.2248(2) 0.0274(8) Uani 1 1 d . . . . .
C36 C 1.2769(3) 0.1202(3) -0.0770(3) 0.0353(9) Uani 1 1 d . . . . .
H36A H 1.311047 0.176240 -0.120599 0.053 Uiso 1 1 calc GR . . . .
H36B H 1.306596 0.072509 -0.099993 0.053 Uiso 1 1 calc GR . . . .
H36C H 1.285565 0.108607 -0.018861 0.053 Uiso 1 1 calc GR . . . .
C17 C 0.6041(3) 0.6003(3) 0.0769(3) 0.0349(9) Uani 1 1 d . . . . .
H17 H 0.608774 0.572096 0.035323 0.042 Uiso 1 1 calc R . . . .
C59 C 0.7720(3) 0.3334(3) 0.3797(3) 0.0349(9) Uani 1 1 d . . . . .
H59A H 0.792695 0.333256 0.317728 0.052 Uiso 1 1 calc GR . . . .
H59B H 0.724855 0.381315 0.386164 0.052 Uiso 1 1 calc GR . . . .
H59C H 0.738251 0.276922 0.422567 0.052 Uiso 1 1 calc GR . . . .
C23 C 0.7430(3) 0.4446(3) -0.0141(3) 0.0321(9) Uani 1 1 d . . . . .
H23 H 0.704257 0.481099 0.018441 0.038 Uiso 1 1 calc R . . . .
C55 C 0.9009(3) 0.2751(3) 0.4550(3) 0.0335(9) Uani 1 1 d . . . . .
H55 H 0.868441 0.219038 0.477254 0.040 Uiso 1 1 calc R . . . .
C154 C 0.1904(3) 0.8086(3) 0.2116(3) 0.0330(9) Uani 1 1 d . . . . .
C153 C 0.2767(3) 0.8481(3) 0.1391(3) 0.0317(9) Uani 1 1 d . . . . .
H153 H 0.269054 0.892027 0.086507 0.038 Uiso 1 1 calc R . . . .
C34 C 1.1639(3) 0.1253(3) -0.0640(3) 0.0331(9) Uani 1 1 d . . . . .
C7 C 0.8036(3) 0.5645(3) 0.4517(3) 0.0292(8) Uani 1 1 d . . . . .
C33 C 1.0347(3) 0.2483(2) -0.0617(2) 0.0287(8) Uani 1 1 d . . . . .
H33 H 1.015211 0.233991 -0.103590 0.034 Uiso 1 1 calc R . . . .
C157 C 0.4651(3) 0.8708(3) 0.0601(3) 0.0362(9) Uani 1 1 d . . . . .
H15A H 0.488774 0.835319 0.020938 0.054 Uiso 1 1 calc GR . . . .
H15B H 0.519745 0.877843 0.080411 0.054 Uiso 1 1 calc GR . . . .
H15C H 0.445743 0.928919 0.026294 0.054 Uiso 1 1 calc GR . . . .
C38 C 1.1289(3) 0.3211(2) 0.1174(2) 0.0275(8) Uani 1 1 d . . . . .
C51 C 0.9123(3) 0.4300(2) 0.3671(2) 0.0245(8) Uani 1 1 d . . . . .
C5 C 0.8675(3) 0.5091(2) 0.3126(2) 0.0266(8) Uani 1 1 d . . . . .
C119 C 0.4028(3) 0.9120(2) 0.4664(3) 0.0294(8) Uani 1 1 d . . . . .
C122 C 0.2232(3) 0.9087(3) 0.6131(3) 0.0404(10) Uani 1 1 d . . . . .
C52 C 0.9935(3) 0.4395(2) 0.3934(2) 0.0270(8) Uani 1 1 d . . . . .
C40 C 1.2466(3) 0.3184(3) 0.1929(3) 0.0353(9) Uani 1 1 d . . . . .
H40 H 1.305055 0.294667 0.207847 0.042 Uiso 1 1 calc R . . . .
C57 C 1.0479(3) 0.5258(3) 0.3610(3) 0.0317(9) Uani 1 1 d . . . . .
H57A H 1.025378 0.569000 0.313622 0.048 Uiso 1 1 calc GR . . . .
H57B H 1.121241 0.518162 0.336356 0.048 Uiso 1 1 calc GR . . . .
H57C H 1.032547 0.546732 0.411782 0.048 Uiso 1 1 calc GR . . . .
C15 C 0.5474(3) 0.6816(2) 0.1675(2) 0.0274(8) Uani 1 1 d . . . . .
C111 C 0.5709(3) 0.8554(2) 0.4155(3) 0.0295(8) Uani 1 1 d . . . . .
H111 H 0.636754 0.873736 0.363924 0.035 Uiso 1 1 calc R . . . .
C120 C 0.3090(3) 0.9331(2) 0.4518(3) 0.0317(9) Uani 1 1 d . . . . .
C11 C 0.5338(3) 0.7673(3) 0.4182(3) 0.0302(8) Uani 1 1 d . . . . .
H11 H 0.492437 0.730194 0.481105 0.036 Uiso 1 1 calc R . . . .
C43 C 1.0698(3) 0.3816(2) 0.1569(2) 0.0267(8) Uani 1 1 d . . . . .
C39 C 1.2175(3) 0.2909(3) 0.1371(3) 0.0309(9) Uani 1 1 d . . . . .
H39 H 1.258347 0.250411 0.111253 0.037 Uiso 1 1 calc R . . . .
C26 C 0.8532(3) 0.3371(3) -0.1061(3) 0.0322(9) Uani 1 1 d . . . . .
H26 H 0.890524 0.299885 -0.138227 0.039 Uiso 1 1 calc R . . . .
C42 C 1.1047(3) 0.4135(3) 0.2078(2) 0.0308(9) Uani 1 1 d . . . . .
H42 H 1.068608 0.458404 0.229197 0.037 Uiso 1 1 calc R . . . .
C116 C 0.5221(3) 0.8707(3) 0.6437(3) 0.0323(9) Uani 1 1 d . . . . .
H116 H 0.468649 0.885709 0.689397 0.039 Uiso 1 1 calc R . . . .
C13 C 0.5204(3) 0.7493(2) 0.2851(3) 0.0293(8) Uani 1 1 d . . . . .
C24 C 0.7083(3) 0.4259(3) -0.0721(3) 0.0346(9) Uani 1 1 d . . . . .
H24 H 0.646324 0.449617 -0.079911 0.042 Uiso 1 1 calc R . . . .
C113 C 0.6814(3) 0.8329(3) 0.5086(3) 0.0318(9) Uani 1 1 d . . . . .
H113 H 0.736601 0.821552 0.461544 0.038 Uiso 1 1 calc R . . . .
C8 C 0.7339(3) 0.6276(3) 0.4719(3) 0.0321(9) Uani 1 1 d . . . . .
C41 C 1.1908(3) 0.3810(3) 0.2276(3) 0.0348(9) Uani 1 1 d . . . . .
H41 H 1.211999 0.401205 0.264972 0.042 Uiso 1 1 calc R . . . .
C25 C 0.7642(3) 0.3723(3) -0.1192(3) 0.0323(9) Uani 1 1 d . . . . .
H25 H 0.741368 0.359807 -0.160346 0.039 Uiso 1 1 calc R . . . .
C121 C 0.2230(3) 0.9306(3) 0.5260(3) 0.0379(10) Uani 1 1 d . . . . .
H121 H 0.159932 0.944782 0.516345 0.045 Uiso 1 1 calc R . . . .
C117 C 0.5061(3) 0.8715(2) 0.5666(2) 0.0282(8) Uani 1 1 d . . . . .
C12 C 0.4702(3) 0.7952(2) 0.3538(2) 0.0284(8) Uani 1 1 d . . . . .
H12 H 0.397615 0.775197 0.388187 0.034 Uiso 1 1 calc R . . . .
C155 C 0.2021(3) 0.7425(3) 0.2862(3) 0.0336(9) Uani 1 1 d . . . . .
H155 H 0.143419 0.713957 0.335653 0.040 Uiso 1 1 calc R . . . .
C131 C 0.3086(3) 0.9620(3) 0.3593(3) 0.0370(10) Uani 1 1 d . . . . .
C16 C 0.5266(3) 0.6539(3) 0.1057(3) 0.0355(9) Uani 1 1 d . . . . .
H16 H 0.469172 0.669299 0.086827 0.043 Uiso 1 1 calc R . . . .
C114 C 0.6948(3) 0.8289(3) 0.5874(3) 0.0365(9) Uani 1 1 d . . . . .
H114 H 0.758499 0.812846 0.595270 0.044 Uiso 1 1 calc R . . . .
C35 C 1.1533(3) 0.1280(3) -0.1516(3) 0.0461(12) Uani 1 1 d . . . . .
H35A H 1.081138 0.124092 -0.142864 0.069 Uiso 1 1 calc GR . . . .
H35B H 1.188720 0.078357 -0.168241 0.069 Uiso 1 1 calc GR . . . .
H35C H 1.183036 0.183471 -0.200034 0.069 Uiso 1 1 calc GR . . . .
C137 C 0.4803(3) 0.8981(3) 0.3183(3) 0.0307(9) Uani 1 1 d . . . . .
H137 H 0.544360 0.916201 0.264704 0.037 Uiso 1 1 calc R . . . .
C159 C 0.3042(3) 0.6392(3) 0.3715(3) 0.0389(10) Uani 1 1 d . . . . .
H15D H 0.335228 0.589754 0.352061 0.058 Uiso 1 1 calc GR . . . .
H15E H 0.235538 0.621794 0.415519 0.058 Uiso 1 1 calc GR . . . .
H15F H 0.345464 0.655668 0.399688 0.058 Uiso 1 1 calc GR . . . .
C58 C 1.0205(3) 0.2015(3) 0.5389(3) 0.0441(11) Uani 1 1 d . . . . .
H58A H 1.057166 0.164631 0.503209 0.066 Uiso 1 1 calc GR . . . .
H58B H 0.962384 0.167851 0.589763 0.066 Uiso 1 1 calc GR . . . .
H58C H 1.066197 0.219490 0.562111 0.066 Uiso 1 1 calc GR . . . .
C124 C 0.1258(3) 0.9049(3) 0.6935(3) 0.0471(11) Uani 1 1 d D . . . .
C115 C 0.6156(3) 0.8482(3) 0.6540(3) 0.0340(9) Uani 1 1 d . . . . .
H115 H 0.625135 0.846003 0.707640 0.041 Uiso 1 1 calc R . . . .
C135 C 0.4042(4) 0.9876(3) 0.2012(3) 0.0452(11) Uani 1 1 d . . . . .
H135 H 0.464932 0.981210 0.155576 0.054 Uiso 1 1 calc R . . . .
C158 C 0.0854(3) 0.8373(3) 0.2097(3) 0.0424(10) Uani 1 1 d . . . . .
H15G H 0.063262 0.883316 0.236724 0.064 Uiso 1 1 calc GR . . . .
H15H H 0.037811 0.786751 0.244385 0.064 Uiso 1 1 calc GR . . . .
H15I H 0.087151 0.860560 0.146892 0.064 Uiso 1 1 calc GR . . . .
C136 C 0.3952(3) 0.9501(3) 0.2910(3) 0.0360(9) Uani 1 1 d . . . . .
C134 C 0.3246(4) 1.0348(3) 0.1770(3) 0.0549(13) Uani 1 1 d . . . . .
H134 H 0.330672 1.060325 0.114963 0.066 Uiso 1 1 calc R . . . .
C37 C 1.1108(4) 0.0425(3) 0.0146(4) 0.0529(12) Uani 1 1 d . . . . .
H37A H 1.122790 0.039575 0.069344 0.079 Uiso 1 1 calc GR . . . .
H37B H 1.138097 -0.009839 -0.000739 0.079 Uiso 1 1 calc GR . . . .
H37C H 1.037680 0.044921 0.025582 0.079 Uiso 1 1 calc GR . . . .
C132 C 0.2290(3) 1.0096(3) 0.3331(3) 0.0429(11) Uani 1 1 d . . . . .
H132 H 0.168676 1.018052 0.377915 0.051 Uiso 1 1 calc R . . . .
C133 C 0.2376(4) 1.0443(3) 0.2429(4) 0.0562(14) Uani 1 1 d . . . . .
H133 H 0.182458 1.075147 0.226525 0.067 Uiso 1 1 calc R . . . .
C128 C 0.0957(9) 0.9971(4) 0.6963(7) 0.064(3) Uani 0.551(7) 1 d D U P A 1
H12A H 0.155108 1.028569 0.689529 0.095 Uiso 0.551(7) 1 calc GR . P A 1
H12B H 0.042412 0.992239 0.754499 0.095 Uiso 0.551(7) 1 calc GR . P A 1
H12C H 0.070149 1.029558 0.646869 0.095 Uiso 0.551(7) 1 calc GR . P A 1
C126 C 0.1392(8) 0.8547(7) 0.7860(5) 0.061(3) Uani 0.551(7) 1 d D U P A 1
H12D H 0.171976 0.798552 0.785509 0.091 Uiso 0.551(7) 1 calc GR . P A 1
H12E H 0.072552 0.843345 0.834270 0.091 Uiso 0.551(7) 1 calc GR . P A 1
H12F H 0.181679 0.890344 0.796850 0.091 Uiso 0.551(7) 1 calc GR . P A 1
C130 C 0.0408(5) 0.8482(6) 0.6995(6) 0.055(2) Uani 0.551(7) 1 d D U P A 1
H13A H 0.023658 0.873543 0.644232 0.083 Uiso 0.551(7) 1 calc GR . P A 1
H13B H -0.019498 0.847133 0.752098 0.083 Uiso 0.551(7) 1 calc GR . P A 1
H13C H 0.064258 0.788029 0.706130 0.083 Uiso 0.551(7) 1 calc GR . P A 1
C129 C 0.0351(6) 0.9307(9) 0.6590(7) 0.057(3) Uani 0.449(7) 1 d D U P A 2
H12G H 0.049398 0.988290 0.610315 0.086 Uiso 0.449(7) 1 calc GR . P A 2
H12H H -0.026363 0.933643 0.709016 0.086 Uiso 0.449(7) 1 calc GR . P A 2
H12I H 0.024710 0.886362 0.635969 0.086 Uiso 0.449(7) 1 calc GR . P A 2
C125 C 0.1127(11) 0.8166(7) 0.7713(8) 0.071(3) Uani 0.449(7) 1 d D U P A 2
H12J H 0.118495 0.768386 0.748214 0.106 Uiso 0.449(7) 1 calc GR . P A 2
H12K H 0.045627 0.813255 0.817786 0.106 Uiso 0.449(7) 1 calc GR . P A 2
H12L H 0.165522 0.811725 0.797694 0.106 Uiso 0.449(7) 1 calc GR . P A 2
C127 C 0.1392(9) 0.9847(6) 0.7172(8) 0.052(3) Uani 0.449(7) 1 d D U P A 2
H12M H 0.201444 0.978638 0.731911 0.077 Uiso 0.449(7) 1 calc GR . P A 2
H12N H 0.080704 0.987421 0.769611 0.077 Uiso 0.449(7) 1 calc GR . P A 2
H12O H 0.144092 1.038932 0.665345 0.077 Uiso 0.449(7) 1 calc GR . P A 2
H8 H 0.711(4) 0.640(3) 0.529(3) 0.062 Uiso 1 1 d R . . . .
H7 H 0.836(4) 0.530(3) 0.494(3) 0.062 Uiso 1 1 d R . . . .
loop_
_atom_site_aniso_label
_atom_site_aniso_U_11
_atom_site_aniso_U_22
_atom_site_aniso_U_33
_atom_site_aniso_U_23
_atom_site_aniso_U_13
_atom_site_aniso_U_12
Ni1 0.0336(4) 0.0366(4) 0.0301(4) -0.0209(3) -0.0224(3) 0.0178(3)
N21 0.0286(16) 0.0332(17) 0.0270(16) -0.0145(14) -0.0176(13) 0.0115(13)
N20 0.0233(15) 0.0330(17) 0.0249(16) -0.0152(14) -0.0109(13) 0.0097(13)
N22 0.0344(17) 0.0329(17) 0.0302(17) -0.0180(14) -0.0216(14) 0.0144(14)
N24 0.0296(16) 0.0381(18) 0.0310(17) -0.0197(15) -0.0191(14) 0.0121(14)
N110 0.0326(17) 0.0356(18) 0.0301(17) -0.0162(15) -0.0170(14) 0.0146(14)
N23 0.0381(18) 0.0361(18) 0.0340(17) -0.0204(15) -0.0241(15) 0.0162(15)
C32 0.0262(19) 0.030(2) 0.031(2) -0.0141(17) -0.0082(16) 0.0041(15)
C21 0.0230(18) 0.033(2) 0.0250(19) -0.0115(16) -0.0131(15) 0.0058(15)
C2 0.0275(18) 0.030(2) 0.0217(18) -0.0111(16) -0.0132(15) 0.0073(15)
C151 0.0289(19) 0.032(2) 0.030(2) -0.0192(17) -0.0177(16) 0.0117(16)
C56 0.0277(19) 0.036(2) 0.0280(19) -0.0166(17) -0.0125(16) 0.0101(16)
C9 0.038(2) 0.038(2) 0.030(2) -0.0203(18) -0.0223(17) 0.0161(17)
C30 0.0225(18) 0.032(2) 0.0243(18) -0.0119(16) -0.0089(15) 0.0051(15)
C18 0.031(2) 0.033(2) 0.0247(19) -0.0154(17) -0.0138(16) 0.0095(16)
C3 0.0258(18) 0.032(2) 0.0235(18) -0.0128(16) -0.0123(15) 0.0049(15)
C44 0.0274(19) 0.031(2) 0.0232(18) -0.0127(16) -0.0126(15) 0.0065(15)
C156 0.033(2) 0.033(2) 0.031(2) -0.0191(17) -0.0151(17) 0.0101(16)
C29 0.0289(19) 0.030(2) 0.0285(19) -0.0152(17) -0.0129(16) 0.0053(16)
C6 0.0298(19) 0.031(2) 0.0269(19) -0.0122(16) -0.0189(16) 0.0111(16)
C53 0.0288(19) 0.045(2) 0.030(2) -0.0213(19) -0.0187(17) 0.0153(17)
C4 0.0274(18) 0.029(2) 0.0248(18) -0.0124(16) -0.0136(15) 0.0090(15)
C28 0.0252(19) 0.035(2) 0.031(2) -0.0160(17) -0.0129(16) 0.0062(16)
C152 0.031(2) 0.038(2) 0.033(2) -0.0195(18) -0.0197(17) 0.0113(17)
C54 0.037(2) 0.034(2) 0.029(2) -0.0127(17) -0.0170(17) 0.0166(17)
C22 0.0278(19) 0.0271(19) 0.0249(19) -0.0123(16) -0.0105(15) 0.0034(15)
C27 0.0283(19) 0.031(2) 0.0262(19) -0.0113(16) -0.0133(16) 0.0058(16)
C19 0.0298(19) 0.031(2) 0.0225(18) -0.0123(16) -0.0147(15) 0.0094(16)
C118 0.032(2) 0.0263(19) 0.036(2) -0.0159(17) -0.0136(17) 0.0062(16)
C31 0.030(2) 0.036(2) 0.033(2) -0.0173(18) -0.0147(17) 0.0114(17)
C112 0.034(2) 0.028(2) 0.031(2) -0.0158(17) -0.0167(17) 0.0082(16)
C123 0.035(2) 0.037(2) 0.037(2) -0.0191(19) -0.0129(18) 0.0088(17)
C10 0.038(2) 0.038(2) 0.034(2) -0.0227(18) -0.0217(18) 0.0166(18)
C14 0.032(2) 0.033(2) 0.0255(19) -0.0153(16) -0.0165(16) 0.0103(16)
C36 0.033(2) 0.043(2) 0.042(2) -0.025(2) -0.0210(18) 0.0183(18)
C17 0.039(2) 0.047(2) 0.037(2) -0.029(2) -0.0242(18) 0.0168(19)
C59 0.034(2) 0.036(2) 0.041(2) -0.0170(19) -0.0180(18) 0.0049(17)
C23 0.037(2) 0.037(2) 0.036(2) -0.0222(18) -0.0225(18) 0.0160(17)
C55 0.036(2) 0.031(2) 0.034(2) -0.0122(18) -0.0135(18) 0.0073(17)
C154 0.029(2) 0.042(2) 0.040(2) -0.0246(19) -0.0186(18) 0.0142(17)
C153 0.039(2) 0.033(2) 0.034(2) -0.0167(18) -0.0245(18) 0.0144(17)
C34 0.030(2) 0.035(2) 0.040(2) -0.0198(18) -0.0135(17) 0.0107(17)
C7 0.031(2) 0.035(2) 0.030(2) -0.0160(17) -0.0178(17) 0.0100(16)
C33 0.0276(19) 0.035(2) 0.030(2) -0.0180(17) -0.0126(16) 0.0069(16)
C157 0.038(2) 0.044(2) 0.034(2) -0.0147(19) -0.0219(18) 0.0114(18)
C38 0.0246(18) 0.034(2) 0.0287(19) -0.0140(17) -0.0127(16) 0.0071(16)
C51 0.0249(18) 0.030(2) 0.0226(18) -0.0123(16) -0.0128(15) 0.0111(15)
C5 0.0277(19) 0.029(2) 0.030(2) -0.0123(16) -0.0167(16) 0.0071(15)
C119 0.034(2) 0.0246(19) 0.036(2) -0.0157(17) -0.0164(17) 0.0092(16)
C122 0.032(2) 0.041(2) 0.052(3) -0.027(2) -0.011(2) 0.0075(18)
C52 0.0309(19) 0.036(2) 0.0218(18) -0.0165(16) -0.0139(16) 0.0099(16)
C40 0.032(2) 0.046(2) 0.036(2) -0.0168(19) -0.0213(18) 0.0123(18)
C57 0.033(2) 0.040(2) 0.032(2) -0.0176(18) -0.0202(17) 0.0096(17)
C15 0.0284(19) 0.031(2) 0.0276(19) -0.0124(16) -0.0168(16) 0.0114(16)
C111 0.030(2) 0.034(2) 0.031(2) -0.0170(17) -0.0155(16) 0.0131(16)
C120 0.034(2) 0.029(2) 0.043(2) -0.0185(18) -0.0217(18) 0.0114(16)
C11 0.033(2) 0.036(2) 0.033(2) -0.0202(18) -0.0210(17) 0.0149(17)
C43 0.0279(19) 0.032(2) 0.0228(18) -0.0112(16) -0.0123(15) 0.0088(16)
C39 0.029(2) 0.035(2) 0.030(2) -0.0135(17) -0.0133(16) 0.0123(16)
C26 0.036(2) 0.035(2) 0.034(2) -0.0202(18) -0.0165(17) 0.0106(17)
C42 0.032(2) 0.038(2) 0.028(2) -0.0162(18) -0.0143(16) 0.0102(17)
C116 0.039(2) 0.036(2) 0.027(2) -0.0158(17) -0.0138(17) 0.0072(17)
C13 0.031(2) 0.032(2) 0.033(2) -0.0170(17) -0.0187(17) 0.0143(16)
C24 0.037(2) 0.041(2) 0.042(2) -0.025(2) -0.0271(19) 0.0173(18)
C113 0.033(2) 0.035(2) 0.036(2) -0.0189(18) -0.0175(17) 0.0108(17)
C8 0.042(2) 0.035(2) 0.033(2) -0.0207(18) -0.0237(18) 0.0139(18)
C41 0.032(2) 0.050(3) 0.033(2) -0.021(2) -0.0191(17) 0.0104(18)
C25 0.038(2) 0.039(2) 0.034(2) -0.0203(18) -0.0216(18) 0.0069(18)
C121 0.030(2) 0.034(2) 0.055(3) -0.019(2) -0.0181(19) 0.0096(17)
C117 0.034(2) 0.0246(19) 0.029(2) -0.0118(16) -0.0137(16) 0.0075(16)
C12 0.035(2) 0.032(2) 0.0269(19) -0.0147(17) -0.0187(16) 0.0113(16)
C155 0.028(2) 0.041(2) 0.038(2) -0.0234(19) -0.0110(17) 0.0090(17)
C131 0.046(2) 0.029(2) 0.051(3) -0.0195(19) -0.031(2) 0.0126(18)
C16 0.032(2) 0.054(3) 0.039(2) -0.029(2) -0.0235(18) 0.0164(19)
C114 0.037(2) 0.043(2) 0.043(2) -0.023(2) -0.0244(19) 0.0113(18)
C35 0.043(2) 0.059(3) 0.067(3) -0.048(3) -0.036(2) 0.028(2)
C137 0.035(2) 0.034(2) 0.029(2) -0.0145(17) -0.0187(17) 0.0140(17)
C159 0.041(2) 0.042(2) 0.032(2) -0.0130(19) -0.0129(18) 0.0062(19)
C58 0.049(3) 0.039(2) 0.037(2) -0.005(2) -0.020(2) 0.016(2)
C124 0.027(2) 0.063(3) 0.056(3) -0.035(3) -0.008(2) 0.013(2)
C115 0.047(2) 0.035(2) 0.032(2) -0.0155(18) -0.0248(19) 0.0084(18)
C135 0.063(3) 0.045(3) 0.042(2) -0.020(2) -0.034(2) 0.021(2)
C158 0.036(2) 0.049(3) 0.054(3) -0.028(2) -0.022(2) 0.015(2)
C136 0.047(2) 0.034(2) 0.044(2) -0.0218(19) -0.030(2) 0.0178(18)
C134 0.079(4) 0.057(3) 0.054(3) -0.026(3) -0.051(3) 0.025(3)
C37 0.050(3) 0.036(3) 0.072(3) -0.027(2) -0.013(2) 0.006(2)
C132 0.046(2) 0.041(2) 0.064(3) -0.027(2) -0.040(2) 0.018(2)
C133 0.066(3) 0.054(3) 0.080(4) -0.033(3) -0.059(3) 0.029(3)
C128 0.060(5) 0.052(4) 0.046(4) -0.011(4) 0.004(4) 0.033(4)
C126 0.047(4) 0.043(5) 0.061(4) -0.006(4) 0.006(3) -0.001(4)
C130 0.030(4) 0.071(5) 0.055(5) -0.026(4) 0.001(3) 0.000(4)
C129 0.030(4) 0.077(6) 0.056(5) -0.026(5) -0.002(4) 0.006(4)
C125 0.054(5) 0.046(5) 0.071(5) -0.006(4) 0.010(4) 0.003(4)
C127 0.046(5) 0.051(4) 0.041(4) -0.013(4) -0.008(4) 0.034(4)
loop_
_atom_type_symbol
_atom_type_description
_atom_type_scat_dispersion_real
_atom_type_scat_dispersion_imag
_atom_type_scat_source
C C 0.0181 0.0091 'International Tables Vol C Tables 4.2.6.8 and 6.1.1.4'
H H 0.0000 0.0000 'International Tables Vol C Tables 4.2.6.8 and 6.1.1.4'
N N 0.0311 0.0180 'International Tables Vol C Tables 4.2.6.8 and 6.1.1.4'
Ni Ni -3.0029 0.5091 'International Tables Vol C Tables 4.2.6.8 and 6.1.1.4'
loop_
_exptl_crystal_face_index_h
_exptl_crystal_face_index_k
_exptl_crystal_face_index_l
_exptl_crystal_face_perp_dist
2 -6 -8 0.0194
2 -9 -6 0.0147
-1 -10 -8 0.0209
-5 -8 -9 0.0302
-3 -8 -10 0.0183
9 3 3 0.0282
-2 6 8 0.0155
6 -7 -2 0.0221
-5 5 -6 0.0368
5 -8 -3 0.0221
1 -1 -10 0.0290
1 8 -3 0.0329
1 -10 -5 0.0194
4 5 -4 0.0320
-2 6 8 0.0155
-8 0 -7 0.0445
loop_
_geom_angle_atom_site_label_1
_geom_angle_atom_site_label_2
_geom_angle_atom_site_label_3
_geom_angle
_geom_angle_site_symmetry_1
_geom_angle_site_symmetry_3
_geom_angle_publ_flag
N21 Ni1 N23 175.78(16) . . ?
N22 Ni1 N21 94.90(13) . . ?
N22 Ni1 N23 85.38(13) . . ?
N24 Ni1 N21 84.98(13) . . ?
N24 Ni1 N22 173.43(16) . . ?
N24 Ni1 N23 94.27(13) . . ?
C4 N21 Ni1 128.8(2) . . ?
C19 N21 Ni1 116.5(2) . . ?
C19 N21 C4 113.7(3) . . ?
C21 N20 C44 111.5(3) . . ?
C21 N20 C29 124.6(3) . . ?
C29 N20 C44 123.9(3) . . ?
C9 N22 Ni1 115.4(2) . . ?
C6 N22 Ni1 128.3(2) . . ?
C6 N22 C9 110.4(3) . . ?
C18 N24 Ni1 117.2(2) . . ?
C15 N24 Ni1 129.9(2) . . ?
C15 N24 C18 111.9(3) . . ?
C119 N110 C111 113.8(3) . . ?
C119 N110 C137 114.2(3) . . ?
C111 N110 C137 103.3(3) . . ?
C10 N23 Ni1 114.6(2) . . ?
C10 N23 C13 113.3(3) . . ?
C13 N23 Ni1 129.8(2) . . ?
C31 C32 C34 120.5(3) . . ?
C31 C32 C33 117.3(3) . . ?
C33 C32 C34 121.9(3) . . ?
N20 C21 C2 106.1(3) . . ?
N20 C21 C22 117.5(3) . . ?
C2 C21 C22 136.1(3) . . ?
C21 C2 C3 108.1(3) . . ?
C21 C2 C19 144.7(3) . . ?
C3 C2 C19 107.0(3) . . ?
C156 C151 C152 120.0(3) . . ?
C156 C151 C14 119.2(3) . . ?
C152 C151 C14 120.8(3) . . ?
C55 C56 C59 118.4(4) . . ?
C55 C56 C51 119.2(3) . . ?
C51 C56 C59 122.3(3) . . ?
N22 C9 C10 110.0(3) . . ?
N22 C9 C8 107.5(3) . . ?
C8 C9 C10 140.1(4) . . ?
C29 C30 C38 119.3(3) . . ?
C31 C30 C29 117.7(3) . . ?
C31 C30 C38 123.1(3) . . ?
N24 C18 C19 109.7(3) . . ?
N24 C18 C17 105.4(3) . . ?
C17 C18 C19 144.3(3) . . ?
C2 C3 C4 108.0(3) . . ?
C44 C3 C2 108.1(3) . . ?
C44 C3 C4 143.9(3) . . ?
N20 C44 C43 117.9(3) . . ?
C3 C44 N20 106.0(3) . . ?
C3 C44 C43 136.0(3) . . ?
C151 C156 C155 119.3(4) . . ?
C151 C156 C159 123.0(3) . . ?
C155 C156 C159 117.7(4) . . ?
N20 C29 C30 119.1(3) . . ?
N20 C29 C28 119.2(3) . . ?
C28 C29 C30 121.6(3) . . ?
N22 C6 C7 106.8(3) . . ?
N22 C6 C5 120.9(3) . . ?
C7 C6 C5 132.2(3) . . ?
C54 C53 H53 118.5 . . ?
C54 C53 C52 123.0(4) . . ?
C52 C53 H53 118.5 . . ?
N21 C4 C3 103.5(3) . . ?
C5 C4 N21 120.6(3) . . ?
C5 C4 C3 135.0(3) . . ?
C29 C28 C27 118.8(3) . . ?
C33 C28 C29 117.6(3) . . ?
C33 C28 C27 123.5(3) . . ?
C151 C152 C157 122.1(3) . . ?
C153 C152 C151 118.5(4) . . ?
C153 C152 C157 119.4(3) . . ?
C53 C54 C55 118.1(3) . . ?
C53 C54 C58 122.3(4) . . ?
C55 C54 C58 119.6(4) . . ?
C27 C22 C21 120.1(3) . . ?
C23 C22 C21 120.2(3) . . ?
C23 C22 C27 119.7(3) . . ?
C22 C27 C28 119.6(3) . . ?
C26 C27 C28 122.7(3) . . ?
C26 C27 C22 117.6(3) . . ?
N21 C19 C2 106.8(3) . . ?
N21 C19 C18 111.6(3) . . ?
C2 C19 C18 141.6(3) . . ?
C123 C118 C117 121.5(3) . . ?
C119 C118 C123 119.1(4) . . ?
C119 C118 C117 119.4(3) . . ?
C32 C31 H31 118.5 . . ?
C30 C31 C32 123.1(3) . . ?
C30 C31 H31 118.5 . . ?
C113 C112 C111 120.5(3) . . ?
C117 C112 C111 119.4(3) . . ?
C117 C112 C113 120.0(3) . . ?
C118 C123 H123 118.9 . . ?
C122 C123 C118 122.3(4) . . ?
C122 C123 H123 118.9 . . ?
N23 C10 C9 113.9(3) . . ?
N23 C10 C11 111.2(3) . . ?
C9 C10 C11 134.9(3) . . ?
C15 C14 C151 115.7(3) . . ?
C13 C14 C151 120.9(3) . . ?
C13 C14 C15 123.1(3) . . ?
H36A C36 H36B 109.5 . . ?
H36A C36 H36C 109.5 . . ?
H36B C36 H36C 109.5 . . ?
C34 C36 H36A 109.5 . . ?
C34 C36 H36B 109.5 . . ?
C34 C36 H36C 109.5 . . ?
C18 C17 H17 125.9 . . ?
C16 C17 C18 108.3(3) . . ?
C16 C17 H17 125.9 . . ?
C56 C59 H59A 109.5 . . ?
C56 C59 H59B 109.5 . . ?
C56 C59 H59C 109.5 . . ?
H59A C59 H59B 109.5 . . ?
H59A C59 H59C 109.5 . . ?
H59B C59 H59C 109.5 . . ?
C22 C23 H23 119.3 . . ?
C24 C23 C22 121.3(3) . . ?
C24 C23 H23 119.3 . . ?
C56 C55 C54 121.8(4) . . ?
C56 C55 H55 119.1 . . ?
C54 C55 H55 119.1 . . ?
C153 C154 C158 121.1(4) . . ?
C155 C154 C153 118.6(3) . . ?
C155 C154 C158 120.3(4) . . ?
C152 C153 H153 119.0 . . ?
C154 C153 C152 122.1(4) . . ?
C154 C153 H153 119.0 . . ?
C36 C34 C32 111.5(3) . . ?
C36 C34 C37 107.8(3) . . ?
C35 C34 C32 112.3(3) . . ?
C35 C34 C36 107.6(3) . . ?
C35 C34 C37 110.6(4) . . ?
C37 C34 C32 106.9(3) . . ?
C6 C7 H7 131(3) . . ?
C8 C7 C6 108.2(3) . . ?
C8 C7 H7 121(3) . . ?
C32 C33 C28 122.6(3) . . ?
C32 C33 H33 118.7 . . ?
C28 C33 H33 118.7 . . ?
C152 C157 H15A 109.5 . . ?
C152 C157 H15B 109.5 . . ?
C152 C157 H15C 109.5 . . ?
H15A C157 H15B 109.5 . . ?
H15A C157 H15C 109.5 . . ?
H15B C157 H15C 109.5 . . ?
C43 C38 C30 119.5(3) . . ?
C39 C38 C30 122.6(3) . . ?
C39 C38 C43 117.8(3) . . ?
C56 C51 C5 118.8(3) . . ?
C56 C51 C52 119.6(3) . . ?
C52 C51 C5 121.3(3) . . ?
C6 C5 C51 112.8(3) . . ?
C4 C5 C6 123.3(3) . . ?
C4 C5 C51 122.5(3) . . ?
C118 C119 N110 119.8(3) . . ?
C118 C119 C120 120.1(3) . . ?
C120 C119 N110 119.9(3) . . ?
C123 C122 C124 121.2(4) . . ?
C121 C122 C123 116.6(4) . . ?
C121 C122 C124 122.2(4) . . ?
C53 C52 C51 118.1(4) . . ?
C53 C52 C57 119.3(3) . . ?
C51 C52 C57 122.5(3) . . ?
C39 C40 H40 119.9 . . ?
C39 C40 C41 120.1(3) . . ?
C41 C40 H40 119.9 . . ?
C52 C57 H57A 109.5 . . ?
C52 C57 H57B 109.5 . . ?
C52 C57 H57C 109.5 . . ?
H57A C57 H57B 109.5 . . ?
H57A C57 H57C 109.5 . . ?
H57B C57 H57C 109.5 . . ?
N24 C15 C14 121.5(3) . . ?
N24 C15 C16 106.2(3) . . ?
C16 C15 C14 132.2(3) . . ?
N110 C111 C112 113.4(3) . . ?
N110 C111 H111 107.9 . . ?
N110 C111 C11 103.0(3) . . ?
C112 C111 H111 107.9 . . ?
C112 C111 C11 116.4(3) . . ?
C11 C111 H111 107.9 . . ?
C119 C120 C131 118.7(4) . . ?
C121 C120 C119 117.8(4) . . ?
C121 C120 C131 123.4(4) . . ?
C10 C11 C111 113.3(3) . . ?
C10 C11 H11 111.6 . . ?
C10 C11 C12 103.0(3) . . ?
C111 C11 H11 111.6 . . ?
C111 C11 C12 105.3(3) . . ?
C12 C11 H11 111.6 . . ?
C38 C43 C44 119.5(3) . . ?
C42 C43 C44 120.8(3) . . ?
C42 C43 C38 119.6(3) . . ?
C38 C39 H39 119.3 . . ?
C40 C39 C38 121.5(3) . . ?
C40 C39 H39 119.3 . . ?
C27 C26 H26 119.0 . . ?
C25 C26 C27 122.1(3) . . ?
C25 C26 H26 119.0 . . ?
C43 C42 H42 119.6 . . ?
C41 C42 C43 120.9(3) . . ?
C41 C42 H42 119.6 . . ?
C117 C116 H116 119.9 . . ?
C115 C116 H116 119.9 . . ?
C115 C116 C117 120.3(3) . . ?
N23 C13 C12 106.8(3) . . ?
C14 C13 N23 121.0(3) . . ?
C14 C13 C12 131.9(3) . . ?
C23 C24 H24 120.2 . . ?
C23 C24 C25 119.6(3) . . ?
C25 C24 H24 120.2 . . ?
C112 C113 H113 119.9 . . ?
C114 C113 C112 120.1(3) . . ?
C114 C113 H113 119.9 . . ?
C9 C8 H8 128(3) . . ?
C7 C8 C9 106.9(3) . . ?
C7 C8 H8 125(3) . . ?
C40 C41 H41 120.1 . . ?
C42 C41 C40 119.8(4) . . ?
C42 C41 H41 120.1 . . ?
C26 C25 C24 119.6(3) . . ?
C26 C25 H25 120.2 . . ?
C24 C25 H25 120.2 . . ?
C122 C121 C120 124.1(4) . . ?
C122 C121 H121 117.9 . . ?
C120 C121 H121 117.9 . . ?
C112 C117 C118 117.9(3) . . ?
C116 C117 C118 123.0(3) . . ?
C116 C117 C112 119.0(3) . . ?
C11 C12 H12 110.9 . . ?
C11 C12 C137 102.0(3) . . ?
C13 C12 C11 104.3(3) . . ?
C13 C12 H12 110.9 . . ?
C13 C12 C137 117.3(3) . . ?
C137 C12 H12 110.9 . . ?
C156 C155 H155 119.3 . . ?
C154 C155 C156 121.4(4) . . ?
C154 C155 H155 119.3 . . ?
C136 C131 C120 119.1(3) . . ?
C136 C131 C132 117.6(4) . . ?
C132 C131 C120 123.0(4) . . ?
C17 C16 C15 108.2(3) . . ?
C17 C16 H16 125.9 . . ?
C15 C16 H16 125.9 . . ?
C113 C114 H114 120.2 . . ?
C115 C114 C113 119.7(4) . . ?
C115 C114 H114 120.2 . . ?
C34 C35 H35A 109.5 . . ?
C34 C35 H35B 109.5 . . ?
C34 C35 H35C 109.5 . . ?
H35A C35 H35B 109.5 . . ?
H35A C35 H35C 109.5 . . ?
H35B C35 H35C 109.5 . . ?
N110 C137 C12 104.3(3) . . ?
N110 C137 H137 107.8 . . ?
N110 C137 C136 111.1(3) . . ?
C12 C137 H137 107.8 . . ?
C136 C137 C12 117.6(3) . . ?
C136 C137 H137 107.8 . . ?
C156 C159 H15D 109.5 . . ?
C156 C159 H15E 109.5 . . ?
C156 C159 H15F 109.5 . . ?
H15D C159 H15E 109.5 . . ?
H15D C159 H15F 109.5 . . ?
H15E C159 H15F 109.5 . . ?
C54 C58 H58A 109.5 . . ?
C54 C58 H58B 109.5 . . ?
C54 C58 H58C 109.5 . . ?
H58A C58 H58B 109.5 . . ?
H58A C58 H58C 109.5 . . ?
H58B C58 H58C 109.5 . . ?
C122 C124 C126 112.6(5) . . ?
C122 C124 C130 112.4(4) . . ?
C122 C124 C129 109.1(5) . . ?
C122 C124 C127 103.0(5) . . ?
C128 C124 C122 111.0(5) . . ?
C128 C124 C126 103.8(6) . . ?
C128 C124 C130 115.6(7) . . ?
C130 C124 C126 100.7(6) . . ?
C125 C124 C122 111.7(6) . . ?
C125 C124 C129 115.0(8) . . ?
C125 C124 C127 114.0(8) . . ?
C127 C124 C129 103.0(7) . . ?
C116 C115 H115 119.6 . . ?
C114 C115 C116 120.7(4) . . ?
C114 C115 H115 119.6 . . ?
C136 C135 H135 119.9 . . ?
C136 C135 C134 120.2(4) . . ?
C134 C135 H135 119.9 . . ?
C154 C158 H15G 109.5 . . ?
C154 C158 H15H 109.5 . . ?
C154 C158 H15I 109.5 . . ?
H15G C158 H15H 109.5 . . ?
H15G C158 H15I 109.5 . . ?
H15H C158 H15I 109.5 . . ?
C131 C136 C137 118.1(3) . . ?
C135 C136 C131 121.1(4) . . ?
C135 C136 C137 120.8(4) . . ?
C135 C134 H134 120.2 . . ?
C133 C134 C135 119.6(4) . . ?
C133 C134 H134 120.2 . . ?
C34 C37 H37A 109.5 . . ?
C34 C37 H37B 109.5 . . ?
C34 C37 H37C 109.5 . . ?
H37A C37 H37B 109.5 . . ?
H37A C37 H37C 109.5 . . ?
H37B C37 H37C 109.5 . . ?
C131 C132 H132 119.6 . . ?
C133 C132 C131 120.7(4) . . ?
C133 C132 H132 119.6 . . ?
C134 C133 C132 120.7(4) . . ?
C134 C133 H133 119.6 . . ?
C132 C133 H133 119.6 . . ?
C124 C128 H12A 109.5 . . ?
C124 C128 H12B 109.5 . . ?
C124 C128 H12C 109.5 . . ?
H12A C128 H12B 109.5 . . ?
H12A C128 H12C 109.5 . . ?
H12B C128 H12C 109.5 . . ?
C124 C126 H12D 109.5 . . ?
C124 C126 H12E 109.5 . . ?
C124 C126 H12F 109.5 . . ?
H12D C126 H12E 109.5 . . ?
H12D C126 H12F 109.5 . . ?
H12E C126 H12F 109.5 . . ?
C124 C130 H13A 109.5 . . ?
C124 C130 H13B 109.5 . . ?
C124 C130 H13C 109.5 . . ?
H13A C130 H13B 109.5 . . ?
H13A C130 H13C 109.5 . . ?
H13B C130 H13C 109.5 . . ?
C124 C129 H12G 109.5 . . ?
C124 C129 H12H 109.5 . . ?
C124 C129 H12I 109.5 . . ?
H12G C129 H12H 109.5 . . ?
H12G C129 H12I 109.5 . . ?
H12H C129 H12I 109.5 . . ?
C124 C125 H12J 109.5 . . ?
C124 C125 H12K 109.5 . . ?
C124 C125 H12L 109.5 . . ?
H12J C125 H12K 109.5 . . ?
H12J C125 H12L 109.5 . . ?
H12K C125 H12L 109.5 . . ?
C124 C127 H12M 109.5 . . ?
C124 C127 H12N 109.5 . . ?
C124 C127 H12O 109.5 . . ?
H12M C127 H12N 109.5 . . ?
H12M C127 H12O 109.5 . . ?
H12N C127 H12O 109.5 . . ?
loop_
_geom_bond_atom_site_label_1
_geom_bond_atom_site_label_2
_geom_bond_distance
_geom_bond_site_symmetry_2
_geom_bond_publ_flag
Ni1 N21 1.798(3) . ?
Ni1 N22 1.791(3) . ?
Ni1 N24 1.784(3) . ?
Ni1 N23 1.811(3) . ?
N21 C4 1.411(4) . ?
N21 C19 1.356(4) . ?
N20 C21 1.387(4) . ?
N20 C44 1.396(4) . ?
N20 C29 1.390(4) . ?
N22 C9 1.379(5) . ?
N22 C6 1.356(4) . ?
N24 C18 1.377(4) . ?
N24 C15 1.350(5) . ?
N110 C119 1.422(5) . ?
N110 C111 1.465(4) . ?
N110 C137 1.467(5) . ?
N23 C10 1.330(5) . ?
N23 C13 1.402(5) . ?
C32 C31 1.391(5) . ?
C32 C34 1.534(5) . ?
C32 C33 1.395(5) . ?
C21 C2 1.392(5) . ?
C21 C22 1.449(5) . ?
C2 C3 1.434(5) . ?
C2 C19 1.451(5) . ?
C151 C156 1.400(5) . ?
C151 C152 1.406(5) . ?
C151 C14 1.502(5) . ?
C56 C59 1.521(5) . ?
C56 C55 1.385(5) . ?
C56 C51 1.406(5) . ?
C9 C10 1.431(5) . ?
C9 C8 1.414(5) . ?
C30 C29 1.408(5) . ?
C30 C31 1.386(5) . ?
C30 C38 1.466(5) . ?
C18 C19 1.456(5) . ?
C18 C17 1.403(5) . ?
C3 C44 1.389(5) . ?
C3 C4 1.470(5) . ?
C44 C43 1.446(5) . ?
C156 C155 1.405(5) . ?
C156 C159 1.501(5) . ?
C29 C28 1.406(5) . ?
C6 C7 1.426(5) . ?
C6 C5 1.463(5) . ?
C53 H53 0.9500 . ?
C53 C54 1.362(6) . ?
C53 C52 1.397(5) . ?
C4 C5 1.381(5) . ?
C28 C27 1.474(5) . ?
C28 C33 1.396(5) . ?
C152 C153 1.402(5) . ?
C152 C157 1.503(6) . ?
C54 C55 1.390(6) . ?
C54 C58 1.520(5) . ?
C22 C27 1.409(5) . ?
C22 C23 1.394(5) . ?
C27 C26 1.395(5) . ?
C118 C123 1.398(5) . ?
C118 C119 1.397(5) . ?
C118 C117 1.481(5) . ?
C31 H31 0.9500 . ?
C112 C111 1.482(5) . ?
C112 C113 1.396(5) . ?
C112 C117 1.393(5) . ?
C123 H123 0.9500 . ?
C123 C122 1.397(6) . ?
C10 C11 1.501(5) . ?
C14 C15 1.478(5) . ?
C14 C13 1.364(5) . ?
C36 H36A 0.9800 . ?
C36 H36B 0.9800 . ?
C36 H36C 0.9800 . ?
C36 C34 1.525(5) . ?
C17 H17 0.9500 . ?
C17 C16 1.383(5) . ?
C59 H59A 0.9800 . ?
C59 H59B 0.9800 . ?
C59 H59C 0.9800 . ?
C23 H23 0.9500 . ?
C23 C24 1.373(5) . ?
C55 H55 0.9500 . ?
C154 C153 1.385(6) . ?
C154 C155 1.378(6) . ?
C154 C158 1.512(5) . ?
C153 H153 0.9500 . ?
C34 C35 1.523(6) . ?
C34 C37 1.531(6) . ?
C7 C8 1.389(5) . ?
C7 H7 0.96(5) . ?
C33 H33 0.9500 . ?
C157 H15A 0.9800 . ?
C157 H15B 0.9800 . ?
C157 H15C 0.9800 . ?
C38 C43 1.418(5) . ?
C38 C39 1.401(5) . ?
C51 C5 1.513(5) . ?
C51 C52 1.408(5) . ?
C119 C120 1.416(5) . ?
C122 C121 1.383(6) . ?
C122 C124 1.532(6) . ?
C52 C57 1.496(6) . ?
C40 H40 0.9500 . ?
C40 C39 1.371(5) . ?
C40 C41 1.389(5) . ?
C57 H57A 0.9800 . ?
C57 H57B 0.9800 . ?
C57 H57C 0.9800 . ?
C15 C16 1.403(5) . ?
C111 H111 1.0000 . ?
C111 C11 1.560(5) . ?
C120 C121 1.387(6) . ?
C120 C131 1.460(6) . ?
C11 H11 1.0000 . ?
C11 C12 1.564(5) . ?
C43 C42 1.391(5) . ?
C39 H39 0.9500 . ?
C26 H26 0.9500 . ?
C26 C25 1.380(5) . ?
C42 H42 0.9500 . ?
C42 C41 1.375(5) . ?
C116 H116 0.9500 . ?
C116 C117 1.392(5) . ?
C116 C115 1.385(5) . ?
C13 C12 1.525(5) . ?
C24 H24 0.9500 . ?
C24 C25 1.387(5) . ?
C113 H113 0.9500 . ?
C113 C114 1.386(5) . ?
C8 H8 0.99(5) . ?
C41 H41 0.9500 . ?
C25 H25 0.9500 . ?
C121 H121 0.9500 . ?
C12 H12 1.0000 . ?
C12 C137 1.565(5) . ?
C155 H155 0.9500 . ?
C131 C136 1.399(6) . ?
C131 C132 1.406(5) . ?
C16 H16 0.9500 . ?
C114 H114 0.9500 . ?
C114 C115 1.374(6) . ?
C35 H35A 0.9800 . ?
C35 H35B 0.9800 . ?
C35 H35C 0.9800 . ?
C137 H137 1.0000 . ?
C137 C136 1.505(5) . ?
C159 H15D 0.9800 . ?
C159 H15E 0.9800 . ?
C159 H15F 0.9800 . ?
C58 H58A 0.9800 . ?
C58 H58B 0.9800 . ?
C58 H58C 0.9800 . ?
C124 C128 1.530(5) . ?
C124 C126 1.548(5) . ?
C124 C130 1.543(5) . ?
C124 C129 1.546(5) . ?
C124 C125 1.529(5) . ?
C124 C127 1.541(5) . ?
C115 H115 0.9500 . ?
C135 H135 0.9500 . ?
C135 C136 1.377(6) . ?
C135 C134 1.390(6) . ?
C158 H15G 0.9800 . ?
C158 H15H 0.9800 . ?
C158 H15I 0.9800 . ?
C134 H134 0.9500 . ?
C134 C133 1.369(7) . ?
C37 H37A 0.9800 . ?
C37 H37B 0.9800 . ?
C37 H37C 0.9800 . ?
C132 H132 0.9500 . ?
C132 C133 1.381(7) . ?
C133 H133 0.9500 . ?
C128 H12A 0.9800 . ?
C128 H12B 0.9800 . ?
C128 H12C 0.9800 . ?
C126 H12D 0.9800 . ?
C126 H12E 0.9800 . ?
C126 H12F 0.9800 . ?
C130 H13A 0.9800 . ?
C130 H13B 0.9800 . ?
C130 H13C 0.9800 . ?
C129 H12G 0.9800 . ?
C129 H12H 0.9800 . ?
C129 H12I 0.9800 . ?
C125 H12J 0.9800 . ?
C125 H12K 0.9800 . ?
C125 H12L 0.9800 . ?
C127 H12M 0.9800 . ?
C127 H12N 0.9800 . ?
C127 H12O 0.9800 . ?
loop_
_exptl_oxdiff_crystal_face_indexfrac_h
_exptl_oxdiff_crystal_face_indexfrac_k
_exptl_oxdiff_crystal_face_indexfrac_l
_exptl_oxdiff_crystal_face_x
_exptl_oxdiff_crystal_face_y
_exptl_oxdiff_crystal_face_z
2.2202 -6.4297 -8.3210 -0.0078 0.0079 0.9999
1.7657 -9.0988 -6.4279 -0.1977 0.3505 0.9154
-1.3774 -9.6761 -7.6426 -0.5103 0.2366 0.8268
-5.2471 -7.5784 -9.2712 -0.7603 -0.1463 0.6329
-2.7421 -7.8035 -9.8141 -0.5278 -0.1040 0.8430
8.8920 2.6662 2.5535 0.9428 0.1750 0.2837
-2.1604 6.3375 8.4114 0.0081 0.0075 -0.9999
5.9432 -6.8186 -2.3812 0.2642 0.5461 0.7950
-4.7265 5.3532 -6.1758 -0.1286 -0.9917 -0.0092
4.6809 -8.2196 -2.8171 0.0825 0.6011 0.7949
0.5242 -0.7157 -9.5769 0.1163 -0.5960 0.7945
0.5947 8.2218 -3.0021 0.4789 -0.8778 -0.0090
1.4915 -9.9326 -4.8589 -0.2798 0.5226 0.8054
3.9766 5.0639 -4.3026 0.6630 -0.6233 0.4148
-2.3314 6.2625 8.3019 -0.0105 0.0019 -0.9999
-8.2091 0.3461 -7.1138 -0.6869 -0.7267 0.0090
