#------------------------------------------------------------------------------
#$Date: 2022-05-17 00:55:14 +0300 (Tue, 17 May 2022) $
#$Revision: 275455 $
#$URL: file:///home/coder/svn-repositories/cod/cif/7/13/01/7130100.cif $
#------------------------------------------------------------------------------
#
# This file is available in the Crystallography Open Database (COD),
# http://www.crystallography.net/
#
# All data on this site have been placed in the public domain by the
# contributors.
#
data_7130100
loop_
_publ_author_name
'Li, Sha'
'Sun, Yahan'
'Li, Xiaofang'
'Smaga, Oskar'
'Koniarz, Sebastian'
'St\;epie\'n, Marcin'
'Chmielewski, Piotr J.'
_publ_section_title
;
 1,3-Dipolar cycloaddition of polycyclic azomethine ylide to norcorroles:
 towards dibenzoullazine-fused derivatives
;
_journal_name_full               'Chemical Communications'
_journal_paper_doi               10.1039/D2CC02071H
_journal_year                    2022
_chemical_formula_moiety         'C84 H72 N6 Ni'
_chemical_formula_sum            'C84 H72 N6 Ni'
_chemical_formula_weight         1224.18
_space_group_crystal_system      triclinic
_space_group_IT_number           2
_space_group_name_Hall           '-P 1'
_space_group_name_H-M_alt        'P -1'
_atom_sites_solution_hydrogens   geom
_atom_sites_solution_primary     dual
_audit_creation_date             2020-06-08
_audit_creation_method
;
Olex2 1.2
(compiled 2018.05.29 svn.r3508 for OlexSys, GUI svn.r5506)
;
_audit_update_record
;
2021-10-20 deposited with the CCDC.	2022-05-16 downloaded from the CCDC.
;
_cell_angle_alpha                82.8440(10)
_cell_angle_beta                 73.1320(10)
_cell_angle_gamma                85.1290(10)
_cell_formula_units_Z            2
_cell_length_a                   13.20400(10)
_cell_length_b                   14.04420(10)
_cell_length_c                   21.9436(2)
_cell_measurement_reflns_used    46919
_cell_measurement_temperature    169.99(13)
_cell_measurement_theta_max      75.2310
_cell_measurement_theta_min      3.1810
_cell_volume                     3858.71(6)
_computing_cell_refinement       'CrysAlisPro 1.171.40.67a (Rigaku OD, 2019)'
_computing_data_collection       'CrysAlisPro 1.171.40.67a (Rigaku OD, 2019)'
_computing_data_reduction        'CrysAlisPro 1.171.40.67a (Rigaku OD, 2019)'
_computing_molecular_graphics    'Olex2 (Dolomanov et al., 2009)'
_computing_publication_material  'Olex2 (Dolomanov et al., 2009)'
_computing_structure_refinement  'ShelXL (Sheldrick, 2015)'
_computing_structure_solution    'ShelXT (Sheldrick, 2015)'
_diffrn_ambient_environment      N~2~
_diffrn_ambient_temperature      169.99(13)
_diffrn_detector                 'Hybrid Pixel Array Detector'
_diffrn_detector_area_resol_mean 10.0000
_diffrn_detector_type            HyPix
_diffrn_measured_fraction_theta_full 0.999
_diffrn_measured_fraction_theta_max 0.999
_diffrn_measurement_details
;
List of Runs (angles in degrees, time in seconds):

  # Type    Start    End  Width  t~exp~   \w     \q     \k     \f   Frames
#--------------------------------------------------------------------------
  1  \w    -27.00  30.00   0.50    0.15    --   47.20 -19.00 -60.00  114
  2  \w    -24.00  29.00   0.50    0.15    --   47.20 -19.00-150.00  106
  3  \w     57.00 106.00   0.50    1.00    --  103.25 -94.00 -60.00   98
  4  \w     51.00  78.00   0.50    0.15    --   47.20-133.00 -58.00   54
  5  \w     32.00 117.00   0.50    1.00    --  103.25-133.00 -58.00  170
  6  \w     51.00  78.00   0.50    1.00    --  103.25 -94.00 -30.00   54
  7  \w     36.00  74.00   0.50    1.00    --  103.25 -61.00   0.00   76
  8  \w     31.00 104.00   0.50    1.00    --  103.25 -94.00   0.00  146
  9  \w     42.00  99.00   0.50    0.15    --   47.20-136.00 122.00  114
 10  \w     65.00 119.00   0.50    1.00    --  103.25-136.00 122.00  108
 11  \w     32.00  93.00   0.50    1.00    --  103.25-125.00 150.00  122
 12  \w     32.00  88.00   0.50    1.00    --  103.25 -94.00 120.00  112
 13  \w     31.00  72.00   0.50    1.00    --  103.25 -61.00 150.00   82
 14  \w     91.00 168.00   0.50    1.00    --  103.25  45.00 120.00  154
 15  \w     98.00 123.00   0.50    1.00    --  103.25 133.00   8.00   50
 16  \w     92.00 127.00   0.50    1.00    --  103.25  30.00 -60.00   70
 17  \w    132.00 169.00   0.50    1.00    --  103.25  15.00-150.00   74
 18  \w    133.00 169.00   0.50    1.00    --  103.25  45.00-180.00   72
 19  \w     99.00 153.00   0.50    1.00    --  103.25  30.00-180.00  108
 20  \w     78.00 104.00   0.50    0.15    --   47.20 136.00-172.00   52
 21  \w     76.00 140.00   0.50    1.00    --  103.25 136.00-172.00  128
 22  \w     25.00 120.00   0.50    0.15    --   47.20  77.00-180.00  190
 23  \w     33.00  74.00   0.50    1.00    --  103.25 -61.00 -90.00   82
 24  \w     33.00  93.00   0.50    1.00    --  103.25-125.00 -30.00  120
 25  \w     50.00  90.00   0.50    1.00    --  103.25-125.00-120.00   80
 26  \w     50.00  75.00   0.50    1.00    --  103.25 -61.00-180.00   50
 27  \w    -84.00 -59.00   0.50    0.15    --  -47.20 136.00-172.00   50
 28  \w    -59.00 -27.00   0.50    1.00    --  -99.00 136.00-172.00   64
 29  \w    -52.00 -26.00   0.50    1.00    --  -99.00  61.00-120.00   52
 30  \w    -22.00  25.00   0.50    0.15    --  -47.20  19.00-180.00   94
 31  \w     -1.00  24.00   0.50    0.15    --  -47.20  19.00-150.00   50
 32  \w    -55.00 -28.00   0.50    1.00    --  -99.00  77.00  30.00   54
 33  \w    -54.00 -26.00   0.50    1.00    --  -99.00  61.00  60.00   56
 34  \w    -67.00 -27.00   0.50    1.00    --  -99.00  61.00 150.00   80
 35  \w    -83.00 -58.00   0.50    1.00    --  -99.00 144.00  90.37   50
 36  \w    -87.00 -52.00   0.50    0.15    --  -47.20 133.00   8.00   70
 37  \w   -117.00 -26.00   0.50    1.00    --  -99.00 133.00   8.00  182
 38  \w   -119.00 -63.00   0.50    1.00    --  -99.00 136.00-172.00  112
 39  \w   -122.00 -48.00   0.50    1.00    --  -99.00 139.00 -82.77  148
 40  \w   -126.00-100.00   0.50    1.00    --  -99.00 144.00  90.37   52
 41  \w   -124.00 -52.00   0.50    1.00    --  -99.00 151.00 100.34  144
 42  \w   -154.00-106.00   0.50    1.00    --  -99.00 -30.00 -60.00   96
 43  \w   -119.00 -87.00   0.50    0.15    --  -47.20-125.00-120.00   64
 44  \w   -119.00 -69.00   0.50    0.15    --  -47.20-133.00 -58.00  100
 45  \w   -125.00 -90.00   0.50    1.00    --  -99.00-133.00 -58.00   70
 46  \w   -166.00 -87.00   0.50    1.00    --  -99.00 -45.00   0.00  158
 47  \w   -119.00 -70.00   0.50    0.15    --  -47.20-136.00 122.00   98
 48  \w   -142.00-117.00   0.50    1.00    --  -99.00-136.00 122.00   50
 49  \w   -163.00 -96.00   0.50    1.00    --  -99.00 -45.00 120.00  134
;
_diffrn_measurement_device       'four-circle diffractometer'
_diffrn_measurement_device_type  'XtaLAB Synergy R, HyPix'
_diffrn_measurement_method       '\w scans'
_diffrn_orient_matrix_type
'CrysAlisPro convention (1999,Acta A55,543-557)'
_diffrn_orient_matrix_UB_11      0.0755190000
_diffrn_orient_matrix_UB_12      -0.0135014000
_diffrn_orient_matrix_UB_13      -0.0669240000
_diffrn_orient_matrix_UB_21      0.0816962000
_diffrn_orient_matrix_UB_22      -0.0545877000
_diffrn_orient_matrix_UB_23      0.0310546000
_diffrn_orient_matrix_UB_31      -0.0502505000
_diffrn_orient_matrix_UB_32      -0.0953518000
_diffrn_orient_matrix_UB_33      0.0006667000
_diffrn_radiation_monochromator  mirror
_diffrn_radiation_probe          x-ray
_diffrn_radiation_type           CuK\a
_diffrn_radiation_wavelength     1.54184
_diffrn_reflns_av_R_equivalents  0.0206
_diffrn_reflns_av_unetI/netI     0.0166
_diffrn_reflns_Laue_measured_fraction_full 0.999
_diffrn_reflns_Laue_measured_fraction_max 0.999
_diffrn_reflns_limit_h_max       15
_diffrn_reflns_limit_h_min       -15
_diffrn_reflns_limit_k_max       15
_diffrn_reflns_limit_k_min       -16
_diffrn_reflns_limit_l_max       26
_diffrn_reflns_limit_l_min       -26
_diffrn_reflns_number            59921
_diffrn_reflns_point_group_measured_fraction_full 0.999
_diffrn_reflns_point_group_measured_fraction_max 0.999
_diffrn_reflns_theta_full        67.684
_diffrn_reflns_theta_max         68.251
_diffrn_reflns_theta_min         2.116
_diffrn_source                   'Rotating-anode X-ray tube'
_diffrn_source_type              'PhotonJet R (Cu) X-ray Source'
_exptl_absorpt_coefficient_mu    0.694
_exptl_absorpt_correction_T_max  1.00000
_exptl_absorpt_correction_T_min  0.94918
_exptl_absorpt_correction_type   multi-scan
_exptl_absorpt_process_details
;
CrysAlisPro 1.171.40.67a (Rigaku Oxford Diffraction, 2019)
Empirical absorption correction using spherical harmonics,
 implemented in SCALE3 ABSPACK scaling algorithm.
;
_exptl_crystal_colour            brown
_exptl_crystal_colour_primary    brown
_exptl_crystal_density_diffrn    1.054
_exptl_crystal_description       plate
_exptl_crystal_F_000             1292
_exptl_crystal_size_max          0.25
_exptl_crystal_size_mid          0.25
_exptl_crystal_size_min          0.05
_refine_diff_density_max         0.249
_refine_diff_density_min         -0.453
_refine_diff_density_rms         0.048
_refine_ls_extinction_method     none
_refine_ls_goodness_of_fit_ref   1.091
_refine_ls_hydrogen_treatment    constr
_refine_ls_matrix_type           full
_refine_ls_number_parameters     863
_refine_ls_number_reflns         14118
_refine_ls_number_restraints     72
_refine_ls_restrained_S_all      1.097
_refine_ls_R_factor_all          0.0503
_refine_ls_R_factor_gt           0.0488
_refine_ls_shift/su_max          0.001
_refine_ls_shift/su_mean         0.000
_refine_ls_structure_factor_coef Fsqd
_refine_ls_weighting_details
'w=1/[\s^2^(Fo^2^)+(0.0657P)^2^+2.4301P] where P=(Fo^2^+2Fc^2^)/3'
_refine_ls_weighting_scheme      calc
_refine_ls_wR_factor_gt          0.1379
_refine_ls_wR_factor_ref         0.1390
_reflns_Friedel_coverage         0.000
_reflns_number_gt                13358
_reflns_number_total             14118
_reflns_threshold_expression     'I > 2\s(I)'
_cod_data_source_file            d2cc02071h3.cif
_cod_data_source_block           tx2379_sq
_cod_database_code               7130100
_shelx_shelxl_version_number     2016/6
_chemical_oxdiff_formula         CHNSNi
_shelx_space_group_comment
;
The symmetry employed for this shelxl refinement is uniquely defined
by the following loop, which should always be used as a source of
symmetry information in preference to the above space-group names.
They are only intended as comments.
;
_olex2_refinement_description
;
1. Fixed Uiso
 At 1.2 times of:
  All C(H) groups
 At 1.5 times of:
  All C(H,H,H) groups
2. Restrained distances
 C38-C37 = C40A-C37 = C40-C37 = C39A-C37 = C39-C37 = C38A-C37
 1.53 with sigma of 0.01
3. Uiso/Uaniso restraints and constraints
C40 \\sim C40A \\sim C38 \\sim C38A \\sim C39 \\sim C39A: within 1.7A with
sigma of 0.02 and sigma for terminal atoms of 0.04
Uanis(C40A) \\sim Ueq, Uanis(C38) \\sim Ueq, Uanis(C38A) \\sim Ueq, Uanis(C39)
\\sim Ueq, Uanis(C39A) \\sim Ueq, Uanis(C40) \\sim Ueq: with sigma of 0.01 and
sigma for terminal atoms of 0.02
4. Others
 Sof(C38A)=Sof(H38D)=Sof(H38E)=Sof(H38F)=Sof(C39A)=Sof(H39D)=Sof(H39E)=
 Sof(H39F)=Sof(C40A)=Sof(H40D)=Sof(H40E)=Sof(H40F)=1-FVAR(1)
 Sof(C38)=Sof(H38A)=Sof(H38B)=Sof(H38C)=Sof(C39)=Sof(H39A)=Sof(H39B)=Sof(H39C)=
 Sof(C40)=Sof(H40A)=Sof(H40B)=Sof(H40C)=FVAR(1)
5.a Ternary CH refined with riding coordinates:
 C15(H15), C16(H16), C17(H17), C30(H30), C50(H50), C51(H51), C52(H52), C64(H64)
5.b Aromatic/amide H refined with riding coordinates:
 C6(H6), C7(H7), C13(H13), C14(H14), C23(H23), C25(H25), C26(H26), C27(H27),
 C28(H28), C29(H29), C33(H33), C34(H34), C35(H35), C36(H36), C43(H43), C45(H45),
  C54(H54), C55(H55), C56(H56), C57(H57), C65(H65), C66(H66), C67(H67),
 C68(H68), C69(H69), C71(H71), C78(H78), C80(H80)
5.c Idealised Me refined as rotating group:
 C38(H38A,H38B,H38C), C39(H39A,H39B,H39C), C40(H40A,H40B,H40C), C47(H47A,H47B,
 H47C), C48(H48A,H48B,H48C), C49(H49A,H49B,H49C), C73(H73A,H73B,H73C), C74(H74A,
 H74B,H74C), C75(H75A,H75B,H75C), C82(H82A,H82B,H82C), C83(H83A,H83B,H83C),
 C84(H84A,H84B,H84C), C38A(H38D,H38E,H38F), C39A(H39D,H39E,H39F), C40A(H40D,
 H40E,H40F)
;
_shelx_res_file
;
TITL tx2379_a.res in P-1
    tx2379_sq.res
    created by SHELXL-2016/6 at 14:22:50 on 08-Jun-2020
REM Old TITL tx2379 in P-1
REM SHELXT solution in P-1: R1 0.171, Rweak 0.007, Alpha 0.053
REM <I/s> 0.000 for 0 systematic absences, Orientation as input
REM Formula found by SHELXT: C84 N1 Ni
CELL 1.54184 13.204 14.0442 21.9436 82.844 73.132 85.129
ZERR 2 0.0001 0.0001 0.0002 0.001 0.001 0.001
LATT 1
SFAC C H N Ni
UNIT 168 144 12 2
DFIX 1.53 0.01 C38 C37 C40A C37 C40 C37 C39A C37 C39 C37 C38A C37
SIMU 0.02 0.04 1.7 C40 C40A C38 C38A C39 C39A
ISOR 0.01 0.02 C40A C38 C38A C39 C39A C40

L.S. 10 0 121
PLAN  10
BOND
ABIN
fmap 2
acta
OMIT 7 2 6
OMIT 5 -2 8
OMIT 0 4 0
REM <olex2.extras>
REM <HklSrc "%.\\tx2379_sq.hkl">
REM </olex2.extras>

WGHT    0.065700    2.430100
FVAR       4.26362   0.58220
NI1   4    0.695393    0.769855    0.753392    11.00000    0.02901    0.01608 =
         0.04425   -0.00542   -0.01164   -0.00322
N1    3    0.561038    0.814296    0.772215    11.00000    0.03245    0.01923 =
         0.04391   -0.00582   -0.01348   -0.00281
N2    3    0.725523    0.891971    0.755215    11.00000    0.03172    0.02027 =
         0.03917   -0.00459   -0.01044   -0.00415
N3    3    0.830791    0.729829    0.724026    11.00000    0.03324    0.01762 =
         0.04561   -0.00364   -0.01236   -0.00401
N4    3    0.664211    0.651876    0.741430    11.00000    0.03101    0.01914 =
         0.04657   -0.00444   -0.01498   -0.00228
N5    3    0.651106    0.355202    0.750496    11.00000    0.03849    0.01803 =
         0.04676   -0.00345   -0.02062   -0.00226
N6    3    0.719169    1.062350    0.860804    11.00000    0.04207    0.02221 =
         0.03981   -0.00507   -0.01488   -0.00566
C1    1    0.543681    0.911951    0.775460    11.00000    0.03595    0.01860 =
         0.03857   -0.00550   -0.01308   -0.00184
C2    1    0.642888    0.954583    0.765465    11.00000    0.03671    0.01920 =
         0.03343   -0.00327   -0.01184   -0.00255
C3    1    0.823763    0.933480    0.738287    11.00000    0.03504    0.02072 =
         0.03675   -0.00127   -0.01228   -0.00740
C4    1    0.915749    0.882764    0.711436    11.00000    0.03512    0.02167 =
         0.03859   -0.00020   -0.01292   -0.00583
C5    1    0.918026    0.780357    0.701316    11.00000    0.03213    0.02239 =
         0.04107   -0.00096   -0.01249   -0.00514
C6    1    0.998899    0.719023    0.664918    11.00000    0.03228    0.02741 =
         0.04778   -0.00311   -0.00663   -0.00416
AFIX  43
H6    2    1.068668    0.734301    0.644593    11.00000   -1.20000
AFIX   0
C7    1    0.954727    0.632262    0.665264    11.00000    0.03645    0.02414 =
         0.04758   -0.00666   -0.01011   -0.00057
AFIX  43
H7    2    0.989395    0.579074    0.645393    11.00000   -1.20000
AFIX   0
C8    1    0.847346    0.640295    0.701489    11.00000    0.03484    0.01838 =
         0.04446   -0.00340   -0.01381   -0.00219
C9    1    0.748278    0.597767    0.712740    11.00000    0.03493    0.01817 =
         0.04087   -0.00278   -0.01471   -0.00104
C10   1    0.565858    0.615716    0.746445    11.00000    0.03467    0.01891 =
         0.04039   -0.00217   -0.01642   -0.00527
C11   1    0.474003    0.670587    0.764684    11.00000    0.03418    0.02132 =
         0.03852   -0.00259   -0.01684   -0.00351
C12   1    0.472409    0.772966    0.775105    11.00000    0.03262    0.02181 =
         0.03968   -0.00398   -0.01512   -0.00293
C13   1    0.389876    0.846714    0.783702    11.00000    0.03252    0.02634 =
         0.05755   -0.00716   -0.02023    0.00000
AFIX  43
H13   2    0.318668    0.838656    0.788586    11.00000   -1.20000
AFIX   0
C14   1    0.434775    0.932708    0.783481    11.00000    0.03792    0.02229 =
         0.05269   -0.00718   -0.01932    0.00361
AFIX  43
H14   2    0.399467    0.992748    0.787821    11.00000   -1.20000
AFIX   0
C15   1    0.676809    1.054727    0.762722    11.00000    0.03813    0.01782 =
         0.03678   -0.00091   -0.01240   -0.00457
AFIX  13
H15   2    0.657133    1.097650    0.728751    11.00000   -1.20000
AFIX   0
C16   1    0.800663    1.040100    0.748797    11.00000    0.03682    0.01986 =
         0.04016   -0.00163   -0.01082   -0.00699
AFIX  13
H16   2    0.836133    1.080585    0.710009    11.00000   -1.20000
AFIX   0
C17   1    0.819565    1.076471    0.809566    11.00000    0.04209    0.02121 =
         0.04712   -0.00605   -0.01414   -0.00920
AFIX  13
H17   2    0.826076    1.146098    0.799976    11.00000   -1.20000
AFIX   0
C18   1    0.912127    1.038620    0.833977    11.00000    0.04380    0.03399 =
         0.05347   -0.01164   -0.01919   -0.00881
C19   1    0.898411    0.958651    0.879779    11.00000    0.04374    0.03685 =
         0.05456   -0.01272   -0.02289   -0.00309
C20   1    0.797903    0.910606    0.896552    11.00000    0.04166    0.03237 =
         0.03882   -0.00527   -0.01792   -0.00353
C21   1    0.708053    0.965991    0.889082    11.00000    0.04233    0.02390 =
         0.03424   -0.00617   -0.01607   -0.00310
C22   1    0.608238    0.926953    0.911763    11.00000    0.04128    0.02668 =
         0.03176   -0.00259   -0.01401   -0.00255
C23   1    0.602510    0.828998    0.933086    11.00000    0.04295    0.02915 =
         0.03680    0.00063   -0.01208   -0.00450
AFIX  43
H23   2    0.536460    0.802472    0.946925    11.00000   -1.20000
AFIX   0
C24   1    0.691858    0.769793    0.934369    11.00000    0.04844    0.02751 =
         0.04188    0.00137   -0.01557   -0.00221
C25   1    0.788251    0.813444    0.918227    11.00000    0.04635    0.03349 =
         0.04404   -0.00309   -0.02096    0.00392
AFIX  43
H25   2    0.848318    0.776372    0.922062    11.00000   -1.20000
AFIX   0
C26   1    0.977966    0.930429    0.909564    11.00000    0.05391    0.05168 =
         0.07223   -0.00757   -0.03526   -0.00526
AFIX  43
H26   2    0.968422    0.878925    0.941371    11.00000   -1.20000
AFIX   0
C27   1    1.070905    0.978660    0.892019    11.00000    0.05884    0.06417 =
         0.10184   -0.01524   -0.04929   -0.00809
AFIX  43
H27   2    1.123396    0.959597    0.912187    11.00000   -1.20000
AFIX   0
C28   1    1.086002    1.055040    0.844644    11.00000    0.05149    0.06016 =
         0.10583   -0.01723   -0.03507   -0.01789
AFIX  43
H28   2    1.149561    1.085836    0.831926    11.00000   -1.20000
AFIX   0
C29   1    1.006310    1.085802    0.816039    11.00000    0.04903    0.04346 =
         0.07818   -0.01088   -0.02338   -0.01591
AFIX  43
H29   2    1.015957    1.138086    0.784809    11.00000   -1.20000
AFIX   0
C30   1    0.638001    1.098086    0.828802    11.00000    0.04285    0.01701 =
         0.04036   -0.00336   -0.01485   -0.00308
AFIX  13
H30   2    0.641620    1.168066    0.820172    11.00000   -1.20000
AFIX   0
C31   1    0.528319    1.076575    0.870381    11.00000    0.04265    0.02238 =
         0.03621   -0.00698   -0.01370   -0.00100
C32   1    0.514254    0.990288    0.910756    11.00000    0.04033    0.02668 =
         0.03293   -0.00562   -0.01345   -0.00226
C33   1    0.412357    0.969814    0.949376    11.00000    0.04390    0.03484 =
         0.03547   -0.00203   -0.01275   -0.00436
AFIX  43
H33   2    0.402218    0.913638    0.977261    11.00000   -1.20000
AFIX   0
C34   1    0.326454    1.032044    0.946634    11.00000    0.03938    0.04507 =
         0.04135   -0.00994   -0.01071   -0.00131
AFIX  43
H34   2    0.258864    1.016860    0.971886    11.00000   -1.20000
AFIX   0
C35   1    0.340904    1.116856    0.906384    11.00000    0.04392    0.03841 =
         0.04926   -0.01181   -0.01653    0.00886
AFIX  43
H35   2    0.283087    1.158646    0.904530    11.00000   -1.20000
AFIX   0
C36   1    0.441947    1.139490    0.868733    11.00000    0.04824    0.02676 =
         0.04564   -0.00653   -0.01573    0.00281
AFIX  43
H36   2    0.451772    1.197082    0.842292    11.00000   -1.20000
AFIX   0
C37   1    0.684599    0.660632    0.952480    11.00000    0.05774    0.02749 =
         0.05937    0.00586   -0.02173   -0.00107
PART 1
C38   1    0.671303    0.637160    1.020566    21.00000    0.09450    0.04073 =
         0.05948    0.01186   -0.03024   -0.01041
AFIX 137
H38A  2    0.732450    0.655035    1.030919    21.00000   -1.50000
H38B  2    0.663299    0.569339    1.031546    21.00000   -1.50000
H38C  2    0.609367    0.671579    1.044265    21.00000   -1.50000
AFIX   0
C39   1    0.590666    0.623138    0.932581    21.00000    0.06259    0.02863 =
         0.07316   -0.00096   -0.02874   -0.00751
AFIX 137
H39A  2    0.524425    0.649149    0.957911    21.00000   -1.50000
H39B  2    0.592046    0.554252    0.939633    21.00000   -1.50000
H39C  2    0.598368    0.643198    0.888089    21.00000   -1.50000
AFIX   0
C40   1    0.783018    0.607647    0.909863    21.00000    0.06044    0.03305 =
         0.08262   -0.00703   -0.01566    0.00059
AFIX 137
H40A  2    0.790170    0.629038    0.865597    21.00000   -1.50000
H40B  2    0.774145    0.539641    0.917260    21.00000   -1.50000
H40C  2    0.845461    0.621570    0.920438    21.00000   -1.50000
AFIX   0
PART 0
C41   1    1.018761    0.930687    0.685040    11.00000    0.03266    0.02067 =
         0.04197   -0.00419   -0.01126   -0.00446
C42   1    1.101339    0.908133    0.713546    11.00000    0.03678    0.02910 =
         0.04693   -0.00313   -0.01396   -0.00326
C43   1    1.194933    0.956339    0.688442    11.00000    0.03583    0.04204 =
         0.05898   -0.00834   -0.01915   -0.00629
AFIX  43
H43   2    1.249401    0.942051    0.707627    11.00000   -1.20000
AFIX   0
C44   1    1.209505    1.024768    0.635907    11.00000    0.03902    0.03502 =
         0.05358   -0.01068   -0.00713   -0.01340
C45   1    1.129195    1.042160    0.606363    11.00000    0.04501    0.02552 =
         0.04221   -0.00407   -0.00513   -0.01025
AFIX  43
H45   2    1.138589    1.086618    0.570288    11.00000   -1.20000
AFIX   0
C46   1    1.034831    0.994947    0.629171    11.00000    0.03804    0.02185 =
         0.03930   -0.00660   -0.01094   -0.00368
C47   1    0.955110    1.008821    0.591064    11.00000    0.04906    0.03310 =
         0.03945   -0.00355   -0.01559   -0.00523
AFIX 137
H47A  2    0.942701    0.947797    0.579854    11.00000   -1.50000
H47B  2    0.982138    1.050964    0.552773    11.00000   -1.50000
H47C  2    0.889813    1.036521    0.616340    11.00000   -1.50000
AFIX   0
C48   1    1.092023    0.831576    0.769232    11.00000    0.04464    0.04079 =
         0.05725    0.00489   -0.02141    0.00039
AFIX 137
H48A  2    1.018795    0.826080    0.792875    11.00000   -1.50000
H48B  2    1.130892    0.848686    0.796718    11.00000   -1.50000
H48C  2    1.120449    0.771204    0.753569    11.00000   -1.50000
AFIX   0
C49   1    1.311014    1.077514    0.610670    11.00000    0.04930    0.06186 =
         0.07358   -0.01358   -0.00700   -0.02924
AFIX 137
H49A  2    1.344606    1.065145    0.567143    11.00000   -1.50000
H49B  2    1.357748    1.055606    0.636423    11.00000   -1.50000
H49C  2    1.295118    1.145272    0.612426    11.00000   -1.50000
AFIX   0
C50   1    0.713922    0.506142    0.699215    11.00000    0.03526    0.01836 =
         0.04317   -0.00507   -0.01717   -0.00153
AFIX  13
H50   2    0.740797    0.496881    0.653670    11.00000   -1.20000
AFIX   0
C51   1    0.589948    0.516449    0.721271    11.00000    0.03559    0.01859 =
         0.03979   -0.00362   -0.01595   -0.00358
AFIX  13
H51   2    0.562245    0.515778    0.684458    11.00000   -1.20000
AFIX   0
C52   1    0.558028    0.423404    0.769151    11.00000    0.03969    0.01945 =
         0.04140   -0.00254   -0.01684   -0.00188
AFIX  13
H52   2    0.551508    0.439113    0.812450    11.00000   -1.20000
AFIX   0
C53   1    0.458192    0.378310    0.770474    11.00000    0.03952    0.01872 =
         0.04259    0.00175   -0.01507   -0.00198
C54   1    0.364075    0.395917    0.816878    11.00000    0.04647    0.02249 =
         0.04742   -0.00061   -0.01211   -0.00259
AFIX  43
H54   2    0.362435    0.436828    0.847412    11.00000   -1.20000
AFIX   0
C55   1    0.272383    0.353394    0.818399    11.00000    0.03946    0.03216 =
         0.05306    0.00330   -0.00746   -0.00067
AFIX  43
H55   2    0.209320    0.366692    0.849271    11.00000   -1.20000
AFIX   0
C56   1    0.274970    0.291129    0.773865    11.00000    0.03696    0.03636 =
         0.05819    0.00332   -0.01587   -0.00896
AFIX  43
H56   2    0.213490    0.262632    0.774643    11.00000   -1.20000
AFIX   0
C57   1    0.369028    0.271120    0.728073    11.00000    0.03864    0.03331 =
         0.05115   -0.00443   -0.01743   -0.00628
AFIX  43
H57   2    0.370436    0.228384    0.698658    11.00000   -1.20000
AFIX   0
C58   1    0.461925    0.314417    0.725539    11.00000    0.03724    0.02268 =
         0.04354   -0.00004   -0.01652   -0.00386
C59   1    0.565410    0.289825    0.680650    11.00000    0.03478    0.01988 =
         0.04490    0.00018   -0.01599   -0.00523
C60   1    0.658021    0.310145    0.694866    11.00000    0.03811    0.01456 =
         0.04426   -0.00020   -0.01913   -0.00375
C61   1    0.757546    0.280914    0.655201    11.00000    0.03528    0.01734 =
         0.04984   -0.00004   -0.01904   -0.00426
C62   1    0.854009    0.299194    0.672287    11.00000    0.03747    0.01865 =
         0.05768   -0.00017   -0.02335   -0.00290
C63   1    0.845294    0.365291    0.716315    11.00000    0.04160    0.01840 =
         0.06107   -0.00057   -0.02846   -0.00187
C64   1    0.740426    0.415971    0.742356    11.00000    0.04125    0.01937 =
         0.04754   -0.00346   -0.02272   -0.00438
AFIX  13
H64   2    0.737508    0.435661    0.784162    11.00000   -1.20000
AFIX   0
C65   1    0.933599    0.386208    0.733449    11.00000    0.05074    0.02812 =
         0.08020   -0.00966   -0.04039   -0.00017
AFIX  43
H65   2    0.926889    0.430175    0.762940    11.00000   -1.20000
AFIX   0
C66   1    1.031145    0.342162    0.706985    11.00000    0.04841    0.03600 =
         0.10640   -0.01200   -0.04839    0.00160
AFIX  43
H66   2    1.090492    0.357535    0.717730    11.00000   -1.20000
AFIX   0
C67   1    1.040362    0.275337    0.664595    11.00000    0.04044    0.03382 =
         0.09477   -0.01219   -0.03266    0.00436
AFIX  43
H67   2    1.105950    0.244732    0.647370    11.00000   -1.20000
AFIX   0
C68   1    0.952970    0.253247    0.647355    11.00000    0.04050    0.02766 =
         0.07133   -0.00966   -0.02399    0.00000
AFIX  43
H68   2    0.960135    0.207495    0.618973    11.00000   -1.20000
AFIX   0
C69   1    0.761823    0.235542    0.601423    11.00000    0.03476    0.02473 =
         0.04629   -0.00211   -0.01310   -0.00412
AFIX  43
H69   2    0.827773    0.217240    0.575112    11.00000   -1.20000
AFIX   0
C70   1    0.671225    0.216484    0.585477    11.00000    0.03843    0.02723 =
         0.04252   -0.00171   -0.01558   -0.00574
C71   1    0.574381    0.244300    0.626410    11.00000    0.03573    0.02991 =
         0.04628   -0.00326   -0.01767   -0.00843
AFIX  43
H71   2    0.512693    0.231900    0.617106    11.00000   -1.20000
AFIX   0
C72   1    0.678761    0.163301    0.527258    11.00000    0.04228    0.04441 =
         0.04319   -0.00914   -0.01534   -0.00809
C73   1    0.581493    0.185061    0.502522    11.00000    0.04879    0.08836 =
         0.04296   -0.01623   -0.01750   -0.00380
AFIX 137
H73A  2    0.519415    0.164632    0.535488    11.00000   -1.50000
H73B  2    0.589928    0.151324    0.465765    11.00000   -1.50000
H73C  2    0.574016    0.252902    0.490771    11.00000   -1.50000
AFIX   0
C74   1    0.684870    0.055259    0.548382    11.00000    0.13083    0.04292 =
         0.07553   -0.01939   -0.05681   -0.00370
AFIX 137
H74A  2    0.746310    0.039453    0.563368    11.00000   -1.50000
H74B  2    0.689732    0.020072    0.512745    11.00000   -1.50000
H74C  2    0.622394    0.038585    0.582262    11.00000   -1.50000
AFIX   0
C75   1    0.775928    0.189957    0.472084    11.00000    0.04949    0.09840 =
         0.06126   -0.03619   -0.00152   -0.01851
AFIX 137
H75A  2    0.773486    0.258164    0.460579    11.00000   -1.50000
H75B  2    0.776709    0.157577    0.435905    11.00000   -1.50000
H75C  2    0.838842    0.170935    0.484988    11.00000   -1.50000
AFIX   0
C76   1    0.366077    0.634516    0.775841    11.00000    0.03341    0.01784 =
         0.04289   -0.00519   -0.01683   -0.00189
C77   1    0.325818    0.620607    0.725143    11.00000    0.04114    0.02682 =
         0.04651   -0.00594   -0.02257   -0.00015
C78   1    0.222736    0.590946    0.739287    11.00000    0.04609    0.03186 =
         0.05985   -0.00784   -0.03151   -0.00406
AFIX  43
H78   2    0.197093    0.579105    0.705848    11.00000   -1.20000
AFIX   0
C79   1    0.157405    0.578523    0.801045    11.00000    0.03762    0.03091 =
         0.07049   -0.00501   -0.02370   -0.00580
C80   1    0.197395    0.595130    0.850326    11.00000    0.03766    0.03228 =
         0.05254   -0.00628   -0.00831   -0.00523
AFIX  43
H80   2    0.153903    0.587826    0.892200    11.00000   -1.20000
AFIX   0
C81   1    0.300378    0.622339    0.839160    11.00000    0.03944    0.02367 =
         0.04500   -0.00789   -0.01571   -0.00265
C82   1    0.340158    0.636661    0.894820    11.00000    0.05786    0.04609 =
         0.04230   -0.00739   -0.01684   -0.01315
AFIX 137
H82A  2    0.405567    0.599583    0.892010    11.00000   -1.50000
H82B  2    0.288592    0.616081    0.934128    11.00000   -1.50000
H82C  2    0.351719    0.703466    0.893869    11.00000   -1.50000
AFIX   0
C83   1    0.388945    0.641292    0.656814    11.00000    0.05721    0.07072 =
         0.04561   -0.00329   -0.02612   -0.00709
AFIX 137
H83A  2    0.438189    0.689445    0.653634    11.00000   -1.50000
H83B  2    0.342107    0.664117    0.631288    11.00000   -1.50000
H83C  2    0.427078    0.583597    0.641639    11.00000   -1.50000
AFIX   0
C84   1    0.045219    0.548946    0.814711    11.00000    0.04447    0.07396 =
         0.09574   -0.00325   -0.02624   -0.02188
AFIX 137
H84A  2    0.015492    0.578769    0.781530    11.00000   -1.50000
H84B  2    0.003644    0.568872    0.855193    11.00000   -1.50000
H84C  2    0.045075    0.480363    0.816114    11.00000   -1.50000
AFIX   0
PART 2
C38A  1    0.580232    0.638729    1.005630   -21.00000    0.07491    0.04181 =
         0.10827    0.03547   -0.03772   -0.01535
AFIX 137
H38D  2    0.574528    0.675450    1.040674   -21.00000   -1.50000
H38E  2    0.580540    0.571467    1.020437   -21.00000   -1.50000
H38F  2    0.521007    0.655709    0.988687   -21.00000   -1.50000
AFIX   0
C39A  1    0.700871    0.611998    0.894966   -21.00000    0.16727    0.02942 =
         0.07685    0.00021   -0.05129   -0.00819
AFIX 137
H39D  2    0.641713    0.627595    0.877783   -21.00000   -1.50000
H39E  2    0.706952    0.543778    0.905707   -21.00000   -1.50000
H39F  2    0.764633    0.632689    0.863645   -21.00000   -1.50000
AFIX   0
C40A  1    0.769932    0.620839    0.988277   -21.00000    0.05573    0.05068 =
         0.07555    0.01993   -0.02558    0.00624
AFIX 137
H40D  2    0.838891    0.618952    0.957933   -21.00000   -1.50000
H40E  2    0.753433    0.557213    1.008549   -21.00000   -1.50000
H40F  2    0.769321    0.662173    1.020099   -21.00000   -1.50000
AFIX   0
HKLF 4




REM  tx2379_a.res in P-1
REM R1 =  0.0488 for   13358 Fo > 4sig(Fo)  and  0.0503 for all   14118 data
REM    863 parameters refined using     72 restraints

END

WGHT      0.0660      2.4281

REM Highest difference peak  0.249,  deepest hole -0.453,  1-sigma level  0.048
Q1    1   1.3005  0.8716  0.6916  11.00000  0.05    0.25
Q2    1   0.4650  0.6389  0.6426  11.00000  0.05    0.24
Q3    1   0.6040  0.2981  0.6861  11.00000  0.05    0.23
Q4    1   0.5161  0.7948  0.7714  11.00000  0.05    0.23
Q5    1   1.3061  1.1273  0.5668  11.00000  0.05    0.22
Q6    1   0.7125  0.7797  0.7077  11.00000  0.05    0.22
Q7    1   0.5643  0.4767  0.7488  11.00000  0.05    0.21
Q8    1   1.0583  0.9162  0.6986  11.00000  0.05    0.21
Q9    1   0.6588  1.0763  0.7926  11.00000  0.05    0.21
Q10   1  -0.0064  0.6038  0.8123  11.00000  0.05    0.21
;
_shelx_res_checksum              56315
_shelx_fab_file
;
    0    0    1    -35.42      0.00
    0    0    3    -37.45      0.00
    0    0    4     55.09      0.00
    0    0    5    -32.49      0.00
    0    0    6     -4.06      0.00
    0    0    7    -22.11      0.00
    0    0    8     -9.22      0.00
    0    0    9    -15.57      0.00
    0    0   10     -2.91      0.00
    0    0   11    -11.86      0.00
    0    0   12      0.87      0.00
    0    0   13     -6.23      0.00
    0    0   14      2.82      0.00
    0    0   15     -1.73      0.00
    0    0   16      1.79      0.00
    0    0   17     -0.90      0.00
    0    0   18     -1.11      0.00
    0    0   19     -1.07      0.00
    0    0   20     -1.07      0.00
    0    0   21     -0.27      0.00
    0    0   22      0.26      0.00
    0    0   23      0.38      0.00
    0    0   24     -0.18      0.00
    0    0   25     -0.01      0.00
    0   -1   24     -0.99      0.00
    0   -1   23      1.10      0.00
    0   -1   22     -0.44      0.00
    0   -1   21      2.05      0.00
    0   -1   20      0.54      0.00
    0   -1   19      2.43      0.00
    0   -1   18     -0.92      0.00
    0   -1   17      2.74      0.00
    0   -1   16     -2.06      0.00
    0   -1   15      5.34      0.00
    0   -1   14     -0.30      0.00
    0   -1   13      7.43      0.00
    0   -1   12      0.93      0.00
    0   -1   11      5.43      0.00
    0   -1   10     -3.46      0.00
    0   -1    9      3.79      0.00
    0   -1    8    -17.62      0.00
    0   -1    7      6.98      0.00
    0   -1    6    -54.21      0.00
    0   -1    5      9.55      0.00
    0   -1    4   -115.38      0.00
    0   -1    3      8.87      0.00
    0   -1    2   -142.76      0.00
    0   -1    1     20.84      0.00
    0    1    0    -78.95      0.00
    0    1    1     49.57      0.00
    0    1    2     17.14      0.00
    0    1    3     62.78      0.00
    0    1    4     51.26      0.00
    0    1    5     42.55      0.00
    0    1    6     30.01      0.00
    0    1    7     14.40      0.00
    0    1    8      8.23      0.00
    0    1    9     -0.28      0.00
    0    1   10      1.83      0.00
    0    1   11     -5.54      0.00
    0    1   12      0.77      0.00
    0    1   13     -6.37      0.00
    0    1   14      0.39      0.00
    0    1   15     -3.51      0.00
    0    1   16      2.22      0.00
    0    1   17     -0.73      0.00
    0    1   18      3.36      0.00
    0    1   19     -0.57      0.00
    0    1   20      1.82      0.00
    0    1   21     -1.14      0.00
    0    1   22      0.79      0.00
    0    1   23     -0.31      0.00
    0    1   24      0.58      0.00
    0    1   25      0.60      0.00
    0   -2   24      0.52      0.00
    0   -2   23     -0.53      0.00
    0   -2   22     -0.40      0.00
    0   -2   21     -0.62      0.00
    0   -2   20     -0.08      0.00
    0   -2   19      0.63      0.00
    0   -2   18      0.43      0.00
    0   -2   17      1.47      0.00
    0   -2   16     -1.39      0.00
    0   -2   15      1.69      0.00
    0   -2   14     -3.48      0.00
    0   -2   13      3.65      0.00
    0   -2   12      1.09      0.00
    0   -2   11      3.18      0.00
    0   -2   10     13.43      0.00
    0   -2    9     -1.63      0.00
    0   -2    8     26.07      0.00
    0   -2    7     -1.98      0.00
    0   -2    6     32.33      0.00
    0   -2    5      8.55      0.00
    0   -2    4     14.66      0.00
    0   -2    3      8.63      0.00
    0   -2    2    -37.43      0.00
    0   -2    1    -28.67      0.00
    0    2    0    -77.29      0.00
    0    2    1    -69.16      0.00
    0    2    2    -54.70      0.00
    0    2    3    -58.33      0.00
    0    2    4     -1.88      0.00
    0    2    5    -14.55      0.00
    0    2    6     21.56      0.00
    0    2    7     12.42      0.00
    0    2    8     13.07      0.00
    0    2    9     14.03      0.00
    0    2   10      2.10      0.00
    0    2   11      6.53      0.00
    0    2   12     -0.85      0.00
    0    2   13      0.05      0.00
    0    2   14     -1.57      0.00
    0    2   15     -3.39      0.00
    0    2   16     -2.09      0.00
    0    2   17     -3.04      0.00
    0    2   18     -1.10      0.00
    0    2   19     -0.45      0.00
    0    2   20     -0.06      0.00
    0    2   21      0.48      0.00
    0    2   22      0.00      0.00
    0    2   23     -0.05      0.00
    0    2   24      0.05      0.00
    0    2   25      0.07      0.00
    0   -3   24      0.20      0.00
    0   -3   23     -0.73      0.00
    0   -3   22      0.16      0.00
    0   -3   21     -1.83      0.00
    0   -3   20     -0.14      0.00
    0   -3   19     -3.16      0.00
    0   -3   18      0.53      0.00
    0   -3   17     -2.50      0.00
    0   -3   16      1.59      0.00
    0   -3   15     -1.47      0.00
    0   -3   14     -1.22      0.00
    0   -3   13      0.28      0.00
    0   -3   12     -8.44      0.00
    0   -3   11      3.57      0.00
    0   -3   10    -11.44      0.00
    0   -3    9      3.69      0.00
    0   -3    8     -3.19      0.00
    0   -3    7     -4.11      0.00
    0   -3    6     16.70      0.00
    0   -3    5     -9.27      0.00
    0   -3    4     42.91      0.00
    0   -3    3     11.78      0.00
    0   -3    2     47.71      0.00
    0   -3    1     45.98      0.00
    0    3    0      4.22      0.00
    0    3    1     45.63      0.00
    0    3    2    -54.54      0.00
    0    3    3     12.50      0.00
    0    3    4    -69.01      0.00
    0    3    5     -7.85      0.00
    0    3    6    -38.67      0.00
    0    3    7     -2.78      0.00
    0    3    8     -8.43      0.00
    0    3    9      8.58      0.00
    0    3   10      0.78      0.00
    0    3   11     12.40      0.00
    0    3   12      0.36      0.00
    0    3   13      9.42      0.00
    0    3   14     -0.27      0.00
    0    3   15      5.52      0.00
    0    3   16     -1.62      0.00
    0    3   17      1.75      0.00
    0    3   18     -2.62      0.00
    0    3   19     -0.97      0.00
    0    3   20     -1.93      0.00
    0    3   21     -1.25      0.00
    0    3   22     -1.16      0.00
    0    3   23     -0.83      0.00
    0    3   24     -1.04      0.00
    0    3   25     -0.67      0.00
    0   -4   23      0.29      0.00
    0   -4   22     -0.51      0.00
    0   -4   21      1.07      0.00
    0   -4   20     -0.24      0.00
    0   -4   19      0.06      0.00
    0   -4   18     -0.21      0.00
    0   -4   17     -2.16      0.00
    0   -4   16      1.44      0.00
    0   -4   15     -3.34      0.00
    0   -4   14      4.24      0.00
    0   -4   13     -1.02      0.00
    0   -4   12      2.03      0.00
    0   -4   11      4.33      0.00
    0   -4   10     -5.39      0.00
    0   -4    9      7.83      0.00
    0   -4    8    -11.77      0.00
    0   -4    7      5.74      0.00
    0   -4    6    -13.97      0.00
    0   -4    5     -6.74      0.00
    0   -4    4     -7.28      0.00
    0   -4    3    -21.71      0.00
    0   -4    2     17.92      0.00
    0   -4    1    -15.14      0.00
    0    4    0     50.97      0.00
    0    4    1      6.16      0.00
    0    4    2     56.77      0.00
    0    4    3      6.70      0.00
    0    4    4     28.55      0.00
    0    4    5    -14.63      0.00
    0    4    6     -0.29      0.00
    0    4    7    -27.51      0.00
    0    4    8     -9.09      0.00
    0    4    9    -20.14      0.00
    0    4   10     -6.17      0.00
    0    4   11     -5.48      0.00
    0    4   12     -2.52      0.00
    0    4   13      3.19      0.00
    0    4   14      0.25      0.00
    0    4   15      5.22      0.00
    0    4   16      2.59      0.00
    0    4   17      5.01      0.00
    0    4   18      2.57      0.00
    0    4   19      3.70      0.00
    0    4   20      1.07      0.00
    0    4   21      2.06      0.00
    0    4   22      0.31      0.00
    0    4   23      1.19      0.00
    0    4   24      0.08      0.00
    0    4   25      0.57      0.00
    0   -5   23     -0.51      0.00
    0   -5   22      0.80      0.00
    0   -5   21     -0.76      0.00
    0   -5   20      1.04      0.00
    0   -5   19     -0.24      0.00
    0   -5   18      0.88      0.00
    0   -5   17     -0.80      0.00
    0   -5   16      0.01      0.00
    0   -5   15     -4.49      0.00
    0   -5   14      2.48      0.00
    0   -5   13    -10.68      0.00
    0   -5   12      8.06      0.00
    0   -5   11    -12.58      0.00
    0   -5   10      9.83      0.00
    0   -5    9     -6.39      0.00
    0   -5    8      5.45      0.00
    0   -5    7      3.50      0.00
    0   -5    6     -0.56      0.00
    0   -5    5      8.42      0.00
    0   -5    4     -5.66      0.00
    0   -5    3     -2.31      0.00
    0   -5    2    -10.60      0.00
    0   -5    1    -18.12      0.00
    0    5    0     -8.16      0.00
    0    5    1     -9.70      0.00
    0    5    2      5.77      0.00
    0    5    3     19.56      0.00
    0    5    4     15.98      0.00
    0    5    5     33.84      0.00
    0    5    6     12.79      0.00
    0    5    7     19.26      0.00
    0    5    8      5.43      0.00
    0    5    9     -3.80      0.00
    0    5   10      0.95      0.00
    0    5   11    -14.16      0.00
    0    5   12     -1.01      0.00
    0    5   13    -12.05      0.00
    0    5   14     -1.76      0.00
    0    5   15     -7.28      0.00
    0    5   16     -1.46      0.00
    0    5   17     -3.36      0.00
    0    5   18      0.04      0.00
    0    5   19     -0.73      0.00
    0    5   20      1.33      0.00
    0    5   21     -0.13      0.00
    0    5   22      1.68      0.00
    0    5   23     -0.10      0.00
    0    5   24      1.24      0.00
    0   -6   22     -0.93      0.00
    0   -6   21      2.37      0.00
    0   -6   20     -1.59      0.00
    0   -6   19      3.53      0.00
    0   -6   18     -1.37      0.00
    0   -6   17      5.68      0.00
    0   -6   16     -2.07      0.00
    0   -6   15      7.75      0.00
    0   -6   14     -3.74      0.00
    0   -6   13      6.29      0.00
    0   -6   12     -3.61      0.00
    0   -6   11      0.67      0.00
    0   -6   10     -1.37      0.00
    0   -6    9     -4.77      0.00
    0   -6    8      0.64      0.00
    0   -6    7     -5.29      0.00
    0   -6    6      0.06      0.00
    0   -6    5      2.25      0.00
    0   -6    4     -1.86      0.00
    0   -6    3     11.73      0.00
    0   -6    2     -4.68      0.00
    0   -6    1      5.12      0.00
    0    6    0    -10.17      0.00
    0    6    1    -16.23      0.00
    0    6    2    -11.90      0.00
    0    6    3    -24.40      0.00
    0    6    4     -3.35      0.00
    0    6    5     -9.81      0.00
    0    6    6      7.93      0.00
    0    6    7      8.15      0.00
    0    6    8     12.70      0.00
    0    6    9     12.97      0.00
    0    6   10     11.00      0.00
    0    6   11      6.59      0.00
    0    6   12      6.46      0.00
    0    6   13      0.26      0.00
    0    6   14      2.02      0.00
    0    6   15     -2.42      0.00
    0    6   16     -0.71      0.00
    0    6   17     -3.81      0.00
    0    6   18     -1.68      0.00
    0    6   19     -3.08      0.00
    0    6   20     -1.56      0.00
    0    6   21     -1.39      0.00
    0    6   22     -0.75      0.00
    0    6   23     -1.29      0.00
    0    6   24      0.23      0.00
    0   -7   21     -1.22      0.00
    0   -7   20      0.24      0.00
    0   -7   19     -1.32      0.00
    0   -7   18     -0.08      0.00
    0   -7   17     -0.51      0.00
    0   -7   16      0.10      0.00
    0   -7   15      2.57      0.00
    0   -7   14     -0.80      0.00
    0   -7   13      6.40      0.00
    0   -7   12     -1.57      0.00
    0   -7   11      7.07      0.00
    0   -7   10     -0.80      0.00
    0   -7    9      3.58      0.00
    0   -7    8      0.09      0.00
    0   -7    7     -1.16      0.00
    0   -7    6     -1.12      0.00
    0   -7    5     -3.46      0.00
    0   -7    4     -3.34      0.00
    0   -7    3      0.83      0.00
    0   -7    2     -1.48      0.00
    0   -7    1      9.78      0.00
    0    7    0      0.89      0.00
    0    7    1     10.28      0.00
    0    7    2     -5.28      0.00
    0    7    3     -0.72      0.00
    0    7    4    -15.77      0.00
    0    7    5     -8.15      0.00
    0    7    6    -20.04      0.00
    0    7    7     -3.92      0.00
    0    7    8    -16.36      0.00
    0    7    9      5.40      0.00
    0    7   10     -8.98      0.00
    0    7   11     10.24      0.00
    0    7   12     -1.98      0.00
    0    7   13      8.10      0.00
    0    7   14      2.01      0.00
    0    7   15      4.81      0.00
    0    7   16      2.39      0.00
    0    7   17      2.57      0.00
    0    7   18      0.84      0.00
    0    7   19      0.32      0.00
    0    7   20     -0.73      0.00
    0    7   21     -0.11      0.00
    0    7   22     -1.44      0.00
    0    7   23      0.57      0.00
    0   -8   20      0.35      0.00
    0   -8   19     -1.86      0.00
    0   -8   18     -0.33      0.00
    0   -8   17     -3.78      0.00
    0   -8   16     -0.60      0.00
    0   -8   15     -4.98      0.00
    0   -8   14     -0.30      0.00
    0   -8   13     -2.99      0.00
    0   -8   12     -1.43      0.00
    0   -8   11      1.69      0.00
    0   -8   10     -2.51      0.00
    0   -8    9      4.85      0.00
    0   -8    8     -0.91      0.00
    0   -8    7      3.93      0.00
    0   -8    6      1.65      0.00
    0   -8    5      0.21      0.00
    0   -8    4      0.13      0.00
    0   -8    3     -3.20      0.00
    0   -8    2     -3.78      0.00
    0   -8    1     -1.33      0.00
    0    8    0      0.39      0.00
    0    8    1      4.59      0.00
    0    8    2     10.93      0.00
    0    8    3      4.75      0.00
    0    8    4     14.38      0.00
    0    8    5     -3.31      0.00
    0    8    6      9.42      0.00
    0    8    7    -11.52      0.00
    0    8    8      3.15      0.00
    0    8    9    -12.94      0.00
    0    8   10     -1.25      0.00
    0    8   11     -7.55      0.00
    0    8   12     -2.72      0.00
    0    8   13     -1.39      0.00
    0    8   14     -1.95      0.00
    0    8   15      1.59      0.00
    0    8   16     -0.21      0.00
    0    8   17      2.49      0.00
    0    8   18      1.44      0.00
    0    8   19      1.82      0.00
    0    8   20      1.47      0.00
    0    8   21      0.69      0.00
    0    8   22      0.30      0.00
    0    8   23      0.60      0.00
    0   -9   19      0.55      0.00
    0   -9   18      1.66      0.00
    0   -9   17      0.23      0.00
    0   -9   16      1.48      0.00
    0   -9   15     -2.01      0.00
    0   -9   14      1.58      0.00
    0   -9   13     -5.03      0.00
    0   -9   12      1.89      0.00
    0   -9   11     -6.10      0.00
    0   -9   10      0.87      0.00
    0   -9    9     -4.37      0.00
    0   -9    8      0.11      0.00
    0   -9    7     -1.66      0.00
    0   -9    6      1.96      0.00
    0   -9    5      0.82      0.00
    0   -9    4      4.60      0.00
    0   -9    3      0.85      0.00
    0   -9    2      1.82      0.00
    0   -9    1     -2.04      0.00
    0    9    0     -6.27      0.00
    0    9    1     -0.91      0.00
    0    9    2     -8.62      0.00
    0    9    3      6.12      0.00
    0    9    4     -2.97      0.00
    0    9    5     10.91      0.00
    0    9    6      1.74      0.00
    0    9    7      8.78      0.00
    0    9    8      2.74      0.00
    0    9    9      2.62      0.00
    0    9   10      0.88      0.00
    0    9   11     -1.96      0.00
    0    9   12     -2.05      0.00
    0    9   13     -2.80      0.00
    0    9   14     -2.67      0.00
    0    9   15     -1.86      0.00
    0    9   16     -1.81      0.00
    0    9   17     -0.13      0.00
    0    9   18     -0.49      0.00
    0    9   19      1.30      0.00
    0    9   20      1.30      0.00
    0    9   21      1.03      0.00
    0    9   22      1.85      0.00
    0  -10   18      0.24      0.00
    0  -10   17      1.02      0.00
    0  -10   16      0.87      0.00
    0  -10   15      2.04      0.00
    0  -10   14      1.09      0.00
    0  -10   13      0.96      0.00
    0  -10   12      1.47      0.00
    0  -10   11     -1.06      0.00
    0  -10   10      1.04      0.00
    0  -10    9     -2.65      0.00
    0  -10    8     -0.15      0.00
    0  -10    7     -4.50      0.00
    0  -10    6     -0.29      0.00
    0  -10    5     -5.50      0.00
    0  -10    4      2.78      0.00
    0  -10    3     -3.02      0.00
    0  -10    2      8.25      0.00
    0  -10    1     -0.61      0.00
    0   10    0      8.47      0.00
    0   10    1     -3.27      0.00
    0   10    2      1.51      0.00
    0   10    3     -6.00      0.00
    0   10    4     -3.18      0.00
    0   10    5     -3.26      0.00
    0   10    6     -1.92      0.00
    0   10    7      1.35      0.00
    0   10    8      1.61      0.00
    0   10    9      3.05      0.00
    0   10   10      4.74      0.00
    0   10   11      1.52      0.00
    0   10   12      4.36      0.00
    0   10   13     -0.82      0.00
    0   10   14      1.25      0.00
    0   10   15     -2.36      0.00
    0   10   16     -0.95      0.00
    0   10   17     -2.90      0.00
    0   10   18     -1.90      0.00
    0   10   19     -2.13      0.00
    0   10   20     -1.64      0.00
    0   10   21     -0.71      0.00
    0  -11   17      0.28      0.00
    0  -11   16     -1.24      0.00
    0  -11   15      1.79      0.00
    0  -11   14     -1.09      0.00
    0  -11   13      3.50      0.00
    0  -11   12     -0.33      0.00
    0  -11   11      3.75      0.00
    0  -11   10      0.40      0.00
    0  -11    9      4.18      0.00
    0  -11    8     -0.31      0.00
    0  -11    7      4.53      0.00
    0  -11    6     -2.27      0.00
    0  -11    5      2.54      0.00
    0  -11    4     -5.34      0.00
    0  -11    3     -0.92      0.00
    0  -11    2     -5.06      0.00
    0  -11    1     -2.23      0.00
    0   11    0      1.79      0.00
    0   11    1     -1.63      0.00
    0   11    2      6.68      0.00
    0   11    3     -2.81      0.00
    0   11    4      4.25      0.00
    0   11    5     -4.23      0.00
    0   11    6     -0.37      0.00
    0   11    7     -2.77      0.00
    0   11    8     -3.06      0.00
    0   11    9     -0.23      0.00
    0   11   10     -2.10      0.00
    0   11   11      1.89      0.00
    0   11   12      1.17      0.00
    0   11   13      3.05      0.00
    0   11   14      2.60      0.00
    0   11   15      2.37      0.00
    0   11   16      1.55      0.00
    0   11   17      0.70      0.00
    0   11   18      0.12      0.00
    0   11   19     -0.98      0.00
    0   11   20     -0.44      0.00
    0  -12   15     -1.40      0.00
    0  -12   14     -0.51      0.00
    0  -12   13     -0.93      0.00
    0  -12   12     -1.00      0.00
    0  -12   11      0.43      0.00
    0  -12   10     -0.61      0.00
    0  -12    9      1.64      0.00
    0  -12    8      0.18      0.00
    0  -12    7      3.08      0.00
    0  -12    6      0.91      0.00
    0  -12    5      5.09      0.00
    0  -12    4     -0.08      0.00
    0  -12    3      6.23      0.00
    0  -12    2     -5.24      0.00
    0  -12    1      4.81      0.00
    0   12    0     -9.28      0.00
    0   12    1      3.24      0.00
    0   12    2     -6.55      0.00
    0   12    3      3.13      0.00
    0   12    4     -1.99      0.00
    0   12    5      1.61      0.00
    0   12    6      0.13      0.00
    0   12    7     -1.18      0.00
    0   12    8      0.11      0.00
    0   12    9     -3.00      0.00
    0   12   10     -1.57      0.00
    0   12   11     -3.62      0.00
    0   12   12     -2.01      0.00
    0   12   13     -2.24      0.00
    0   12   14     -0.02      0.00
    0   12   15      0.23      0.00
    0   12   16      1.79      0.00
    0   12   17      1.65      0.00
    0   12   18      1.57      0.00
    0   12   19      2.03      0.00
    0  -13   13     -1.36      0.00
    0  -13   12     -0.51      0.00
    0  -13   11     -2.98      0.00
    0  -13   10      0.03      0.00
    0  -13    9     -3.86      0.00
    0  -13    8      1.04      0.00
    0  -13    7     -3.89      0.00
    0  -13    6      2.52      0.00
    0  -13    5     -3.89      0.00
    0  -13    4      4.80      0.00
    0  -13    3     -1.90      0.00
    0  -13    2      5.67      0.00
    0  -13    1      1.41      0.00
    0   13    0      2.67      0.00
    0   13    1      1.98      0.00
    0   13    2     -0.59      0.00
    0   13    3      1.06      0.00
    0   13    4     -0.65      0.00
    0   13    5      1.48      0.00
    0   13    6     -0.17      0.00
    0   13    7      2.81      0.00
    0   13    8     -0.35      0.00
    0   13    9      3.95      0.00
    0   13   10     -0.49      0.00
    0   13   11      2.98      0.00
    0   13   12     -1.61      0.00
    0   13   13      0.15      0.00
    0   13   14     -2.63      0.00
    0   13   15     -1.36      0.00
    0   13   16     -1.84      0.00
    0   13   17     -0.90      0.00
    0   13   18     -0.21      0.00
    0  -14   11      0.87      0.00
    0  -14   10     -0.86      0.00
    0  -14    9      0.38      0.00
    0  -14    8     -2.72      0.00
    0  -14    7     -0.62      0.00
    0  -14    6     -2.89      0.00
    0  -14    5     -2.07      0.00
    0  -14    4     -1.27      0.00
    0  -14    3     -3.89      0.00
    0  -14    2      1.50      0.00
    0  -14    1     -3.30      0.00
    0   14    0      3.80      0.00
    0   14    1     -1.12      0.00
    0   14    2      3.30      0.00
    0   14    3     -0.47      0.00
    0   14    4      1.04      0.00
    0   14    5     -0.57      0.00
    0   14    6      0.02      0.00
    0   14    7     -1.19      0.00
    0   14    8      0.31      0.00
    0   14    9     -1.63      0.00
    0   14   10      0.94      0.00
    0   14   11     -0.30      0.00
    0   14   12      1.27      0.00
    0   14   13      0.83      0.00
    0   14   14      0.39      0.00
    0   14   15      0.26      0.00
    0   14   16     -0.78      0.00
    0  -15    9      1.30      0.00
    0  -15    8      1.13      0.00
    0  -15    7      1.64      0.00
    0  -15    6     -0.89      0.00
    0  -15    5      1.35      0.00
    0  -15    4     -2.21      0.00
    0  -15    3      0.01      0.00
    0  -15    2     -2.57      0.00
    0  -15    1     -1.63      0.00
    0   15    0     -2.00      0.00
    0   15    1     -1.28      0.00
    0   15    2     -0.23      0.00
    0   15    3     -0.23      0.00
    0   15    4      1.39      0.00
    0   15    5     -0.43      0.00
    0   15    6      1.95      0.00
    0   15    7     -0.61      0.00
    0   15    8      1.46      0.00
    0   15    9     -0.73      0.00
    0   15   10      0.38      0.00
    0   15   11     -0.84      0.00
    0   15   12      0.13      0.00
    0   15   13     -0.19      0.00
    0  -16    5      1.69      0.00
    0  -16    4      0.86      0.00
    0  -16    3      2.21      0.00
    0  -16    2      0.12      0.00
    0  -16    1      1.71      0.00
    0   16    0     -1.13      0.00
    0   16    1      0.21      0.00
    0   16    2     -1.85      0.00
    0   16    3     -0.37      0.00
    0   16    4     -1.51      0.00
    0   16    5      0.31      0.00
    0   16    6     -1.31      0.00
    0   16    7      0.91      0.00
    0   16    8     -0.81      0.00
    0   16    9      0.69      0.00
    0   16   10      0.10      0.00
   -1   16    9     -0.43      0.00
   -1   16    8      0.01      0.00
   -1   16    7     -0.60      0.00
   -1   16    6     -0.35      0.00
   -1   16    5     -0.20      0.00
   -1   16    4     -0.58      0.00
   -1   16    3      0.37      0.00
   -1   16    2     -0.40      0.00
   -1   16    1      1.37      0.00
   -1   16    0      0.35      0.00
    1  -16    1      2.21      0.00
    1  -16    2      0.46      0.00
    1  -16    3      1.80      0.00
    1  -16    4     -0.10      0.00
    1  -16    5      0.96      0.00
   -1   15   12      0.21      0.00
   -1   15   11     -0.30      0.00
   -1   15   10      0.82      0.00
   -1   15    9     -0.67      0.00
   -1   15    8      1.24      0.00
   -1   15    7     -1.17      0.00
   -1   15    6      0.39      0.00
   -1   15    5     -1.16      0.00
   -1   15    4     -0.44      0.00
   -1   15    3     -1.67      0.00
   -1   15    2     -0.56      0.00
   -1   15    1     -2.54      0.00
   -1   15    0     -0.21      0.00
    1  -15    1     -1.58      0.00
    1  -15    2      0.64      0.00
    1  -15    3      0.69      0.00
    1  -15    4      0.49      0.00
    1  -15    5      2.12      0.00
    1  -15    6     -0.49      0.00
    1  -15    7      2.45      0.00
    1  -15    8     -0.62      0.00
    1  -15    9      1.74      0.00
   -1   14   15      1.30      0.00
   -1   14   14      0.11      0.00
   -1   14   13      0.71      0.00
   -1   14   12     -0.50      0.00
   -1   14   11      0.31      0.00
   -1   14   10     -1.01      0.00
   -1   14    9      0.52      0.00
   -1   14    8     -0.17      0.00
   -1   14    7      0.34      0.00
   -1   14    6      0.97      0.00
   -1   14    5     -0.51      0.00
   -1   14    4      1.22      0.00
   -1   14    3     -0.87      0.00
   -1   14    2      1.00      0.00
   -1   14    1     -1.61      0.00
   -1   14    0      0.39      0.00
    1  -14    1     -3.79      0.00
    1  -14    2      0.87      0.00
    1  -14    3     -5.20      0.00
    1  -14    4      2.76      0.00
    1  -14    5     -4.15      0.00
    1  -14    6      2.72      0.00
    1  -14    7     -1.65      0.00
    1  -14    8      0.92      0.00
    1  -14    9      0.42      0.00
    1  -14   10      0.21      0.00
    1  -14   11      1.07      0.00
   -1   13   17     -1.20      0.00
   -1   13   16     -0.16      0.00
   -1   13   15     -0.71      0.00
   -1   13   14      0.63      0.00
   -1   13   13      0.31      0.00
   -1   13   12      0.85      0.00
   -1   13   11      0.89      0.00
   -1   13   10      0.17      0.00
   -1   13    9      0.60      0.00
   -1   13    8     -0.18      0.00
   -1   13    7      0.31      0.00
   -1   13    6      0.18      0.00
   -1   13    5      1.04      0.00
   -1   13    4     -0.35      0.00
   -1   13    3      2.20      0.00
   -1   13    2     -0.65      0.00
   -1   13    1      3.43      0.00
   -1   13    0     -0.44      0.00
    1  -13    1      3.20      0.00
    1  -13    2     -1.36      0.00
    1  -13    3     -0.06      0.00
    1  -13    4     -1.10      0.00
    1  -13    5     -3.54      0.00
    1  -13    6      1.18      0.00
    1  -13    7     -4.30      0.00
    1  -13    8      2.17      0.00
    1  -13    9     -3.24      0.00
    1  -13   10      1.56      0.00
    1  -13   11     -1.94      0.00
    1  -13   12      1.01      0.00
    1  -13   13     -0.93      0.00
    1  -13   14      0.55      0.00
   -1   12   18     -0.58      0.00
   -1   12   17     -0.25      0.00
   -1   12   16     -1.81      0.00
   -1   12   15     -0.82      0.00
   -1   12   14     -1.79      0.00
   -1   12   13     -0.59      0.00
   -1   12   12     -0.84      0.00
   -1   12   11      0.44      0.00
   -1   12   10     -0.27      0.00
   -1   12    9      1.48      0.00
   -1   12    8     -0.74      0.00
   -1   12    7      1.37      0.00
   -1   12    6     -0.65      0.00
   -1   12    5      0.55      0.00
   -1   12    4     -0.22      0.00
   -1   12    3     -0.05      0.00
   -1   12    2     -1.33      0.00
   -1   12    1      0.88      0.00
   -1   12    0     -2.62      0.00
    1  -12    1      5.03      0.00
    1  -12    2     -3.60      0.00
    1  -12    3      8.35      0.00
    1  -12    4     -4.84      0.00
    1  -12    5      6.18      0.00
    1  -12    6     -4.69      0.00
    1  -12    7      2.47      0.00
    1  -12    8     -3.20      0.00
    1  -12    9      0.94      0.00
    1  -12   10     -1.64      0.00
    1  -12   11      0.19      0.00
    1  -12   12     -0.57      0.00
    1  -12   13     -0.10      0.00
    1  -12   14     -0.06      0.00
    1  -12   15      0.01      0.00
    1  -12   16      0.50      0.00
   -1   11   20      1.50      0.00
   -1   11   19      1.20      0.00
   -1   11   18      2.04      0.00
   -1   11   17      1.16      0.00
   -1   11   16      1.32      0.00
   -1   11   15     -0.59      0.00
   -1   11   14      0.05      0.00
   -1   11   13     -2.25      0.00
   -1   11   12     -0.56      0.00
   -1   11   11     -2.52      0.00
   -1   11   10     -0.59      0.00
   -1   11    9     -0.77      0.00
   -1   11    8     -0.42      0.00
   -1   11    7      1.05      0.00
   -1   11    6      0.82      0.00
   -1   11    5      1.07      0.00
   -1   11    4      3.23      0.00
   -1   11    3     -0.23      0.00
   -1   11    2      4.42      0.00
   -1   11    1     -3.49      0.00
   -1   11    0      3.28      0.00
    1  -11    1     -5.68      0.00
    1  -11    2      2.12      0.00
    1  -11    3     -1.89      0.00
    1  -11    4      1.61      0.00
    1  -11    5      3.39      0.00
    1  -11    6      0.38      0.00
    1  -11    7      4.37      0.00
    1  -11    8     -1.46      0.00
    1  -11    9      3.20      0.00
    1  -11   10     -2.35      0.00
    1  -11   11      2.07      0.00
    1  -11   12     -1.81      0.00
    1  -11   13      1.30      0.00
    1  -11   14     -1.51      0.00
    1  -11   15      1.42      0.00
    1  -11   16     -1.46      0.00
    1  -11   17      1.38      0.00
   -1   10   21     -1.30      0.00
   -1   10   20     -1.10      0.00
   -1   10   19     -0.73      0.00
   -1   10   18      0.30      0.00
   -1   10   17      1.59      0.00
   -1   10   16      2.03      0.00
   -1   10   15      3.06      0.00
   -1   10   14      2.26      0.00
   -1   10   13      2.16      0.00
   -1   10   12      1.08      0.00
   -1   10   11     -0.39      0.00
   -1   10   10     -0.31      0.00
   -1   10    9     -2.69      0.00
   -1   10    8     -2.77      0.00
   -1   10    7     -2.42      0.00
   -1   10    6     -6.03      0.00
   -1   10    5     -1.04      0.00
   -1   10    4     -6.18      0.00
   -1   10    3      0.34      0.00
   -1   10    2     -1.66      0.00
   -1   10    1      0.86      0.00
   -1   10    0      3.41      0.00
    1  -10    1     -3.13      0.00
    1  -10    2      4.83      0.00
    1  -10    3     -7.71      0.00
    1  -10    4      4.19      0.00
    1  -10    5     -6.58      0.00
    1  -10    6      4.78      0.00
    1  -10    7     -2.88      0.00
    1  -10    8      5.25      0.00
    1  -10    9     -0.82      0.00
    1  -10   10      4.10      0.00
    1  -10   11     -0.69      0.00
    1  -10   12      2.91      0.00
    1  -10   13     -1.19      0.00
    1  -10   14      1.84      0.00
    1  -10   15     -0.78      0.00
    1  -10   16      0.35      0.00
    1  -10   17     -0.11      0.00
    1  -10   18     -0.23      0.00
   -1    9   22     -0.22      0.00
   -1    9   21     -1.15      0.00
   -1    9   20     -1.43      0.00
   -1    9   19     -2.66      0.00
   -1    9   18     -2.76      0.00
   -1    9   17     -2.72      0.00
   -1    9   16     -2.02      0.00
   -1    9   15     -0.51      0.00
   -1    9   14      0.83      0.00
   -1    9   13      1.76      0.00
   -1    9   12      3.74      0.00
   -1    9   11      2.03      0.00
   -1    9   10      6.56      0.00
   -1    9    9     -0.04      0.00
   -1    9    8      8.36      0.00
   -1    9    7     -2.28      0.00
   -1    9    6      5.87      0.00
   -1    9    5     -3.09      0.00
   -1    9    4     -0.92      0.00
   -1    9    3     -2.75      0.00
   -1    9    2     -6.87      0.00
   -1    9    1      1.05      0.00
   -1    9    0     -7.42      0.00
    1   -9    1      5.78      0.00
    1   -9    2     -4.46      0.00
    1   -9    3      3.94      0.00
    1   -9    4     -2.85      0.00
    1   -9    5     -1.64      0.00
    1   -9    6     -2.81      0.00
    1   -9    7     -3.35      0.00
    1   -9    8     -2.50      0.00
    1   -9    9     -1.12      0.00
    1   -9   10     -1.80      0.00
    1   -9   11      0.76      0.00
    1   -9   12      0.19      0.00
    1   -9   13     -0.30      0.00
    1   -9   14      2.80      0.00
    1   -9   15     -1.69      0.00
    1   -9   16      3.23      0.00
    1   -9   17     -1.38      0.00
    1   -9   18      1.92      0.00
    1   -9   19     -1.11      0.00
    1   -9   20      1.04      0.00
   -1    8   22      0.73      0.00
   -1    8   21      2.08      0.00
   -1    8   20      1.38      0.00
   -1    8   19      0.63      0.00
   -1    8   18     -0.10      0.00
   -1    8   17     -1.82      0.00
   -1    8   16     -3.63      0.00
   -1    8   15     -3.60      0.00
   -1    8   14     -5.56      0.00
   -1    8   13     -2.93      0.00
   -1    8   12     -5.63      0.00
   -1    8   11      0.56      0.00
   -1    8   10     -4.37      0.00
   -1    8    9      3.67      0.00
   -1    8    8      0.57      0.00
   -1    8    7      4.50      0.00
   -1    8    6      7.29      0.00
   -1    8    5      4.59      0.00
   -1    8    4     10.61      0.00
   -1    8    3      2.48      0.00
   -1    8    2      7.82      0.00
   -1    8    1     -1.62      0.00
   -1    8    0      2.43      0.00
    1   -8    1     -1.63      0.00
    1   -8    2      0.74      0.00
    1   -8    3      2.02      0.00
    1   -8    4      1.80      0.00
    1   -8    5      2.12      0.00
    1   -8    6      1.67      0.00
    1   -8    7     -1.54      0.00
    1   -8    8      0.38      0.00
    1   -8    9     -3.44      0.00
    1   -8   10     -1.87      0.00
    1   -8   11     -1.84      0.00
    1   -8   12     -3.70      0.00
    1   -8   13     -0.13      0.00
    1   -8   14     -2.80      0.00
    1   -8   15     -0.71      0.00
    1   -8   16     -0.49      0.00
    1   -8   17     -1.47      0.00
    1   -8   18      0.71      0.00
    1   -8   19     -1.30      0.00
    1   -8   20      0.73      0.00
    1   -8   21     -1.20      0.00
   -1    7   23     -0.01      0.00
   -1    7   22      0.12      0.00
   -1    7   21      2.18      0.00
   -1    7   20      1.38      0.00
   -1    7   19      4.09      0.00
   -1    7   18      3.86      0.00
   -1    7   17      4.52      0.00
   -1    7   16      3.76      0.00
   -1    7   15      3.34      0.00
   -1    7   14     -0.09      0.00
   -1    7   13      0.57      0.00
   -1    7   12     -4.65      0.00
   -1    7   11     -2.04      0.00
   -1    7   10     -9.59      0.00
   -1    7    9     -2.44      0.00
   -1    7    8    -12.59      0.00
   -1    7    7     -2.39      0.00
   -1    7    6     -8.66      0.00
   -1    7    5     -2.07      0.00
   -1    7    4      1.00      0.00
   -1    7    3      0.11      0.00
   -1    7    2      8.45      0.00
   -1    7    1      1.21      0.00
   -1    7    0      5.81      0.00
    1   -7    1      0.97      0.00
    1   -7    2     -2.03      0.00
    1   -7    3      3.23      0.00
    1   -7    4     -3.28      0.00
    1   -7    5      5.73      0.00
    1   -7    6      1.05      0.00
    1   -7    7      4.51      0.00
    1   -7    8      3.67      0.00
    1   -7    9      2.08      0.00
    1   -7   10      2.31      0.00
    1   -7   11      1.98      0.00
    1   -7   12     -1.84      0.00
    1   -7   13      3.48      0.00
    1   -7   14     -4.78      0.00
    1   -7   15      4.03      0.00
    1   -7   16     -4.34      0.00
    1   -7   17      2.90      0.00
    1   -7   18     -2.19      0.00
    1   -7   19      1.47      0.00
    1   -7   20     -0.54      0.00
    1   -7   21      0.56      0.00
    1   -7   22     -0.20      0.00
   -1    6   23     -2.20      0.00
   -1    6   22     -1.16      0.00
   -1    6   21     -3.07      0.00
   -1    6   20     -1.92      0.00
   -1    6   19     -2.53      0.00
   -1    6   18     -0.64      0.00
   -1    6   17     -0.68      0.00
   -1    6   16      3.12      0.00
   -1    6   15      2.06      0.00
   -1    6   14      6.92      0.00
   -1    6   13      3.57      0.00
   -1    6   12      9.29      0.00
   -1    6   11      2.64      0.00
   -1    6   10      7.51      0.00
   -1    6    9      1.52      0.00
   -1    6    8     -2.26      0.00
   -1    6    7      2.31      0.00
   -1    6    6    -16.84      0.00
   -1    6    5      3.86      0.00
   -1    6    4    -25.13      0.00
   -1    6    3      5.69      0.00
   -1    6    2    -18.58      0.00
   -1    6    1      7.93      0.00
   -1    6    0     -5.26      0.00
    1   -6    1      7.13      0.00
    1   -6    2     -2.17      0.00
    1   -6    3      4.14      0.00
    1   -6    4     -8.38      0.00
    1   -6    5      4.34      0.00
    1   -6    6     -9.89      0.00
    1   -6    7      5.01      0.00
    1   -6    8     -3.93      0.00
    1   -6    9      1.88      0.00
    1   -6   10      3.19      0.00
    1   -6   11     -1.48      0.00
    1   -6   12      5.82      0.00
    1   -6   13     -1.34      0.00
    1   -6   14      2.67      0.00
    1   -6   15      1.05      0.00
    1   -6   16     -1.54      0.00
    1   -6   17      2.50      0.00
    1   -6   18     -2.89      0.00
    1   -6   19      2.23      0.00
    1   -6   20     -1.88      0.00
    1   -6   21      1.48      0.00
    1   -6   22     -0.45      0.00
   -1    5   24      0.92      0.00
   -1    5   23      0.24      0.00
   -1    5   22      0.96      0.00
   -1    5   21     -1.03      0.00
   -1    5   20     -0.33      0.00
   -1    5   19     -3.15      0.00
   -1    5   18     -2.35      0.00
   -1    5   17     -5.70      0.00
   -1    5   16     -2.73      0.00
   -1    5   15     -6.50      0.00
   -1    5   14     -1.25      0.00
   -1    5   13     -4.13      0.00
   -1    5   12      3.06      0.00
   -1    5   11     -1.61      0.00
   -1    5   10     12.03      0.00
   -1    5    9     -1.27      0.00
   -1    5    8     20.99      0.00
   -1    5    7     -3.66      0.00
   -1    5    6     21.71      0.00
   -1    5    5    -10.70      0.00
   -1    5    4     11.84      0.00
   -1    5    3    -22.63      0.00
   -1    5    2      2.13      0.00
   -1    5    1    -30.89      0.00
   -1    5    0      6.26      0.00
    1   -5    1    -25.79      0.00
    1   -5    2     15.62      0.00
    1   -5    3    -13.72      0.00
    1   -5    4     12.05      0.00
    1   -5    5     -5.73      0.00
    1   -5    6      0.48      0.00
    1   -5    7     -1.64      0.00
    1   -5    8     -4.64      0.00
    1   -5    9     -0.15      0.00
    1   -5   10     -2.24      0.00
    1   -5   11     -1.95      0.00
    1   -5   12      3.26      0.00
    1   -5   13     -4.57      0.00
    1   -5   14      7.14      0.00
    1   -5   15     -4.68      0.00
    1   -5   16      5.61      0.00
    1   -5   17     -2.39      0.00
    1   -5   18      1.82      0.00
    1   -5   19     -1.02      0.00
    1   -5   20      0.01      0.00
    1   -5   21     -0.57      0.00
    1   -5   22     -0.07      0.00
    1   -5   23      0.24      0.00
   -1    4   24     -0.34      0.00
   -1    4   23      1.58      0.00
   -1    4   22      0.33      0.00
   -1    4   21      2.90      0.00
   -1    4   20      1.27      0.00
   -1    4   19      4.06      0.00
   -1    4   18      0.79      0.00
   -1    4   17      3.40      0.00
   -1    4   16     -1.38      0.00
   -1    4   15      0.26      0.00
   -1    4   14     -4.61      0.00
   -1    4   13     -2.28      0.00
   -1    4   12     -8.77      0.00
   -1    4   11     -2.11      0.00
   -1    4   10     -8.85      0.00
   -1    4    9     -0.78      0.00
   -1    4    8      1.19      0.00
   -1    4    7      4.34      0.00
   -1    4    6     14.93      0.00
   -1    4    5     18.44      0.00
   -1    4    4     16.56      0.00
   -1    4    3     31.95      0.00
   -1    4    2     -1.27      0.00
   -1    4    1     24.75      0.00
   -1    4    0    -20.36      0.00
    1   -4    1     -0.08      0.00
    1   -4    2    -15.18      0.00
    1   -4    3    -16.21      0.00
    1   -4    4      3.22      0.00
    1   -4    5    -13.79      0.00
    1   -4    6      6.19      0.00
    1   -4    7     -3.90      0.00
    1   -4    8     -4.15      0.00
    1   -4    9      4.57      0.00
    1   -4   10    -10.81      0.00
    1   -4   11      7.49      0.00
    1   -4   12     -9.22      0.00
    1   -4   13      3.94      0.00
    1   -4   14     -2.44      0.00
    1   -4   15     -1.05      0.00
    1   -4   16      3.27      0.00
    1   -4   17     -2.23      0.00
    1   -4   18      4.09      0.00
    1   -4   19     -0.77      0.00
    1   -4   20      2.23      0.00
    1   -4   21     -0.31      0.00
    1   -4   22      0.53      0.00
    1   -4   23     -0.44      0.00
    1   -4   24      0.16      0.00
   -1    3   24     -0.51      0.00
   -1    3   23     -0.77      0.00
   -1    3   22     -1.30      0.00
   -1    3   21     -0.78      0.00
   -1    3   20     -1.24      0.00
   -1    3   19      0.83      0.00
   -1    3   18     -0.13      0.00
   -1    3   17      4.08      0.00
   -1    3   16      0.89      0.00
   -1    3   15      5.44      0.00
   -1    3   14      0.35      0.00
   -1    3   13      3.11      0.00
   -1    3   12     -3.74      0.00
   -1    3   11     -0.35      0.00
   -1    3   10    -13.02      0.00
   -1    3    9     -3.31      0.00
   -1    3    8    -21.89      0.00
   -1    3    7     -7.55      0.00
   -1    3    6    -16.45      0.00
   -1    3    5     -8.60      0.00
   -1    3    4     10.18      0.00
   -1    3    3      6.28      0.00
   -1    3    2     40.83      0.00
   -1    3    1     30.03      0.00
   -1    3    0     44.84      0.00
    1   -3    1     32.39      0.00
    1   -3    2     24.23      0.00
    1   -3    3      8.27      0.00
    1   -3    4     14.49      0.00
    1   -3    5    -13.94      0.00
    1   -3    6     21.36      0.00
    1   -3    7    -19.33      0.00
    1   -3    8     21.35      0.00
    1   -3    9    -15.12      0.00
    1   -3   10     10.03      0.00
    1   -3   11     -6.97      0.00
    1   -3   12     -2.13      0.00
    1   -3   13      0.23      0.00
    1   -3   14     -7.48      0.00
    1   -3   15      1.02      0.00
    1   -3   16     -5.51      0.00
    1   -3   17     -1.16      0.00
    1   -3   18     -2.02      0.00
    1   -3   19     -1.34      0.00
    1   -3   20      0.19      0.00
    1   -3   21     -0.70      0.00
    1   -3   22      0.53      0.00
    1   -3   23     -0.60      0.00
    1   -3   24     -0.35      0.00
   -1    2   24      0.73      0.00
   -1    2   23      0.30      0.00
   -1    2   22      1.02      0.00
   -1    2   21     -0.24      0.00
   -1    2   20      0.11      0.00
   -1    2   19     -1.72      0.00
   -1    2   18     -0.65      0.00
   -1    2   17     -1.47      0.00
   -1    2   16      0.73      0.00
   -1    2   15      2.59      0.00
   -1    2   14      4.17      0.00
   -1    2   13      6.84      0.00
   -1    2   12      6.61      0.00
   -1    2   11      8.20      0.00
   -1    2   10      3.18      0.00
   -1    2    9      5.92      0.00
   -1    2    8     -9.07      0.00
   -1    2    7     -4.15      0.00
   -1    2    6    -29.96      0.00
   -1    2    5    -24.55      0.00
   -1    2    4    -53.69      0.00
   -1    2    3    -37.07      0.00
   -1    2    2    -64.26      0.00
   -1    2    1     -8.53      0.00
   -1    2    0    -54.73      0.00
    1   -2    1     50.74      0.00
    1   -2    2    -42.95      0.00
    1   -2    3     79.66      0.00
    1   -2    4    -36.62      0.00
    1   -2    5     56.73      0.00
    1   -2    6    -21.26      0.00
    1   -2    7     22.08      0.00
    1   -2    8      0.55      0.00
    1   -2    9      3.62      0.00
    1   -2   10     11.67      0.00
    1   -2   11     -2.02      0.00
    1   -2   12      9.40      0.00
    1   -2   13     -0.57      0.00
    1   -2   14      2.49      0.00
    1   -2   15      2.39      0.00
    1   -2   16     -1.29      0.00
    1   -2   17      1.88      0.00
    1   -2   18     -1.57      0.00
    1   -2   19     -0.15      0.00
    1   -2   20     -0.79      0.00
    1   -2   21     -0.61      0.00
    1   -2   22      0.57      0.00
    1   -2   23     -0.03      0.00
    1   -2   24      0.74      0.00
    1   -2   25     -0.03      0.00
   -1    1   24     -0.58      0.00
   -1    1   23     -0.08      0.00
   -1    1   22      0.03      0.00
   -1    1   21      0.06      0.00
   -1    1   20      1.47      0.00
   -1    1   19     -0.69      0.00
   -1    1   18      1.07      0.00
   -1    1   17     -4.12      0.00
   -1    1   16     -0.95      0.00
   -1    1   15     -7.57      0.00
   -1    1   14      0.04      0.00
   -1    1   13     -6.01      0.00
   -1    1   12      7.47      0.00
   -1    1   11     -0.19      0.00
   -1    1   10     19.21      0.00
   -1    1    9      8.32      0.00
   -1    1    8     28.51      0.00
   -1    1    7     19.41      0.00
   -1    1    6     30.76      0.00
   -1    1    5     19.13      0.00
   -1    1    4     23.94      0.00
   -1    1    3    -21.87      0.00
   -1    1    2     11.33      0.00
   -1    1    1    -95.31      0.00
   -1    1    0      5.17      0.00
    1   -1    1   -124.48      0.00
    1   -1    2      4.56      0.00
    1   -1    3    -70.08      0.00
    1   -1    4     -6.82      0.00
    1   -1    5     -0.45      0.00
    1   -1    6    -24.65      0.00
    1   -1    7     23.49      0.00
    1   -1    8    -28.59      0.00
    1   -1    9     17.61      0.00
    1   -1   10    -16.84      0.00
    1   -1   11      8.89      0.00
    1   -1   12     -3.99      0.00
    1   -1   13      4.01      0.00
    1   -1   14      1.04      0.00
    1   -1   15      3.28      0.00
    1   -1   16      0.71      0.00
    1   -1   17      4.33      0.00
    1   -1   18     -0.78      0.00
    1   -1   19      4.16      0.00
    1   -1   20     -2.22      0.00
    1   -1   21      2.03      0.00
    1   -1   22     -2.13      0.00
    1   -1   23      0.71      0.00
    1   -1   24     -0.87      0.00
    1   -1   25      1.05      0.00
   -1    0   24     -0.19      0.00
   -1    0   23     -0.57      0.00
   -1    0   22     -1.14      0.00
   -1    0   21     -1.14      0.00
   -1    0   20     -1.09      0.00
   -1    0   19     -0.39      0.00
   -1    0   18      0.72      0.00
   -1    0   17      0.68      0.00
   -1    0   16      0.70      0.00
   -1    0   15     -2.29      0.00
   -1    0   14     -4.00      0.00
   -1    0   13     -8.64      0.00
   -1    0   12     -8.79      0.00
   -1    0   11    -12.32      0.00
   -1    0   10     -7.26      0.00
   -1    0    9    -10.19      0.00
   -1    0    8      2.03      0.00
   -1    0    7     -0.72      0.00
   -1    0    6     18.61      0.00
   -1    0    5     24.51      0.00
   -1    0    4     41.23      0.00
   -1    0    3     61.67      0.00
   -1    0    2     57.15      0.00
   -1    0    1     64.80      0.00
    1    0    0     51.07      0.00
    1    0    1      5.89      0.00
    1    0    2     32.64      0.00
    1    0    3    -53.47      0.00
    1    0    4     21.97      0.00
    1    0    5    -53.36      0.00
    1    0    6     17.78      0.00
    1    0    7    -23.91      0.00
    1    0    8     10.30      0.00
    1    0    9     -8.39      0.00
    1    0   10      2.41      0.00
    1    0   11     -6.22      0.00
    1    0   12      0.03      0.00
    1    0   13     -5.92      0.00
    1    0   14      0.34      0.00
    1    0   15     -4.44      0.00
    1    0   16     -0.09      0.00
    1    0   17     -3.01      0.00
    1    0   18      0.30      0.00
    1    0   19     -1.47      0.00
    1    0   20      1.03      0.00
    1    0   21     -0.37      0.00
    1    0   22      0.61      0.00
    1    0   23     -1.05      0.00
    1    0   24     -0.11      0.00
    1    0   25     -0.97      0.00
   -1   -1   24      0.83      0.00
   -1   -1   23      0.94      0.00
   -1   -1   22      0.53      0.00
   -1   -1   21      1.88      0.00
   -1   -1   20     -0.84      0.00
   -1   -1   19      1.61      0.00
   -1   -1   18     -1.72      0.00
   -1   -1   17      3.34      0.00
   -1   -1   16      0.51      0.00
   -1   -1   15      7.37      0.00
   -1   -1   14      2.84      0.00
   -1   -1   13      7.61      0.00
   -1   -1   12     -0.91      0.00
   -1   -1   11     -0.12      0.00
   -1   -1   10     -8.59      0.00
   -1   -1    9    -12.36      0.00
   -1   -1    8    -16.28      0.00
   -1   -1    7    -21.97      0.00
   -1   -1    6    -28.25      0.00
   -1   -1    5    -21.27      0.00
   -1   -1    4    -44.87      0.00
   -1   -1    3      7.80      0.00
   -1   -1    2    -45.73      0.00
   -1   -1    1     62.61      0.00
    1    1    0    -13.28      0.00
    1    1    1     83.08      0.00
    1    1    2     25.92      0.00
    1    1    3     35.86      0.00
    1    1    4     35.01      0.00
    1    1    5    -19.49      0.00
    1    1    6     22.10      0.00
    1    1    7    -29.31      0.00
    1    1    8     11.73      0.00
    1    1    9    -12.60      0.00
    1    1   10      7.22      0.00
    1    1   11     -1.36      0.00
    1    1   12      4.77      0.00
    1    1   13     -0.30      0.00
    1    1   14      4.25      0.00
    1    1   15     -2.13      0.00
    1    1   16      4.10      0.00
    1    1   17     -2.84      0.00
    1    1   18      2.32      0.00
    1    1   19     -1.78      0.00
    1    1   20      0.46      0.00
    1    1   21      0.41      0.00
    1    1   22      0.47      0.00
    1    1   23      0.93      0.00
    1    1   24      0.86      0.00
    1    1   25     -0.14      0.00
   -1   -2   24      0.27      0.00
   -1   -2   23     -0.81      0.00
   -1   -2   22      1.07      0.00
   -1   -2   21     -0.08      0.00
   -1   -2   20      1.70      0.00
   -1   -2   19      0.03      0.00
   -1   -2   18      0.61      0.00
   -1   -2   17     -1.69      0.00
   -1   -2   16     -2.07      0.00
   -1   -2   15     -0.82      0.00
   -1   -2   14     -1.45      0.00
   -1   -2   13      6.04      0.00
   -1   -2   12      2.10      0.00
   -1   -2   11     14.62      0.00
   -1   -2   10      2.38      0.00
   -1   -2    9     16.05      0.00
   -1   -2    8      1.25      0.00
   -1   -2    7      5.60      0.00
   -1   -2    6      5.44      0.00
   -1   -2    5    -18.23      0.00
   -1   -2    4      6.75      0.00
   -1   -2    3    -48.28      0.00
   -1   -2    2    -14.30      0.00
   -1   -2    1    -46.10      0.00
    1    2    0    -46.24      0.00
    1    2    1     11.51      0.00
    1    2    2    -50.72      0.00
    1    2    3     69.09      0.00
    1    2    4    -28.86      0.00
    1    2    5     67.98      0.00
    1    2    6    -13.40      0.00
    1    2    7     30.04      0.00
    1    2    8    -10.61      0.00
    1    2    9      3.51      0.00
    1    2   10     -9.27      0.00
    1    2   11     -1.35      0.00
    1    2   12     -6.21      0.00
    1    2   13      0.63      0.00
    1    2   14     -3.26      0.00
    1    2   15      1.11      0.00
    1    2   16     -1.38      0.00
    1    2   17      0.44      0.00
    1    2   18      0.50      0.00
    1    2   19     -1.16      0.00
    1    2   20      1.32      0.00
    1    2   21     -1.57      0.00
    1    2   22      0.68      0.00
    1    2   23      0.01      0.00
    1    2   24      0.65      0.00
    1    2   25      0.86      0.00
   -1   -3   23     -0.31      0.00
   -1   -3   22     -0.35      0.00
   -1   -3   21     -0.54      0.00
   -1   -3   20     -0.24      0.00
   -1   -3   19      0.47      0.00
   -1   -3   18      1.18      0.00
   -1   -3   17      0.92      0.00
   -1   -3   16      1.26      0.00
   -1   -3   15     -2.34      0.00
   -1   -3   14     -1.34      0.00
   -1   -3   13     -6.22      0.00
   -1   -3   12     -3.37      0.00
   -1   -3   11     -2.80      0.00
   -1   -3   10     -2.81      0.00
   -1   -3    9      6.63      0.00
   -1   -3    8     -0.73      0.00
   -1   -3    7     13.15      0.00
   -1   -3    6      3.38      0.00
   -1   -3    5     13.25      0.00
   -1   -3    4     14.85      0.00
   -1   -3    3      1.25      0.00
   -1   -3    2     24.63      0.00
   -1   -3    1    -29.22      0.00
    1    3    0     11.54      0.00
    1    3    1    -55.68      0.00
    1    3    2    -10.71      0.00
    1    3    3    -45.60      0.00
    1    3    4     -9.07      0.00
    1    3    5    -10.79      0.00
    1    3    6      8.75      0.00
    1    3    7     11.45      0.00
    1    3    8     14.91      0.00
    1    3    9     11.83      0.00
    1    3   10      6.79      0.00
    1    3   11      5.78      0.00
    1    3   12     -2.32      0.00
    1    3   13      3.50      0.00
    1    3   14     -5.26      0.00
    1    3   15      3.22      0.00
    1    3   16     -4.40      0.00
    1    3   17      2.36      0.00
    1    3   18     -3.12      0.00
    1    3   19      1.29      0.00
    1    3   20     -2.00      0.00
    1    3   21     -0.13      0.00
    1    3   22     -1.70      0.00
    1    3   23     -1.13      0.00
    1    3   24     -1.31      0.00
    1    3   25     -0.94      0.00
   -1   -4   23      0.12      0.00
   -1   -4   22     -0.78      0.00
   -1   -4   21     -0.69      0.00
   -1   -4   20     -1.32      0.00
   -1   -4   19     -1.37      0.00
   -1   -4   18     -0.60      0.00
   -1   -4   17     -0.87      0.00
   -1   -4   16      3.00      0.00
   -1   -4   15      0.85      0.00
   -1   -4   14      6.44      0.00
   -1   -4   13     -1.54      0.00
   -1   -4   12      7.31      0.00
   -1   -4   11     -7.97      0.00
   -1   -4   10      3.87      0.00
   -1   -4    9     -7.42      0.00
   -1   -4    8     -3.48      0.00
   -1   -4    7      3.23      0.00
   -1   -4    6    -11.55      0.00
   -1   -4    5     14.81      0.00
   -1   -4    4    -13.20      0.00
   -1   -4    3     21.00      0.00
   -1   -4    2      2.67      0.00
   -1   -4    1     18.20      0.00
    1    4    0     21.51      0.00
    1    4    1      2.13      0.00
    1    4    2     11.20      0.00
    1    4    3    -17.64      0.00
    1    4    4    -19.08      0.00
    1    4    5    -20.99      0.00
    1    4    6    -31.59      0.00
    1    4    7     -8.32      0.00
    1    4    8    -17.54      0.00
    1    4    9      1.86      0.00
    1    4   10      1.27      0.00
    1    4   11      3.13      0.00
    1    4   12      7.18      0.00
    1    4   13      1.58      0.00
    1    4   14      3.99      0.00
    1    4   15      1.51      0.00
    1    4   16      1.06      0.00
    1    4   17      2.56      0.00
    1    4   18     -0.26      0.00
    1    4   19      2.88      0.00
    1    4   20     -0.34      0.00
    1    4   21      2.19      0.00
    1    4   22      0.10      0.00
    1    4   23      0.88      0.00
    1    4   24     -0.24      0.00
    1    4   25     -0.20      0.00
   -1   -5   22     -0.15      0.00
   -1   -5   21     -0.01      0.00
   -1   -5   20     -0.90      0.00
   -1   -5   19     -0.68      0.00
   -1   -5   18     -2.97      0.00
   -1   -5   17     -2.22      0.00
   -1   -5   16     -4.92      0.00
   -1   -5   15     -2.16      0.00
   -1   -5   14     -3.71      0.00
   -1   -5   13     -0.18      0.00
   -1   -5   12      1.98      0.00
   -1   -5   11     -1.86      0.00
   -1   -5   10      9.11      0.00
   -1   -5    9     -8.69      0.00
   -1   -5    8     13.04      0.00
   -1   -5    7    -14.02      0.00
   -1   -5    6     12.76      0.00
   -1   -5    5    -12.50      0.00
   -1   -5    4      6.25      0.00
   -1   -5    3     -5.20      0.00
   -1   -5    2     -1.36      0.00
   -1   -5    1      5.48      0.00
    1    5    0      7.91      0.00
    1    5    1     14.11      0.00
    1    5    2     29.92      0.00
    1    5    3      9.91      0.00
    1    5    4     35.87      0.00
    1    5    5     -6.45      0.00
    1    5    6     19.35      0.00
    1    5    7    -18.64      0.00
    1    5    8      0.90      0.00
    1    5    9    -18.26      0.00
    1    5   10     -3.64      0.00
    1    5   11    -11.89      0.00
    1    5   12      1.62      0.00
    1    5   13     -6.88      0.00
    1    5   14      4.38      0.00
    1    5   15     -4.71      0.00
    1    5   16      3.04      0.00
    1    5   17     -3.48      0.00
    1    5   18      1.67      0.00
    1    5   19     -2.10      0.00
    1    5   20      0.85      0.00
    1    5   21     -0.76      0.00
    1    5   22      0.93      0.00
    1    5   23      0.31      0.00
    1    5   24      1.43      0.00
    1    5   25      0.39      0.00
   -1   -6   22      1.29      0.00
   -1   -6   21      0.73      0.00
   -1   -6   20      2.01      0.00
   -1   -6   19      2.38      0.00
   -1   -6   18      1.59      0.00
   -1   -6   17      3.16      0.00
   -1   -6   16     -0.50      0.00
   -1   -6   15      1.69      0.00
   -1   -6   14     -5.24      0.00
   -1   -6   13      1.82      0.00
   -1   -6   12     -9.43      0.00
   -1   -6   11      3.77      0.00
   -1   -6   10     -7.62      0.00
   -1   -6    9      3.81      0.00
   -1   -6    8     -2.46      0.00
   -1   -6    7      1.20      0.00
   -1   -6    6      0.31      0.00
   -1   -6    5     -0.79      0.00
   -1   -6    4     -0.80      0.00
   -1   -6    3     -0.59      0.00
   -1   -6    2     -8.44      0.00
   -1   -6    1     -1.12      0.00
    1    6    0    -18.48      0.00
    1    6    1      0.70      0.00
    1    6    2    -15.94      0.00
    1    6    3      9.50      0.00
    1    6    4     -0.66      0.00
    1    6    5     18.22      0.00
    1    6    6      8.54      0.00
    1    6    7     19.17      0.00
    1    6    8      3.53      0.00
    1    6    9     12.95      0.00
    1    6   10     -5.49      0.00
    1    6   11      5.04      0.00
    1    6   12     -7.34      0.00
    1    6   13      0.67      0.00
    1    6   14     -2.49      0.00
    1    6   15     -0.72      0.00
    1    6   16      1.42      0.00
    1    6   17     -1.22      0.00
    1    6   18      2.07      0.00
    1    6   19     -0.87      0.00
    1    6   20      1.12      0.00
    1    6   21     -0.40      0.00
    1    6   22     -0.55      0.00
    1    6   23     -0.23      0.00
    1    6   24     -0.95      0.00
   -1   -7   21     -0.05      0.00
   -1   -7   20      0.33      0.00
   -1   -7   19      0.15      0.00
   -1   -7   18      1.81      0.00
   -1   -7   17      1.96      0.00
   -1   -7   16      3.84      0.00
   -1   -7   15      3.09      0.00
   -1   -7   14      4.37      0.00
   -1   -7   13      2.71      0.00
   -1   -7   12      0.31      0.00
   -1   -7   11      3.32      0.00
   -1   -7   10     -5.91      0.00
   -1   -7    9      5.06      0.00
   -1   -7    8     -8.16      0.00
   -1   -7    7      5.38      0.00
   -1   -7    6     -5.05      0.00
   -1   -7    5      2.09      0.00
   -1   -7    4      1.26      0.00
   -1   -7    3     -0.83      0.00
   -1   -7    2      5.54      0.00
   -1   -7    1     -0.31      0.00
    1    7    0      0.48      0.00
    1    7    1     -2.74      0.00
    1    7    2     -9.69      0.00
    1    7    3     -8.06      0.00
    1    7    4    -11.04      0.00
    1    7    5     -8.47      0.00
    1    7    6     -1.65      0.00
    1    7    7     -3.59      0.00
    1    7    8      7.17      0.00
    1    7    9      1.98      0.00
    1    7   10      7.31      0.00
    1    7   11      4.04      0.00
    1    7   12      1.02      0.00
    1    7   13      2.61      0.00
    1    7   14     -3.74      0.00
    1    7   15      1.45      0.00
    1    7   16     -3.80      0.00
    1    7   17      0.86      0.00
    1    7   18     -1.95      0.00
    1    7   19      0.07      0.00
    1    7   20     -0.06      0.00
    1    7   21     -0.04      0.00
    1    7   22      0.52      0.00
    1    7   23      0.35      0.00
    1    7   24     -0.59      0.00
   -1   -8   20     -0.73      0.00
   -1   -8   19     -2.17      0.00
   -1   -8   18     -1.33      0.00
   -1   -8   17     -2.54      0.00
   -1   -8   16     -1.03      0.00
   -1   -8   15     -1.30      0.00
   -1   -8   14      2.10      0.00
   -1   -8   13     -0.29      0.00
   -1   -8   12      5.60      0.00
   -1   -8   11     -0.22      0.00
   -1   -8   10      5.47      0.00
   -1   -8    9     -0.35      0.00
   -1   -8    8      1.68      0.00
   -1   -8    7      0.48      0.00
   -1   -8    6     -2.26      0.00
   -1   -8    5      1.41      0.00
   -1   -8    4     -4.08      0.00
   -1   -8    3      0.63      0.00
   -1   -8    2     -1.76      0.00
   -1   -8    1      1.50      0.00
    1    8    0      3.35      0.00
    1    8    1      4.90      0.00
    1    8    2      3.27      0.00
    1    8    3      3.75      0.00
    1    8    4     -2.66      0.00
    1    8    5     -2.18      0.00
    1    8    6     -6.05      0.00
    1    8    7     -5.54      0.00
    1    8    8     -3.71      0.00
    1    8    9     -3.93      0.00
    1    8   10      1.31      0.00
    1    8   11      0.53      0.00
    1    8   12      3.46      0.00
    1    8   13      3.58      0.00
    1    8   14      0.89      0.00
    1    8   15      2.90      0.00
    1    8   16     -1.89      0.00
    1    8   17      1.11      0.00
    1    8   18     -2.71      0.00
    1    8   19     -0.15      0.00
    1    8   20     -2.23      0.00
    1    8   21     -0.91      0.00
    1    8   22     -0.53      0.00
    1    8   23     -0.66      0.00
   -1   -9   19     -0.30      0.00
   -1   -9   18      0.28      0.00
   -1   -9   17     -2.38      0.00
   -1   -9   16     -0.90      0.00
   -1   -9   15     -3.98      0.00
   -1   -9   14     -1.69      0.00
   -1   -9   13     -4.23      0.00
   -1   -9   12      0.42      0.00
   -1   -9   11     -3.67      0.00
   -1   -9   10      3.84      0.00
   -1   -9    9     -2.65      0.00
   -1   -9    8      5.02      0.00
   -1   -9    7     -1.61      0.00
   -1   -9    6      3.36      0.00
   -1   -9    5     -1.22      0.00
   -1   -9    4      1.44      0.00
   -1   -9    3     -3.31      0.00
   -1   -9    2     -0.62      0.00
   -1   -9    1     -5.97      0.00
    1    9    0     -1.95      0.00
    1    9    1     -2.59      0.00
    1    9    2     -0.54      0.00
    1    9    3      4.52      0.00
    1    9    4     -0.25      0.00
    1    9    5      5.94      0.00
    1    9    6     -3.13      0.00
    1    9    7      1.35      0.00
    1    9    8     -5.39      0.00
    1    9    9     -3.78      0.00
    1    9   10     -3.94      0.00
    1    9   11     -6.38      0.00
    1    9   12      1.19      0.00
    1    9   13     -4.73      0.00
    1    9   14      5.27      0.00
    1    9   15     -1.02      0.00
    1    9   16      5.05      0.00
    1    9   17      1.13      0.00
    1    9   18      2.91      0.00
    1    9   19      1.62      0.00
    1    9   20      0.90      0.00
    1    9   21      0.89      0.00
    1    9   22     -0.06      0.00
    1    9   23     -0.08      0.00
   -1  -10   18      0.24      0.00
   -1  -10   17      2.01      0.00
   -1  -10   16      0.30      0.00
   -1  -10   15      1.26      0.00
   -1  -10   14     -1.62      0.00
   -1  -10   13     -0.08      0.00
   -1  -10   12     -3.94      0.00
   -1  -10   11     -1.54      0.00
   -1  -10   10     -3.66      0.00
   -1  -10    9     -2.64      0.00
   -1  -10    8     -0.89      0.00
   -1  -10    7     -2.41      0.00
   -1  -10    6      1.80      0.00
   -1  -10    5     -0.95      0.00
   -1  -10    4      3.73      0.00
   -1  -10    3      0.94      0.00
   -1  -10    2      5.39      0.00
   -1  -10    1     -0.71      0.00
    1   10    0      5.39      0.00
    1   10    1     -6.00      0.00
    1   10    2      4.76      0.00
    1   10    3     -6.49      0.00
    1   10    4      5.85      0.00
    1   10    5     -0.86      0.00
    1   10    6      5.70      0.00
    1   10    7      4.05      0.00
    1   10    8      1.98      0.00
    1   10    9      5.12      0.00
    1   10   10     -2.73      0.00
    1   10   11      2.26      0.00
    1   10   12     -5.52      0.00
    1   10   13     -1.36      0.00
    1   10   14     -4.81      0.00
    1   10   15     -1.80      0.00
    1   10   16     -1.79      0.00
    1   10   17     -0.39      0.00
    1   10   18      0.71      0.00
    1   10   19      0.56      0.00
    1   10   20      1.46      0.00
    1   10   21      0.85      0.00
    1   10   22      0.62      0.00
   -1  -11   16      0.37      0.00
   -1  -11   15      2.69      0.00
   -1  -11   14      1.51      0.00
   -1  -11   13      3.81      0.00
   -1  -11   12      0.60      0.00
   -1  -11   11      3.79      0.00
   -1  -11   10     -1.67      0.00
   -1  -11    9      2.25      0.00
   -1  -11    8     -3.46      0.00
   -1  -11    7      0.87      0.00
   -1  -11    6     -4.64      0.00
   -1  -11    5      1.06      0.00
   -1  -11    4     -5.22      0.00
   -1  -11    3      2.06      0.00
   -1  -11    2     -3.37      0.00
   -1  -11    1      4.07      0.00
    1   11    0     -0.23      0.00
    1   11    1      3.74      0.00
    1   11    2      0.55      0.00
    1   11    3     -1.20      0.00
    1   11    4      0.69      0.00
    1   11    5     -4.85      0.00
    1   11    6      3.56      0.00
    1   11    7     -4.19      0.00
    1   11    8      6.63      0.00
    1   11    9     -1.18      0.00
    1   11   10      6.94      0.00
    1   11   11      1.61      0.00
    1   11   12      5.04      0.00
    1   11   13      0.84      0.00
    1   11   14      1.75      0.00
    1   11   15     -1.96      0.00
    1   11   16     -1.05      0.00
    1   11   17     -2.89      0.00
    1   11   18     -1.58      0.00
    1   11   19     -1.82      0.00
    1   11   20     -0.67      0.00
    1   11   21     -0.44      0.00
   -1  -12   15     -0.49      0.00
   -1  -12   14     -0.20      0.00
   -1  -12   13     -0.08      0.00
   -1  -12   12      1.37      0.00
   -1  -12   11      1.14      0.00
   -1  -12   10      2.28      0.00
   -1  -12    9      2.11      0.00
   -1  -12    8      2.09      0.00
   -1  -12    7      1.61      0.00
   -1  -12    6      1.05      0.00
   -1  -12    5      0.62      0.00
   -1  -12    4     -0.81      0.00
   -1  -12    3     -0.18      0.00
   -1  -12    2     -4.10      0.00
   -1  -12    1      0.31      0.00
    1   12    0     -6.68      0.00
    1   12    1      3.79      0.00
    1   12    2     -6.69      0.00
    1   12    3      6.08      0.00
    1   12    4     -6.24      0.00
    1   12    5      3.63      0.00
    1   12    6     -6.11      0.00
    1   12    7      0.62      0.00
    1   12    8     -5.61      0.00
    1   12    9     -0.10      0.00
    1   12   10     -4.46      0.00
    1   12   11      0.94      0.00
    1   12   12     -1.67      0.00
    1   12   13      2.83      0.00
    1   12   14      1.23      0.00
    1   12   15      3.15      0.00
    1   12   16      1.41      0.00
    1   12   17      1.43      0.00
    1   12   18     -0.16      0.00
    1   12   19     -0.18      0.00
    1   12   20     -1.18      0.00
   -1  -13   13     -2.08      0.00
   -1  -13   12     -1.02      0.00
   -1  -13   11     -1.89      0.00
   -1  -13   10     -0.45      0.00
   -1  -13    9     -0.50      0.00
   -1  -13    8      1.28      0.00
   -1  -13    7      0.57      0.00
   -1  -13    6      3.01      0.00
   -1  -13    5      0.50      0.00
   -1  -13    4      3.92      0.00
   -1  -13    3     -0.22      0.00
   -1  -13    2      4.63      0.00
   -1  -13    1     -2.26      0.00
    1   13    0      3.71      0.00
    1   13    1     -3.62      0.00
    1   13    2      1.59      0.00
    1   13    3     -1.25      0.00
    1   13    4      0.25      0.00
    1   13    5      1.80      0.00
    1   13    6     -0.46      0.00
    1   13    7      1.80      0.00
    1   13    8     -0.26      0.00
    1   13    9      0.24      0.00
    1   13   10     -0.40      0.00
    1   13   11     -0.91      0.00
    1   13   12     -1.71      0.00
    1   13   13     -1.04      0.00
    1   13   14     -1.57      0.00
    1   13   15      0.17      0.00
    1   13   16      0.10      0.00
    1   13   17      1.10      0.00
    1   13   18      1.03      0.00
   -1  -14   11     -1.10      0.00
   -1  -14   10     -0.97      0.00
   -1  -14    9     -2.13      0.00
   -1  -14    8     -1.77      0.00
   -1  -14    7     -1.25      0.00
   -1  -14    6     -1.49      0.00
   -1  -14    5      0.28      0.00
   -1  -14    4     -0.47      0.00
   -1  -14    3      0.58      0.00
   -1  -14    2      1.21      0.00
   -1  -14    1      0.01      0.00
    1   14    0      3.20      0.00
    1   14    1     -1.29      0.00
    1   14    2      3.10      0.00
    1   14    3     -2.43      0.00
    1   14    4      1.88      0.00
    1   14    5     -2.31      0.00
    1   14    6      1.65      0.00
    1   14    7     -1.74      0.00
    1   14    8      1.35      0.00
    1   14    9     -0.88      0.00
    1   14   10      0.92      0.00
    1   14   11      0.04      0.00
    1   14   12      0.43      0.00
    1   14   13     -0.24      0.00
    1   14   14     -0.55      0.00
    1   14   15     -0.81      0.00
    1   14   16     -0.93      0.00
   -1  -15    8      0.25      0.00
   -1  -15    7     -1.55      0.00
   -1  -15    6     -1.04      0.00
   -1  -15    5     -1.41      0.00
   -1  -15    4     -2.08      0.00
   -1  -15    3      0.36      0.00
   -1  -15    2     -2.69      0.00
   -1  -15    1      1.63      0.00
    1   15    0     -1.80      0.00
    1   15    1      1.91      0.00
    1   15    2      0.22      0.00
    1   15    3      0.99      0.00
    1   15    4      0.96      0.00
    1   15    5     -0.06      0.00
    1   15    6      0.57      0.00
    1   15    7     -0.20      0.00
    1   15    8      0.53      0.00
    1   15    9     -0.62      0.00
    1   15   10      0.70      0.00
    1   15   11     -0.93      0.00
    1   15   12      0.74      0.00
    1   15   13     -0.52      0.00
    1   15   14      0.50      0.00
   -1  -16    5     -0.10      0.00
   -1  -16    4      0.08      0.00
   -1  -16    3     -0.82      0.00
   -1  -16    2     -0.13      0.00
   -1  -16    1     -0.97      0.00
    1   16    0     -0.44      0.00
    1   16    1     -0.74      0.00
    1   16    2     -0.64      0.00
    1   16    3      0.51      0.00
    1   16    4     -0.63      0.00
    1   16    5      1.34      0.00
    1   16    6     -0.64      0.00
    1   16    7      0.98      0.00
    1   16    8     -0.45      0.00
    1   16    9      0.72      0.00
    1   16   10     -0.25      0.00
    1   16   11      0.50      0.00
   -2   16    7     -0.15      0.00
   -2   16    6      0.56      0.00
   -2   16    5      0.28      0.00
   -2   16    4      0.09      0.00
   -2   16    3      0.66      0.00
   -2   16    2      0.04      0.00
   -2   16    1      0.82      0.00
   -2   16    0      0.13      0.00
    2  -16    1      0.77      0.00
    2  -16    2     -0.28      0.00
    2  -16    3      0.63      0.00
    2  -16    4     -0.71      0.00
   -2   15   11      0.04      0.00
   -2   15   10     -0.50      0.00
   -2   15    9     -0.47      0.00
   -2   15    8     -0.64      0.00
   -2   15    7     -1.21      0.00
   -2   15    6      0.42      0.00
   -2   15    5     -1.90      0.00
   -2   15    4      1.51      0.00
   -2   15    3     -1.73      0.00
   -2   15    2      1.47      0.00
   -2   15    1     -1.10      0.00
   -2   15    0      1.35      0.00
    2  -15    1     -0.76      0.00
    2  -15    2      1.73      0.00
    2  -15    3     -1.00      0.00
    2  -15    4      1.49      0.00
    2  -15    5     -0.95      0.00
    2  -15    6      0.68      0.00
    2  -15    7      0.29      0.00
    2  -15    8      0.07      0.00
    2  -15    9      1.25      0.00
   -2   14   14      0.02      0.00
   -2   14   13     -0.10      0.00
   -2   14   12      0.42      0.00
   -2   14   11      0.54      0.00
   -2   14   10      0.61      0.00
   -2   14    9      0.98      0.00
   -2   14    8     -0.11      0.00
   -2   14    7      0.76      0.00
   -2   14    6     -0.96      0.00
   -2   14    5     -0.26      0.00
   -2   14    4     -1.27      0.00
   -2   14    3     -0.78      0.00
   -2   14    2     -1.12      0.00
   -2   14    1     -0.69      0.00
   -2   14    0     -0.75      0.00
    2  -14    1     -0.66      0.00
    2  -14    2      0.30      0.00
    2  -14    3     -0.79      0.00
    2  -14    4      1.81      0.00
    2  -14    5     -1.59      0.00
    2  -14    6      2.41      0.00
    2  -14    7     -2.50      0.00
    2  -14    8      1.92      0.00
    2  -14    9     -1.73      0.00
    2  -14   10      1.05      0.00
    2  -14   11      0.05      0.00
   -2   13   16      0.51      0.00
   -2   13   15      0.59      0.00
   -2   13   14      0.01      0.00
   -2   13   13     -0.07      0.00
   -2   13   12     -0.64      0.00
   -2   13   11     -0.52      0.00
   -2   13   10     -0.35      0.00
   -2   13    9      0.05      0.00
   -2   13    8      0.10      0.00
   -2   13    7      1.36      0.00
   -2   13    6      0.06      0.00
   -2   13    5      1.57      0.00
   -2   13    4     -0.08      0.00
   -2   13    3      0.55      0.00
   -2   13    2     -0.24      0.00
   -2   13    1      0.37      0.00
   -2   13    0     -1.01      0.00
    2  -13    1      1.14      0.00
    2  -13    2     -2.60      0.00
    2  -13    3      1.77      0.00
    2  -13    4     -3.02      0.00
    2  -13    5      1.51      0.00
    2  -13    6     -0.79      0.00
    2  -13    7     -0.28      0.00
    2  -13    8      1.82      0.00
    2  -13    9     -2.42      0.00
    2  -13   10      2.55      0.00
    2  -13   11     -3.00      0.00
    2  -13   12      1.82      0.00
    2  -13   13     -2.09      0.00
    2  -13   14      0.66      0.00
   -2   12   18     -0.83      0.00
   -2   12   17     -0.29      0.00
   -2   12   16     -0.65      0.00
   -2   12   15      0.65      0.00
   -2   12   14      0.43      0.00
   -2   12   13      1.08      0.00
   -2   12   12      0.60      0.00
   -2   12   11      0.32      0.00
   -2   12   10     -0.28      0.00
   -2   12    9     -0.45      0.00
   -2   12    8     -1.23      0.00
   -2   12    7      0.04      0.00
   -2   12    6     -1.18      0.00
   -2   12    5      0.91      0.00
   -2   12    4     -0.33      0.00
   -2   12    3      0.88      0.00
   -2   12    2     -0.19      0.00
   -2   12    1      0.50      0.00
   -2   12    0     -0.43      0.00
    2  -12    1      0.74      0.00
    2  -12    2     -0.85      0.00
    2  -12    3      1.75      0.00
    2  -12    4     -3.10      0.00
    2  -12    5      3.49      0.00
    2  -12    6     -5.88      0.00
    2  -12    7      4.84      0.00
    2  -12    8     -5.84      0.00
    2  -12    9      4.59      0.00
    2  -12   10     -3.70      0.00
    2  -12   11      3.30      0.00
    2  -12   12     -1.76      0.00
    2  -12   13      1.61      0.00
    2  -12   14     -0.48      0.00
    2  -12   15      0.06      0.00
    2  -12   16     -0.24      0.00
   -2   11   19      0.19      0.00
   -2   11   18      0.06      0.00
   -2   11   17     -1.16      0.00
   -2   11   16     -1.31      0.00
   -2   11   15     -1.89      0.00
   -2   11   14     -1.80      0.00
   -2   11   13     -0.71      0.00
   -2   11   12     -0.44      0.00
   -2   11   11      0.83      0.00
   -2   11   10      1.12      0.00
   -2   11    9      0.80      0.00
   -2   11    8      1.26      0.00
   -2   11    7      0.65      0.00
   -2   11    6     -0.03      0.00
   -2   11    5      1.91      0.00
   -2   11    4     -0.38      0.00
   -2   11    3      2.41      0.00
   -2   11    2      1.04      0.00
   -2   11    1      0.35      0.00
   -2   11    0      2.60      0.00
    2  -11    1     -2.81      0.00
    2  -11    2      4.17      0.00
    2  -11    3     -4.46      0.00
    2  -11    4      4.78      0.00
    2  -11    5     -3.47      0.00
    2  -11    6      2.76      0.00
    2  -11    7     -1.53      0.00
    2  -11    8     -0.12      0.00
    2  -11    9     -0.33      0.00
    2  -11   10     -1.50      0.00
    2  -11   11      0.51      0.00
    2  -11   12     -1.44      0.00
    2  -11   13      1.29      0.00
    2  -11   14     -0.78      0.00
    2  -11   15      1.60      0.00
    2  -11   16     -0.41      0.00
    2  -11   17      1.15      0.00
   -2   10   20      1.01      0.00
   -2   10   19      1.17      0.00
   -2   10   18      2.18      0.00
   -2   10   17      1.57      0.00
   -2   10   16      2.23      0.00
   -2   10   15      0.13      0.00
   -2   10   14      0.37      0.00
   -2   10   13     -2.21      0.00
   -2   10   12     -0.89      0.00
   -2   10   11     -3.13      0.00
   -2   10   10      0.28      0.00
   -2   10    9     -3.16      0.00
   -2   10    8      2.18      0.00
   -2   10    7     -3.73      0.00
   -2   10    6      2.13      0.00
   -2   10    5     -3.71      0.00
   -2   10    4      0.19      0.00
   -2   10    3     -1.61      0.00
   -2   10    2     -1.25      0.00
   -2   10    1      1.57      0.00
   -2   10    0     -1.58      0.00
    2  -10    1      3.26      0.00
    2  -10    2     -0.52      0.00
    2  -10    3      1.57      0.00
    2  -10    4      2.81      0.00
    2  -10    5     -1.55      0.00
    2  -10    6      5.81      0.00
    2  -10    7     -2.57      0.00
    2  -10    8      5.86      0.00
    2  -10    9     -1.81      0.00
    2  -10   10      3.68      0.00
    2  -10   11     -0.95      0.00
    2  -10   12      1.22      0.00
    2  -10   13     -0.66      0.00
    2  -10   14      0.74      0.00
    2  -10   15     -0.92      0.00
    2  -10   16      1.56      0.00
    2  -10   17     -0.44      0.00
    2  -10   18      1.38      0.00
    2  -10   19      0.22      0.00
   -2    9   21     -1.10      0.00
   -2    9   20     -1.04      0.00
   -2    9   19     -0.89      0.00
   -2    9   18     -0.62      0.00
   -2    9   17      0.64      0.00
   -2    9   16      1.38      0.00
   -2    9   15      3.10      0.00
   -2    9   14      2.57      0.00
   -2    9   13      3.69      0.00
   -2    9   12      0.92      0.00
   -2    9   11      2.24      0.00
   -2    9   10     -1.42      0.00
   -2    9    9      0.82      0.00
   -2    9    8     -0.72      0.00
   -2    9    7     -0.87      0.00
   -2    9    6      1.82      0.00
   -2    9    5     -2.72      0.00
   -2    9    4      1.52      0.00
   -2    9    3     -3.27      0.00
   -2    9    2     -1.45      0.00
   -2    9    1     -2.20      0.00
   -2    9    0     -4.12      0.00
    2   -9    1     -0.02      0.00
    2   -9    2     -5.93      0.00
    2   -9    3      1.87      0.00
    2   -9    4     -6.03      0.00
    2   -9    5      1.88      0.00
    2   -9    6     -3.90      0.00
    2   -9    7      0.52      0.00
    2   -9    8     -1.08      0.00
    2   -9    9     -0.44      0.00
    2   -9   10      0.96      0.00
    2   -9   11     -0.34      0.00
    2   -9   12      1.11      0.00
    2   -9   13      0.06      0.00
    2   -9   14      0.34      0.00
    2   -9   15     -0.57      0.00
    2   -9   16      0.95      0.00
    2   -9   17     -1.42      0.00
    2   -9   18      2.05      0.00
    2   -9   19     -0.84      0.00
    2   -9   20      1.97      0.00
   -2    8   22     -0.82      0.00
   -2    8   21     -0.31      0.00
   -2    8   20     -1.57      0.00
   -2    8   19     -1.69      0.00
   -2    8   18     -2.50      0.00
   -2    8   17     -3.52      0.00
   -2    8   16     -2.67      0.00
   -2    8   15     -3.25      0.00
   -2    8   14     -1.06      0.00
   -2    8   13     -0.17      0.00
   -2    8   12      0.86      0.00
   -2    8   11      2.33      0.00
   -2    8   10      0.30      0.00
   -2    8    9      3.27      0.00
   -2    8    8     -2.25      0.00
   -2    8    7      3.29      0.00
   -2    8    6     -1.26      0.00
   -2    8    5      0.79      0.00
   -2    8    4      4.46      0.00
   -2    8    3     -3.59      0.00
   -2    8    2      9.25      0.00
   -2    8    1     -6.83      0.00
   -2    8    0      9.62      0.00
    2   -8    1     -6.77      0.00
    2   -8    2      5.33      0.00
    2   -8    3     -3.85      0.00
    2   -8    4     -0.50      0.00
    2   -8    5     -1.33      0.00
    2   -8    6     -2.81      0.00
    2   -8    7     -1.26      0.00
    2   -8    8     -1.56      0.00
    2   -8    9     -2.74      0.00
    2   -8   10     -0.01      0.00
    2   -8   11     -2.84      0.00
    2   -8   12     -0.24      0.00
    2   -8   13     -0.17      0.00
    2   -8   14     -2.20      0.00
    2   -8   15      1.83      0.00
    2   -8   16     -3.45      0.00
    2   -8   17      1.00      0.00
    2   -8   18     -2.57      0.00
    2   -8   19     -0.33      0.00
    2   -8   20     -0.45      0.00
    2   -8   21     -0.64      0.00
   -2    7   22      1.25      0.00
   -2    7   21      2.04      0.00
   -2    7   20      1.10      0.00
   -2    7   19      3.09      0.00
   -2    7   18      0.56      0.00
   -2    7   17      2.38      0.00
   -2    7   16     -0.88      0.00
   -2    7   15     -0.41      0.00
   -2    7   14     -3.02      0.00
   -2    7   13     -2.08      0.00
   -2    7   12     -3.53      0.00
   -2    7   11     -1.01      0.00
   -2    7   10     -2.03      0.00
   -2    7    9      1.55      0.00
   -2    7    8     -2.70      0.00
   -2    7    7      4.93      0.00
   -2    7    6     -7.19      0.00
   -2    7    5      8.58      0.00
   -2    7    4    -10.71      0.00
   -2    7    3     11.01      0.00
   -2    7    2     -9.74      0.00
   -2    7    1     10.41      0.00
   -2    7    0     -4.55      0.00
    2   -7    1      6.67      0.00
    2   -7    2      2.00      0.00
    2   -7    3      3.40      0.00
    2   -7    4      3.75      0.00
    2   -7    5      3.32      0.00
    2   -7    6     -0.09      0.00
    2   -7    7      4.81      0.00
    2   -7    8     -2.80      0.00
    2   -7    9      4.45      0.00
    2   -7   10     -1.46      0.00
    2   -7   11      0.98      0.00
    2   -7   12      0.83      0.00
    2   -7   13     -1.42      0.00
    2   -7   14      1.07      0.00
    2   -7   15      0.15      0.00
    2   -7   16     -0.30      0.00
    2   -7   17      2.01      0.00
    2   -7   18     -1.69      0.00
    2   -7   19      1.95      0.00
    2   -7   20     -2.53      0.00
    2   -7   21      1.35      0.00
    2   -7   22     -2.01      0.00
   -2    6   23     -1.43      0.00
   -2    6   22      0.74      0.00
   -2    6   21     -1.33      0.00
   -2    6   20      1.43      0.00
   -2    6   19     -0.25      0.00
   -2    6   18      1.93      0.00
   -2    6   17      1.41      0.00
   -2    6   16      3.05      0.00
   -2    6   15      1.28      0.00
   -2    6   14      3.78      0.00
   -2    6   13     -0.91      0.00
   -2    6   12      2.45      0.00
   -2    6   11     -3.34      0.00
   -2    6   10      1.96      0.00
   -2    6    9     -4.49      0.00
   -2    6    8      3.70      0.00
   -2    6    7     -2.13      0.00
   -2    6    6      3.43      0.00
   -2    6    5      2.30      0.00
   -2    6    4     -0.23      0.00
   -2    6    3      4.94      0.00
   -2    6    2     -3.98      0.00
   -2    6    1      4.97      0.00
   -2    6    0     -5.29      0.00
    2   -6    1      3.31      0.00
    2   -6    2     -3.45      0.00
    2   -6    3      2.73      0.00
    2   -6    4     -0.19      0.00
    2   -6    5      4.24      0.00
    2   -6    6      0.37      0.00
    2   -6    7      4.77      0.00
    2   -6    8     -2.17      0.00
    2   -6    9      3.87      0.00
    2   -6   10     -3.07      0.00
    2   -6   11      2.22      0.00
    2   -6   12     -0.63      0.00
    2   -6   13     -0.90      0.00
    2   -6   14      1.93      0.00
    2   -6   15     -2.68      0.00
    2   -6   16      2.13      0.00
    2   -6   17     -0.82      0.00
    2   -6   18      0.58      0.00
    2   -6   19      1.40      0.00
    2   -6   20     -0.86      0.00
    2   -6   21      1.24      0.00
    2   -6   22     -1.32      0.00
    2   -6   23      0.14      0.00
   -2    5   23      0.01      0.00
   -2    5   22     -0.90      0.00
   -2    5   21     -1.26      0.00
   -2    5   20     -0.85      0.00
   -2    5   19     -2.17      0.00
   -2    5   18     -0.99      0.00
   -2    5   17     -1.96      0.00
   -2    5   16     -0.40      0.00
   -2    5   15     -0.91      0.00
   -2    5   14      1.97      0.00
   -2    5   13     -0.14      0.00
   -2    5   12      3.49      0.00
   -2    5   11     -0.65      0.00
   -2    5   10      2.13      0.00
   -2    5    9     -5.90      0.00
   -2    5    8      2.65      0.00
   -2    5    7    -15.67      0.00
   -2    5    6      7.43      0.00
   -2    5    5    -21.50      0.00
   -2    5    4     10.14      0.00
   -2    5    3    -18.14      0.00
   -2    5    2      6.23      0.00
   -2    5    1     -9.22      0.00
   -2    5    0      0.38      0.00
    2   -5    1     -4.49      0.00
    2   -5    2     -0.27      0.00
    2   -5    3     -8.80      0.00
    2   -5    4      4.30      0.00
    2   -5    5    -11.79      0.00
    2   -5    6      7.95      0.00
    2   -5    7     -5.91      0.00
    2   -5    8      5.99      0.00
    2   -5    9      1.54      0.00
    2   -5   10      0.47      0.00
    2   -5   11      4.60      0.00
    2   -5   12     -2.15      0.00
    2   -5   13      3.44      0.00
    2   -5   14     -0.08      0.00
    2   -5   15     -0.78      0.00
    2   -5   16      3.13      0.00
    2   -5   17     -4.42      0.00
    2   -5   18      4.38      0.00
    2   -5   19     -3.99      0.00
    2   -5   20      3.15      0.00
    2   -5   21     -1.17      0.00
    2   -5   22      1.28      0.00
    2   -5   23      0.29      0.00
   -2    4   23      1.05      0.00
   -2    4   22      0.01      0.00
   -2    4   21      1.33      0.00
   -2    4   20     -0.21      0.00
   -2    4   19      1.03      0.00
   -2    4   18     -1.01      0.00
   -2    4   17      1.05      0.00
   -2    4   16     -3.03      0.00
   -2    4   15      1.74      0.00
   -2    4   14     -3.48      0.00
   -2    4   13      2.40      0.00
   -2    4   12     -0.21      0.00
   -2    4   11      4.93      0.00
   -2    4   10      3.34      0.00
   -2    4    9     10.10      0.00
   -2    4    8      2.37      0.00
   -2    4    7     11.90      0.00
   -2    4    6     -1.00      0.00
   -2    4    5      5.03      0.00
   -2    4    4     -0.31      0.00
   -2    4    3     -6.87      0.00
   -2    4    2      2.77      0.00
   -2    4    1    -13.65      0.00
   -2    4    0      1.84      0.00
    2   -4    1    -10.13      0.00
    2   -4    2     -1.47      0.00
    2   -4    3     -6.39      0.00
    2   -4    4     -2.32      0.00
    2   -4    5    -11.86      0.00
    2   -4    6     -0.24      0.00
    2   -4    7    -16.81      0.00
    2   -4    8      3.01      0.00
    2   -4    9    -11.92      0.00
    2   -4   10      3.88      0.00
    2   -4   11     -2.61      0.00
    2   -4   12      0.42      0.00
    2   -4   13      4.46      0.00
    2   -4   14     -2.95      0.00
    2   -4   15      6.22      0.00
    2   -4   16     -2.47      0.00
    2   -4   17      3.06      0.00
    2   -4   18     -0.47      0.00
    2   -4   19     -0.26      0.00
    2   -4   20      0.58      0.00
    2   -4   21     -0.99      0.00
    2   -4   22      0.93      0.00
    2   -4   23     -0.30      0.00
    2   -4   24      0.68      0.00
   -2    3   24     -0.46      0.00
   -2    3   23     -0.19      0.00
   -2    3   22     -0.56      0.00
   -2    3   21     -0.05      0.00
   -2    3   20     -0.45      0.00
   -2    3   19      0.42      0.00
   -2    3   18     -0.25      0.00
   -2    3   17      0.49      0.00
   -2    3   16     -1.52      0.00
   -2    3   15      0.22      0.00
   -2    3   14     -5.16      0.00
   -2    3   13     -0.51      0.00
   -2    3   12     -8.58      0.00
   -2    3   11     -0.36      0.00
   -2    3   10     -9.40      0.00
   -2    3    9      5.40      0.00
   -2    3    8     -6.48      0.00
   -2    3    7     16.18      0.00
   -2    3    6     -0.53      0.00
   -2    3    5     24.69      0.00
   -2    3    4      6.56      0.00
   -2    3    3     26.63      0.00
   -2    3    2     11.48      0.00
   -2    3    1     24.60      0.00
   -2    3    0      6.27      0.00
    2   -3    1     25.34      0.00
    2   -3    2     -6.59      0.00
    2   -3    3     28.99      0.00
    2   -3    4    -11.05      0.00
    2   -3    5     23.71      0.00
    2   -3    6     -4.58      0.00
    2   -3    7      5.01      0.00
    2   -3    8      2.11      0.00
    2   -3    9    -12.48      0.00
    2   -3   10      5.15      0.00
    2   -3   11    -16.77      0.00
    2   -3   12      4.41      0.00
    2   -3   13    -10.74      0.00
    2   -3   14     -0.28      0.00
    2   -3   15     -2.16      0.00
    2   -3   16     -3.91      0.00
    2   -3   17      1.94      0.00
    2   -3   18     -2.78      0.00
    2   -3   19      0.73      0.00
    2   -3   20     -0.65      0.00
    2   -3   21     -0.95      0.00
    2   -3   22     -0.30      0.00
    2   -3   23     -1.21      0.00
    2   -3   24     -0.07      0.00
   -2    2   24      0.56      0.00
   -2    2   23      0.03      0.00
   -2    2   22      0.60      0.00
   -2    2   21     -0.02      0.00
   -2    2   20      0.77      0.00
   -2    2   19     -0.52      0.00
   -2    2   18      2.19      0.00
   -2    2   17     -0.12      0.00
   -2    2   16      4.23      0.00
   -2    2   15      1.13      0.00
   -2    2   14      4.00      0.00
   -2    2   13      0.48      0.00
   -2    2   12      0.72      0.00
   -2    2   11     -5.80      0.00
   -2    2   10     -3.79      0.00
   -2    2    9    -16.08      0.00
   -2    2    8     -9.20      0.00
   -2    2    7    -20.22      0.00
   -2    2    6    -16.33      0.00
   -2    2    5    -12.98      0.00
   -2    2    4    -21.57      0.00
   -2    2    3     -3.18      0.00
   -2    2    2    -13.60      0.00
   -2    2    1     -2.05      0.00
   -2    2    0      7.09      0.00
    2   -2    1     -6.82      0.00
    2   -2    2     15.03      0.00
    2   -2    3     -0.88      0.00
    2   -2    4      0.26      0.00
    2   -2    5     19.95      0.00
    2   -2    6    -13.25      0.00
    2   -2    7     35.16      0.00
    2   -2    8    -12.20      0.00
    2   -2    9     29.52      0.00
    2   -2   10     -5.16      0.00
    2   -2   11     12.17      0.00
    2   -2   12      1.74      0.00
    2   -2   13     -1.51      0.00
    2   -2   14      4.98      0.00
    2   -2   15     -5.18      0.00
    2   -2   16      2.78      0.00
    2   -2   17     -1.81      0.00
    2   -2   18     -0.43      0.00
    2   -2   19      1.83      0.00
    2   -2   20     -1.15      0.00
    2   -2   21      2.51      0.00
    2   -2   22     -0.72      0.00
    2   -2   23      1.13      0.00
    2   -2   24     -0.50      0.00
    2   -2   25     -0.09      0.00
   -2    1   24     -0.07      0.00
   -2    1   23      0.34      0.00
   -2    1   22      0.54      0.00
   -2    1   21      0.36      0.00
   -2    1   20      0.71      0.00
   -2    1   19     -0.17      0.00
   -2    1   18     -0.13      0.00
   -2    1   17     -1.64      0.00
   -2    1   16      1.19      0.00
   -2    1   15     -1.70      0.00
   -2    1   14      5.93      0.00
   -2    1   13      1.99      0.00
   -2    1   12     10.54      0.00
   -2    1   11      7.03      0.00
   -2    1   10     11.27      0.00
   -2    1    9      7.69      0.00
   -2    1    8      8.09      0.00
   -2    1    7      0.46      0.00
   -2    1    6      4.23      0.00
   -2    1    5    -10.98      0.00
   -2    1    4     -1.85      0.00
   -2    1    3    -20.33      0.00
   -2    1    2    -11.92      0.00
   -2    1    1    -25.29      0.00
   -2    1    0    -13.23      0.00
    2   -1    1    -27.82      0.00
    2   -1    2      0.52      0.00
    2   -1    3    -30.05      0.00
    2   -1    4      7.22      0.00
    2   -1    5    -25.24      0.00
    2   -1    6     -5.14      0.00
    2   -1    7     -7.51      0.00
    2   -1    8    -17.27      0.00
    2   -1    9     11.62      0.00
    2   -1   10    -17.24      0.00
    2   -1   11     18.25      0.00
    2   -1   12    -11.16      0.00
    2   -1   13     13.49      0.00
    2   -1   14     -4.60      0.00
    2   -1   15      6.44      0.00
    2   -1   16     -0.87      0.00
    2   -1   17      2.27      0.00
    2   -1   18     -0.19      0.00
    2   -1   19      0.64      0.00
    2   -1   20     -0.42      0.00
    2   -1   21      1.00      0.00
    2   -1   22     -0.64      0.00
    2   -1   23      1.82      0.00
    2   -1   24     -0.43      0.00
    2   -1   25      1.16      0.00
   -2    0   24      0.08      0.00
   -2    0   23     -1.00      0.00
   -2    0   22     -0.75      0.00
   -2    0   21     -0.76      0.00
   -2    0   20     -0.52      0.00
   -2    0   19     -0.24      0.00
   -2    0   18      0.11      0.00
   -2    0   17     -1.08      0.00
   -2    0   16     -1.77      0.00
   -2    0   15     -4.10      0.00
   -2    0   14     -3.81      0.00
   -2    0   13     -6.60      0.00
   -2    0   12     -0.69      0.00
   -2    0   11     -5.35      0.00
   -2    0   10      8.39      0.00
   -2    0    9     -1.55      0.00
   -2    0    8     18.06      0.00
   -2    0    7      1.49      0.00
   -2    0    6     22.38      0.00
   -2    0    5      4.78      0.00
   -2    0    4     19.88      0.00
   -2    0    3     12.75      0.00
   -2    0    2      7.58      0.00
   -2    0    1     19.93      0.00
    2    0    0     -7.02      0.00
    2    0    1     11.14      0.00
    2    0    2      2.58      0.00
    2    0    3    -14.59      0.00
    2    0    4     36.10      0.00
    2    0    5    -39.64      0.00
    2    0    6     53.89      0.00
    2    0    7    -48.00      0.00
    2    0    8     40.15      0.00
    2    0    9    -37.93      0.00
    2    0   10     17.85      0.00
    2    0   11    -20.32      0.00
    2    0   12      4.40      0.00
    2    0   13     -7.31      0.00
    2    0   14      0.22      0.00
    2    0   15     -2.38      0.00
    2    0   16      0.89      0.00
    2    0   17     -1.76      0.00
    2    0   18      1.61      0.00
    2    0   19     -1.80      0.00
    2    0   20      0.77      0.00
    2    0   21     -1.59      0.00
    2    0   22     -0.29      0.00
    2    0   23     -0.83      0.00
    2    0   24     -0.09      0.00
    2    0   25     -0.32      0.00
   -2   -1   23     -0.08      0.00
   -2   -1   22      0.06      0.00
   -2   -1   21     -0.53      0.00
   -2   -1   20     -1.25      0.00
   -2   -1   19      0.34      0.00
   -2   -1   18     -1.71      0.00
   -2   -1   17      3.30      0.00
   -2   -1   16     -0.98      0.00
   -2   -1   15      5.52      0.00
   -2   -1   14     -3.49      0.00
   -2   -1   13      3.86      0.00
   -2   -1   12    -10.45      0.00
   -2   -1   11      0.55      0.00
   -2   -1   10    -16.39      0.00
   -2   -1    9      1.21      0.00
   -2   -1    8    -16.16      0.00
   -2   -1    7      5.37      0.00
   -2   -1    6    -10.46      0.00
   -2   -1    5      4.82      0.00
   -2   -1    4     -0.70      0.00
   -2   -1    3     -1.35      0.00
   -2   -1    2      9.56      0.00
   -2   -1    1      1.84      0.00
    2    1    0      0.38      0.00
    2    1    1     22.19      0.00
    2    1    2    -33.53      0.00
    2    1    3     41.19      0.00
    2    1    4    -52.40      0.00
    2    1    5     40.30      0.00
    2    1    6    -32.77      0.00
    2    1    7     24.52      0.00
    2    1    8     -3.97      0.00
    2    1    9      8.08      0.00
    2    1   10      7.94      0.00
    2    1   11     -1.36      0.00
    2    1   12      7.21      0.00
    2    1   13     -4.26      0.00
    2    1   14      4.14      0.00
    2    1   15     -3.92      0.00
    2    1   16      2.17      0.00
    2    1   17     -2.44      0.00
    2    1   18      1.88      0.00
    2    1   19     -1.87      0.00
    2    1   20      2.77      0.00
    2    1   21     -2.03      0.00
    2    1   22      1.87      0.00
    2    1   23     -1.10      0.00
    2    1   24     -0.37      0.00
    2    1   25      0.12      0.00
    2    1   26     -0.68      0.00
   -2   -2   23      0.10      0.00
   -2   -2   22      0.53      0.00
   -2   -2   21      0.02      0.00
   -2   -2   20      1.04      0.00
   -2   -2   19     -1.21      0.00
   -2   -2   18     -0.11      0.00
   -2   -2   17     -2.29      0.00
   -2   -2   16     -0.80      0.00
   -2   -2   15     -0.14      0.00
   -2   -2   14      1.25      0.00
   -2   -2   13      4.00      0.00
   -2   -2   12      2.57      0.00
   -2   -2   11      5.31      0.00
   -2   -2   10     -1.03      0.00
   -2   -2    9      1.94      0.00
   -2   -2    8     -5.67      0.00
   -2   -2    7     -1.36      0.00
   -2   -2    6     -5.20      0.00
   -2   -2    5     -0.49      0.00
   -2   -2    4     -0.88      0.00
   -2   -2    3     -0.85      0.00
   -2   -2    2      6.18      0.00
   -2   -2    1     -4.25      0.00
    2    2    0     15.74      0.00
    2    2    1     -0.81      0.00
    2    2    2     13.99      0.00
    2    2    3      9.23      0.00
    2    2    4     -5.91      0.00
    2    2    5     12.89      0.00
    2    2    6    -22.34      0.00
    2    2    7      8.37      0.00
    2    2    8    -19.89      0.00
    2    2    9      4.06      0.00
    2    2   10     -9.36      0.00
    2    2   11      3.12      0.00
    2    2   12     -3.12      0.00
    2    2   13      3.58      0.00
    2    2   14     -2.46      0.00
    2    2   15      2.85      0.00
    2    2   16     -3.18      0.00
    2    2   17      1.01      0.00
    2    2   18     -2.65      0.00
    2    2   19     -0.03      0.00
    2    2   20     -0.75      0.00
    2    2   21     -0.28      0.00
    2    2   22      1.34      0.00
    2    2   23     -0.26      0.00
    2    2   24      1.46      0.00
    2    2   25     -0.19      0.00
    2    2   26      0.62      0.00
   -2   -3   23      1.41      0.00
   -2   -3   22     -0.21      0.00
   -2   -3   21      2.17      0.00
   -2   -3   20      0.98      0.00
   -2   -3   19      2.72      0.00
   -2   -3   18      2.07      0.00
   -2   -3   17      0.81      0.00
   -2   -3   16      1.81      0.00
   -2   -3   15     -3.46      0.00
   -2   -3   14      0.97      0.00
   -2   -3   13     -5.15      0.00
   -2   -3   12      2.83      0.00
   -2   -3   11     -2.94      0.00
   -2   -3   10      5.93      0.00
   -2   -3    9      0.16      0.00
   -2   -3    8      1.77      0.00
   -2   -3    7      2.11      0.00
   -2   -3    6     -9.72      0.00
   -2   -3    5      4.23      0.00
   -2   -3    4    -17.09      0.00
   -2   -3    3      4.63      0.00
   -2   -3    2    -11.62      0.00
   -2   -3    1     -6.50      0.00
    2    3    0      7.46      0.00
    2    3    1    -22.83      0.00
    2    3    2     28.56      0.00
    2    3    3    -21.13      0.00
    2    3    4     31.69      0.00
    2    3    5     -2.03      0.00
    2    3    6     14.14      0.00
    2    3    7     12.09      0.00
    2    3    8     -4.41      0.00
    2    3    9     11.94      0.00
    2    3   10     -9.86      0.00
    2    3   11      5.75      0.00
    2    3   12     -6.11      0.00
    2    3   13      2.97      0.00
    2    3   14     -1.70      0.00
    2    3   15      3.73      0.00
    2    3   16     -0.77      0.00
    2    3   17      4.32      0.00
    2    3   18     -2.71      0.00
    2    3   19      3.69      0.00
    2    3   20     -3.82      0.00
    2    3   21      1.82      0.00
    2    3   22     -2.33      0.00
    2    3   23      0.36      0.00
    2    3   24     -0.60      0.00
    2    3   25      0.29      0.00
    2    3   26     -0.30      0.00
   -2   -4   22     -1.23      0.00
   -2   -4   21     -0.50      0.00
   -2   -4   20     -1.48      0.00
   -2   -4   19      0.33      0.00
   -2   -4   18     -0.07      0.00
   -2   -4   17      2.33      0.00
   -2   -4   16      2.05      0.00
   -2   -4   15      3.16      0.00
   -2   -4   14      2.67      0.00
   -2   -4   13      0.59      0.00
   -2   -4   12      1.67      0.00
   -2   -4   11     -2.91      0.00
   -2   -4   10      3.13      0.00
   -2   -4    9     -4.06      0.00
   -2   -4    8      8.46      0.00
   -2   -4    7     -3.86      0.00
   -2   -4    6     10.15      0.00
   -2   -4    5     -4.56      0.00
   -2   -4    4      1.81      0.00
   -2   -4    3     -1.58      0.00
   -2   -4    2    -13.22      0.00
   -2   -4    1      6.20      0.00
    2    4    0    -24.81      0.00
    2    4    1      5.37      0.00
    2    4    2    -22.12      0.00
    2    4    3     -6.89      0.00
    2    4    4     -5.68      0.00
    2    4    5    -15.01      0.00
    2    4    6     10.30      0.00
    2    4    7    -12.24      0.00
    2    4    8     14.69      0.00
    2    4    9     -5.33      0.00
    2    4   10      9.74      0.00
    2    4   11     -2.46      0.00
    2    4   12      3.97      0.00
    2    4   13     -4.02      0.00
    2    4   14      1.96      0.00
    2    4   15     -3.88      0.00
    2    4   16      2.72      0.00
    2    4   17     -1.38      0.00
    2    4   18      3.03      0.00
    2    4   19      0.54      0.00
    2    4   20      1.31      0.00
    2    4   21      0.97      0.00
    2    4   22     -0.46      0.00
    2    4   23      0.30      0.00
    2    4   24     -0.76      0.00
    2    4   25      0.14      0.00
   -2   -5   22      1.07      0.00
   -2   -5   21     -2.84      0.00
   -2   -5   20     -0.05      0.00
   -2   -5   19     -4.28      0.00
   -2   -5   18     -2.29      0.00
   -2   -5   17     -3.60      0.00
   -2   -5   16     -2.98      0.00
   -2   -5   15     -1.16      0.00
   -2   -5   14     -0.89      0.00
   -2   -5   13      1.64      0.00
   -2   -5   12      0.31      0.00
   -2   -5   11      1.77      0.00
   -2   -5   10      0.33      0.00
   -2   -5    9     -2.86      0.00
   -2   -5    8      4.32      0.00
   -2   -5    7     -7.02      0.00
   -2   -5    6     13.06      0.00
   -2   -5    5     -6.65      0.00
   -2   -5    4     19.59      0.00
   -2   -5    3     -5.26      0.00
   -2   -5    2     18.40      0.00
   -2   -5    1     -3.36      0.00
    2    5    0     11.59      0.00
    2    5    1     -0.97      0.00
    2    5    2      3.94      0.00
    2    5    3     -3.42      0.00
    2    5    4     -0.48      0.00
    2    5    5     -9.24      0.00
    2    5    6     -0.68      0.00
    2    5    7    -10.20      0.00
    2    5    8      0.00      0.00
    2    5    9     -4.60      0.00
    2    5   10      0.31      0.00
    2    5   11      1.37      0.00
    2    5   12      0.59      0.00
    2    5   13      1.52      0.00
    2    5   14     -0.17      0.00
    2    5   15     -2.48      0.00
    2    5   16     -0.68      0.00
    2    5   17     -4.63      0.00
    2    5   18      0.29      0.00
    2    5   19     -3.52      0.00
    2    5   20      1.13      0.00
    2    5   21     -1.36      0.00
    2    5   22      0.91      0.00
    2    5   23     -0.23      0.00
    2    5   24      0.40      0.00
    2    5   25     -0.41      0.00
   -2   -6   21      1.91      0.00
   -2   -6   20      1.02      0.00
   -2   -6   19      1.40      0.00
   -2   -6   18      0.30      0.00
   -2   -6   17     -0.39      0.00
   -2   -6   16     -2.48      0.00
   -2   -6   15     -1.66      0.00
   -2   -6   14     -4.83      0.00
   -2   -6   13     -1.01      0.00
   -2   -6   12     -5.06      0.00
   -2   -6   11      2.96      0.00
   -2   -6   10     -6.52      0.00
   -2   -6    9      7.46      0.00
   -2   -6    8    -10.50      0.00
   -2   -6    7      7.35      0.00
   -2   -6    6    -12.32      0.00
   -2   -6    5      4.45      0.00
   -2   -6    4     -7.26      0.00
   -2   -6    3      2.31      0.00
   -2   -6    2      0.53      0.00
   -2   -6    1      2.61      0.00
    2    6    0      2.39      0.00
    2    6    1      7.52      0.00
    2    6    2     -2.07      0.00
    2    6    3     12.66      0.00
    2    6    4     -7.11      0.00
    2    6    5     10.87      0.00
    2    6    6     -7.64      0.00
    2    6    7      3.08      0.00
    2    6    8     -3.72      0.00
    2    6    9     -3.39      0.00
    2    6   10     -0.59      0.00
    2    6   11     -2.85      0.00
    2    6   12      1.07      0.00
    2    6   13      1.84      0.00
    2    6   14      2.72      0.00
    2    6   15      3.70      0.00
    2    6   16      2.60      0.00
    2    6   17      1.77      0.00
    2    6   18      1.48      0.00
    2    6   19     -0.44      0.00
    2    6   20      1.06      0.00
    2    6   21     -1.27      0.00
    2    6   22      0.95      0.00
    2    6   23     -0.90      0.00
    2    6   24      0.45      0.00
    2    6   25     -0.07      0.00
   -2   -7   20     -0.03      0.00
   -2   -7   19      1.93      0.00
   -2   -7   18      2.51      0.00
   -2   -7   17      2.56      0.00
   -2   -7   16      3.29      0.00
   -2   -7   15      2.16      0.00
   -2   -7   14      1.69      0.00
   -2   -7   13     -0.36      0.00
   -2   -7   12      0.04      0.00
   -2   -7   11     -2.31      0.00
   -2   -7   10     -0.62      0.00
   -2   -7    9     -0.02      0.00
   -2   -7    8     -1.27      0.00
   -2   -7    7      3.78      0.00
   -2   -7    6     -3.73      0.00
   -2   -7    5      4.66      0.00
   -2   -7    4     -7.04      0.00
   -2   -7    3      3.67      0.00
   -2   -7    2     -6.39      0.00
   -2   -7    1      1.49      0.00
    2    7    0     -1.31      0.00
    2    7    1     -0.82      0.00
    2    7    2      3.35      0.00
    2    7    3      0.52      0.00
    2    7    4      4.79      0.00
    2    7    5      3.49      0.00
    2    7    6      2.96      0.00
    2    7    7      3.65      0.00
    2    7    8     -0.20      0.00
    2    7    9      1.25      0.00
    2    7   10     -3.18      0.00
    2    7   11     -1.38      0.00
    2    7   12     -6.02      0.00
    2    7   13     -0.87      0.00
    2    7   14     -6.72      0.00
    2    7   15      2.65      0.00
    2    7   16     -4.62      0.00
    2    7   17      4.70      0.00
    2    7   18     -2.20      0.00
    2    7   19      3.89      0.00
    2    7   20     -0.63      0.00
    2    7   21      2.08      0.00
    2    7   22      0.05      0.00
    2    7   23      0.56      0.00
    2    7   24      0.16      0.00
   -2   -8   19     -0.74      0.00
   -2   -8   18     -0.36      0.00
   -2   -8   17     -0.71      0.00
   -2   -8   16      2.07      0.00
   -2   -8   15      0.61      0.00
   -2   -8   14      3.36      0.00
   -2   -8   13      1.83      0.00
   -2   -8   12      3.29      0.00
   -2   -8   11     -0.13      0.00
   -2   -8   10      3.30      0.00
   -2   -8    9     -3.58      0.00
   -2   -8    8      3.73      0.00
   -2   -8    7     -3.85      0.00
   -2   -8    6      3.63      0.00
   -2   -8    5     -0.82      0.00
   -2   -8    4      1.10      0.00
   -2   -8    3      1.09      0.00
   -2   -8    2     -1.60      0.00
   -2   -8    1      0.35      0.00
    2    8    0     -1.97      0.00
    2    8    1     -0.77      0.00
    2    8    2     -2.27      0.00
    2    8    3      0.23      0.00
    2    8    4     -2.18      0.00
    2    8    5      3.75      0.00
    2    8    6      0.44      0.00
    2    8    7      5.92      0.00
    2    8    8      3.93      0.00
    2    8    9      4.37      0.00
    2    8   10      6.20      0.00
    2    8   11      0.56      0.00
    2    8   12      6.25      0.00
    2    8   13     -4.31      0.00
    2    8   14      3.91      0.00
    2    8   15     -6.82      0.00
    2    8   16      0.76      0.00
    2    8   17     -4.81      0.00
    2    8   18     -1.49      0.00
    2    8   19     -1.40      0.00
    2    8   20     -2.10      0.00
    2    8   21      0.51      0.00
    2    8   22     -0.99      0.00
    2    8   23      0.44      0.00
    2    8   24      0.35      0.00
   -2   -9   18     -0.90      0.00
   -2   -9   17     -1.53      0.00
   -2   -9   16     -1.00      0.00
   -2   -9   15     -2.24      0.00
   -2   -9   14      0.68      0.00
   -2   -9   13     -1.24      0.00
   -2   -9   12      2.16      0.00
   -2   -9   11      0.66      0.00
   -2   -9   10      2.34      0.00
   -2   -9    9      0.75      0.00
   -2   -9    8      1.82      0.00
   -2   -9    7     -1.67      0.00
   -2   -9    6      2.47      0.00
   -2   -9    5     -3.76      0.00
   -2   -9    4      3.42      0.00
   -2   -9    3     -3.28      0.00
   -2   -9    2      1.34      0.00
   -2   -9    1     -2.29      0.00
    2    9    0     -0.84      0.00
    2    9    1     -3.33      0.00
    2    9    2     -0.89      0.00
    2    9    3     -5.42      0.00
    2    9    4     -2.91      0.00
    2    9    5     -5.40      0.00
    2    9    6     -5.99      0.00
    2    9    7     -1.94      0.00
    2    9    8     -6.21      0.00
    2    9    9      2.40      0.00
    2    9   10     -4.03      0.00
    2    9   11      5.17      0.00
    2    9   12     -0.99      0.00
    2    9   13      5.69      0.00
    2    9   14      1.30      0.00
    2    9   15      3.36      0.00
    2    9   16      1.79      0.00
    2    9   17     -0.02      0.00
    2    9   18      1.17      0.00
    2    9   19     -1.80      0.00
    2    9   20      0.13      0.00
    2    9   21     -1.37      0.00
    2    9   22     -0.77      0.00
    2    9   23      0.23      0.00
   -2  -10   17      0.73      0.00
   -2  -10   16     -1.80      0.00
   -2  -10   15     -0.75      0.00
   -2  -10   14     -2.96      0.00
   -2  -10   13     -1.62      0.00
   -2  -10   12     -2.85      0.00
   -2  -10   11     -0.86      0.00
   -2  -10   10     -1.47      0.00
   -2  -10    9      0.50      0.00
   -2  -10    8      0.32      0.00
   -2  -10    7      0.51      0.00
   -2  -10    6      1.17      0.00
   -2  -10    5     -0.73      0.00
   -2  -10    4      1.58      0.00
   -2  -10    3     -1.07      0.00
   -2  -10    2      3.05      0.00
   -2  -10    1     -1.06      0.00
    2   10    0      4.87      0.00
    2   10    1     -1.79      0.00
    2   10    2      6.89      0.00
    2   10    3     -2.62      0.00
    2   10    4      7.81      0.00
    2   10    5     -4.19      0.00
    2   10    6      5.10      0.00
    2   10    7     -6.33      0.00
    2   10    8      1.21      0.00
    2   10    9     -6.51      0.00
    2   10   10     -1.42      0.00
    2   10   11     -4.00      0.00
    2   10   12     -2.67      0.00
    2   10   13     -0.96      0.00
    2   10   14     -1.26      0.00
    2   10   15      0.85      0.00
    2   10   16      1.29      0.00
    2   10   17      1.29      0.00
    2   10   18      2.06      0.00
    2   10   19      0.69      0.00
    2   10   20      1.12      0.00
    2   10   21     -0.40      0.00
    2   10   22     -0.03      0.00
   -2  -11   16      0.05      0.00
   -2  -11   15      2.72      0.00
   -2  -11   14     -0.64      0.00
   -2  -11   13      1.75      0.00
   -2  -11   12     -1.53      0.00
   -2  -11   11     -0.07      0.00
   -2  -11   10     -2.57      0.00
   -2  -11    9     -0.37      0.00
   -2  -11    8     -3.29      0.00
   -2  -11    7      1.18      0.00
   -2  -11    6     -2.98      0.00
   -2  -11    5      2.10      0.00
   -2  -11    4     -2.78      0.00
   -2  -11    3      2.06      0.00
   -2  -11    2     -3.72      0.00
   -2  -11    1      3.42      0.00
    2   11    0     -4.70      0.00
    2   11    1      4.57      0.00
    2   11    2     -4.03      0.00
    2   11    3      3.93      0.00
    2   11    4     -0.49      0.00
    2   11    5      3.04      0.00
    2   11    6      3.79      0.00
    2   11    7      1.50      0.00
    2   11    8      5.07      0.00
    2   11    9     -0.87      0.00
    2   11   10      3.68      0.00
    2   11   11     -2.16      0.00
    2   11   12      1.12      0.00
    2   11   13     -1.87      0.00
    2   11   14     -1.53      0.00
    2   11   15     -0.95      0.00
    2   11   16     -2.09      0.00
    2   11   17      0.26      0.00
    2   11   18     -0.61      0.00
    2   11   19      1.38      0.00
    2   11   20      0.91      0.00
    2   11   21      1.54      0.00
   -2  -12   14      1.61      0.00
   -2  -12   13      1.07      0.00
   -2  -12   12      1.24      0.00
   -2  -12   11      2.01      0.00
   -2  -12   10      0.13      0.00
   -2  -12    9      1.59      0.00
   -2  -12    8     -1.39      0.00
   -2  -12    7      0.16      0.00
   -2  -12    6     -1.70      0.00
   -2  -12    5     -0.67      0.00
   -2  -12    4     -0.64      0.00
   -2  -12    3     -0.26      0.00
   -2  -12    2     -0.59      0.00
   -2  -12    1      0.50      0.00
    2   12    0     -1.90      0.00
    2   12    1      1.65      0.00
    2   12    2     -4.07      0.00
    2   12    3      3.06      0.00
    2   12    4     -6.70      0.00
    2   12    5      5.03      0.00
    2   12    6     -7.32      0.00
    2   12    7      6.81      0.00
    2   12    8     -4.68      0.00
    2   12    9      5.48      0.00
    2   12   10     -1.26      0.00
    2   12   11      2.49      0.00
    2   12   12      0.46      0.00
    2   12   13      1.01      0.00
    2   12   14      0.55      0.00
    2   12   15     -0.09      0.00
    2   12   16      0.05      0.00
    2   12   17     -1.58      0.00
    2   12   18     -0.19      0.00
    2   12   19     -1.91      0.00
    2   12   20      0.16      0.00
   -2  -13   13     -1.44      0.00
   -2  -13   12      0.62      0.00
   -2  -13   11     -1.26      0.00
   -2  -13   10      2.01      0.00
   -2  -13    9     -0.55      0.00
   -2  -13    8      2.94      0.00
   -2  -13    7      0.23      0.00
   -2  -13    6      1.94      0.00
   -2  -13    5     -0.32      0.00
   -2  -13    4      1.18      0.00
   -2  -13    3     -1.79      0.00
   -2  -13    2      2.16      0.00
   -2  -13    1     -2.90      0.00
    2   13    0      3.23      0.00
    2   13    1     -3.73      0.00
    2   13    2      3.93      0.00
    2   13    3     -4.25      0.00
    2   13    4      3.50      0.00
    2   13    5     -4.18      0.00
    2   13    6      1.52      0.00
    2   13    7     -2.74      0.00
    2   13    8      0.02      0.00
    2   13    9     -0.21      0.00
    2   13   10     -0.11      0.00
    2   13   11      0.91      0.00
    2   13   12      0.04      0.00
    2   13   13      0.86      0.00
    2   13   14     -0.15      0.00
    2   13   15      1.40      0.00
    2   13   16     -0.59      0.00
    2   13   17      1.70      0.00
    2   13   18     -1.37      0.00
   -2  -14   10     -0.08      0.00
   -2  -14    9     -1.12      0.00
   -2  -14    8      0.01      0.00
   -2  -14    7     -0.25      0.00
   -2  -14    6      0.97      0.00
   -2  -14    5      0.89      0.00
   -2  -14    4      0.93      0.00
   -2  -14    3      0.96      0.00
   -2  -14    2     -0.04      0.00
   -2  -14    1      0.50      0.00
    2   14    0     -0.37      0.00
    2   14    1     -0.06      0.00
    2   14    2      0.53      0.00
    2   14    3     -1.19      0.00
    2   14    4      2.21      0.00
    2   14    5     -2.40      0.00
    2   14    6      2.18      0.00
    2   14    7     -2.74      0.00
    2   14    8      0.23      0.00
    2   14    9     -2.14      0.00
    2   14   10     -0.25      0.00
    2   14   11     -1.17      0.00
    2   14   12      0.58      0.00
    2   14   13     -0.38      0.00
    2   14   14      0.62      0.00
    2   14   15     -0.06      0.00
    2   14   16      0.72      0.00
    2   14   17     -0.06      0.00
   -2  -15    8     -0.57      0.00
   -2  -15    7     -0.65      0.00
   -2  -15    6     -0.42      0.00
   -2  -15    5     -0.45      0.00
   -2  -15    4      0.19      0.00
   -2  -15    3      0.66      0.00
   -2  -15    2      0.25      0.00
   -2  -15    1      1.31      0.00
    2   15    0     -0.54      0.00
    2   15    1      1.56      0.00
    2   15    2     -1.22      0.00
    2   15    3      1.45      0.00
    2   15    4     -1.02      0.00
    2   15    5      1.01      0.00
    2   15    6      0.34      0.00
    2   15    7      0.20      0.00
    2   15    8      1.08      0.00
    2   15    9     -0.75      0.00
    2   15   10      0.24      0.00
    2   15   11     -1.27      0.00
    2   15   12     -0.02      0.00
    2   15   13     -1.30      0.00
    2   15   14      0.45      0.00
   -2  -16    4     -0.92      0.00
   -2  -16    3     -0.94      0.00
   -2  -16    2     -0.13      0.00
   -2  -16    1     -0.32      0.00
    2   16    0      0.34      0.00
    2   16    1      0.50      0.00
    2   16    2      0.05      0.00
    2   16    3      0.99      0.00
    2   16    4     -0.74      0.00
    2   16    5      0.88      0.00
    2   16    6     -1.19      0.00
    2   16    7      0.89      0.00
    2   16    8     -0.72      0.00
    2   16    9      1.11      0.00
    2   16   10     -0.20      0.00
    2   16   11      0.73      0.00
   -3   16    5     -0.81      0.00
   -3   16    4      0.84      0.00
   -3   16    3     -0.75      0.00
   -3   16    2      1.35      0.00
   -3   16    1     -0.04      0.00
   -3   16    0      1.18      0.00
    3  -16    1      0.09      0.00
    3  -16    2      0.69      0.00
    3  -16    3     -0.25      0.00
   -3   15   10     -0.42      0.00
   -3   15    9     -0.38      0.00
   -3   15    8     -0.23      0.00
   -3   15    7      0.24      0.00
   -3   15    6     -0.14      0.00
   -3   15    5      0.04      0.00
   -3   15    4     -0.30      0.00
   -3   15    3     -0.60      0.00
   -3   15    2     -0.19      0.00
   -3   15    1     -0.77      0.00
   -3   15    0      0.27      0.00
    3  -15    1     -0.38      0.00
    3  -15    2      0.61      0.00
    3  -15    3      0.01      0.00
    3  -15    4      0.79      0.00
    3  -15    5     -0.12      0.00
    3  -15    6      1.13      0.00
    3  -15    7     -0.15      0.00
    3  -15    8      1.27      0.00
   -3   14   13      0.77      0.00
   -3   14   12      0.73      0.00
   -3   14   11      0.74      0.00
   -3   14   10      0.70      0.00
   -3   14    9      0.04      0.00
   -3   14    8      0.01      0.00
   -3   14    7      0.08      0.00
   -3   14    6     -0.54      0.00
   -3   14    5      0.50      0.00
   -3   14    4     -0.44      0.00
   -3   14    3     -0.05      0.00
   -3   14    2      0.03      0.00
   -3   14    1     -1.00      0.00
   -3   14    0      0.24      0.00
    3  -14    1     -1.28      0.00
    3  -14    2      0.04      0.00
    3  -14    3     -0.87      0.00
    3  -14    4      0.05      0.00
    3  -14    5     -1.01      0.00
    3  -14    6      0.78      0.00
    3  -14    7     -1.93      0.00
    3  -14    8      1.57      0.00
    3  -14    9     -1.93      0.00
    3  -14   10      1.99      0.00
    3  -14   11     -1.18      0.00
   -3   13   15     -0.19      0.00
   -3   13   14     -0.88      0.00
   -3   13   13     -0.71      0.00
   -3   13   12     -0.79      0.00
   -3   13   11     -0.22      0.00
   -3   13   10     -0.08      0.00
   -3   13    9      0.33      0.00
   -3   13    8      0.40      0.00
   -3   13    7      0.41      0.00
   -3   13    6     -0.04      0.00
   -3   13    5      0.73      0.00
   -3   13    4     -0.79      0.00
   -3   13    3      1.36      0.00
   -3   13    2     -1.24      0.00
   -3   13    1      1.78      0.00
   -3   13    0     -1.08      0.00
    3  -13    1      1.52      0.00
    3  -13    2     -0.82      0.00
    3  -13    3      1.22      0.00
    3  -13    4     -1.38      0.00
    3  -13    5      1.96      0.00
    3  -13    6     -2.08      0.00
    3  -13    7      2.54      0.00
    3  -13    8     -1.91      0.00
    3  -13    9      1.26      0.00
    3  -13   10     -0.91      0.00
    3  -13   11     -0.42      0.00
    3  -13   12      0.33      0.00
    3  -13   13     -0.74      0.00
    3  -13   14      0.75      0.00
   -3   12   17      0.01      0.00
   -3   12   16      0.41      0.00
   -3   12   15      1.02      0.00
   -3   12   14      0.15      0.00
   -3   12   13      1.21      0.00
   -3   12   12     -0.75      0.00
   -3   12   11      0.38      0.00
   -3   12   10     -1.28      0.00
   -3   12    9     -0.15      0.00
   -3   12    8     -0.58      0.00
   -3   12    7      0.00      0.00
   -3   12    6      0.10      0.00
   -3   12    5      0.37      0.00
   -3   12    4     -0.05      0.00
   -3   12    3      0.35      0.00
   -3   12    2     -0.23      0.00
   -3   12    1     -0.01      0.00
   -3   12    0      0.00      0.00
    3  -12    1     -0.18      0.00
    3  -12    2      0.49      0.00
    3  -12    3     -0.20      0.00
    3  -12    4      0.09      0.00
    3  -12    5     -0.06      0.00
    3  -12    6     -1.50      0.00
    3  -12    7      1.02      0.00
    3  -12    8     -2.86      0.00
    3  -12    9      2.91      0.00
    3  -12   10     -3.65      0.00
    3  -12   11      3.29      0.00
    3  -12   12     -3.46      0.00
    3  -12   13      1.64      0.00
    3  -12   14     -2.05      0.00
    3  -12   15      0.22      0.00
    3  -12   16     -0.85      0.00
   -3   11   18     -0.11      0.00
   -3   11   17     -0.83      0.00
   -3   11   16      0.11      0.00
   -3   11   15     -1.38      0.00
   -3   11   14      0.86      0.00
   -3   11   13     -0.87      0.00
   -3   11   12      1.55      0.00
   -3   11   11     -0.30      0.00
   -3   11   10      1.01      0.00
   -3   11    9     -0.83      0.00
   -3   11    8      0.38      0.00
   -3   11    7     -1.25      0.00
   -3   11    6      0.62      0.00
   -3   11    5     -0.18      0.00
   -3   11    4      0.77      0.00
   -3   11    3      1.30      0.00
   -3   11    2      0.10      0.00
   -3   11    1      1.70      0.00
   -3   11    0     -0.97      0.00
    3  -11    1      0.94      0.00
    3  -11    2     -0.73      0.00
    3  -11    3     -0.35      0.00
    3  -11    4      1.80      0.00
    3  -11    5     -1.73      0.00
    3  -11    6      3.70      0.00
    3  -11    7     -2.94      0.00
    3  -11    8      2.76      0.00
    3  -11    9     -2.78      0.00
    3  -11   10      1.02      0.00
    3  -11   11     -0.72      0.00
    3  -11   12     -0.35      0.00
    3  -11   13      1.21      0.00
    3  -11   14     -1.31      0.00
    3  -11   15      1.41      0.00
    3  -11   16     -1.34      0.00
    3  -11   17      0.73      0.00
   -3   10   19      0.09      0.00
   -3   10   18      0.34      0.00
   -3   10   17      0.43      0.00
   -3   10   16     -0.17      0.00
   -3   10   15     -0.15      0.00
   -3   10   14     -1.01      0.00
   -3   10   13     -0.66      0.00
   -3   10   12     -0.72      0.00
   -3   10   11      0.09      0.00
   -3   10   10      0.35      0.00
   -3   10    9      0.45      0.00
   -3   10    8      0.59      0.00
   -3   10    7     -1.62      0.00
   -3   10    6      0.43      0.00
   -3   10    5     -3.88      0.00
   -3   10    4      0.82      0.00
   -3   10    3     -3.45      0.00
   -3   10    2      1.57      0.00
   -3   10    1     -1.10      0.00
   -3   10    0      1.51      0.00
    3  -10    1      1.18      0.00
    3  -10    2     -0.29      0.00
    3  -10    3      1.93      0.00
    3  -10    4     -1.69      0.00
    3  -10    5      1.37      0.00
    3  -10    6      0.33      0.00
    3  -10    7      0.24      0.00
    3  -10    8      3.59      0.00
    3  -10    9     -1.39      0.00
    3  -10   10      4.33      0.00
    3  -10   11     -2.40      0.00
    3  -10   12      3.32      0.00
    3  -10   13     -1.84      0.00
    3  -10   14      2.29      0.00
    3  -10   15     -0.81      0.00
    3  -10   16      1.42      0.00
    3  -10   17     -0.61      0.00
    3  -10   18      0.89      0.00
    3  -10   19     -0.99      0.00
   -3    9   20      0.74      0.00
   -3    9   19      0.03      0.00
   -3    9   18      0.79      0.00
   -3    9   17      0.24      0.00
   -3    9   16      1.16      0.00
   -3    9   15      0.66      0.00
   -3    9   14      1.08      0.00
   -3    9   13      0.03      0.00
   -3    9   12     -0.08      0.00
   -3    9   11     -0.31      0.00
   -3    9   10     -0.59      0.00
   -3    9    9      1.49      0.00
   -3    9    8      0.49      0.00
   -3    9    7      3.14      0.00
   -3    9    6      1.44      0.00
   -3    9    5      1.14      0.00
   -3    9    4      1.46      0.00
   -3    9    3     -3.23      0.00
   -3    9    2      1.39      0.00
   -3    9    1     -5.81      0.00
   -3    9    0      1.71      0.00
    3   -9    1     -4.48      0.00
    3   -9    2      1.26      0.00
    3   -9    3     -0.68      0.00
    3   -9    4     -1.76      0.00
    3   -9    5      1.85      0.00
    3   -9    6     -5.22      0.00
    3   -9    7      1.94      0.00
    3   -9    8     -4.66      0.00
    3   -9    9      1.04      0.00
    3   -9   10     -1.06      0.00
    3   -9   11     -0.19      0.00
    3   -9   12      0.95      0.00
    3   -9   13     -0.53      0.00
    3   -9   14      0.56      0.00
    3   -9   15      0.52      0.00
    3   -9   16      0.15      0.00
    3   -9   17      1.10      0.00
    3   -9   18      0.44      0.00
    3   -9   19      0.28      0.00
    3   -9   20      0.56      0.00
   -3    8   21      0.62      0.00
   -3    8   20     -1.43      0.00
   -3    8   19      0.55      0.00
   -3    8   18     -1.28      0.00
   -3    8   17     -0.15      0.00
   -3    8   16     -0.93      0.00
   -3    8   15      0.11      0.00
   -3    8   14     -0.04      0.00
   -3    8   13      0.94      0.00
   -3    8   12      0.04      0.00
   -3    8   11      0.05      0.00
   -3    8   10     -1.82      0.00
   -3    8    9     -1.25      0.00
   -3    8    8     -3.74      0.00
   -3    8    7      0.58      0.00
   -3    8    6     -3.39      0.00
   -3    8    5      4.40      0.00
   -3    8    4     -1.62      0.00
   -3    8    3      5.20      0.00
   -3    8    2      0.27      0.00
   -3    8    1      1.05      0.00
   -3    8    0      2.25      0.00
    3   -8    1     -4.96      0.00
    3   -8    2      4.82      0.00
    3   -8    3     -7.78      0.00
    3   -8    4      6.75      0.00
    3   -8    5     -5.40      0.00
    3   -8    6      4.75      0.00
    3   -8    7     -1.64      0.00
    3   -8    8     -0.22      0.00
    3   -8    9      0.05      0.00
    3   -8   10     -2.59      0.00
    3   -8   11     -0.03      0.00
    3   -8   12     -0.96      0.00
    3   -8   13     -1.06      0.00
    3   -8   14      0.40      0.00
    3   -8   15     -1.23      0.00
    3   -8   16     -0.70      0.00
    3   -8   17      0.33      0.00
    3   -8   18     -1.41      0.00
    3   -8   19      1.67      0.00
    3   -8   20     -0.49      0.00
    3   -8   21      1.45      0.00
   -3    7   21     -0.89      0.00
   -3    7   20     -0.22      0.00
   -3    7   19      0.35      0.00
   -3    7   18     -0.57      0.00
   -3    7   17      1.43      0.00
   -3    7   16     -1.05      0.00
   -3    7   15      0.97      0.00
   -3    7   14     -0.66      0.00
   -3    7   13      0.42      0.00
   -3    7   12      0.88      0.00
   -3    7   11      1.15      0.00
   -3    7   10      1.45      0.00
   -3    7    9      0.78      0.00
   -3    7    8     -0.78      0.00
   -3    7    7     -1.13      0.00
   -3    7    6     -5.16      0.00
   -3    7    5      0.53      0.00
   -3    7    4     -8.93      0.00
   -3    7    3      7.16      0.00
   -3    7    2    -10.12      0.00
   -3    7    1     13.00      0.00
   -3    7    0     -9.40      0.00
    3   -7    1     12.83      0.00
    3   -7    2     -8.21      0.00
    3   -7    3      7.33      0.00
    3   -7    4     -5.86      0.00
    3   -7    5      2.57      0.00
    3   -7    6     -1.82      0.00
    3   -7    7      2.36      0.00
    3   -7    8      0.60      0.00
    3   -7    9      3.42      0.00
    3   -7   10     -0.62      0.00
    3   -7   11      2.46      0.00
    3   -7   12     -1.85      0.00
    3   -7   13      0.24      0.00
    3   -7   14     -0.39      0.00
    3   -7   15     -1.69      0.00
    3   -7   16      0.80      0.00
    3   -7   17     -1.99      0.00
    3   -7   18     -0.38      0.00
    3   -7   19     -0.29      0.00
    3   -7   20     -1.35      0.00
    3   -7   21      1.75      0.00
    3   -7   22     -0.79      0.00
   -3    6   22      0.65      0.00
   -3    6   21     -0.87      0.00
   -3    6   20      0.93      0.00
   -3    6   19     -1.85      0.00
   -3    6   18      0.90      0.00
   -3    6   17     -1.56      0.00
   -3    6   16      0.61      0.00
   -3    6   15     -0.81      0.00
   -3    6   14     -0.22      0.00
   -3    6   13     -0.77      0.00
   -3    6   12      0.00      0.00
   -3    6   11     -0.48      0.00
   -3    6   10      2.83      0.00
   -3    6    9      1.37      0.00
   -3    6    8      7.39      0.00
   -3    6    7      1.01      0.00
   -3    6    6     10.36      0.00
   -3    6    5     -3.96      0.00
   -3    6    4      8.45      0.00
   -3    6    3     -7.46      0.00
   -3    6    2      3.26      0.00
   -3    6    1     -3.95      0.00
   -3    6    0     -0.96      0.00
    3   -6    1      3.84      0.00
    3   -6    2     -2.50      0.00
    3   -6    3      7.38      0.00
    3   -6    4     -2.34      0.00
    3   -6    5      3.08      0.00
    3   -6    6     -2.21      0.00
    3   -6    7     -1.48      0.00
    3   -6    8     -1.95      0.00
    3   -6    9     -0.05      0.00
    3   -6   10     -1.54      0.00
    3   -6   11      3.58      0.00
    3   -6   12     -2.28      0.00
    3   -6   13      4.11      0.00
    3   -6   14     -2.54      0.00
    3   -6   15      1.83      0.00
    3   -6   16     -0.56      0.00
    3   -6   17     -0.71      0.00
    3   -6   18      1.19      0.00
    3   -6   19     -2.42      0.00
    3   -6   20      0.49      0.00
    3   -6   21     -2.29      0.00
    3   -6   22     -0.91      0.00
    3   -6   23     -0.61      0.00
   -3    5   22      0.25      0.00
   -3    5   21      0.65      0.00
   -3    5   20      0.93      0.00
   -3    5   19     -0.36      0.00
   -3    5   18      0.99      0.00
   -3    5   17     -1.43      0.00
   -3    5   16      0.56      0.00
   -3    5   15     -1.67      0.00
   -3    5   14      0.11      0.00
   -3    5   13     -2.53      0.00
   -3    5   12     -0.35      0.00
   -3    5   11     -5.43      0.00
   -3    5   10     -1.43      0.00
   -3    5    9     -7.93      0.00
   -3    5    8     -1.30      0.00
   -3    5    7     -6.83      0.00
   -3    5    6      3.41      0.00
   -3    5    5     -5.44      0.00
   -3    5    4     10.13      0.00
   -3    5    3     -9.33      0.00
   -3    5    2     12.95      0.00
   -3    5    1    -16.37      0.00
   -3    5    0     11.32      0.00
    3   -5    1    -17.91      0.00
    3   -5    2      8.72      0.00
    3   -5    3    -10.33      0.00
    3   -5    4      8.02      0.00
    3   -5    5     -1.87      0.00
    3   -5    6      8.23      0.00
    3   -5    7     -0.87      0.00
    3   -5    8      6.30      0.00
    3   -5    9     -3.97      0.00
    3   -5   10      3.62      0.00
    3   -5   11     -3.65      0.00
    3   -5   12      2.04      0.00
    3   -5   13      0.63      0.00
    3   -5   14      0.33      0.00
    3   -5   15      3.40      0.00
    3   -5   16     -0.30      0.00
    3   -5   17      2.39      0.00
    3   -5   18      1.30      0.00
    3   -5   19     -0.01      0.00
    3   -5   20      2.63      0.00
    3   -5   21     -2.17      0.00
    3   -5   22      1.93      0.00
    3   -5   23     -2.79      0.00
    3   -5   24      0.50      0.00
   -3    4   23      0.55      0.00
   -3    4   22     -1.40      0.00
   -3    4   21      1.87      0.00
   -3    4   20     -1.21      0.00
   -3    4   19      2.59      0.00
   -3    4   18     -0.09      0.00
   -3    4   17      2.40      0.00
   -3    4   16      0.67      0.00
   -3    4   15      2.67      0.00
   -3    4   14      0.15      0.00
   -3    4   13      4.62      0.00
   -3    4   12     -0.97      0.00
   -3    4   11      6.56      0.00
   -3    4   10     -2.41      0.00
   -3    4    9      6.24      0.00
   -3    4    8     -6.98      0.00
   -3    4    7      4.30      0.00
   -3    4    6    -11.99      0.00
   -3    4    5      3.71      0.00
   -3    4    4    -10.46      0.00
   -3    4    3      4.79      0.00
   -3    4    2     -3.74      0.00
   -3    4    1      2.92      0.00
   -3    4    0      0.15      0.00
    3   -4    1     -2.91      0.00
    3   -4    2     -3.11      0.00
    3   -4    3     -7.10      0.00
    3   -4    4     -7.52      0.00
    3   -4    5     -6.81      0.00
    3   -4    6     -4.16      0.00
    3   -4    7     -4.76      0.00
    3   -4    8      3.64      0.00
    3   -4    9     -4.26      0.00
    3   -4   10      6.69      0.00
    3   -4   11     -5.64      0.00
    3   -4   12      4.91      0.00
    3   -4   13     -5.01      0.00
    3   -4   14      1.80      0.00
    3   -4   15     -0.17      0.00
    3   -4   16     -1.80      0.00
    3   -4   17      4.26      0.00
    3   -4   18     -3.20      0.00
    3   -4   19      4.48      0.00
    3   -4   20     -0.98      0.00
    3   -4   21      2.75      0.00
    3   -4   22      1.16      0.00
    3   -4   23      1.35      0.00
    3   -4   24      0.89      0.00
   -3    3   23     -1.09      0.00
   -3    3   22      0.07      0.00
   -3    3   21     -1.75      0.00
   -3    3   20     -1.00      0.00
   -3    3   19     -1.38      0.00
   -3    3   18     -1.44      0.00
   -3    3   17     -0.77      0.00
   -3    3   16     -1.20      0.00
   -3    3   15     -0.24      0.00
   -3    3   14     -0.86      0.00
   -3    3   13      1.02      0.00
   -3    3   12     -0.94      0.00
   -3    3   11      3.33      0.00
   -3    3   10      0.90      0.00
   -3    3    9      5.76      0.00
   -3    3    8      4.65      0.00
   -3    3    7      7.25      0.00
   -3    3    6      3.24      0.00
   -3    3    5      8.61      0.00
   -3    3    4     -4.48      0.00
   -3    3    3     13.13      0.00
   -3    3    2     -8.97      0.00
   -3    3    1     18.84      0.00
   -3    3    0     -3.20      0.00
    3   -3    1     18.28      0.00
    3   -3    2      5.14      0.00
    3   -3    3     12.66      0.00
    3   -3    4      2.02      0.00
    3   -3    5      8.02      0.00
    3   -3    6     -8.99      0.00
    3   -3    7      4.22      0.00
    3   -3    8    -12.23      0.00
    3   -3    9      0.92      0.00
    3   -3   10     -5.56      0.00
    3   -3   11     -2.48      0.00
    3   -3   12      2.15      0.00
    3   -3   13     -7.51      0.00
    3   -3   14      5.53      0.00
    3   -3   15    -10.07      0.00
    3   -3   16      4.05      0.00
    3   -3   17     -6.88      0.00
    3   -3   18     -0.13      0.00
    3   -3   19     -2.05      0.00
    3   -3   20     -2.74      0.00
    3   -3   21      0.21      0.00
    3   -3   22     -1.65      0.00
    3   -3   23      0.56      0.00
    3   -3   24      0.30      0.00
    3   -3   25      0.47      0.00
   -3    2   23      0.32      0.00
   -3    2   22      1.07      0.00
   -3    2   21      0.45      0.00
   -3    2   20      0.47      0.00
   -3    2   19      0.20      0.00
   -3    2   18     -0.41      0.00
   -3    2   17     -0.28      0.00
   -3    2   16     -0.49      0.00
   -3    2   15     -2.08      0.00
   -3    2   14      0.12      0.00
   -3    2   13     -4.19      0.00
   -3    2   12     -0.30      0.00
   -3    2   11     -4.75      0.00
   -3    2   10     -2.72      0.00
   -3    2    9     -3.46      0.00
   -3    2    8     -4.27      0.00
   -3    2    7     -0.85      0.00
   -3    2    6     -2.48      0.00
   -3    2    5     -1.05      0.00
   -3    2    4     -0.64      0.00
   -3    2    3     -5.40      0.00
   -3    2    2     -2.76      0.00
   -3    2    1     -6.89      0.00
   -3    2    0     -4.92      0.00
    3   -2    1     -2.81      0.00
    3   -2    2      0.05      0.00
    3   -2    3      3.43      0.00
    3   -2    4      7.62      0.00
    3   -2    5     11.84      0.00
    3   -2    6      5.00      0.00
    3   -2    7     19.72      0.00
    3   -2    8     -7.01      0.00
    3   -2    9     21.70      0.00
    3   -2   10    -14.93      0.00
    3   -2   11     19.06      0.00
    3   -2   12    -12.43      0.00
    3   -2   13     13.35      0.00
    3   -2   14     -4.41      0.00
    3   -2   15      4.77      0.00
    3   -2   16      1.57      0.00
    3   -2   17     -1.39      0.00
    3   -2   18      2.51      0.00
    3   -2   19     -2.33      0.00
    3   -2   20      0.58      0.00
    3   -2   21     -1.38      0.00
    3   -2   22     -1.35      0.00
    3   -2   23     -0.76      0.00
    3   -2   24     -1.61      0.00
    3   -2   25     -0.29      0.00
   -3    1   23      0.00      0.00
   -3    1   22      0.18      0.00
   -3    1   21      0.22      0.00
   -3    1   20      1.50      0.00
   -3    1   19     -0.27      0.00
   -3    1   18      2.31      0.00
   -3    1   17     -1.11      0.00
   -3    1   16      2.87      0.00
   -3    1   15     -1.40      0.00
   -3    1   14      3.57      0.00
   -3    1   13     -2.61      0.00
   -3    1   12      4.66      0.00
   -3    1   11     -4.62      0.00
   -3    1   10      5.31      0.00
   -3    1    9     -6.60      0.00
   -3    1    8      5.23      0.00
   -3    1    7     -7.11      0.00
   -3    1    6      5.83      0.00
   -3    1    5     -4.28      0.00
   -3    1    4      6.33      0.00
   -3    1    3     -1.10      0.00
   -3    1    2      0.37      0.00
   -3    1    1      0.45      0.00
   -3    1    0    -13.47      0.00
    3   -1    1     -1.58      0.00
    3   -1    2    -20.74      0.00
    3   -1    3    -12.44      0.00
    3   -1    4     -9.78      0.00
    3   -1    5    -25.07      0.00
    3   -1    6      8.70      0.00
    3   -1    7    -25.41      0.00
    3   -1    8     16.13      0.00
    3   -1    9    -14.74      0.00
    3   -1   10      8.31      0.00
    3   -1   11     -2.79      0.00
    3   -1   12     -3.81      0.00
    3   -1   13      6.25      0.00
    3   -1   14     -8.94      0.00
    3   -1   15      9.85      0.00
    3   -1   16     -5.96      0.00
    3   -1   17      7.37      0.00
    3   -1   18     -1.06      0.00
    3   -1   19      3.61      0.00
    3   -1   20      1.23      0.00
    3   -1   21      1.86      0.00
    3   -1   22      1.01      0.00
    3   -1   23      1.06      0.00
    3   -1   24     -0.20      0.00
    3   -1   25      0.51      0.00
   -3    0   23     -0.75      0.00
   -3    0   22     -0.13      0.00
   -3    0   21     -0.65      0.00
   -3    0   20     -0.11      0.00
   -3    0   19      0.67      0.00
   -3    0   18     -0.57      0.00
   -3    0   17      1.88      0.00
   -3    0   16     -1.72      0.00
   -3    0   15      2.52      0.00
   -3    0   14     -1.64      0.00
   -3    0   13      2.70      0.00
   -3    0   12      0.20      0.00
   -3    0   11      1.37      0.00
   -3    0   10      2.56      0.00
   -3    0    9     -2.37      0.00
   -3    0    8      3.73      0.00
   -3    0    7     -7.35      0.00
   -3    0    6      3.70      0.00
   -3    0    5     -9.17      0.00
   -3    0    4      8.28      0.00
   -3    0    3     -8.34      0.00
   -3    0    2     22.21      0.00
   -3    0    1    -10.15      0.00
    3    0    0     34.28      0.00
    3    0    1     -9.47      0.00
    3    0    2     28.60      0.00
    3    0    3     -3.51      0.00
    3    0    4     12.24      0.00
    3    0    5     -4.98      0.00
    3    0    6      5.68      0.00
    3    0    7    -15.87      0.00
    3    0    8     12.24      0.00
    3    0    9    -22.39      0.00
    3    0   10     18.48      0.00
    3    0   11    -20.08      0.00
    3    0   12     15.47      0.00
    3    0   13    -14.45      0.00
    3    0   14      7.47      0.00
    3    0   15     -8.52      0.00
    3    0   16      1.74      0.00
    3    0   17     -3.26      0.00
    3    0   18     -0.20      0.00
    3    0   19     -0.67      0.00
    3    0   20      0.56      0.00
    3    0   21     -0.71      0.00
    3    0   22      2.12      0.00
    3    0   23     -0.75      0.00
    3    0   24      2.05      0.00
    3    0   25     -0.21      0.00
    3    0   26      0.52      0.00
   -3   -1   23      0.96      0.00
   -3   -1   22     -0.53      0.00
   -3   -1   21     -0.03      0.00
   -3   -1   20     -1.05      0.00
   -3   -1   19     -0.64      0.00
   -3   -1   18     -0.37      0.00
   -3   -1   17      0.30      0.00
   -3   -1   16     -0.10      0.00
   -3   -1   15      2.18      0.00
   -3   -1   14     -2.21      0.00
   -3   -1   13      4.35      0.00
   -3   -1   12     -5.18      0.00
   -3   -1   11      7.36      0.00
   -3   -1   10     -7.31      0.00
   -3   -1    9     10.98      0.00
   -3   -1    8     -7.41      0.00
   -3   -1    7     10.13      0.00
   -3   -1    6     -7.53      0.00
   -3   -1    5      3.19      0.00
   -3   -1    4    -12.35      0.00
   -3   -1    3     -0.84      0.00
   -3   -1    2    -19.16      0.00
   -3   -1    1      4.20      0.00
    3    1    0    -21.42      0.00
    3    1    1     15.20      0.00
    3    1    2    -20.75      0.00
    3    1    3     28.99      0.00
    3    1    4    -22.48      0.00
    3    1    5     38.97      0.00
    3    1    6    -24.34      0.00
    3    1    7     34.41      0.00
    3    1    8    -19.00      0.00
    3    1    9     17.94      0.00
    3    1   10     -6.39      0.00
    3    1   11      3.31      0.00
    3    1   12      4.61      0.00
    3    1   13     -3.27      0.00
    3    1   14      7.28      0.00
    3    1   15     -4.37      0.00
    3    1   16      4.44      0.00
    3    1   17     -3.69      0.00
    3    1   18      1.58      0.00
    3    1   19     -2.68      0.00
    3    1   20     -0.15      0.00
    3    1   21     -1.88      0.00
    3    1   22     -0.42      0.00
    3    1   23     -1.61      0.00
    3    1   24      0.59      0.00
    3    1   25     -0.94      0.00
    3    1   26      0.90      0.00
   -3   -2   22     -0.73      0.00
   -3   -2   21      0.20      0.00
   -3   -2   20     -1.30      0.00
   -3   -2   19     -0.71      0.00
   -3   -2   18     -1.92      0.00
   -3   -2   17     -2.32      0.00
   -3   -2   16     -0.80      0.00
   -3   -2   15     -3.19      0.00
   -3   -2   14      0.94      0.00
   -3   -2   13     -2.72      0.00
   -3   -2   12      1.03      0.00
   -3   -2   11     -2.16      0.00
   -3   -2   10      0.26      0.00
   -3   -2    9     -0.46      0.00
   -3   -2    8      0.40      0.00
   -3   -2    7      5.80      0.00
   -3   -2    6      2.10      0.00
   -3   -2    5     12.41      0.00
   -3   -2    4      2.08      0.00
   -3   -2    3     11.09      0.00
   -3   -2    2     -0.71      0.00
   -3   -2    1     -1.07      0.00
    3    2    0      2.57      0.00
    3    2    1    -20.36      0.00
    3    2    2     13.45      0.00
    3    2    3    -32.27      0.00
    3    2    4     17.50      0.00
    3    2    5    -22.70      0.00
    3    2    6      6.63      0.00
    3    2    7     -0.39      0.00
    3    2    8     -9.70      0.00
    3    2    9     13.84      0.00
    3    2   10    -18.36      0.00
    3    2   11     14.79      0.00
    3    2   12    -16.47      0.00
    3    2   13     10.38      0.00
    3    2   14     -9.93      0.00
    3    2   15      5.62      0.00
    3    2   16     -4.50      0.00
    3    2   17      2.51      0.00
    3    2   18     -2.35      0.00
    3    2   19      2.14      0.00
    3    2   20     -2.32      0.00
    3    2   21      2.16      0.00
    3    2   22     -1.96      0.00
    3    2   23      0.63      0.00
    3    2   24     -0.75      0.00
    3    2   25     -0.52      0.00
    3    2   26      0.13      0.00
   -3   -3   22      0.10      0.00
   -3   -3   21      1.71      0.00
   -3   -3   20      0.26      0.00
   -3   -3   19      2.61      0.00
   -3   -3   18      0.22      0.00
   -3   -3   17      1.58      0.00
   -3   -3   16     -0.07      0.00
   -3   -3   15     -1.34      0.00
   -3   -3   14      0.35      0.00
   -3   -3   13     -4.24      0.00
   -3   -3   12      1.87      0.00
   -3   -3   11     -5.32      0.00
   -3   -3   10      1.63      0.00
   -3   -3    9     -4.78      0.00
   -3   -3    8     -2.75      0.00
   -3   -3    7     -3.60      0.00
   -3   -3    6     -5.65      0.00
   -3   -3    5     -0.58      0.00
   -3   -3    4     -1.08      0.00
   -3   -3    3      5.28      0.00
   -3   -3    2      3.16      0.00
   -3   -3    1     13.00      0.00
    3    3    0     -1.89      0.00
    3    3    1     16.72      0.00
    3    3    2     -7.24      0.00
    3    3    3      8.35      0.00
    3    3    4     -1.99      0.00
    3    3    5     -6.22      0.00
    3    3    6      8.08      0.00
    3    3    7    -11.96      0.00
    3    3    8     12.16      0.00
    3    3    9     -7.55      0.00
    3    3   10      8.76      0.00
    3    3   11     -2.26      0.00
    3    3   12      4.48      0.00
    3    3   13     -0.11      0.00
    3    3   14      2.97      0.00
    3    3   15      0.55      0.00
    3    3   16      1.90      0.00
    3    3   17      0.55      0.00
    3    3   18      0.79      0.00
    3    3   19      0.39      0.00
    3    3   20      0.13      0.00
    3    3   21      1.29      0.00
    3    3   22     -0.77      0.00
    3    3   23      1.73      0.00
    3    3   24     -1.35      0.00
    3    3   25      0.65      0.00
    3    3   26     -1.11      0.00
   -3   -4   22      1.54      0.00
   -3   -4   21     -1.65      0.00
   -3   -4   20      2.21      0.00
   -3   -4   19     -0.30      0.00
   -3   -4   18      1.74      0.00
   -3   -4   17      2.81      0.00
   -3   -4   16      0.72      0.00
   -3   -4   15      4.76      0.00
   -3   -4   14      0.51      0.00
   -3   -4   13      3.91      0.00
   -3   -4   12      0.76      0.00
   -3   -4   11      1.73      0.00
   -3   -4   10      3.22      0.00
   -3   -4    9     -1.87      0.00
   -3   -4    8      7.81      0.00
   -3   -4    7     -8.04      0.00
   -3   -4    6      7.56      0.00
   -3   -4    5    -13.82      0.00
   -3   -4    4      1.88      0.00
   -3   -4    3    -13.66      0.00
   -3   -4    2     -1.00      0.00
   -3   -4    1     -6.21      0.00
    3    4    0      0.12      0.00
    3    4    1      3.90      0.00
    3    4    2      0.37      0.00
    3    4    3      8.24      0.00
    3    4    4     -0.08      0.00
    3    4    5      1.68      0.00
    3    4    6      1.23      0.00
    3    4    7     -7.74      0.00
    3    4    8      3.02      0.00
    3    4    9     -9.12      0.00
    3    4   10      2.09      0.00
    3    4   11     -4.34      0.00
    3    4   12     -1.57      0.00
    3    4   13     -0.08      0.00
    3    4   14     -3.35      0.00
    3    4   15      1.67      0.00
    3    4   16     -1.22      0.00
    3    4   17      1.20      0.00
    3    4   18      1.02      0.00
    3    4   19     -0.04      0.00
    3    4   20      1.07      0.00
    3    4   21      0.02      0.00
    3    4   22      0.47      0.00
    3    4   23      1.15      0.00
    3    4   24      0.57      0.00
    3    4   25      1.07      0.00
    3    4   26      0.73      0.00
   -3   -5   21     -1.69      0.00
   -3   -5   20      0.33      0.00
   -3   -5   19     -3.42      0.00
   -3   -5   18      1.30      0.00
   -3   -5   17     -3.85      0.00
   -3   -5   16      1.12      0.00
   -3   -5   15     -1.81      0.00
   -3   -5   14      0.21      0.00
   -3   -5   13      0.86      0.00
   -3   -5   12      0.14      0.00
   -3   -5   11      1.15      0.00
   -3   -5   10     -0.14      0.00
   -3   -5    9      1.08      0.00
   -3   -5    8      0.04      0.00
   -3   -5    7      3.22      0.00
   -3   -5    6      2.86      0.00
   -3   -5    5      2.94      0.00
   -3   -5    4      5.58      0.00
   -3   -5    3     -4.79      0.00
   -3   -5    2      6.32      0.00
   -3   -5    1    -14.45      0.00
    3    5    0      6.32      0.00
    3    5    1    -14.37      0.00
    3    5    2      5.25      0.00
    3    5    3     -2.44      0.00
    3    5    4      3.27      0.00
    3    5    5      9.43      0.00
    3    5    6      1.30      0.00
    3    5    7      9.52      0.00
    3    5    8      1.38      0.00
    3    5    9      1.03      0.00
    3    5   10      4.37      0.00
    3    5   11     -5.08      0.00
    3    5   12      5.67      0.00
    3    5   13     -6.32      0.00
    3    5   14      2.99      0.00
    3    5   15     -5.72      0.00
    3    5   16      0.58      0.00
    3    5   17     -4.27      0.00
    3    5   18      0.86      0.00
    3    5   19     -3.32      0.00
    3    5   20      1.63      0.00
    3    5   21     -3.34      0.00
    3    5   22      1.24      0.00
    3    5   23     -2.57      0.00
    3    5   24      0.77      0.00
    3    5   25     -0.79      0.00
   -3   -6   20     -2.56      0.00
   -3   -6   19      1.45      0.00
   -3   -6   18     -2.46      0.00
   -3   -6   17     -0.72      0.00
   -3   -6   16     -1.87      0.00
   -3   -6   15     -1.91      0.00
   -3   -6   14     -2.27      0.00
   -3   -6   13     -1.16      0.00
   -3   -6   12     -3.02      0.00
   -3   -6   11      1.45      0.00
   -3   -6   10     -4.31      0.00
   -3   -6    9      3.55      0.00
   -3   -6    8     -7.11      0.00
   -3   -6    7      4.21      0.00
   -3   -6    6     -8.36      0.00
   -3   -6    5      6.45      0.00
   -3   -6    4     -6.06      0.00
   -3   -6    3     10.16      0.00
   -3   -6    2     -4.45      0.00
   -3   -6    1      9.02      0.00
    3    6    0     -5.52      0.00
    3    6    1      0.19      0.00
    3    6    2     -7.15      0.00
    3    6    3     -8.10      0.00
    3    6    4     -6.98      0.00
    3    6    5     -6.82      0.00
    3    6    6     -3.71      0.00
    3    6    7      1.08      0.00
    3    6    8     -0.88      0.00
    3    6    9      6.19      0.00
    3    6   10     -0.45      0.00
    3    6   11      6.40      0.00
    3    6   12      0.34      0.00
    3    6   13      6.06      0.00
    3    6   14      0.49      0.00
    3    6   15      5.80      0.00
    3    6   16     -1.33      0.00
    3    6   17      4.18      0.00
    3    6   18     -2.33      0.00
    3    6   19      2.41      0.00
    3    6   20     -1.40      0.00
    3    6   21      1.09      0.00
    3    6   22     -0.66      0.00
    3    6   23     -0.11      0.00
    3    6   24     -0.99      0.00
    3    6   25     -0.77      0.00
   -3   -7   20      0.42      0.00
   -3   -7   19      2.11      0.00
   -3   -7   18     -0.35      0.00
   -3   -7   17      1.95      0.00
   -3   -7   16      0.16      0.00
   -3   -7   15      0.47      0.00
   -3   -7   14      0.64      0.00
   -3   -7   13     -0.46      0.00
   -3   -7   12     -0.03      0.00
   -3   -7   11     -0.96      0.00
   -3   -7   10      0.85      0.00
   -3   -7    9     -0.95      0.00
   -3   -7    8      2.75      0.00
   -3   -7    7     -0.59      0.00
   -3   -7    6      1.12      0.00
   -3   -7    5      0.25      0.00
   -3   -7    4     -2.90      0.00
   -3   -7    3      3.53      0.00
   -3   -7    2     -3.53      0.00
   -3   -7    1      8.38      0.00
    3    7    0     -0.18      0.00
    3    7    1     10.22      0.00
    3    7    2      1.50      0.00
    3    7    3      6.05      0.00
    3    7    4     -2.44      0.00
    3    7    5     -1.39      0.00
    3    7    6     -7.78      0.00
    3    7    7     -5.20      0.00
    3    7    8     -8.06      0.00
    3    7    9     -4.05      0.00
    3    7   10     -4.76      0.00
    3    7   11     -3.02      0.00
    3    7   12     -1.84      0.00
    3    7   13     -3.30      0.00
    3    7   14      0.76      0.00
    3    7   15     -2.19      0.00
    3    7   16      2.08      0.00
    3    7   17      0.06      0.00
    3    7   18      1.05      0.00
    3    7   19      1.54      0.00
    3    7   20     -0.21      0.00
    3    7   21      1.98      0.00
    3    7   22     -0.15      0.00
    3    7   23      1.46      0.00
    3    7   24      0.26      0.00
    3    7   25      0.34      0.00
   -3   -8   19     -0.91      0.00
   -3   -8   18      1.10      0.00
   -3   -8   17      0.46      0.00
   -3   -8   16      0.98      0.00
   -3   -8   15      0.53      0.00
   -3   -8   14      1.83      0.00
   -3   -8   13     -0.55      0.00
   -3   -8   12      2.31      0.00
   -3   -8   11     -1.15      0.00
   -3   -8   10      0.76      0.00
   -3   -8    9     -1.16      0.00
   -3   -8    8     -0.11      0.00
   -3   -8    7     -1.06      0.00
   -3   -8    6      1.82      0.00
   -3   -8    5     -2.58      0.00
   -3   -8    4      3.78      0.00
   -3   -8    3     -5.23      0.00
   -3   -8    2      2.42      0.00
   -3   -8    1     -4.22      0.00
    3    8    0      0.07      0.00
    3    8    1      0.74      0.00
    3    8    2      2.22      0.00
    3    8    3      5.65      0.00
    3    8    4      6.65      0.00
    3    8    5      7.58      0.00
    3    8    6      6.02      0.00
    3    8    7      5.11      0.00
    3    8    8      1.12      0.00
    3    8    9      1.54      0.00
    3    8   10     -1.57      0.00
    3    8   11      0.02      0.00
    3    8   12     -1.21      0.00
    3    8   13     -1.01      0.00
    3    8   14     -0.88      0.00
    3    8   15     -2.22      0.00
    3    8   16     -0.62      0.00
    3    8   17     -2.43      0.00
    3    8   18      0.16      0.00
    3    8   19     -1.53      0.00
    3    8   20      0.30      0.00
    3    8   21     -0.20      0.00
    3    8   22     -0.24      0.00
    3    8   23      0.92      0.00
    3    8   24     -0.48      0.00
   -3   -9   18     -0.01      0.00
   -3   -9   17     -0.27      0.00
   -3   -9   16      0.17      0.00
   -3   -9   15      0.31      0.00
   -3   -9   14      0.78      0.00
   -3   -9   13     -0.09      0.00
   -3   -9   12      1.92      0.00
   -3   -9   11     -0.91      0.00
   -3   -9   10      2.93      0.00
   -3   -9    9     -1.57      0.00
   -3   -9    8      2.56      0.00
   -3   -9    7     -1.94      0.00
   -3   -9    6      1.85      0.00
   -3   -9    5     -1.58      0.00
   -3   -9    4      2.23      0.00
   -3   -9    3     -2.01      0.00
   -3   -9    2      2.53      0.00
   -3   -9    1     -4.69      0.00
    3    9    0      1.02      0.00
    3    9    1     -7.46      0.00
    3    9    2     -1.22      0.00
    3    9    3     -7.59      0.00
    3    9    4     -0.46      0.00
    3    9    5     -3.69      0.00
    3    9    6      2.84      0.00
    3    9    7      1.96      0.00
    3    9    8      3.58      0.00
    3    9    9      4.40      0.00
    3    9   10      0.61      0.00
    3    9   11      4.07      0.00
    3    9   12     -2.04      0.00
    3    9   13      3.77      0.00
    3    9   14     -1.91      0.00
    3    9   15      2.57      0.00
    3    9   16     -0.54      0.00
    3    9   17      0.14      0.00
    3    9   18      0.55      0.00
    3    9   19     -1.75      0.00
    3    9   20      1.24      0.00
    3    9   21     -1.96      0.00
    3    9   22      1.19      0.00
    3    9   23     -0.93      0.00
   -3  -10   17     -0.29      0.00
   -3  -10   16     -1.35      0.00
   -3  -10   15      0.36      0.00
   -3  -10   14     -2.20      0.00
   -3  -10   13      1.29      0.00
   -3  -10   12     -1.76      0.00
   -3  -10   11      1.23      0.00
   -3  -10   10     -0.62      0.00
   -3  -10    9      0.91      0.00
   -3  -10    8      0.17      0.00
   -3  -10    7      0.92      0.00
   -3  -10    6     -0.06      0.00
   -3  -10    5      1.02      0.00
   -3  -10    4      0.27      0.00
   -3  -10    3      1.07      0.00
   -3  -10    2      2.11      0.00
   -3  -10    1      1.36      0.00
    3   10    0      2.93      0.00
    3   10    1      1.20      0.00
    3   10    2      1.89      0.00
    3   10    3     -1.87      0.00
    3   10    4      0.91      0.00
    3   10    5     -7.02      0.00
    3   10    6      1.65      0.00
    3   10    7     -8.69      0.00
    3   10    8      3.92      0.00
    3   10    9     -5.72      0.00
    3   10   10      5.11      0.00
    3   10   11     -2.99      0.00
    3   10   12      3.41      0.00
    3   10   13     -1.72      0.00
    3   10   14      0.23      0.00
    3   10   15      0.42      0.00
    3   10   16     -1.97      0.00
    3   10   17      2.27      0.00
    3   10   18     -2.63      0.00
    3   10   19      1.88      0.00
    3   10   20     -2.32      0.00
    3   10   21      0.18      0.00
    3   10   22     -1.27      0.00
   -3  -11   15      0.30      0.00
   -3  -11   14     -1.27      0.00
   -3  -11   13      0.67      0.00
   -3  -11   12     -2.59      0.00
   -3  -11   11      1.61      0.00
   -3  -11   10     -2.92      0.00
   -3  -11    9      1.99      0.00
   -3  -11    8     -2.44      0.00
   -3  -11    7      1.97      0.00
   -3  -11    6     -2.10      0.00
   -3  -11    5      1.46      0.00
   -3  -11    4     -2.89      0.00
   -3  -11    3      1.01      0.00
   -3  -11    2     -3.98      0.00
   -3  -11    1      1.77      0.00
    3   11    0     -3.81      0.00
    3   11    1      4.07      0.00
    3   11    2     -3.30      0.00
    3   11    3      6.54      0.00
    3   11    4     -3.49      0.00
    3   11    5      6.04      0.00
    3   11    6     -4.29      0.00
    3   11    7      2.38      0.00
    3   11    8     -4.25      0.00
    3   11    9     -0.73      0.00
    3   11   10     -1.24      0.00
    3   11   11     -1.46      0.00
    3   11   12      2.65      0.00
    3   11   13     -1.45      0.00
    3   11   14      3.82      0.00
    3   11   15     -1.80      0.00
    3   11   16      2.94      0.00
    3   11   17     -1.61      0.00
    3   11   18      2.19      0.00
    3   11   19     -0.97      0.00
    3   11   20      1.64      0.00
    3   11   21     -0.78      0.00
   -3  -12   14      1.47      0.00
   -3  -12   13     -0.63      0.00
   -3  -12   12      0.88      0.00
   -3  -12   11     -0.87      0.00
   -3  -12   10     -0.51      0.00
   -3  -12    9     -0.47      0.00
   -3  -12    8     -1.54      0.00
   -3  -12    7      0.29      0.00
   -3  -12    6     -1.63      0.00
   -3  -12    5      1.28      0.00
   -3  -12    4     -0.79      0.00
   -3  -12    3      0.88      0.00
   -3  -12    2      0.17      0.00
   -3  -12    1     -1.01      0.00
    3   12    0      0.23      0.00
    3   12    1     -1.70      0.00
    3   12    2     -0.48      0.00
    3   12    3      0.19      0.00
    3   12    4     -1.05      0.00
    3   12    5      3.22      0.00
    3   12    6     -1.51      0.00
    3   12    7      4.58      0.00
    3   12    8     -3.22      0.00
    3   12    9      3.52      0.00
    3   12   10     -5.38      0.00
    3   12   11      1.72      0.00
    3   12   12     -4.51      0.00
    3   12   13      0.66      0.00
    3   12   14     -1.47      0.00
    3   12   15      0.57      0.00
    3   12   16     -0.16      0.00
    3   12   17      0.85      0.00
    3   12   18     -0.38      0.00
    3   12   19      1.43      0.00
    3   12   20     -0.36      0.00
   -3  -13   12      1.87      0.00
   -3  -13   11     -1.56      0.00
   -3  -13   10      2.68      0.00
   -3  -13    9     -2.05      0.00
   -3  -13    8      2.63      0.00
   -3  -13    7     -2.38      0.00
   -3  -13    6      1.51      0.00
   -3  -13    5     -2.18      0.00
   -3  -13    4      0.79      0.00
   -3  -13    3     -1.24      0.00
   -3  -13    2      1.59      0.00
   -3  -13    1     -0.91      0.00
    3   13    0      2.79      0.00
    3   13    1     -2.16      0.00
    3   13    2      3.06      0.00
    3   13    3     -3.60      0.00
    3   13    4      3.30      0.00
    3   13    5     -3.83      0.00
    3   13    6      4.48      0.00
    3   13    7     -2.11      0.00
    3   13    8      4.57      0.00
    3   13    9      0.52      0.00
    3   13   10      1.92      0.00
    3   13   11      1.38      0.00
    3   13   12     -1.32      0.00
    3   13   13      0.48      0.00
    3   13   14     -2.33      0.00
    3   13   15      0.08      0.00
    3   13   16     -1.58      0.00
    3   13   17      0.32      0.00
    3   13   18     -0.89      0.00
    3   13   19      0.07      0.00
   -3  -14   10      0.25      0.00
   -3  -14    9     -0.17      0.00
   -3  -14    8      0.88      0.00
   -3  -14    7     -0.31      0.00
   -3  -14    6      1.10      0.00
   -3  -14    5     -0.13      0.00
   -3  -14    4     -0.15      0.00
   -3  -14    3      0.20      0.00
   -3  -14    2     -1.42      0.00
   -3  -14    1      0.71      0.00
    3   14    0     -1.18      0.00
    3   14    1      1.06      0.00
    3   14    2     -0.48      0.00
    3   14    3      0.54      0.00
    3   14    4     -0.67      0.00
    3   14    5     -0.75      0.00
    3   14    6     -0.55      0.00
    3   14    7     -2.28      0.00
    3   14    8      1.57      0.00
    3   14    9     -2.51      0.00
    3   14   10      3.48      0.00
    3   14   11     -0.84      0.00
    3   14   12      2.99      0.00
    3   14   13     -0.14      0.00
    3   14   14      1.67      0.00
    3   14   15     -1.08      0.00
    3   14   16      1.04      0.00
    3   14   17     -1.18      0.00
   -3  -15    7      0.92      0.00
   -3  -15    6     -0.29      0.00
   -3  -15    5      0.55      0.00
   -3  -15    4      0.71      0.00
   -3  -15    3      0.16      0.00
   -3  -15    2      0.40      0.00
   -3  -15    1     -0.21      0.00
    3   15    0     -0.70      0.00
    3   15    1      0.09      0.00
    3   15    2     -1.10      0.00
    3   15    3      1.19      0.00
    3   15    4     -1.16      0.00
    3   15    5      1.77      0.00
    3   15    6     -1.62      0.00
    3   15    7      0.81      0.00
    3   15    8     -1.93      0.00
    3   15    9     -0.66      0.00
    3   15   10     -1.17      0.00
    3   15   11     -0.75      0.00
    3   15   12      0.08      0.00
    3   15   13      0.41      0.00
    3   15   14      0.63      0.00
    3   15   15      0.74      0.00
   -3  -16    3      0.52      0.00
   -3  -16    2     -0.07      0.00
   -3  -16    1      0.54      0.00
    3   16    0      0.39      0.00
    3   16    1      0.06      0.00
    3   16    2      0.17      0.00
    3   16    3     -0.23      0.00
    3   16    4     -0.04      0.00
    3   16    5      0.41      0.00
    3   16    6     -0.41      0.00
    3   16    7      1.51      0.00
    3   16    8     -0.88      0.00
    3   16    9      1.27      0.00
    3   16   10     -1.00      0.00
    3   16   11      0.12      0.00
   -4   15    8     -0.07      0.00
   -4   15    7     -0.72      0.00
   -4   15    6     -0.56      0.00
   -4   15    5     -1.04      0.00
   -4   15    4     -0.72      0.00
   -4   15    3     -0.54      0.00
   -4   15    2      0.77      0.00
   -4   15    1      0.13      0.00
   -4   15    0      2.21      0.00
    4  -15    1      0.13      0.00
    4  -15    2      2.30      0.00
    4  -15    3     -0.30      0.00
    4  -15    4      1.36      0.00
    4  -15    5     -0.44      0.00
    4  -15    6      0.60      0.00
    4  -15    7     -0.18      0.00
   -4   14   11      0.44      0.00
   -4   14   10      0.78      0.00
   -4   14    9     -0.06      0.00
   -4   14    8      0.79      0.00
   -4   14    7     -0.20      0.00
   -4   14    6      0.32      0.00
   -4   14    5     -0.50      0.00
   -4   14    4     -1.57      0.00
   -4   14    3     -1.08      0.00
   -4   14    2     -3.03      0.00
   -4   14    1     -0.94      0.00
   -4   14    0     -2.60      0.00
    4  -14    1     -0.12      0.00
    4  -14    2     -0.90      0.00
    4  -14    3      0.31      0.00
    4  -14    4      0.66      0.00
    4  -14    5      0.32      0.00
    4  -14    6      0.63      0.00
    4  -14    7     -0.08      0.00
    4  -14    8      0.16      0.00
    4  -14    9     -0.56      0.00
    4  -14   10      0.90      0.00
    4  -14   11     -0.51      0.00
   -4   13   14     -0.83      0.00
   -4   13   13      0.00      0.00
   -4   13   12     -0.93      0.00
   -4   13   11      0.93      0.00
   -4   13   10     -0.67      0.00
   -4   13    9      1.50      0.00
   -4   13    8     -0.26      0.00
   -4   13    7      1.37      0.00
   -4   13    6      0.84      0.00
   -4   13    5      1.31      0.00
   -4   13    4      1.43      0.00
   -4   13    3      1.05      0.00
   -4   13    2      0.53      0.00
   -4   13    1      0.11      0.00
   -4   13    0     -0.78      0.00
    4  -13    1     -0.50      0.00
    4  -13    2     -1.50      0.00
    4  -13    3     -0.51      0.00
    4  -13    4     -1.32      0.00
    4  -13    5      0.47      0.00
    4  -13    6     -0.74      0.00
    4  -13    7      1.95      0.00
    4  -13    8     -0.70      0.00
    4  -13    9      2.11      0.00
    4  -13   10     -1.06      0.00
    4  -13   11      1.73      0.00
    4  -13   12     -0.75      0.00
    4  -13   13      1.15      0.00
   -4   12   15     -0.52      0.00
   -4   12   14      0.37      0.00
   -4   12   13     -0.76      0.00
   -4   12   12      0.09      0.00
   -4   12   11     -1.32      0.00
   -4   12   10     -0.19      0.00
   -4   12    9     -1.07      0.00
   -4   12    8     -0.26      0.00
   -4   12    7     -0.32      0.00
   -4   12    6     -0.03      0.00
   -4   12    5      0.48      0.00
   -4   12    4      0.47      0.00
   -4   12    3      1.59      0.00
   -4   12    2      0.83      0.00
   -4   12    1      2.01      0.00
   -4   12    0      0.27      0.00
    4  -12    1      1.74      0.00
    4  -12    2     -1.06      0.00
    4  -12    3      0.82      0.00
    4  -12    4     -1.90      0.00
    4  -12    5     -1.15      0.00
    4  -12    6     -1.79      0.00
    4  -12    7     -1.47      0.00
    4  -12    8     -1.46      0.00
    4  -12    9      0.24      0.00
    4  -12   10     -1.70      0.00
    4  -12   11      1.38      0.00
    4  -12   12     -2.53      0.00
    4  -12   13      2.32      0.00
    4  -12   14     -2.69      0.00
    4  -12   15      2.59      0.00
   -4   11   17      0.31      0.00
   -4   11   16     -0.29      0.00
   -4   11   15     -0.36      0.00
   -4   11   14      0.03      0.00
   -4   11   13     -0.22      0.00
   -4   11   12      0.23      0.00
   -4   11   11     -0.06      0.00
   -4   11   10     -0.25      0.00
   -4   11    9     -0.37      0.00
   -4   11    8     -0.95      0.00
   -4   11    7     -0.55      0.00
   -4   11    6     -0.73      0.00
   -4   11    5     -0.75      0.00
   -4   11    4     -0.15      0.00
   -4   11    3     -0.20      0.00
   -4   11    2      0.38      0.00
   -4   11    1      0.98      0.00
   -4   11    0      1.35      0.00
    4  -11    1      1.64      0.00
    4  -11    2      2.09      0.00
    4  -11    3      2.06      0.00
    4  -11    4      2.40      0.00
    4  -11    5      1.13      0.00
    4  -11    6      2.22      0.00
    4  -11    7     -1.91      0.00
    4  -11    8      1.89      0.00
    4  -11    9     -4.16      0.00
    4  -11   10      2.12      0.00
    4  -11   11     -3.95      0.00
    4  -11   12      1.45      0.00
    4  -11   13     -2.48      0.00
    4  -11   14     -0.12      0.00
    4  -11   15     -0.66      0.00
    4  -11   16     -0.47      0.00
    4  -11   17      0.46      0.00
   -4   10   18      1.05      0.00
   -4   10   17      0.24      0.00
   -4   10   16      0.92      0.00
   -4   10   15      0.64      0.00
   -4   10   14      0.13      0.00
   -4   10   13      0.29      0.00
   -4   10   12      0.13      0.00
   -4   10   11      0.10      0.00
   -4   10   10      1.02      0.00
   -4   10    9     -0.31      0.00
   -4   10    8      1.01      0.00
   -4   10    7     -1.40      0.00
   -4   10    6      0.60      0.00
   -4   10    5     -3.04      0.00
   -4   10    4      1.12      0.00
   -4   10    3     -4.62      0.00
   -4   10    2      1.52      0.00
   -4   10    1     -5.04      0.00
   -4   10    0      1.50      0.00
    4  -10    1     -3.96      0.00
    4  -10    2      0.92      0.00
    4  -10    3     -1.04      0.00
    4  -10    4     -0.14      0.00
    4  -10    5      3.12      0.00
    4  -10    6     -0.13      0.00
    4  -10    7      5.08      0.00
    4  -10    8      0.28      0.00
    4  -10    9      2.85      0.00
    4  -10   10      1.01      0.00
    4  -10   11     -1.05      0.00
    4  -10   12      2.77      0.00
    4  -10   13     -3.28      0.00
    4  -10   14      2.89      0.00
    4  -10   15     -3.05      0.00
    4  -10   16      1.32      0.00
    4  -10   17     -1.51      0.00
    4  -10   18      0.69      0.00
    4  -10   19     -0.12      0.00
   -4    9   19      0.57      0.00
   -4    9   18     -0.85      0.00
   -4    9   17      0.10      0.00
   -4    9   16      0.08      0.00
   -4    9   15      0.24      0.00
   -4    9   14      0.84      0.00
   -4    9   13      0.36      0.00
   -4    9   12      0.39      0.00
   -4    9   11      0.73      0.00
   -4    9   10      0.13      0.00
   -4    9    9      2.05      0.00
   -4    9    8      0.15      0.00
   -4    9    7      3.51      0.00
   -4    9    6     -0.74      0.00
   -4    9    5      3.35      0.00
   -4    9    4     -1.34      0.00
   -4    9    3      1.82      0.00
   -4    9    2     -1.14      0.00
   -4    9    1     -0.14      0.00
   -4    9    0     -0.49      0.00
    4   -9    1     -2.83      0.00
    4   -9    2      0.57      0.00
    4   -9    3     -5.75      0.00
    4   -9    4      0.26      0.00
    4   -9    5     -6.23      0.00
    4   -9    6     -1.21      0.00
    4   -9    7     -2.39      0.00
    4   -9    8     -1.61      0.00
    4   -9    9      2.71      0.00
    4   -9   10     -1.64      0.00
    4   -9   11      4.53      0.00
    4   -9   12     -1.35      0.00
    4   -9   13      3.19      0.00
    4   -9   14      0.04      0.00
    4   -9   15      1.26      0.00
    4   -9   16      0.58      0.00
    4   -9   17      0.06      0.00
    4   -9   18     -0.15      0.00
    4   -9   19     -0.22      0.00
    4   -9   20     -0.34      0.00
   -4    8   20     -0.13      0.00
   -4    8   19      0.57      0.00
   -4    8   18     -1.06      0.00
   -4    8   17     -0.32      0.00
   -4    8   16     -1.84      0.00
   -4    8   15     -0.79      0.00
   -4    8   14     -1.31      0.00
   -4    8   13     -0.93      0.00
   -4    8   12     -0.40      0.00
   -4    8   11     -1.86      0.00
   -4    8   10     -0.41      0.00
   -4    8    9     -2.81      0.00
   -4    8    8     -0.33      0.00
   -4    8    7     -1.45      0.00
   -4    8    6     -0.21      0.00
   -4    8    5      1.71      0.00
   -4    8    4     -1.02      0.00
   -4    8    3      3.93      0.00
   -4    8    2     -1.81      0.00
   -4    8    1      4.61      0.00
   -4    8    0     -1.23      0.00
    4   -8    1      3.86      0.00
    4   -8    2      1.58      0.00
    4   -8    3      1.29      0.00
    4   -8    4      4.72      0.00
    4   -8    5     -2.92      0.00
    4   -8    6      4.43      0.00
    4   -8    7     -6.41      0.00
    4   -8    8      1.53      0.00
    4   -8    9     -5.38      0.00
    4   -8   10     -0.19      0.00
    4   -8   11     -1.50      0.00
    4   -8   12      0.04      0.00
    4   -8   13      0.45      0.00
    4   -8   14      1.11      0.00
    4   -8   15      0.27      0.00
    4   -8   16      1.93      0.00
    4   -8   17     -0.01      0.00
    4   -8   18      1.08      0.00
    4   -8   19      0.25      0.00
    4   -8   20     -0.96      0.00
    4   -8   21      0.69      0.00
   -4    7   20      1.29      0.00
   -4    7   19      0.47      0.00
   -4    7   18      1.16      0.00
   -4    7   17      1.94      0.00
   -4    7   16     -0.06      0.00
   -4    7   15      2.41      0.00
   -4    7   14     -1.29      0.00
   -4    7   13      2.61      0.00
   -4    7   12     -1.53      0.00
   -4    7   11      2.81      0.00
   -4    7   10     -1.53      0.00
   -4    7    9      1.42      0.00
   -4    7    8     -2.38      0.00
   -4    7    7     -0.97      0.00
   -4    7    6     -3.07      0.00
   -4    7    5     -1.40      0.00
   -4    7    4     -2.69      0.00
   -4    7    3      0.93      0.00
   -4    7    2     -3.45      0.00
   -4    7    1      5.01      0.00
   -4    7    0     -7.27      0.00
    4   -7    1      9.28      0.00
    4   -7    2    -11.27      0.00
    4   -7    3     11.83      0.00
    4   -7    4    -10.01      0.00
    4   -7    5     11.47      0.00
    4   -7    6     -4.04      0.00
    4   -7    7      7.31      0.00
    4   -7    8     -0.40      0.00
    4   -7    9      1.37      0.00
    4   -7   10     -1.54      0.00
    4   -7   11     -1.33      0.00
    4   -7   12     -3.67      0.00
    4   -7   13     -0.30      0.00
    4   -7   14     -4.02      0.00
    4   -7   15      0.47      0.00
    4   -7   16     -2.24      0.00
    4   -7   17     -0.31      0.00
    4   -7   18      0.59      0.00
    4   -7   19     -0.80      0.00
    4   -7   20      2.06      0.00
    4   -7   21     -0.07      0.00
    4   -7   22      1.01      0.00
   -4    6   21     -1.14      0.00
   -4    6   20     -0.17      0.00
   -4    6   19     -2.26      0.00
   -4    6   18      1.60      0.00
   -4    6   17     -2.45      0.00
   -4    6   16      2.91      0.00
   -4    6   15     -1.78      0.00
   -4    6   14      2.58      0.00
   -4    6   13     -1.40      0.00
   -4    6   12      2.35      0.00
   -4    6   11     -0.96      0.00
   -4    6   10      4.10      0.00
   -4    6    9      0.34      0.00
   -4    6    8      6.62      0.00
   -4    6    7      0.35      0.00
   -4    6    6      6.97      0.00
   -4    6    5     -2.73      0.00
   -4    6    4      6.12      0.00
   -4    6    3     -7.00      0.00
   -4    6    2      7.20      0.00
   -4    6    1     -9.29      0.00
   -4    6    0      8.83      0.00
    4   -6    1     -8.57      0.00
    4   -6    2      6.69      0.00
    4   -6    3     -5.99      0.00
    4   -6    4      0.55      0.00
    4   -6    5     -1.91      0.00
    4   -6    6     -3.13      0.00
    4   -6    7      2.93      0.00
    4   -6    8     -1.16      0.00
    4   -6    9      5.16      0.00
    4   -6   10      1.05      0.00
    4   -6   11      3.32      0.00
    4   -6   12     -0.06      0.00
    4   -6   13      0.95      0.00
    4   -6   14     -2.55      0.00
    4   -6   15      0.74      0.00
    4   -6   16     -3.81      0.00
    4   -6   17      0.67      0.00
    4   -6   18     -2.84      0.00
    4   -6   19     -0.55      0.00
    4   -6   20     -0.67      0.00
    4   -6   21     -1.18      0.00
    4   -6   22      0.98      0.00
    4   -6   23     -0.81      0.00
   -4    5   21      1.10      0.00
   -4    5   20     -1.70      0.00
   -4    5   19      0.03      0.00
   -4    5   18     -1.74      0.00
   -4    5   17     -1.75      0.00
   -4    5   16     -0.66      0.00
   -4    5   15     -2.62      0.00
   -4    5   14      0.21      0.00
   -4    5   13     -2.44      0.00
   -4    5   12     -0.69      0.00
   -4    5   11     -2.62      0.00
   -4    5   10     -2.83      0.00
   -4    5    9     -3.23      0.00
   -4    5    8     -2.88      0.00
   -4    5    7     -2.16      0.00
   -4    5    6      0.04      0.00
   -4    5    5     -0.43      0.00
   -4    5    4      2.57      0.00
   -4    5    3     -1.99      0.00
   -4    5    2      3.41      0.00
   -4    5    1     -6.63      0.00
   -4    5    0      5.05      0.00
    4   -5    1     -9.79      0.00
    4   -5    2      8.28      0.00
    4   -5    3     -9.44      0.00
    4   -5    4      9.28      0.00
    4   -5    5     -8.50      0.00
    4   -5    6      6.35      0.00
    4   -5    7     -8.17      0.00
    4   -5    8      4.41      0.00
    4   -5    9     -5.59      0.00
    4   -5   10      6.03      0.00
    4   -5   11     -1.44      0.00
    4   -5   12      7.69      0.00
    4   -5   13      0.04      0.00
    4   -5   14      6.39      0.00
    4   -5   15     -0.18      0.00
    4   -5   16      2.28      0.00
    4   -5   17      1.12      0.00
    4   -5   18     -1.50      0.00
    4   -5   19      1.63      0.00
    4   -5   20     -2.24      0.00
    4   -5   21     -0.35      0.00
    4   -5   22     -1.11      0.00
    4   -5   23     -1.59      0.00
    4   -5   24     -0.04      0.00
   -4    4   22      1.20      0.00
   -4    4   21      1.20      0.00
   -4    4   20      0.67      0.00
   -4    4   19      2.97      0.00
   -4    4   18     -0.74      0.00
   -4    4   17      3.42      0.00
   -4    4   16     -1.67      0.00
   -4    4   15      2.66      0.00
   -4    4   14     -1.70      0.00
   -4    4   13      2.30      0.00
   -4    4   12     -0.77      0.00
   -4    4   11      3.08      0.00
   -4    4   10     -0.71      0.00
   -4    4    9      2.92      0.00
   -4    4    8     -3.28      0.00
   -4    4    7      1.03      0.00
   -4    4    6     -6.14      0.00
   -4    4    5      1.71      0.00
   -4    4    4     -6.81      0.00
   -4    4    3      5.87      0.00
   -4    4    2     -6.88      0.00
   -4    4    1      8.03      0.00
   -4    4    0     -8.27      0.00
    4   -4    1      4.62      0.00
    4   -4    2     -8.06      0.00
    4   -4    3     -0.86      0.00
    4   -4    4     -4.50      0.00
    4   -4    5     -2.95      0.00
    4   -4    6     -2.09      0.00
    4   -4    7     -3.80      0.00
    4   -4    8     -2.93      0.00
    4   -4    9     -6.48      0.00
    4   -4   10     -3.59      0.00
    4   -4   11     -6.81      0.00
    4   -4   12     -1.21      0.00
    4   -4   13     -3.66      0.00
    4   -4   14      3.47      0.00
    4   -4   15     -1.28      0.00
    4   -4   16      6.04      0.00
    4   -4   17     -0.01      0.00
    4   -4   18      4.05      0.00
    4   -4   19      2.14      0.00
    4   -4   20      0.44      0.00
    4   -4   21      3.56      0.00
    4   -4   22     -1.44      0.00
    4   -4   23      2.26      0.00
    4   -4   24     -1.20      0.00
   -4    3   22      0.13      0.00
   -4    3   21     -1.60      0.00
   -4    3   20      0.37      0.00
   -4    3   19     -0.72      0.00
   -4    3   18      0.29      0.00
   -4    3   17      0.78      0.00
   -4    3   16      0.05      0.00
   -4    3   15      1.67      0.00
   -4    3   14     -0.51      0.00
   -4    3   13      1.29      0.00
   -4    3   12     -1.39      0.00
   -4    3   11      1.04      0.00
   -4    3   10     -1.00      0.00
   -4    3    9      3.38      0.00
   -4    3    8      0.15      0.00
   -4    3    7      6.22      0.00
   -4    3    6     -0.81      0.00
   -4    3    5      6.24      0.00
   -4    3    4     -2.39      0.00
   -4    3    3      5.56      0.00
   -4    3    2     -0.81      0.00
   -4    3    1      8.09      0.00
   -4    3    0      1.67      0.00
    4   -3    1     12.66      0.00
    4   -3    2      0.65      0.00
    4   -3    3     13.51      0.00
    4   -3    4     -2.10      0.00
    4   -3    5     11.03      0.00
    4   -3    6     -3.65      0.00
    4   -3    7     10.48      0.00
    4   -3    8     -4.58      0.00
    4   -3    9      8.88      0.00
    4   -3   10     -6.06      0.00
    4   -3   11      2.86      0.00
    4   -3   12     -7.96      0.00
    4   -3   13     -3.12      0.00
    4   -3   14     -6.40      0.00
    4   -3   15     -6.35      0.00
    4   -3   16     -0.05      0.00
    4   -3   17     -6.99      0.00
    4   -3   18      4.44      0.00
    4   -3   19     -4.99      0.00
    4   -3   20      3.85      0.00
    4   -3   21     -1.67      0.00
    4   -3   22      1.74      0.00
    4   -3   23      0.72      0.00
    4   -3   24      0.41      0.00
    4   -3   25      0.88      0.00
   -4    2   22     -0.09      0.00
   -4    2   21     -0.30      0.00
   -4    2   20      0.12      0.00
   -4    2   19     -1.40      0.00
   -4    2   18      0.50      0.00
   -4    2   17     -1.84      0.00
   -4    2   16      1.31      0.00
   -4    2   15     -1.68      0.00
   -4    2   14      2.24      0.00
   -4    2   13     -1.16      0.00
   -4    2   12      2.38      0.00
   -4    2   11     -2.45      0.00
   -4    2   10      0.80      0.00
   -4    2    9     -4.55      0.00
   -4    2    8     -0.69      0.00
   -4    2    7     -3.82      0.00
   -4    2    6     -1.09      0.00
   -4    2    5     -1.09      0.00
   -4    2    4     -3.00      0.00
   -4    2    3     -0.18      0.00
   -4    2    2     -5.73      0.00
   -4    2    1     -0.86      0.00
   -4    2    0     -6.20      0.00
    4   -2    1      2.20      0.00
    4   -2    2     -3.73      0.00
    4   -2    3      7.92      0.00
    4   -2    4      1.00      0.00
    4   -2    5      9.27      0.00
    4   -2    6      4.66      0.00
    4   -2    7      8.36      0.00
    4   -2    8      4.95      0.00
    4   -2    9     10.97      0.00
    4   -2   10      3.62      0.00
    4   -2   11     14.68      0.00
    4   -2   12     -0.08      0.00
    4   -2   13     15.01      0.00
    4   -2   14     -6.84      0.00
    4   -2   15     10.81      0.00
    4   -2   16    -10.16      0.00
    4   -2   17      3.84      0.00
    4   -2   18     -6.19      0.00
    4   -2   19     -1.66      0.00
    4   -2   20     -1.06      0.00
    4   -2   21     -3.11      0.00
    4   -2   22      0.46      0.00
    4   -2   23     -1.72      0.00
    4   -2   24      0.17      0.00
    4   -2   25     -0.13      0.00
   -4    1   22      0.09      0.00
   -4    1   21      0.52      0.00
   -4    1   20      0.58      0.00
   -4    1   19     -0.25      0.00
   -4    1   18      0.39      0.00
   -4    1   17     -0.81      0.00
   -4    1   16     -0.12      0.00
   -4    1   15     -1.18      0.00
   -4    1   14      0.12      0.00
   -4    1   13     -1.11      0.00
   -4    1   12      2.44      0.00
   -4    1   11     -0.55      0.00
   -4    1   10      6.40      0.00
   -4    1    9     -2.43      0.00
   -4    1    8      9.44      0.00
   -4    1    7     -6.93      0.00
   -4    1    6     10.60      0.00
   -4    1    5     -9.27      0.00
   -4    1    4      8.87      0.00
   -4    1    3     -7.91      0.00
   -4    1    2      5.12      0.00
   -4    1    1    -10.03      0.00
   -4    1    0      2.96      0.00
    4   -1    1    -18.11      0.00
    4   -1    2      0.38      0.00
    4   -1    3    -21.92      0.00
    4   -1    4     -3.13      0.00
    4   -1    5    -19.04      0.00
    4   -1    6     -2.15      0.00
    4   -1    7    -17.61      0.00
    4   -1    8      1.47      0.00
    4   -1    9    -17.51      0.00
    4   -1   10      3.60      0.00
    4   -1   11    -12.90      0.00
    4   -1   12      5.23      0.00
    4   -1   13     -3.17      0.00
    4   -1   14      4.69      0.00
    4   -1   15      5.89      0.00
    4   -1   16      0.19      0.00
    4   -1   17      8.68      0.00
    4   -1   18     -4.24      0.00
    4   -1   19      6.31      0.00
    4   -1   20     -4.31      0.00
    4   -1   21      2.67      0.00
    4   -1   22     -1.82      0.00
    4   -1   23      0.28      0.00
    4   -1   24     -0.54      0.00
    4   -1   25     -0.12      0.00
   -4    0   22     -0.54      0.00
   -4    0   21      0.33      0.00
   -4    0   20     -0.25      0.00
   -4    0   19      0.96      0.00
   -4    0   18     -0.30      0.00
   -4    0   17      0.49      0.00
   -4    0   16     -0.97      0.00
   -4    0   15     -0.39      0.00
   -4    0   14     -2.32      0.00
   -4    0   13     -0.62      0.00
   -4    0   12     -4.19      0.00
   -4    0   11      0.34      0.00
   -4    0   10     -4.25      0.00
   -4    0    9      2.05      0.00
   -4    0    8     -1.65      0.00
   -4    0    7      1.27      0.00
   -4    0    6      3.85      0.00
   -4    0    5     -3.78      0.00
   -4    0    4     10.70      0.00
   -4    0    3     -7.26      0.00
   -4    0    2     13.81      0.00
   -4    0    1     -3.57      0.00
    4    0    0     13.48      0.00
    4    0    1      2.03      0.00
    4    0    2     12.23      0.00
    4    0    3      2.70      0.00
    4    0    4      7.43      0.00
    4    0    5      0.97      0.00
    4    0    6      1.75      0.00
    4    0    7     -0.62      0.00
    4    0    8      1.85      0.00
    4    0    9     -5.63      0.00
    4    0   10      6.04      0.00
    4    0   11    -14.54      0.00
    4    0   12      9.53      0.00
    4    0   13    -20.09      0.00
    4    0   14     11.20      0.00
    4    0   15    -15.98      0.00
    4    0   16     10.47      0.00
    4    0   17     -6.89      0.00
    4    0   18      7.29      0.00
    4    0   19     -1.12      0.00
    4    0   20      3.33      0.00
    4    0   21      0.33      0.00
    4    0   22      1.11      0.00
    4    0   23     -0.25      0.00
    4    0   24      0.99      0.00
    4    0   25     -1.14      0.00
    4    0   26      0.85      0.00
   -4   -1   22     -0.23      0.00
   -4   -1   21     -0.18      0.00
   -4   -1   20     -0.67      0.00
   -4   -1   19      0.53      0.00
   -4   -1   18      0.12      0.00
   -4   -1   17      1.62      0.00
   -4   -1   16      0.91      0.00
   -4   -1   15      2.23      0.00
   -4   -1   14      0.68      0.00
   -4   -1   13      2.77      0.00
   -4   -1   12     -1.86      0.00
   -4   -1   11      3.62      0.00
   -4   -1   10     -6.18      0.00
   -4   -1    9      4.67      0.00
   -4   -1    8    -10.32      0.00
   -4   -1    7      6.85      0.00
   -4   -1    6    -13.33      0.00
   -4   -1    5      8.76      0.00
   -4   -1    4    -12.91      0.00
   -4   -1    3      8.72      0.00
   -4   -1    2    -12.22      0.00
   -4   -1    1      8.91      0.00
    4    1    0    -14.08      0.00
    4    1    1      9.65      0.00
    4    1    2    -11.35      0.00
    4    1    3      9.61      0.00
    4    1    4     -5.24      0.00
    4    1    5     10.84      0.00
    4    1    6     -6.21      0.00
    4    1    7     15.40      0.00
    4    1    8    -12.12      0.00
    4    1    9     21.00      0.00
    4    1   10    -13.80      0.00
    4    1   11     21.19      0.00
    4    1   12    -10.98      0.00
    4    1   13     12.94      0.00
    4    1   14     -7.59      0.00
    4    1   15      1.94      0.00
    4    1   16     -3.66      0.00
    4    1   17     -3.97      0.00
    4    1   18      0.25      0.00
    4    1   19     -3.18      0.00
    4    1   20      1.28      0.00
    4    1   21     -0.12      0.00
    4    1   22      0.03      0.00
    4    1   23      1.48      0.00
    4    1   24     -0.67      0.00
    4    1   25      1.25      0.00
    4    1   26     -0.29      0.00
   -4   -2   22      0.18      0.00
   -4   -2   21      0.11      0.00
   -4   -2   20     -1.00      0.00
   -4   -2   19     -0.08      0.00
   -4   -2   18     -2.12      0.00
   -4   -2   17     -0.05      0.00
   -4   -2   16     -0.91      0.00
   -4   -2   15     -0.65      0.00
   -4   -2   14      2.45      0.00
   -4   -2   13     -1.97      0.00
   -4   -2   12      5.28      0.00
   -4   -2   11     -2.37      0.00
   -4   -2   10      4.95      0.00
   -4   -2    9     -0.24      0.00
   -4   -2    8      1.36      0.00
   -4   -2    7      4.81      0.00
   -4   -2    6     -4.46      0.00
   -4   -2    5      8.67      0.00
   -4   -2    4     -6.85      0.00
   -4   -2    3      5.63      0.00
   -4   -2    2      0.05      0.00
   -4   -2    1     -1.62      0.00
    4    2    0      7.20      0.00
    4    2    1     -6.07      0.00
    4    2    2      5.83      0.00
    4    2    3     -7.74      0.00
    4    2    4      4.41      0.00
    4    2    5     -9.59      0.00
    4    2    6      6.57      0.00
    4    2    7    -10.41      0.00
    4    2    8      4.31      0.00
    4    2    9     -7.01      0.00
    4    2   10     -1.98      0.00
    4    2   11      0.36      0.00
    4    2   12     -4.57      0.00
    4    2   13      5.88      0.00
    4    2   14     -3.10      0.00
    4    2   15      5.78      0.00
    4    2   16     -2.77      0.00
    4    2   17      2.56      0.00
    4    2   18     -3.28      0.00
    4    2   19     -0.60      0.00
    4    2   20     -1.87      0.00
    4    2   21     -1.75      0.00
    4    2   22     -0.32      0.00
    4    2   23     -0.73      0.00
    4    2   24     -0.08      0.00
    4    2   25      0.45      0.00
    4    2   26     -0.13      0.00
   -4   -3   21     -0.88      0.00
   -4   -3   20      1.97      0.00
   -4   -3   19     -1.06      0.00
   -4   -3   18      0.78      0.00
   -4   -3   17     -0.01      0.00
   -4   -3   16     -2.75      0.00
   -4   -3   15      1.36      0.00
   -4   -3   14     -4.48      0.00
   -4   -3   13      0.31      0.00
   -4   -3   12     -2.30      0.00
   -4   -3   11     -2.40      0.00
   -4   -3   10      1.24      0.00
   -4   -3    9     -6.15      0.00
   -4   -3    8      5.98      0.00
   -4   -3    7     -9.50      0.00
   -4   -3    6     10.03      0.00
   -4   -3    5     -6.72      0.00
   -4   -3    4      6.16      0.00
   -4   -3    3      0.99      0.00
   -4   -3    2     -3.38      0.00
   -4   -3    1      7.16      0.00
    4    3    0     -8.04      0.00
    4    3    1     10.73      0.00
    4    3    2     -7.24      0.00
    4    3    3     11.54      0.00
    4    3    4     -4.49      0.00
    4    3    5      7.90      0.00
    4    3    6      2.66      0.00
    4    3    7      1.08      0.00
    4    3    8     10.69      0.00
    4    3    9     -4.83      0.00
    4    3   10     11.04      0.00
    4    3   11     -5.76      0.00
    4    3   12      5.12      0.00
    4    3   13     -1.06      0.00
    4    3   14      0.33      0.00
    4    3   15      4.37      0.00
    4    3   16     -0.73      0.00
    4    3   17      5.42      0.00
    4    3   18     -0.34      0.00
    4    3   19      3.11      0.00
    4    3   20     -0.76      0.00
    4    3   21      0.81      0.00
    4    3   22     -1.68      0.00
    4    3   23     -0.28      0.00
    4    3   24     -2.04      0.00
    4    3   25     -0.33      0.00
    4    3   26     -1.33      0.00
   -4   -4   21     -0.26      0.00
   -4   -4   20      0.61      0.00
   -4   -4   19     -1.21      0.00
   -4   -4   18      2.78      0.00
   -4   -4   17     -1.70      0.00
   -4   -4   16      3.55      0.00
   -4   -4   15     -0.10      0.00
   -4   -4   14      1.04      0.00
   -4   -4   13      2.46      0.00
   -4   -4   12     -1.42      0.00
   -4   -4   11      3.16      0.00
   -4   -4   10     -0.55      0.00
   -4   -4    9      1.59      0.00
   -4   -4    8      0.79      0.00
   -4   -4    7     -2.48      0.00
   -4   -4    6      1.19      0.00
   -4   -4    5     -6.29      0.00
   -4   -4    4      2.59      0.00
   -4   -4    3     -6.71      0.00
   -4   -4    2      4.11      0.00
   -4   -4    1     -8.07      0.00
    4    4    0      4.29      0.00
    4    4    1    -10.99      0.00
    4    4    2      2.16      0.00
    4    4    3     -9.37      0.00
    4    4    4     -3.88      0.00
    4    4    5     -3.57      0.00
    4    4    6    -10.03      0.00
    4    4    7      0.98      0.00
    4    4    8     -8.88      0.00
    4    4    9      0.71      0.00
    4    4   10     -1.99      0.00
    4    4   11     -3.69      0.00
    4    4   12      2.44      0.00
    4    4   13     -7.19      0.00
    4    4   14      2.82      0.00
    4    4   15     -6.33      0.00
    4    4   16      2.33      0.00
    4    4   17     -2.71      0.00
    4    4   18      2.37      0.00
    4    4   19      0.08      0.00
    4    4   20      3.04      0.00
    4    4   21      0.73      0.00
    4    4   22      3.25      0.00
    4    4   23      0.16      0.00
    4    4   24      2.08      0.00
    4    4   25     -0.51      0.00
    4    4   26      0.53      0.00
   -4   -5   20     -0.53      0.00
   -4   -5   19      0.12      0.00
   -4   -5   18      0.80      0.00
   -4   -5   17     -2.49      0.00
   -4   -5   16      2.91      0.00
   -4   -5   15     -3.96      0.00
   -4   -5   14      3.51      0.00
   -4   -5   13     -2.78      0.00
   -4   -5   12      1.78      0.00
   -4   -5   11     -0.61      0.00
   -4   -5   10     -1.30      0.00
   -4   -5    9      2.70      0.00
   -4   -5    8     -2.56      0.00
   -4   -5    7      4.38      0.00
   -4   -5    6     -0.23      0.00
   -4   -5    5     -0.38      0.00
   -4   -5    4      3.49      0.00
   -4   -5    3     -5.97      0.00
   -4   -5    2      5.88      0.00
   -4   -5    1     -5.04      0.00
    4    5    0      7.06      0.00
    4    5    1     -2.39      0.00
    4    5    2      9.22      0.00
    4    5    3     -2.59      0.00
    4    5    4     10.55      0.00
    4    5    5     -3.23      0.00
    4    5    6      6.83      0.00
    4    5    7     -2.88      0.00
    4    5    8      0.59      0.00
    4    5    9     -0.88      0.00
    4    5   10     -2.02      0.00
    4    5   11      0.96      0.00
    4    5   12     -0.87      0.00
    4    5   13     -0.38      0.00
    4    5   14     -0.52      0.00
    4    5   15     -2.33      0.00
    4    5   16     -1.89      0.00
    4    5   17     -2.11      0.00
    4    5   18     -2.46      0.00
    4    5   19     -1.28      0.00
    4    5   20     -1.46      0.00
    4    5   21     -0.79      0.00
    4    5   22      0.29      0.00
    4    5   23      0.07      0.00
    4    5   24      1.34      0.00
    4    5   25      0.90      0.00
    4    5   26      0.88      0.00
   -4   -6   20     -2.43      0.00
   -4   -6   19      3.44      0.00
   -4   -6   18     -4.14      0.00
   -4   -6   17      4.39      0.00
   -4   -6   16     -3.65      0.00
   -4   -6   15      1.62      0.00
   -4   -6   14     -1.70      0.00
   -4   -6   13     -0.76      0.00
   -4   -6   12     -0.66      0.00
   -4   -6   11     -0.68      0.00
   -4   -6   10     -1.32      0.00
   -4   -6    9     -0.78      0.00
   -4   -6    8     -3.44      0.00
   -4   -6    7      0.85      0.00
   -4   -6    6     -5.54      0.00
   -4   -6    5      5.53      0.00
   -4   -6    4     -7.33      0.00
   -4   -6    3      8.49      0.00
   -4   -6    2     -9.32      0.00
   -4   -6    1      7.93      0.00
    4    6    0     -9.89      0.00
    4    6    1      6.25      0.00
    4    6    2     -7.52      0.00
    4    6    3      4.94      0.00
    4    6    4     -2.04      0.00
    4    6    5      4.79      0.00
    4    6    6      3.44      0.00
    4    6    7      4.80      0.00
    4    6    8      3.98      0.00
    4    6    9      3.76      0.00
    4    6   10      1.04      0.00
    4    6   11      3.72      0.00
    4    6   12      0.21      0.00
    4    6   13      4.35      0.00
    4    6   14      1.98      0.00
    4    6   15      2.68      0.00
    4    6   16      2.59      0.00
    4    6   17      0.38      0.00
    4    6   18      0.85      0.00
    4    6   19     -0.34      0.00
    4    6   20     -1.12      0.00
    4    6   21     -0.64      0.00
    4    6   22     -1.85      0.00
    4    6   23     -0.97      0.00
    4    6   24     -0.98      0.00
    4    6   25     -0.67      0.00
   -4   -7   19     -1.66      0.00
   -4   -7   18      0.26      0.00
   -4   -7   17      0.51      0.00
   -4   -7   16     -1.18      0.00
   -4   -7   15      2.67      0.00
   -4   -7   14     -1.11      0.00
   -4   -7   13      1.82      0.00
   -4   -7   12      0.23      0.00
   -4   -7   11      0.30      0.00
   -4   -7   10      1.76      0.00
   -4   -7    9      0.88      0.00
   -4   -7    8      1.53      0.00
   -4   -7    7      1.47      0.00
   -4   -7    6     -0.45      0.00
   -4   -7    5      0.67      0.00
   -4   -7    4     -0.54      0.00
   -4   -7    3     -0.61      0.00
   -4   -7    2      1.21      0.00
   -4   -7    1     -0.61      0.00
    4    7    0      0.11      0.00
    4    7    1      1.04      0.00
    4    7    2     -4.31      0.00
    4    7    3      1.15      0.00
    4    7    4     -8.10      0.00
    4    7    5     -0.24      0.00
    4    7    6     -7.64      0.00
    4    7    7      0.12      0.00
    4    7    8     -3.46      0.00
    4    7    9      0.45      0.00
    4    7   10     -0.94      0.00
    4    7   11     -1.19      0.00
    4    7   12     -1.56      0.00
    4    7   13     -1.90      0.00
    4    7   14     -1.32      0.00
    4    7   15     -0.33      0.00
    4    7   16      0.34      0.00
    4    7   17      1.24      0.00
    4    7   18      0.89      0.00
    4    7   19      1.79      0.00
    4    7   20      0.15      0.00
    4    7   21      1.71      0.00
    4    7   22     -0.72      0.00
    4    7   23      0.97      0.00
    4    7   24     -1.39      0.00
    4    7   25      0.19      0.00
   -4   -8   18      2.04      0.00
   -4   -8   17     -2.46      0.00
   -4   -8   16      1.26      0.00
   -4   -8   15     -1.73      0.00
   -4   -8   14      0.68      0.00
   -4   -8   13     -0.48      0.00
   -4   -8   12      0.87      0.00
   -4   -8   11     -1.03      0.00
   -4   -8   10      1.39      0.00
   -4   -8    9     -2.34      0.00
   -4   -8    8      2.70      0.00
   -4   -8    7     -2.15      0.00
   -4   -8    6      3.65      0.00
   -4   -8    5     -1.41      0.00
   -4   -8    4      2.69      0.00
   -4   -8    3     -1.47      0.00
   -4   -8    2      1.54      0.00
   -4   -8    1     -2.28      0.00
    4    8    0      2.46      0.00
    4    8    1     -2.31      0.00
    4    8    2      4.09      0.00
    4    8    3     -1.03      0.00
    4    8    4      3.46      0.00
    4    8    5     -1.24      0.00
    4    8    6     -0.07      0.00
    4    8    7     -2.04      0.00
    4    8    8     -2.71      0.00
    4    8    9     -0.11      0.00
    4    8   10     -1.55      0.00
    4    8   11      2.43      0.00
    4    8   12     -0.53      0.00
    4    8   13      2.21      0.00
    4    8   14     -1.71      0.00
    4    8   15     -0.25      0.00
    4    8   16     -1.50      0.00
    4    8   17     -2.22      0.00
    4    8   18      0.60      0.00
    4    8   19     -2.37      0.00
    4    8   20      2.11      0.00
    4    8   21     -1.46      0.00
    4    8   22      2.06      0.00
    4    8   23     -0.30      0.00
    4    8   24      0.90      0.00
   -4   -9   17      0.01      0.00
   -4   -9   16      1.06      0.00
   -4   -9   15     -0.43      0.00
   -4   -9   14      0.10      0.00
   -4   -9   13      0.14      0.00
   -4   -9   12     -0.46      0.00
   -4   -9   11      0.59      0.00
   -4   -9   10      0.44      0.00
   -4   -9    9     -0.67      0.00
   -4   -9    8      1.28      0.00
   -4   -9    7     -2.32      0.00
   -4   -9    6      1.66      0.00
   -4   -9    5     -1.80      0.00
   -4   -9    4      2.09      0.00
   -4   -9    3     -0.20      0.00
   -4   -9    2      2.74      0.00
   -4   -9    1     -0.65      0.00
    4    9    0      2.71      0.00
    4    9    1     -2.61      0.00
    4    9    2      1.95      0.00
    4    9    3     -2.92      0.00
    4    9    4      2.88      0.00
    4    9    5     -1.87      0.00
    4    9    6      4.50      0.00
    4    9    7     -2.35      0.00
    4    9    8      2.64      0.00
    4    9    9     -3.31      0.00
    4    9   10     -0.79      0.00
    4    9   11     -1.64      0.00
    4    9   12     -1.07      0.00
    4    9   13      1.72      0.00
    4    9   14     -0.21      0.00
    4    9   15      3.71      0.00
    4    9   16     -1.46      0.00
    4    9   17      3.44      0.00
    4    9   18     -2.92      0.00
    4    9   19      2.27      0.00
    4    9   20     -2.36      0.00
    4    9   21      1.02      0.00
    4    9   22     -0.30      0.00
    4    9   23     -0.11      0.00
   -4  -10   16     -0.81      0.00
   -4  -10   15      0.33      0.00
   -4  -10   14     -0.43      0.00
   -4  -10   13      0.27      0.00
   -4  -10   12     -1.43      0.00
   -4  -10   11      1.26      0.00
   -4  -10   10     -2.43      0.00
   -4  -10    9      2.21      0.00
   -4  -10    8     -1.90      0.00
   -4  -10    7      1.68      0.00
   -4  -10    6     -0.98      0.00
   -4  -10    5     -0.13      0.00
   -4  -10    4     -0.44      0.00
   -4  -10    3     -0.52      0.00
   -4  -10    2     -0.18      0.00
   -4  -10    1      1.65      0.00
    4   10    0      0.58      0.00
    4   10    1      2.97      0.00
    4   10    2      1.03      0.00
    4   10    3      1.90      0.00
    4   10    4      0.49      0.00
    4   10    5      0.81      0.00
    4   10    6      1.74      0.00
    4   10    7      0.29      0.00
    4   10    8      4.42      0.00
    4   10    9     -1.75      0.00
    4   10   10      4.55      0.00
    4   10   11     -5.25      0.00
    4   10   12      2.35      0.00
    4   10   13     -6.40      0.00
    4   10   14      1.30      0.00
    4   10   15     -4.09      0.00
    4   10   16      2.07      0.00
    4   10   17     -1.52      0.00
    4   10   18      2.10      0.00
    4   10   19     -0.35      0.00
    4   10   20      0.57      0.00
    4   10   21      0.05      0.00
    4   10   22     -0.64      0.00
    4   10   23      0.08      0.00
   -4  -11   14     -0.29      0.00
   -4  -11   13      0.64      0.00
   -4  -11   12     -0.15      0.00
   -4  -11   11      1.05      0.00
   -4  -11   10     -1.25      0.00
   -4  -11    9      1.89      0.00
   -4  -11    8     -2.74      0.00
   -4  -11    7      3.00      0.00
   -4  -11    6     -3.20      0.00
   -4  -11    5      3.44      0.00
   -4  -11    4     -3.24      0.00
   -4  -11    3      1.79      0.00
   -4  -11    2     -3.60      0.00
   -4  -11    1     -0.53      0.00
    4   11    0     -3.68      0.00
    4   11    1     -0.37      0.00
    4   11    2     -3.11      0.00
    4   11    3      1.84      0.00
    4   11    4     -3.30      0.00
    4   11    5      3.57      0.00
    4   11    6     -4.05      0.00
    4   11    7      4.43      0.00
    4   11    8     -2.61      0.00
    4   11    9      5.38      0.00
    4   11   10      0.27      0.00
    4   11   11      5.14      0.00
    4   11   12      1.60      0.00
    4   11   13      1.86      0.00
    4   11   14      1.10      0.00
    4   11   15     -1.77      0.00
    4   11   16      0.27      0.00
    4   11   17     -2.55      0.00
    4   11   18      0.25      0.00
    4   11   19     -1.63      0.00
    4   11   20      0.18      0.00
    4   11   21     -0.63      0.00
    4   11   22     -0.35      0.00
   -4  -12   13     -1.49      0.00
   -4  -12   12      1.56      0.00
   -4  -12   11     -1.78      0.00
   -4  -12   10      1.84      0.00
   -4  -12    9     -1.43      0.00
   -4  -12    8      1.81      0.00
   -4  -12    7     -1.03      0.00
   -4  -12    6      1.12      0.00
   -4  -12    5      0.13      0.00
   -4  -12    4      0.54      0.00
   -4  -12    3      1.48      0.00
   -4  -12    2      0.48      0.00
   -4  -12    1      0.95      0.00
    4   12    0      0.10      0.00
    4   12    1     -1.42      0.00
    4   12    2     -0.48      0.00
    4   12    3     -3.00      0.00
    4   12    4     -1.20      0.00
    4   12    5     -2.71      0.00
    4   12    6     -2.68      0.00
    4   12    7     -1.77      0.00
    4   12    8     -4.26      0.00
    4   12    9     -0.08      0.00
    4   12   10     -4.30      0.00
    4   12   11      2.81      0.00
    4   12   12     -2.68      0.00
    4   12   13      5.08      0.00
    4   12   14     -1.11      0.00
    4   12   15      4.61      0.00
    4   12   16     -0.74      0.00
    4   12   17      2.33      0.00
    4   12   18     -0.89      0.00
    4   12   19      0.65      0.00
    4   12   20     -0.62      0.00
   -4  -13   11     -1.72      0.00
   -4  -13   10      0.97      0.00
   -4  -13    9     -2.68      0.00
   -4  -13    8      1.85      0.00
   -4  -13    7     -2.70      0.00
   -4  -13    6      2.42      0.00
   -4  -13    5     -2.39      0.00
   -4  -13    4      1.80      0.00
   -4  -13    3     -1.16      0.00
   -4  -13    2      1.21      0.00
   -4  -13    1      0.64      0.00
    4   13    0      1.83      0.00
    4   13    1      1.32      0.00
    4   13    2      2.85      0.00
    4   13    3      0.14      0.00
    4   13    4      3.64      0.00
    4   13    5     -1.45      0.00
    4   13    6      3.41      0.00
    4   13    7     -2.77      0.00
    4   13    8      2.10      0.00
    4   13    9     -4.43      0.00
    4   13   10      0.57      0.00
    4   13   11     -4.74      0.00
    4   13   12     -0.84      0.00
    4   13   13     -2.65      0.00
    4   13   14     -0.99      0.00
    4   13   15     -0.40      0.00
    4   13   16      0.09      0.00
    4   13   17      0.47      0.00
    4   13   18      0.72      0.00
    4   13   19      0.47      0.00
   -4  -14    9      1.17      0.00
   -4  -14    8     -1.23      0.00
   -4  -14    7     -0.20      0.00
   -4  -14    6     -0.49      0.00
   -4  -14    5     -1.33      0.00
   -4  -14    4      0.47      0.00
   -4  -14    3     -1.37      0.00
   -4  -14    2      0.06      0.00
   -4  -14    1     -0.29      0.00
    4   14    0     -0.86      0.00
    4   14    1      1.02      0.00
    4   14    2     -0.83      0.00
    4   14    3      1.82      0.00
    4   14    4      0.02      0.00
    4   14    5      2.29      0.00
    4   14    6      1.32      0.00
    4   14    7      2.39      0.00
    4   14    8      2.25      0.00
    4   14    9      1.19      0.00
    4   14   10      2.23      0.00
    4   14   11     -1.24      0.00
    4   14   12      1.42      0.00
    4   14   13     -2.68      0.00
    4   14   14      0.01      0.00
    4   14   15     -2.17      0.00
    4   14   16     -0.74      0.00
    4   14   17     -1.03      0.00
   -4  -15    6     -0.98      0.00
   -4  -15    5      0.86      0.00
   -4  -15    4     -0.71      0.00
   -4  -15    3     -0.36      0.00
   -4  -15    2     -0.05      0.00
   -4  -15    1     -1.15      0.00
    4   15    0      0.07      0.00
    4   15    1     -1.31      0.00
    4   15    2     -0.51      0.00
    4   15    3     -0.99      0.00
    4   15    4     -1.14      0.00
    4   15    5     -0.63      0.00
    4   15    6     -1.42      0.00
    4   15    7      0.65      0.00
    4   15    8     -1.23      0.00
    4   15    9      2.42      0.00
    4   15   10     -0.28      0.00
    4   15   11      2.56      0.00
    4   15   12      0.70      0.00
    4   15   13      1.50      0.00
    4   15   14      0.75      0.00
   -4  -16    2     -0.12      0.00
   -4  -16    1      0.33      0.00
    4   16    0     -0.12      0.00
    4   16    1      0.16      0.00
    4   16    2      0.05      0.00
    4   16    3      0.23      0.00
    4   16    4      0.05      0.00
    4   16    5      0.12      0.00
    4   16    6     -0.27      0.00
    4   16    7     -0.57      0.00
    4   16    8     -0.69      0.00
    4   16    9     -0.41      0.00
    4   16   10     -0.94      0.00
    4   16   11      0.50      0.00
   -5   15    6      0.67      0.00
   -5   15    5     -0.11      0.00
   -5   15    4      1.39      0.00
   -5   15    3      1.30      0.00
   -5   15    2      1.35      0.00
   -5   15    1      1.45      0.00
   -5   15    0      0.09      0.00
    5  -15    1      0.37      0.00
    5  -15    2     -0.79      0.00
    5  -15    3     -0.45      0.00
    5  -15    4     -0.35      0.00
    5  -15    5     -0.81      0.00
    5  -15    6      0.38      0.00
   -5   14   10     -0.76      0.00
   -5   14    9      0.34      0.00
   -5   14    8     -1.19      0.00
   -5   14    7     -0.30      0.00
   -5   14    6     -1.90      0.00
   -5   14    5     -1.62      0.00
   -5   14    4     -1.82      0.00
   -5   14    3     -1.85      0.00
   -5   14    2     -0.36      0.00
   -5   14    1     -0.25      0.00
   -5   14    0      1.09      0.00
    5  -14    1      0.98      0.00
    5  -14    2      1.22      0.00
    5  -14    3      0.98      0.00
    5  -14    4      0.77      0.00
    5  -14    5      0.32      0.00
    5  -14    6      0.23      0.00
    5  -14    7     -0.23      0.00
    5  -14    8     -0.18      0.00
    5  -14    9      0.08      0.00
    5  -14   10      0.17      0.00
   -5   13   12      1.33      0.00
   -5   13   11      0.02      0.00
   -5   13   10      1.44      0.00
   -5   13    9      0.40      0.00
   -5   13    8      1.41      0.00
   -5   13    7      0.67      0.00
   -5   13    6      0.74      0.00
   -5   13    5      0.36      0.00
   -5   13    4     -0.79      0.00
   -5   13    3     -1.07      0.00
   -5   13    2     -2.23      0.00
   -5   13    1     -1.93      0.00
   -5   13    0     -2.07      0.00
    5  -13    1     -1.07      0.00
    5  -13    2     -1.22      0.00
    5  -13    3      0.73      0.00
    5  -13    4     -0.64      0.00
    5  -13    5      1.99      0.00
    5  -13    6      0.37      0.00
    5  -13    7      1.80      0.00
    5  -13    8      0.52      0.00
    5  -13    9      1.13      0.00
    5  -13   10     -0.28      0.00
    5  -13   11      1.00      0.00
    5  -13   12     -0.25      0.00
    5  -13   13      1.17      0.00
   -5   12   14     -0.45      0.00
   -5   12   13      0.04      0.00
   -5   12   12     -0.79      0.00
   -5   12   11      0.44      0.00
   -5   12   10     -0.91      0.00
   -5   12    9      0.95      0.00
   -5   12    8     -0.25      0.00
   -5   12    7      1.77      0.00
   -5   12    6      0.43      0.00
   -5   12    5      2.73      0.00
   -5   12    4      0.93      0.00
   -5   12    3      2.59      0.00
   -5   12    2      0.26      0.00
   -5   12    1      1.10      0.00
   -5   12    0     -1.45      0.00
    5  -12    1     -0.79      0.00
    5  -12    2     -2.31      0.00
    5  -12    3     -2.26      0.00
    5  -12    4     -2.35      0.00
    5  -12    5     -2.65      0.00
    5  -12    6     -1.43      0.00
    5  -12    7     -1.64      0.00
    5  -12    8      0.35      0.00
    5  -12    9     -0.19      0.00
    5  -12   10      0.79      0.00
    5  -12   11      0.53      0.00
    5  -12   12     -0.06      0.00
    5  -12   13      1.04      0.00
    5  -12   14     -0.81      0.00
    5  -12   15      1.41      0.00
   -5   11   16     -0.99      0.00
   -5   11   15     -0.35      0.00
   -5   11   14     -0.87      0.00
   -5   11   13     -0.75      0.00
   -5   11   12     -0.42      0.00
   -5   11   11     -1.43      0.00
   -5   11   10     -0.64      0.00
   -5   11    9     -2.33      0.00
   -5   11    8     -0.30      0.00
   -5   11    7     -2.64      0.00
   -5   11    6      0.94      0.00
   -5   11    5     -1.45      0.00
   -5   11    4      2.52      0.00
   -5   11    3      0.63      0.00
   -5   11    2      4.17      0.00
   -5   11    1      2.21      0.00
   -5   11    0      4.58      0.00
    5  -11    1      2.34      0.00
    5  -11    2      3.52      0.00
    5  -11    3      1.78      0.00
    5  -11    4      1.19      0.00
    5  -11    5      1.23      0.00
    5  -11    6     -1.59      0.00
    5  -11    7     -0.21      0.00
    5  -11    8     -1.97      0.00
    5  -11    9     -1.74      0.00
    5  -11   10      0.05      0.00
    5  -11   11     -2.76      0.00
    5  -11   12      1.99      0.00
    5  -11   13     -3.68      0.00
    5  -11   14      2.71      0.00
    5  -11   15     -2.82      0.00
    5  -11   16      1.74      0.00
    5  -11   17     -0.84      0.00
   -5   10   17     -0.07      0.00
   -5   10   16      0.99      0.00
   -5   10   15     -0.11      0.00
   -5   10   14      0.54      0.00
   -5   10   13     -0.07      0.00
   -5   10   12      0.63      0.00
   -5   10   11      0.48      0.00
   -5   10   10      0.45      0.00
   -5   10    9      0.65      0.00
   -5   10    8     -0.86      0.00
   -5   10    7     -0.56      0.00
   -5   10    6     -2.37      0.00
   -5   10    5     -2.36      0.00
   -5   10    4     -2.79      0.00
   -5   10    3     -3.78      0.00
   -5   10    2     -1.42      0.00
   -5   10    1     -3.40      0.00
   -5   10    0      0.81      0.00
    5  -10    1     -1.29      0.00
    5  -10    2      2.81      0.00
    5  -10    3      0.29      0.00
    5  -10    4      4.25      0.00
    5  -10    5      1.22      0.00
    5  -10    6      3.38      0.00
    5  -10    7      1.68      0.00
    5  -10    8      0.11      0.00
    5  -10    9      1.11      0.00
    5  -10   10     -2.26      0.00
    5  -10   11      0.60      0.00
    5  -10   12     -2.14      0.00
    5  -10   13     -0.32      0.00
    5  -10   14     -0.62      0.00
    5  -10   15     -1.92      0.00
    5  -10   16      0.91      0.00
    5  -10   17     -1.91      0.00
    5  -10   18      1.47      0.00
   -5    9   18     -0.23      0.00
   -5    9   17      0.97      0.00
   -5    9   16      0.69      0.00
   -5    9   15      0.78      0.00
   -5    9   14      0.95      0.00
   -5    9   13      0.21      0.00
   -5    9   12      0.76      0.00
   -5    9   11      0.13      0.00
   -5    9   10      1.33      0.00
   -5    9    9      1.25      0.00
   -5    9    8      2.32      0.00
   -5    9    7      2.11      0.00
   -5    9    6      2.05      0.00
   -5    9    5      2.20      0.00
   -5    9    4     -0.41      0.00
   -5    9    3      1.32      0.00
   -5    9    2     -3.29      0.00
   -5    9    1     -1.23      0.00
   -5    9    0     -4.45      0.00
    5   -9    1     -3.53      0.00
    5   -9    2     -3.39      0.00
    5   -9    3     -4.37      0.00
    5   -9    4     -0.36      0.00
    5   -9    5     -3.77      0.00
    5   -9    6      3.07      0.00
    5   -9    7     -1.26      0.00
    5   -9    8      4.02      0.00
    5   -9    9      1.42      0.00
    5   -9   10      1.45      0.00
    5   -9   11      2.92      0.00
    5   -9   12     -1.61      0.00
    5   -9   13      3.48      0.00
    5   -9   14     -2.24      0.00
    5   -9   15      2.45      0.00
    5   -9   16     -1.26      0.00
    5   -9   17      0.77      0.00
    5   -9   18     -0.15      0.00
    5   -9   19      0.36      0.00
    5   -9   20      0.51      0.00
   -5    8   19     -0.44      0.00
   -5    8   18     -1.15      0.00
   -5    8   17      0.20      0.00
   -5    8   16     -1.94      0.00
   -5    8   15      1.09      0.00
   -5    8   14     -1.79      0.00
   -5    8   13      1.30      0.00
   -5    8   12     -1.53      0.00
   -5    8   11      0.04      0.00
   -5    8   10     -1.45      0.00
   -5    8    9     -1.17      0.00
   -5    8    8     -0.97      0.00
   -5    8    7     -0.57      0.00
   -5    8    6      0.12      0.00
   -5    8    5      1.55      0.00
   -5    8    4      0.94      0.00
   -5    8    3      4.14      0.00
   -5    8    2      0.76      0.00
   -5    8    1      5.41      0.00
   -5    8    0     -0.65      0.00
    5   -8    1      4.76      0.00
    5   -8    2     -3.05      0.00
    5   -8    3      2.80      0.00
    5   -8    4     -4.59      0.00
    5   -8    5     -0.79      0.00
    5   -8    6     -3.29      0.00
    5   -8    7     -4.01      0.00
    5   -8    8      0.92      0.00
    5   -8    9     -4.38      0.00
    5   -8   10      5.07      0.00
    5   -8   11     -3.05      0.00
    5   -8   12      5.45      0.00
    5   -8   13     -1.15      0.00
    5   -8   14      2.96      0.00
    5   -8   15      0.62      0.00
    5   -8   16      0.86      0.00
    5   -8   17      0.65      0.00
    5   -8   18     -0.11      0.00
    5   -8   19     -0.62      0.00
    5   -8   20     -0.21      0.00
    5   -8   21     -0.97      0.00
   -5    7   19     -0.79      0.00
   -5    7   18      1.25      0.00
   -5    7   17     -1.42      0.00
   -5    7   16      0.77      0.00
   -5    7   15     -1.25      0.00
   -5    7   14      0.31      0.00
   -5    7   13      0.51      0.00
   -5    7   12     -0.47      0.00
   -5    7   11      2.12      0.00
   -5    7   10     -1.70      0.00
   -5    7    9      1.36      0.00
   -5    7    8     -2.76      0.00
   -5    7    7     -1.40      0.00
   -5    7    6     -2.12      0.00
   -5    7    5     -3.73      0.00
   -5    7    4     -0.08      0.00
   -5    7    3     -3.12      0.00
   -5    7    2      1.58      0.00
   -5    7    1      0.11      0.00
   -5    7    0      1.93      0.00
    5   -7    1      3.75      0.00
    5   -7    2      0.18      0.00
    5   -7    3      7.18      0.00
    5   -7    4     -3.41      0.00
    5   -7    5      9.29      0.00
    5   -7    6     -7.44      0.00
    5   -7    7      7.63      0.00
    5   -7    8     -9.90      0.00
    5   -7    9      3.75      0.00
    5   -7   10     -8.70      0.00
    5   -7   11      1.51      0.00
    5   -7   12     -5.13      0.00
    5   -7   13      1.16      0.00
    5   -7   14     -2.44      0.00
    5   -7   15      1.49      0.00
    5   -7   16     -1.18      0.00
    5   -7   17      1.85      0.00
    5   -7   18     -0.18      0.00
    5   -7   19      1.01      0.00
    5   -7   20      0.72      0.00
    5   -7   21     -0.56      0.00
    5   -7   22      0.85      0.00
   -5    6   20     -0.39      0.00
   -5    6   19      0.51      0.00
   -5    6   18      1.02      0.00
   -5    6   17     -0.71      0.00
   -5    6   16      1.88      0.00
   -5    6   15     -2.58      0.00
   -5    6   14      2.16      0.00
   -5    6   13     -3.58      0.00
   -5    6   12      2.44      0.00
   -5    6   11     -2.09      0.00
   -5    6   10      3.07      0.00
   -5    6    9      0.98      0.00
   -5    6    8      3.21      0.00
   -5    6    7      2.58      0.00
   -5    6    6      1.72      0.00
   -5    6    5      0.77      0.00
   -5    6    4     -0.45      0.00
   -5    6    3     -2.68      0.00
   -5    6    2     -0.98      0.00
   -5    6    1     -4.75      0.00
   -5    6    0      1.77      0.00
    5   -6    1     -5.42      0.00
    5   -6    2      5.98      0.00
    5   -6    3     -5.28      0.00
    5   -6    4      8.31      0.00
    5   -6    5     -3.02      0.00
    5   -6    6      8.11      0.00
    5   -6    7      0.44      0.00
    5   -6    8      5.35      0.00
    5   -6    9      1.19      0.00
    5   -6   10      1.14      0.00
    5   -6   11     -0.89      0.00
    5   -6   12     -1.25      0.00
    5   -6   13     -2.51      0.00
    5   -6   14     -1.05      0.00
    5   -6   15     -2.48      0.00
    5   -6   16     -1.02      0.00
    5   -6   17     -0.62      0.00
    5   -6   18     -2.36      0.00
    5   -6   19      1.88      0.00
    5   -6   20     -2.54      0.00
    5   -6   21      1.97      0.00
    5   -6   22     -0.90      0.00
    5   -6   23      0.15      0.00
   -5    5   20     -0.59      0.00
   -5    5   19      0.57      0.00
   -5    5   18     -1.37      0.00
   -5    5   17      2.10      0.00
   -5    5   16     -1.15      0.00
   -5    5   15      1.77      0.00
   -5    5   14     -0.12      0.00
   -5    5   13     -0.84      0.00
   -5    5   12      0.27      0.00
   -5    5   11     -3.70      0.00
   -5    5   10      0.04      0.00
   -5    5    9     -4.35      0.00
   -5    5    8      1.20      0.00
   -5    5    7     -1.94      0.00
   -5    5    6      4.29      0.00
   -5    5    5      0.43      0.00
   -5    5    4      6.37      0.00
   -5    5    3     -0.92      0.00
   -5    5    2      4.54      0.00
   -5    5    1     -4.86      0.00
   -5    5    0      0.91      0.00
    5   -5    1     -7.41      0.00
    5   -5    2      0.25      0.00
    5   -5    3     -7.98      0.00
    5   -5    4      2.84      0.00
    5   -5    5     -7.75      0.00
    5   -5    6      5.69      0.00
    5   -5    7     -5.07      0.00
    5   -5    8      7.89      0.00
    5   -5    9     -0.62      0.00
    5   -5   10      8.38      0.00
    5   -5   11      1.51      0.00
    5   -5   12      5.61      0.00
    5   -5   13      0.77      0.00
    5   -5   14      2.01      0.00
    5   -5   15     -1.05      0.00
    5   -5   16      0.87      0.00
    5   -5   17     -2.58      0.00
    5   -5   18      0.72      0.00
    5   -5   19     -2.19      0.00
    5   -5   20     -0.47      0.00
    5   -5   21     -0.41      0.00
    5   -5   22     -1.08      0.00
    5   -5   23      0.31      0.00
    5   -5   24     -0.45      0.00
   -5    4   21     -0.19      0.00
   -5    4   20     -0.37      0.00
   -5    4   19      0.09      0.00
   -5    4   18     -1.25      0.00
   -5    4   17      1.45      0.00
   -5    4   16     -2.21      0.00
   -5    4   15      3.59      0.00
   -5    4   14     -2.52      0.00
   -5    4   13      5.26      0.00
   -5    4   12     -2.03      0.00
   -5    4   11      5.27      0.00
   -5    4   10     -2.49      0.00
   -5    4    9      2.77      0.00
   -5    4    8     -5.61      0.00
   -5    4    7      0.35      0.00
   -5    4    6     -8.86      0.00
   -5    4    5      2.10      0.00
   -5    4    4     -7.63      0.00
   -5    4    3      6.72      0.00
   -5    4    2     -3.59      0.00
   -5    4    1      8.60      0.00
   -5    4    0     -3.50      0.00
    5   -4    1      5.74      0.00
    5   -4    2     -8.61      0.00
    5   -4    3      1.72      0.00
    5   -4    4    -12.94      0.00
    5   -4    5     -1.87      0.00
    5   -4    6    -12.99      0.00
    5   -4    7     -5.18      0.00
    5   -4    8     -9.81      0.00
    5   -4    9     -5.49      0.00
    5   -4   10     -3.77      0.00
    5   -4   11     -2.42      0.00
    5   -4   12      2.26      0.00
    5   -4   13      0.93      0.00
    5   -4   14      4.17      0.00
    5   -4   15      1.53      0.00
    5   -4   16      4.14      0.00
    5   -4   17     -0.82      0.00
    5   -4   18      4.38      0.00
    5   -4   19     -1.97      0.00
    5   -4   20      2.83      0.00
    5   -4   21     -0.36      0.00
    5   -4   22      0.35      0.00
    5   -4   23      1.22      0.00
    5   -4   24     -0.58      0.00
   -5    3   21     -0.57      0.00
   -5    3   20      1.00      0.00
   -5    3   19     -2.26      0.00
   -5    3   18      1.13      0.00
   -5    3   17     -3.10      0.00
   -5    3   16      0.40      0.00
   -5    3   15     -2.64      0.00
   -5    3   14     -0.32      0.00
   -5    3   13     -1.51      0.00
   -5    3   12     -0.47      0.00
   -5    3   11      0.77      0.00
   -5    3   10      1.00      0.00
   -5    3    9      3.38      0.00
   -5    3    8      2.62      0.00
   -5    3    7      3.11      0.00
   -5    3    6      0.23      0.00
   -5    3    5      0.38      0.00
   -5    3    4     -5.14      0.00
   -5    3    3      0.52      0.00
   -5    3    2     -6.06      0.00
   -5    3    1      5.55      0.00
   -5    3    0      0.44      0.00
    5   -3    1     10.36      0.00
    5   -3    2      6.65      0.00
    5   -3    3     10.60      0.00
    5   -3    4      5.89      0.00
    5   -3    5      8.18      0.00
    5   -3    6      0.52      0.00
    5   -3    7      5.60      0.00
    5   -3    8     -6.20      0.00
    5   -3    9      2.48      0.00
    5   -3   10    -11.07      0.00
    5   -3   11     -1.07      0.00
    5   -3   12     -9.90      0.00
    5   -3   13     -2.00      0.00
    5   -3   14     -5.58      0.00
    5   -3   15      1.25      0.00
    5   -3   16     -2.82      0.00
    5   -3   17      3.19      0.00
    5   -3   18      0.07      0.00
    5   -3   19      0.01      0.00
    5   -3   20      3.19      0.00
    5   -3   21     -3.22      0.00
    5   -3   22      3.48      0.00
    5   -3   23     -3.00      0.00
    5   -3   24      1.72      0.00
    5   -3   25     -1.37      0.00
   -5    2   21      1.69      0.00
   -5    2   20      0.47      0.00
   -5    2   19      1.53      0.00
   -5    2   18      1.42      0.00
   -5    2   17      0.40      0.00
   -5    2   16      1.42      0.00
   -5    2   15     -0.67      0.00
   -5    2   14      1.13      0.00
   -5    2   13     -2.03      0.00
   -5    2   12      0.25      0.00
   -5    2   11     -3.75      0.00
   -5    2   10     -1.13      0.00
   -5    2    9     -3.91      0.00
   -5    2    8      0.99      0.00
   -5    2    7     -1.68      0.00
   -5    2    6      6.31      0.00
   -5    2    5     -0.15      0.00
   -5    2    4      7.01      0.00
   -5    2    3     -1.81      0.00
   -5    2    2     -0.66      0.00
   -5    2    1     -3.85      0.00
   -5    2    0     -7.23      0.00
    5   -2    1     -2.04      0.00
    5   -2    2     -3.28      0.00
    5   -2    3      4.06      0.00
    5   -2    4      5.00      0.00
    5   -2    5      9.94      0.00
    5   -2    6      9.91      0.00
    5   -2    7     11.43      0.00
    5   -2    8     11.24      0.00
    5   -2    9     10.40      0.00
    5   -2   10      7.30      0.00
    5   -2   11      8.11      0.00
    5   -2   12     -0.12      0.00
    5   -2   13      3.69      0.00
    5   -2   14     -5.63      0.00
    5   -2   15      1.33      0.00
    5   -2   16     -8.07      0.00
    5   -2   17      3.51      0.00
    5   -2   18     -7.69      0.00
    5   -2   19      5.26      0.00
    5   -2   20     -4.89      0.00
    5   -2   21      3.48      0.00
    5   -2   22     -1.66      0.00
    5   -2   23      0.63      0.00
    5   -2   24      0.12      0.00
    5   -2   25     -0.59      0.00
   -5    1   21     -0.16      0.00
   -5    1   20     -0.66      0.00
   -5    1   19      0.58      0.00
   -5    1   18      0.50      0.00
   -5    1   17      1.22      0.00
   -5    1   16      1.88      0.00
   -5    1   15      1.09      0.00
   -5    1   14      2.85      0.00
   -5    1   13      0.14      0.00
   -5    1   12      3.84      0.00
   -5    1   11     -1.34      0.00
   -5    1   10      2.80      0.00
   -5    1    9     -4.00      0.00
   -5    1    8      0.11      0.00
   -5    1    7     -6.99      0.00
   -5    1    6      1.97      0.00
   -5    1    5     -8.23      0.00
   -5    1    4     10.73      0.00
   -5    1    3     -7.80      0.00
   -5    1    2     16.63      0.00
   -5    1    1     -8.26      0.00
   -5    1    0      9.20      0.00
    5   -1    1    -12.55      0.00
    5   -1    2     -3.21      0.00
    5   -1    3    -18.32      0.00
    5   -1    4     -6.02      0.00
    5   -1    5    -18.83      0.00
    5   -1    6     -1.57      0.00
    5   -1    7    -14.30      0.00
    5   -1    8      2.83      0.00
    5   -1    9     -9.62      0.00
    5   -1   10      6.78      0.00
    5   -1   11     -5.46      0.00
    5   -1   12      9.90      0.00
    5   -1   13     -3.33      0.00
    5   -1   14     10.07      0.00
    5   -1   15     -4.07      0.00
    5   -1   16      5.48      0.00
    5   -1   17     -3.30      0.00
    5   -1   18     -0.91      0.00
    5   -1   19      0.11      0.00
    5   -1   20     -3.62      0.00
    5   -1   21      2.71      0.00
    5   -1   22     -2.75      0.00
    5   -1   23      2.66      0.00
    5   -1   24     -0.97      0.00
    5   -1   25      1.03      0.00
   -5    0   21     -0.70      0.00
   -5    0   20     -1.01      0.00
   -5    0   19     -0.97      0.00
   -5    0   18     -1.92      0.00
   -5    0   17     -1.39      0.00
   -5    0   16     -1.82      0.00
   -5    0   15     -0.29      0.00
   -5    0   14     -2.09      0.00
   -5    0   13      1.74      0.00
   -5    0   12     -1.70      0.00
   -5    0   11      3.85      0.00
   -5    0   10     -0.07      0.00
   -5    0    9      5.25      0.00
   -5    0    8     -0.76      0.00
   -5    0    7      3.62      0.00
   -5    0    6     -5.73      0.00
   -5    0    5     -1.23      0.00
   -5    0    4     -8.10      0.00
   -5    0    3     -5.79      0.00
   -5    0    2      0.30      0.00
   -5    0    1     -2.88      0.00
    5    0    0     12.00      0.00
    5    0    1      6.58      0.00
    5    0    2     12.92      0.00
    5    0    3      9.20      0.00
    5    0    4      4.81      0.00
    5    0    5      2.86      0.00
    5    0    6     -1.31      0.00
    5    0    7     -2.06      0.00
    5    0    8     -2.44      0.00
    5    0    9     -3.57      0.00
    5    0   10     -1.86      0.00
    5    0   11     -4.14      0.00
    5    0   12      0.00      0.00
    5    0   13     -3.55      0.00
    5    0   14      4.84      0.00
    5    0   15     -3.60      0.00
    5    0   16      9.71      0.00
    5    0   17     -5.55      0.00
    5    0   18      9.37      0.00
    5    0   19     -6.56      0.00
    5    0   20      4.68      0.00
    5    0   21     -4.55      0.00
    5    0   22      0.65      0.00
    5    0   23     -1.43      0.00
    5    0   24     -0.64      0.00
    5    0   25      0.07      0.00
    5    0   26     -0.31      0.00
   -5   -1   21     -0.21      0.00
   -5   -1   20      0.80      0.00
   -5   -1   19      0.47      0.00
   -5   -1   18     -0.50      0.00
   -5   -1   17      0.82      0.00
   -5   -1   16     -2.02      0.00
   -5   -1   15      0.00      0.00
   -5   -1   14     -1.68      0.00
   -5   -1   13     -0.99      0.00
   -5   -1   12     -0.39      0.00
   -5   -1   11     -0.30      0.00
   -5   -1   10     -0.16      0.00
   -5   -1    9      4.62      0.00
   -5   -1    8     -1.63      0.00
   -5   -1    7     12.51      0.00
   -5   -1    6     -5.96      0.00
   -5   -1    5     18.06      0.00
   -5   -1    4    -14.55      0.00
   -5   -1    3     13.42      0.00
   -5   -1    2    -21.30      0.00
   -5   -1    1     -2.02      0.00
    5    1    0    -17.16      0.00
    5    1    1    -10.25      0.00
    5    1    2     -6.22      0.00
    5    1    3     -2.10      0.00
    5    1    4     -0.24      0.00
    5    1    5      6.18      0.00
    5    1    6     -2.29      0.00
    5    1    7      6.85      0.00
    5    1    8     -6.71      0.00
    5    1    9      7.49      0.00
    5    1   10     -9.65      0.00
    5    1   11      9.04      0.00
    5    1   12    -12.03      0.00
    5    1   13      7.92      0.00
    5    1   14    -11.93      0.00
    5    1   15      5.09      0.00
    5    1   16     -6.77      0.00
    5    1   17      3.48      0.00
    5    1   18     -0.32      0.00
    5    1   19      2.11      0.00
    5    1   20      2.99      0.00
    5    1   21     -0.39      0.00
    5    1   22      2.70      0.00
    5    1   23     -1.47      0.00
    5    1   24      0.94      0.00
    5    1   25     -0.46      0.00
    5    1   26      0.01      0.00
   -5   -2   21      0.08      0.00
   -5   -2   20      0.23      0.00
   -5   -2   19     -0.38      0.00
   -5   -2   18      1.28      0.00
   -5   -2   17     -0.02      0.00
   -5   -2   16      0.51      0.00
   -5   -2   15      0.78      0.00
   -5   -2   14     -2.07      0.00
   -5   -2   13      0.37      0.00
   -5   -2   12     -2.56      0.00
   -5   -2   11     -2.87      0.00
   -5   -2   10      0.18      0.00
   -5   -2    9     -6.82      0.00
   -5   -2    8      4.58      0.00
   -5   -2    7     -8.32      0.00
   -5   -2    6      9.80      0.00
   -5   -2    5     -3.09      0.00
   -5   -2    4     11.99      0.00
   -5   -2    3     10.66      0.00
   -5   -2    2      6.97      0.00
   -5   -2    1     18.60      0.00
    5    2    0     -3.04      0.00
    5    2    1      9.13      0.00
    5    2    2    -10.07      0.00
    5    2    3     -2.53      0.00
    5    2    4     -7.98      0.00
    5    2    5     -3.66      0.00
    5    2    6     -0.29      0.00
    5    2    7     -3.38      0.00
    5    2    8      5.17      0.00
    5    2    9     -6.21      0.00
    5    2   10      6.62      0.00
    5    2   11     -5.71      0.00
    5    2   12      4.81      0.00
    5    2   13     -1.22      0.00
    5    2   14     -0.97      0.00
    5    2   15      2.17      0.00
    5    2   16     -6.86      0.00
    5    2   17      2.59      0.00
    5    2   18     -7.35      0.00
    5    2   19      2.30      0.00
    5    2   20     -3.79      0.00
    5    2   21      2.26      0.00
    5    2   22     -0.65      0.00
    5    2   23      1.28      0.00
    5    2   24      0.41      0.00
    5    2   25      0.01      0.00
    5    2   26      0.24      0.00
   -5   -3   20      0.22      0.00
   -5   -3   19     -0.20      0.00
   -5   -3   18      1.17      0.00
   -5   -3   17     -0.87      0.00
   -5   -3   16      2.50      0.00
   -5   -3   15     -0.01      0.00
   -5   -3   14      1.66      0.00
   -5   -3   13      1.85      0.00
   -5   -3   12     -1.76      0.00
   -5   -3   11      1.32      0.00
   -5   -3   10     -3.67      0.00
   -5   -3    9     -2.73      0.00
   -5   -3    8     -2.57      0.00
   -5   -3    7     -6.94      0.00
   -5   -3    6      0.00      0.00
   -5   -3    5    -10.25      0.00
   -5   -3    4      2.07      0.00
   -5   -3    3     -7.49      0.00
   -5   -3    2      3.93      0.00
   -5   -3    1      6.06      0.00
    5    3    0      8.15      0.00
    5    3    1     16.71      0.00
    5    3    2      9.98      0.00
    5    3    3     12.81      0.00
    5    3    4      4.96      0.00
    5    3    5      5.55      0.00
    5    3    6      0.28      0.00
    5    3    7      4.93      0.00
    5    3    8      0.62      0.00
    5    3    9      4.74      0.00
    5    3   10      3.06      0.00
    5    3   11      1.03      0.00
    5    3   12      5.90      0.00
    5    3   13     -1.10      0.00
    5    3   14      7.82      0.00
    5    3   15     -0.49      0.00
    5    3   16      6.32      0.00
    5    3   17     -0.38      0.00
    5    3   18      1.59      0.00
    5    3   19     -1.04      0.00
    5    3   20     -2.15      0.00
    5    3   21     -1.15      0.00
    5    3   22     -2.39      0.00
    5    3   23     -0.51      0.00
    5    3   24     -1.05      0.00
    5    3   25     -0.18      0.00
    5    3   26     -0.17      0.00
   -5   -4   20     -0.82      0.00
   -5   -4   19      0.34      0.00
   -5   -4   18     -0.22      0.00
   -5   -4   17     -1.40      0.00
   -5   -4   16      2.43      0.00
   -5   -4   15     -2.80      0.00
   -5   -4   14      5.04      0.00
   -5   -4   13     -0.37      0.00
   -5   -4   12      4.91      0.00
   -5   -4   11      4.30      0.00
   -5   -4   10      1.89      0.00
   -5   -4    9      6.84      0.00
   -5   -4    8     -2.82      0.00
   -5   -4    7      5.68      0.00
   -5   -4    6     -4.07      0.00
   -5   -4    5     -1.46      0.00
   -5   -4    4      1.19      0.00
   -5   -4    3    -15.57      0.00
   -5   -4    2      4.04      0.00
   -5   -4    1    -24.80      0.00
    5    4    0      0.93      0.00
    5    4    1    -18.06      0.00
    5    4    2      0.76      0.00
    5    4    3     -5.66      0.00
    5    4    4      2.50      0.00
    5    4    5     -1.11      0.00
    5    4    6     -0.49      0.00
    5    4    7     -1.43      0.00
    5    4    8     -4.41      0.00
    5    4    9     -0.40      0.00
    5    4   10     -5.31      0.00
    5    4   11     -0.10      0.00
    5    4   12     -3.95      0.00
    5    4   13     -2.16      0.00
    5    4   14     -0.78      0.00
    5    4   15     -2.50      0.00
    5    4   16      2.32      0.00
    5    4   17      0.04      0.00
    5    4   18      3.52      0.00
    5    4   19      1.58      0.00
    5    4   20      2.85      0.00
    5    4   21      0.76      0.00
    5    4   22      1.25      0.00
    5    4   23     -0.23      0.00
    5    4   24     -0.03      0.00
    5    4   25     -0.02      0.00
    5    4   26     -0.31      0.00
   -5   -5   19      0.72      0.00
   -5   -5   18     -2.50      0.00
   -5   -5   17      1.18      0.00
   -5   -5   16     -2.99      0.00
   -5   -5   15     -1.94      0.00
   -5   -5   14     -0.31      0.00
   -5   -5   13     -6.43      0.00
   -5   -5   12      2.77      0.00
   -5   -5   11     -6.31      0.00
   -5   -5   10      4.75      0.00
   -5   -5    9     -2.52      0.00
   -5   -5    8      5.76      0.00
   -5   -5    7      1.04      0.00
   -5   -5    6      2.57      0.00
   -5   -5    5      4.99      0.00
   -5   -5    4     -1.28      0.00
   -5   -5    3      7.53      0.00
   -5   -5    2     -0.73      0.00
   -5   -5    1      2.56      0.00
    5    5    0     -0.97      0.00
    5    5    1     -7.15      0.00
    5    5    2     -2.59      0.00
    5    5    3    -11.07      0.00
    5    5    4      0.74      0.00
    5    5    5     -8.63      0.00
    5    5    6      5.91      0.00
    5    5    7     -6.30      0.00
    5    5    8      6.16      0.00
    5    5    9     -4.15      0.00
    5    5   10      2.64      0.00
    5    5   11     -0.89      0.00
    5    5   12     -1.31      0.00
    5    5   13      0.44      0.00
    5    5   14     -3.66      0.00
    5    5   15     -1.46      0.00
    5    5   16     -2.85      0.00
    5    5   17     -2.95      0.00
    5    5   18     -0.61      0.00
    5    5   19     -1.48      0.00
    5    5   20      0.94      0.00
    5    5   21      0.28      0.00
    5    5   22      1.60      0.00
    5    5   23      0.17      0.00
    5    5   24      1.18      0.00
    5    5   25     -0.57      0.00
    5    5   26      0.45      0.00
   -5   -6   19      0.74      0.00
   -5   -6   18     -0.98      0.00
   -5   -6   17      3.73      0.00
   -5   -6   16     -4.32      0.00
   -5   -6   15      6.24      0.00
   -5   -6   14     -6.63      0.00
   -5   -6   13      4.62      0.00
   -5   -6   12     -6.10      0.00
   -5   -6   11     -0.14      0.00
   -5   -6   10     -4.89      0.00
   -5   -6    9     -2.88      0.00
   -5   -6    8     -3.77      0.00
   -5   -6    7     -0.58      0.00
   -5   -6    6     -3.75      0.00
   -5   -6    5      4.58      0.00
   -5   -6    4     -5.51      0.00
   -5   -6    3      8.96      0.00
   -5   -6    2     -3.73      0.00
   -5   -6    1     11.58      0.00
    5    6    0      0.55      0.00
    5    6    1     11.58      0.00
    5    6    2     -1.25      0.00
    5    6    3      8.62      0.00
    5    6    4     -6.59      0.00
    5    6    5      6.04      0.00
    5    6    6     -7.23      0.00
    5    6    7      4.78      0.00
    5    6    8     -3.36      0.00
    5    6    9      2.64      0.00
    5    6   10      0.81      0.00
    5    6   11      1.16      0.00
    5    6   12      2.83      0.00
    5    6   13      1.75      0.00
    5    6   14      2.08      0.00
    5    6   15      1.85      0.00
    5    6   16      0.03      0.00
    5    6   17      0.35      0.00
    5    6   18     -1.35      0.00
    5    6   19     -0.53      0.00
    5    6   20     -1.88      0.00
    5    6   21      0.40      0.00
    5    6   22     -1.40      0.00
    5    6   23      1.32      0.00
    5    6   24     -0.24      0.00
    5    6   25      1.04      0.00
   -5   -7   18      2.98      0.00
   -5   -7   17     -2.48      0.00
   -5   -7   16      3.68      0.00
   -5   -7   15     -0.25      0.00
   -5   -7   14      1.88      0.00
   -5   -7   13      2.70      0.00
   -5   -7   12      0.24      0.00
   -5   -7   11      3.38      0.00
   -5   -7   10     -0.27      0.00
   -5   -7    9      0.91      0.00
   -5   -7    8     -0.38      0.00
   -5   -7    7     -3.38      0.00
   -5   -7    6      0.46      0.00
   -5   -7    5     -6.00      0.00
   -5   -7    4      0.15      0.00
   -5   -7    3     -5.19      0.00
   -5   -7    2     -2.33      0.00
   -5   -7    1     -1.76      0.00
    5    7    0     -1.43      0.00
    5    7    1      2.43      0.00
    5    7    2      3.02      0.00
    5    7    3      4.35      0.00
    5    7    4      3.97      0.00
    5    7    5      3.01      0.00
    5    7    6      1.08      0.00
    5    7    7      1.29      0.00
    5    7    8     -1.82      0.00
    5    7    9      0.47      0.00
    5    7   10     -3.35      0.00
    5    7   11     -0.75      0.00
    5    7   12     -2.65      0.00
    5    7   13     -0.79      0.00
    5    7   14     -0.75      0.00
    5    7   15      1.09      0.00
    5    7   16      0.65      0.00
    5    7   17      1.62      0.00
    5    7   18      1.16      0.00
    5    7   19     -0.02      0.00
    5    7   20      0.69      0.00
    5    7   21     -1.34      0.00
    5    7   22     -0.09      0.00
    5    7   23     -0.77      0.00
    5    7   24     -0.42      0.00
    5    7   25      0.72      0.00
   -5   -8   17     -2.19      0.00
   -5   -8   16      2.03      0.00
   -5   -8   15     -3.14      0.00
   -5   -8   14      2.82      0.00
   -5   -8   13     -1.27      0.00
   -5   -8   12      1.81      0.00
   -5   -8   11      1.33      0.00
   -5   -8   10      1.37      0.00
   -5   -8    9      2.49      0.00
   -5   -8    8      2.38      0.00
   -5   -8    7      1.60      0.00
   -5   -8    6      3.10      0.00
   -5   -8    5     -0.44      0.00
   -5   -8    4      1.83      0.00
   -5   -8    3     -2.46      0.00
   -5   -8    2     -1.69      0.00
   -5   -8    1     -5.04      0.00
    5    8    0     -4.21      0.00
    5    8    1     -6.32      0.00
    5    8    2     -2.28      0.00
    5    8    3     -3.66      0.00
    5    8    4      1.47      0.00
    5    8    5      0.12      0.00
    5    8    6      3.13      0.00
    5    8    7      1.86      0.00
    5    8    8      3.07      0.00
    5    8    9      2.87      0.00
    5    8   10      1.50      0.00
    5    8   11      3.29      0.00
    5    8   12     -1.17      0.00
    5    8   13      1.56      0.00
    5    8   14     -2.45      0.00
    5    8   15     -0.20      0.00
    5    8   16     -1.98      0.00
    5    8   17      0.17      0.00
    5    8   18     -0.98      0.00
    5    8   19      0.92      0.00
    5    8   20     -0.34      0.00
    5    8   21      0.44      0.00
    5    8   22     -0.26      0.00
    5    8   23     -1.06      0.00
    5    8   24      0.10      0.00
   -5   -9   16     -1.38      0.00
   -5   -9   15     -0.30      0.00
   -5   -9   14     -0.03      0.00
   -5   -9   13     -2.53      0.00
   -5   -9   12      1.36      0.00
   -5   -9   11     -2.51      0.00
   -5   -9   10      1.15      0.00
   -5   -9    9     -0.85      0.00
   -5   -9    8      0.80      0.00
   -5   -9    7      0.58      0.00
   -5   -9    6      2.30      0.00
   -5   -9    5      0.82      0.00
   -5   -9    4      5.83      0.00
   -5   -9    3      0.29      0.00
   -5   -9    2      7.51      0.00
   -5   -9    1     -0.54      0.00
    5    9    0      3.43      0.00
    5    9    1     -3.06      0.00
    5    9    2     -2.13      0.00
    5    9    3     -6.06      0.00
    5    9    4     -3.38      0.00
    5    9    5     -6.53      0.00
    5    9    6     -1.51      0.00
    5    9    7     -5.71      0.00
    5    9    8      0.83      0.00
    5    9    9     -4.69      0.00
    5    9   10      3.16      0.00
    5    9   11     -2.29      0.00
    5    9   12      4.25      0.00
    5    9   13      0.23      0.00
    5    9   14      2.55      0.00
    5    9   15      0.99      0.00
    5    9   16     -0.31      0.00
    5    9   17      0.37      0.00
    5    9   18     -1.30      0.00
    5    9   19      0.04      0.00
    5    9   20     -0.40      0.00
    5    9   21      0.73      0.00
    5    9   22      0.30      0.00
    5    9   23      1.15      0.00
   -5  -10   15      1.40      0.00
   -5  -10   14     -2.02      0.00
   -5  -10   13      1.06      0.00
   -5  -10   12     -2.38      0.00
   -5  -10   11      0.44      0.00
   -5  -10   10     -2.64      0.00
   -5  -10    9      0.72      0.00
   -5  -10    8     -3.57      0.00
   -5  -10    7      1.28      0.00
   -5  -10    6     -4.89      0.00
   -5  -10    5      1.59      0.00
   -5  -10    4     -4.57      0.00
   -5  -10    3      2.57      0.00
   -5  -10    2     -0.15      0.00
   -5  -10    1      4.60      0.00
    5   10    0      5.28      0.00
    5   10    1      5.64      0.00
    5   10    2      5.55      0.00
    5   10    3      3.80      0.00
    5   10    4      1.47      0.00
    5   10    5      1.23      0.00
    5   10    6     -1.99      0.00
    5   10    7     -0.49      0.00
    5   10    8     -3.04      0.00
    5   10    9     -2.91      0.00
    5   10   10     -2.42      0.00
    5   10   11     -4.61      0.00
    5   10   12     -0.51      0.00
    5   10   13     -4.03      0.00
    5   10   14      2.53      0.00
    5   10   15     -2.65      0.00
    5   10   16      4.05      0.00
    5   10   17     -1.29      0.00
    5   10   18      2.66      0.00
    5   10   19     -0.61      0.00
    5   10   20      0.69      0.00
    5   10   21     -0.20      0.00
    5   10   22     -0.46      0.00
    5   10   23      0.72      0.00
   -5  -11   13      0.20      0.00
   -5  -11   12      0.63      0.00
   -5  -11   11     -0.43      0.00
   -5  -11   10      0.75      0.00
   -5  -11    9     -0.77      0.00
   -5  -11    8      0.32      0.00
   -5  -11    7     -0.38      0.00
   -5  -11    6     -0.67      0.00
   -5  -11    5     -0.12      0.00
   -5  -11    4     -3.55      0.00
   -5  -11    3     -1.00      0.00
   -5  -11    2     -6.54      0.00
   -5  -11    1     -1.44      0.00
    5   11    0     -5.15      0.00
    5   11    1      1.08      0.00
    5   11    2     -0.05      0.00
    5   11    3      4.42      0.00
    5   11    4      3.30      0.00
    5   11    5      5.73      0.00
    5   11    6      2.82      0.00
    5   11    7      6.04      0.00
    5   11    8      0.69      0.00
    5   11    9      5.60      0.00
    5   11   10     -1.50      0.00
    5   11   11      3.39      0.00
    5   11   12     -3.25      0.00
    5   11   13      0.89      0.00
    5   11   14     -3.55      0.00
    5   11   15     -0.18      0.00
    5   11   16     -1.97      0.00
    5   11   17     -0.05      0.00
    5   11   18      0.12      0.00
    5   11   19     -0.01      0.00
    5   11   20      1.34      0.00
    5   11   21     -0.92      0.00
    5   11   22      1.49      0.00
   -5  -12   12      0.96      0.00
   -5  -12   11      0.27      0.00
   -5  -12   10      1.74      0.00
   -5  -12    9     -0.76      0.00
   -5  -12    8      2.16      0.00
   -5  -12    7     -1.11      0.00
   -5  -12    6      2.41      0.00
   -5  -12    5      0.15      0.00
   -5  -12    4      2.50      0.00
   -5  -12    3      1.61      0.00
   -5  -12    2      0.01      0.00
   -5  -12    1      0.01      0.00
    5   12    0     -4.24      0.00
    5   12    1     -3.48      0.00
    5   12    2     -5.87      0.00
    5   12    3     -4.39      0.00
    5   12    4     -3.46      0.00
    5   12    5     -2.76      0.00
    5   12    6     -0.24      0.00
    5   12    7     -0.35      0.00
    5   12    8      1.54      0.00
    5   12    9      1.98      0.00
    5   12   10      2.20      0.00
    5   12   11      3.32      0.00
    5   12   12      0.99      0.00
    5   12   13      3.48      0.00
    5   12   14     -1.18      0.00
    5   12   15      2.26      0.00
    5   12   16     -2.05      0.00
    5   12   17      0.70      0.00
    5   12   18     -2.02      0.00
    5   12   19      0.45      0.00
    5   12   20     -1.64      0.00
   -5  -13   10     -0.04      0.00
   -5  -13    9      0.11      0.00
   -5  -13    8      1.03      0.00
   -5  -13    7     -0.71      0.00
   -5  -13    6      2.31      0.00
   -5  -13    5     -2.67      0.00
   -5  -13    4      4.07      0.00
   -5  -13    3     -2.55      0.00
   -5  -13    2      5.52      0.00
   -5  -13    1      0.55      0.00
    5   13    0      4.47      0.00
    5   13    1      1.78      0.00
    5   13    2      1.16      0.00
    5   13    3     -0.85      0.00
    5   13    4     -1.50      0.00
    5   13    5     -3.85      0.00
    5   13    6     -2.00      0.00
    5   13    7     -4.88      0.00
    5   13    8     -1.00      0.00
    5   13    9     -3.89      0.00
    5   13   10      1.08      0.00
    5   13   11     -2.12      0.00
    5   13   12      3.23      0.00
    5   13   13     -0.79      0.00
    5   13   14      3.31      0.00
    5   13   15      0.22      0.00
    5   13   16      1.80      0.00
    5   13   17      0.50      0.00
    5   13   18      0.55      0.00
    5   13   19      0.05      0.00
   -5  -14    8     -1.90      0.00
   -5  -14    7      1.01      0.00
   -5  -14    6     -1.93      0.00
   -5  -14    5      1.26      0.00
   -5  -14    4     -1.62      0.00
   -5  -14    3     -0.50      0.00
   -5  -14    2     -0.38      0.00
   -5  -14    1     -1.51      0.00
    5   14    0      1.91      0.00
    5   14    1      0.42      0.00
    5   14    2      3.15      0.00
    5   14    3      2.91      0.00
    5   14    4      1.97      0.00
    5   14    5      2.91      0.00
    5   14    6     -0.07      0.00
    5   14    7      0.64      0.00
    5   14    8     -2.07      0.00
    5   14    9     -1.72      0.00
    5   14   10     -3.13      0.00
    5   14   11     -2.74      0.00
    5   14   12     -2.14      0.00
    5   14   13     -2.31      0.00
    5   14   14     -0.77      0.00
    5   14   15     -1.52      0.00
    5   14   16     -0.37      0.00
    5   14   17     -1.11      0.00
   -5  -15    5      1.29      0.00
   -5  -15    4     -1.88      0.00
   -5  -15    3      1.42      0.00
   -5  -15    2     -1.42      0.00
   -5  -15    1      0.00      0.00
    5   15    0     -1.22      0.00
    5   15    1     -1.27      0.00
    5   15    2     -0.41      0.00
    5   15    3     -0.89      0.00
    5   15    4      1.16      0.00
    5   15    5      0.86      0.00
    5   15    6      2.21      0.00
    5   15    7      2.39      0.00
    5   15    8      2.11      0.00
    5   15    9      2.43      0.00
    5   15   10      0.40      0.00
    5   15   11      1.41      0.00
    5   15   12     -1.11      0.00
    5   15   13      0.31      0.00
    5   15   14     -0.44      0.00
    5   16    0     -0.81      0.00
    5   16    1      0.66      0.00
    5   16    2     -1.01      0.00
    5   16    3     -0.28      0.00
    5   16    4     -1.16      0.00
    5   16    5     -0.68      0.00
    5   16    6     -0.84      0.00
    5   16    7     -0.13      0.00
    5   16    8      0.32      0.00
    5   16    9      0.82      0.00
    5   16   10      1.45      0.00
   -6   15    1     -0.60      0.00
   -6   15    0     -0.55      0.00
    6  -15    1     -0.48      0.00
    6  -15    2     -0.88      0.00
   -6   14    7     -1.26      0.00
   -6   14    6     -0.48      0.00
   -6   14    5     -0.88      0.00
   -6   14    4     -0.03      0.00
   -6   14    3      0.56      0.00
   -6   14    2      0.84      0.00
   -6   14    1      0.97      0.00
   -6   14    0      1.23      0.00
    6  -14    1     -0.50      0.00
    6  -14    2      0.92      0.00
    6  -14    3     -1.11      0.00
    6  -14    4      0.38      0.00
    6  -14    5      0.10      0.00
    6  -14    6      0.06      0.00
    6  -14    7      0.61      0.00
    6  -14    8      0.23      0.00
    6  -14    9     -0.10      0.00
   -6   13   10      0.27      0.00
   -6   13    9      0.94      0.00
   -6   13    8     -0.64      0.00
   -6   13    7      0.71      0.00
   -6   13    6     -1.49      0.00
   -6   13    5     -0.27      0.00
   -6   13    4     -2.24      0.00
   -6   13    3     -0.76      0.00
   -6   13    2     -1.93      0.00
   -6   13    1      0.15      0.00
   -6   13    0     -0.62      0.00
    6  -13    1      1.07      0.00
    6  -13    2      0.32      0.00
    6  -13    3      0.52      0.00
    6  -13    4      0.60      0.00
    6  -13    5     -0.16      0.00
    6  -13    6      0.56      0.00
    6  -13    7      0.05      0.00
    6  -13    8      0.42      0.00
    6  -13    9      0.46      0.00
    6  -13   10      0.26      0.00
    6  -13   11      0.92      0.00
    6  -13   12     -0.12      0.00
   -6   12   12     -0.24      0.00
   -6   12   11      0.79      0.00
   -6   12   10      0.92      0.00
   -6   12    9      0.71      0.00
   -6   12    8      1.37      0.00
   -6   12    7      0.68      0.00
   -6   12    6      1.48      0.00
   -6   12    5     -0.09      0.00
   -6   12    4      0.76      0.00
   -6   12    3     -0.95      0.00
   -6   12    2     -1.25      0.00
   -6   12    1     -1.28      0.00
   -6   12    0     -2.65      0.00
    6  -12    1     -0.88      0.00
    6  -12    2     -2.36      0.00
    6  -12    3     -0.36      0.00
    6  -12    4     -1.75      0.00
    6  -12    5      0.16      0.00
    6  -12    6     -1.58      0.00
    6  -12    7      0.76      0.00
    6  -12    8     -0.83      0.00
    6  -12    9      0.59      0.00
    6  -12   10      0.48      0.00
    6  -12   11      0.11      0.00
    6  -12   12      1.22      0.00
    6  -12   13      0.04      0.00
    6  -12   14      1.28      0.00
   -6   11   14     -0.04      0.00
   -6   11   13     -1.46      0.00
   -6   11   12     -0.58      0.00
   -6   11   11     -1.69      0.00
   -6   11   10     -0.68      0.00
   -6   11    9     -1.18      0.00
   -6   11    8     -0.42      0.00
   -6   11    7      0.56      0.00
   -6   11    6      0.55      0.00
   -6   11    5      1.89      0.00
   -6   11    4      2.22      0.00
   -6   11    3      2.01      0.00
   -6   11    2      3.21      0.00
   -6   11    1      1.20      0.00
   -6   11    0      2.43      0.00
    6  -11    1      0.30      0.00
    6  -11    2      0.81      0.00
    6  -11    3     -0.09      0.00
    6  -11    4     -0.10      0.00
    6  -11    5     -0.43      0.00
    6  -11    6     -0.40      0.00
    6  -11    7     -0.45      0.00
    6  -11    8     -0.75      0.00
    6  -11    9     -0.20      0.00
    6  -11   10     -0.75      0.00
    6  -11   11     -0.59      0.00
    6  -11   12     -0.36      0.00
    6  -11   13     -1.16      0.00
    6  -11   14      0.31      0.00
    6  -11   15     -1.48      0.00
    6  -11   16      1.06      0.00
   -6   10   15     -0.22      0.00
   -6   10   14      0.72      0.00
   -6   10   13      0.10      0.00
   -6   10   12      0.58      0.00
   -6   10   11     -0.31      0.00
   -6   10   10     -0.02      0.00
   -6   10    9     -1.77      0.00
   -6   10    8     -1.02      0.00
   -6   10    7     -2.59      0.00
   -6   10    6     -1.60      0.00
   -6   10    5     -2.34      0.00
   -6   10    4     -0.91      0.00
   -6   10    3     -1.43      0.00
   -6   10    2      0.78      0.00
   -6   10    1     -0.38      0.00
   -6   10    0      2.75      0.00
    6  -10    1     -0.30      0.00
    6  -10    2      3.68      0.00
    6  -10    3     -1.03      0.00
    6  -10    4      3.29      0.00
    6  -10    5     -1.73      0.00
    6  -10    6      2.16      0.00
    6  -10    7     -1.62      0.00
    6  -10    8      0.45      0.00
    6  -10    9     -0.33      0.00
    6  -10   10     -1.21      0.00
    6  -10   11      1.10      0.00
    6  -10   12     -2.22      0.00
    6  -10   13      1.50      0.00
    6  -10   14     -2.35      0.00
    6  -10   15      0.83      0.00
    6  -10   16     -1.32      0.00
    6  -10   17      0.00      0.00
    6  -10   18     -0.08      0.00
   -6    9   17      0.95      0.00
   -6    9   16     -0.91      0.00
   -6    9   15      0.89      0.00
   -6    9   14     -0.95      0.00
   -6    9   13      1.01      0.00
   -6    9   12     -0.11      0.00
   -6    9   11      1.62      0.00
   -6    9   10      1.34      0.00
   -6    9    9      1.47      0.00
   -6    9    8      1.97      0.00
   -6    9    7      0.75      0.00
   -6    9    6      0.41      0.00
   -6    9    5      0.40      0.00
   -6    9    4     -2.27      0.00
   -6    9    3      0.13      0.00
   -6    9    2     -4.31      0.00
   -6    9    1      0.36      0.00
   -6    9    0     -4.38      0.00
    6   -9    1      1.29      0.00
    6   -9    2     -2.47      0.00
    6   -9    3      2.02      0.00
    6   -9    4     -0.16      0.00
    6   -9    5      1.61      0.00
    6   -9    6      1.79      0.00
    6   -9    7     -0.29      0.00
    6   -9    8      3.01      0.00
    6   -9    9     -2.17      0.00
    6   -9   10      3.13      0.00
    6   -9   11     -2.37      0.00
    6   -9   12      2.45      0.00
    6   -9   13     -0.92      0.00
    6   -9   14      0.83      0.00
    6   -9   15      0.82      0.00
    6   -9   16     -0.75      0.00
    6   -9   17      1.39      0.00
    6   -9   18     -0.78      0.00
    6   -9   19      1.03      0.00
   -6    8   17      0.08      0.00
   -6    8   16      0.77      0.00
   -6    8   15      0.10      0.00
   -6    8   14     -0.43      0.00
   -6    8   13     -0.35      0.00
   -6    8   12     -1.70      0.00
   -6    8   11      0.19      0.00
   -6    8   10     -1.80      0.00
   -6    8    9      1.38      0.00
   -6    8    8     -0.32      0.00
   -6    8    7      1.52      0.00
   -6    8    6      1.80      0.00
   -6    8    5      0.51      0.00
   -6    8    4      3.30      0.00
   -6    8    3     -0.72      0.00
   -6    8    2      2.51      0.00
   -6    8    1     -1.44      0.00
   -6    8    0     -0.50      0.00
    6   -8    1     -1.22      0.00
    6   -8    2     -2.93      0.00
    6   -8    3      0.06      0.00
    6   -8    4     -3.59      0.00
    6   -8    5      1.91      0.00
    6   -8    6     -2.99      0.00
    6   -8    7      2.99      0.00
    6   -8    8     -1.36      0.00
    6   -8    9      2.44      0.00
    6   -8   10      0.26      0.00
    6   -8   11      0.91      0.00
    6   -8   12      1.17      0.00
    6   -8   13     -0.53      0.00
    6   -8   14      1.60      0.00
    6   -8   15     -1.09      0.00
    6   -8   16      1.12      0.00
    6   -8   17     -0.70      0.00
    6   -8   18     -0.20      0.00
    6   -8   19     -0.28      0.00
    6   -8   20     -0.79      0.00
    6   -8   21     -0.31      0.00
   -6    7   18      0.05      0.00
   -6    7   17     -1.05      0.00
   -6    7   16      1.36      0.00
   -6    7   15      0.07      0.00
   -6    7   14      2.16      0.00
   -6    7   13      0.51      0.00
   -6    7   12      1.27      0.00
   -6    7   11     -0.01      0.00
   -6    7   10     -1.19      0.00
   -6    7    9      0.19      0.00
   -6    7    8     -3.26      0.00
   -6    7    7      1.05      0.00
   -6    7    6     -3.86      0.00
   -6    7    5      2.01      0.00
   -6    7    4     -2.72      0.00
   -6    7    3      2.85      0.00
   -6    7    2     -0.33      0.00
   -6    7    1      2.92      0.00
   -6    7    0      0.40      0.00
    6   -7    1      1.74      0.00
    6   -7    2     -1.34      0.00
    6   -7    3      0.25      0.00
    6   -7    4     -3.41      0.00
    6   -7    5      0.16      0.00
    6   -7    6     -5.03      0.00
    6   -7    7      1.43      0.00
    6   -7    8     -5.72      0.00
    6   -7    9      2.84      0.00
    6   -7   10     -4.88      0.00
    6   -7   11      3.46      0.00
    6   -7   12     -3.14      0.00
    6   -7   13      2.83      0.00
    6   -7   14     -1.22      0.00
    6   -7   15      1.48      0.00
    6   -7   16      0.47      0.00
    6   -7   17      0.69      0.00
    6   -7   18      0.90      0.00
    6   -7   19      0.92      0.00
    6   -7   20     -0.05      0.00
    6   -7   21      0.94      0.00
    6   -7   22     -0.37      0.00
   -6    6   19      0.74      0.00
   -6    6   18     -1.25      0.00
   -6    6   17     -0.88      0.00
   -6    6   16     -1.61      0.00
   -6    6   15     -1.99      0.00
   -6    6   14      0.21      0.00
   -6    6   13     -1.94      0.00
   -6    6   12      3.31      0.00
   -6    6   11     -2.37      0.00
   -6    6   10      4.75      0.00
   -6    6    9     -2.90      0.00
   -6    6    8      3.62      0.00
   -6    6    7     -2.51      0.00
   -6    6    6      1.45      0.00
   -6    6    5     -2.24      0.00
   -6    6    4      0.09      0.00
   -6    6    3     -2.59      0.00
   -6    6    2      1.84      0.00
   -6    6    1     -2.10      0.00
   -6    6    0      6.05      0.00
    6   -6    1     -0.78      0.00
    6   -6    2      8.35      0.00
    6   -6    3     -0.88      0.00
    6   -6    4      7.80      0.00
    6   -6    5     -2.42      0.00
    6   -6    6      6.41      0.00
    6   -6    7     -3.45      0.00
    6   -6    8      4.16      0.00
    6   -6    9     -3.54      0.00
    6   -6   10      1.16      0.00
    6   -6   11     -2.80      0.00
    6   -6   12     -1.10      0.00
    6   -6   13     -1.12      0.00
    6   -6   14     -2.02      0.00
    6   -6   15      0.41      0.00
    6   -6   16     -1.82      0.00
    6   -6   17      0.66      0.00
    6   -6   18     -0.93      0.00
    6   -6   19      0.64      0.00
    6   -6   20     -0.66      0.00
    6   -6   21      1.13      0.00
    6   -6   22     -1.07      0.00
    6   -6   23      0.71      0.00
   -6    5   19      1.24      0.00
   -6    5   18      0.46      0.00
   -6    5   17      1.84      0.00
   -6    5   16     -1.40      0.00
   -6    5   15      0.94      0.00
   -6    5   14     -4.05      0.00
   -6    5   13      0.30      0.00
   -6    5   12     -4.13      0.00
   -6    5   11     -0.25      0.00
   -6    5   10     -0.83      0.00
   -6    5    9     -1.33      0.00
   -6    5    8      2.82      0.00
   -6    5    7     -1.66      0.00
   -6    5    6      4.21      0.00
   -6    5    5     -0.96      0.00
   -6    5    4      2.07      0.00
   -6    5    3     -1.89      0.00
   -6    5    2     -1.95      0.00
   -6    5    1     -4.50      0.00
   -6    5    0     -2.89      0.00
    6   -5    1     -4.40      0.00
    6   -5    2      0.43      0.00
    6   -5    3     -0.97      0.00
    6   -5    4      3.44      0.00
    6   -5    5      1.49      0.00
    6   -5    6      4.41      0.00
    6   -5    7      1.15      0.00
    6   -5    8      5.37      0.00
    6   -5    9     -0.49      0.00
    6   -5   10      5.84      0.00
    6   -5   11     -2.12      0.00
    6   -5   12      4.41      0.00
    6   -5   13     -2.69      0.00
    6   -5   14      1.98      0.00
    6   -5   15     -1.98      0.00
    6   -5   16      0.58      0.00
    6   -5   17     -2.08      0.00
    6   -5   18      1.05      0.00
    6   -5   19     -3.13      0.00
    6   -5   20      1.36      0.00
    6   -5   21     -2.20      0.00
    6   -5   22      0.20      0.00
    6   -5   23     -0.23      0.00
   -6    4   20     -0.24      0.00
   -6    4   19      0.20      0.00
   -6    4   18      1.25      0.00
   -6    4   17      2.04      0.00
   -6    4   16      2.57      0.00
   -6    4   15      3.58      0.00
   -6    4   14      0.94      0.00
   -6    4   13      4.07      0.00
   -6    4   12     -2.92      0.00
   -6    4   11      4.26      0.00
   -6    4   10     -5.49      0.00
   -6    4    9      3.85      0.00
   -6    4    8     -5.50      0.00
   -6    4    7      2.84      0.00
   -6    4    6     -3.49      0.00
   -6    4    5      3.67      0.00
   -6    4    4     -1.13      0.00
   -6    4    3      6.69      0.00
   -6    4    2     -2.20      0.00
   -6    4    1      6.13      0.00
   -6    4    0     -7.30      0.00
    6   -4    1     -0.29      0.00
    6   -4    2    -10.60      0.00
    6   -4    3     -5.55      0.00
    6   -4    4     -8.74      0.00
    6   -4    5     -5.21      0.00
    6   -4    6     -5.75      0.00
    6   -4    7     -2.36      0.00
    6   -4    8     -4.42      0.00
    6   -4    9      0.23      0.00
    6   -4   10     -2.71      0.00
    6   -4   11      1.49      0.00
    6   -4   12      0.48      0.00
    6   -4   13      0.14      0.00
    6   -4   14      2.83      0.00
    6   -4   15     -1.29      0.00
    6   -4   16      1.97      0.00
    6   -4   17     -0.08      0.00
    6   -4   18      0.40      0.00
    6   -4   19      0.38      0.00
    6   -4   20      1.31      0.00
    6   -4   21     -1.09      0.00
    6   -4   22      2.12      0.00
    6   -4   23     -0.94      0.00
    6   -4   24      1.07      0.00
   -6    3   20     -1.29      0.00
   -6    3   19     -3.04      0.00
   -6    3   18     -1.32      0.00
   -6    3   17     -4.11      0.00
   -6    3   16      0.71      0.00
   -6    3   15     -2.98      0.00
   -6    3   14      3.47      0.00
   -6    3   13     -1.12      0.00
   -6    3   12      4.12      0.00
   -6    3   11      0.52      0.00
   -6    3   10      2.55      0.00
   -6    3    9      1.66      0.00
   -6    3    8      0.28      0.00
   -6    3    7      0.52      0.00
   -6    3    6     -1.73      0.00
   -6    3    5     -2.17      0.00
   -6    3    4     -1.58      0.00
   -6    3    3     -0.31      0.00
   -6    3    2      2.12      0.00
   -6    3    1      8.04      0.00
   -6    3    0      5.33      0.00
    6   -3    1     13.43      0.00
    6   -3    2      3.00      0.00
    6   -3    3      9.23      0.00
    6   -3    4     -2.61      0.00
    6   -3    5      2.79      0.00
    6   -3    6     -5.82      0.00
    6   -3    7      0.58      0.00
    6   -3    8     -5.56      0.00
    6   -3    9      0.55      0.00
    6   -3   10     -4.84      0.00
    6   -3   11      1.80      0.00
    6   -3   12     -4.58      0.00
    6   -3   13      3.48      0.00
    6   -3   14     -3.06      0.00
    6   -3   15      3.12      0.00
    6   -3   16     -1.61      0.00
    6   -3   17      2.16      0.00
    6   -3   18     -1.88      0.00
    6   -3   19      1.80      0.00
    6   -3   20     -1.42      0.00
    6   -3   21      0.34      0.00
    6   -3   22      0.48      0.00
    6   -3   23     -1.24      0.00
    6   -3   24      1.47      0.00
    6   -3   25     -1.20      0.00
   -6    2   20      0.47      0.00
   -6    2   19      1.56      0.00
   -6    2   18     -1.47      0.00
   -6    2   17     -0.72      0.00
   -6    2   16     -2.80      0.00
   -6    2   15     -3.15      0.00
   -6    2   14     -1.67      0.00
   -6    2   13     -3.74      0.00
   -6    2   12      0.76      0.00
   -6    2   11     -3.53      0.00
   -6    2   10      2.30      0.00
   -6    2    9     -2.27      0.00
   -6    2    8      2.76      0.00
   -6    2    7     -0.07      0.00
   -6    2    6      2.67      0.00
   -6    2    5     -1.84      0.00
   -6    2    4      1.20      0.00
   -6    2    3     -9.31      0.00
   -6    2    2     -1.13      0.00
   -6    2    1    -12.53      0.00
   -6    2    0     -0.84      0.00
    6   -2    1     -3.18      0.00
    6   -2    2      2.79      0.00
    6   -2    3      8.34      0.00
    6   -2    4      5.72      0.00
    6   -2    5      8.78      0.00
    6   -2    6      5.27      0.00
    6   -2    7      3.13      0.00
    6   -2    8      3.32      0.00
    6   -2    9      0.13      0.00
    6   -2   10      1.65      0.00
    6   -2   11     -0.28      0.00
    6   -2   12     -0.74      0.00
    6   -2   13      0.25      0.00
    6   -2   14     -1.90      0.00
    6   -2   15      0.30      0.00
    6   -2   16     -0.32      0.00
    6   -2   17      0.69      0.00
    6   -2   18     -0.63      0.00
    6   -2   19      3.01      0.00
    6   -2   20     -3.25      0.00
    6   -2   21      4.32      0.00
    6   -2   22     -3.70      0.00
    6   -2   23      2.99      0.00
    6   -2   24     -2.09      0.00
    6   -2   25      1.23      0.00
   -6    1   20      1.21      0.00
   -6    1   19      2.91      0.00
   -6    1   18      2.12      0.00
   -6    1   17      3.66      0.00
   -6    1   16      1.66      0.00
   -6    1   15      1.71      0.00
   -6    1   14     -0.27      0.00
   -6    1   13     -0.14      0.00
   -6    1   12     -1.46      0.00
   -6    1   11     -1.67      0.00
   -6    1   10     -0.88      0.00
   -6    1    9     -3.83      0.00
   -6    1    8      0.55      0.00
   -6    1    7     -3.19      0.00
   -6    1    6      3.09      0.00
   -6    1    5      1.93      0.00
   -6    1    4      6.83      0.00
   -6    1    3      3.43      0.00
   -6    1    2      8.50      0.00
   -6    1    1     -6.76      0.00
   -6    1    0      4.63      0.00
    6   -1    1    -19.04      0.00
    6   -1    2     -0.64      0.00
    6   -1    3    -17.93      0.00
    6   -1    4     -0.16      0.00
    6   -1    5     -7.43      0.00
    6   -1    6      3.49      0.00
    6   -1    7     -1.64      0.00
    6   -1    8      4.61      0.00
    6   -1    9     -3.04      0.00
    6   -1   10      5.00      0.00
    6   -1   11     -5.49      0.00
    6   -1   12      5.24      0.00
    6   -1   13     -5.17      0.00
    6   -1   14      2.96      0.00
    6   -1   15     -3.79      0.00
    6   -1   16      1.49      0.00
    6   -1   17     -3.80      0.00
    6   -1   18      2.63      0.00
    6   -1   19     -3.18      0.00
    6   -1   20      2.48      0.00
    6   -1   21     -0.74      0.00
    6   -1   22      0.56      0.00
    6   -1   23      1.06      0.00
    6   -1   24     -0.86      0.00
    6   -1   25      1.23      0.00
   -6    0   20      0.45      0.00
   -6    0   19     -2.65      0.00
   -6    0   18      0.69      0.00
   -6    0   17      0.58      0.00
   -6    0   16      1.35      0.00
   -6    0   15      3.04      0.00
   -6    0   14      1.36      0.00
   -6    0   13      2.45      0.00
   -6    0   12     -0.01      0.00
   -6    0   11      1.26      0.00
   -6    0   10     -1.68      0.00
   -6    0    9      0.19      0.00
   -6    0    8     -4.18      0.00
   -6    0    7     -1.59      0.00
   -6    0    6     -7.67      0.00
   -6    0    5     -1.09      0.00
   -6    0    4     -8.04      0.00
   -6    0    3      5.90      0.00
   -6    0    2     -0.42      0.00
   -6    0    1     13.03      0.00
    6    0    0     11.30      0.00
    6    0    1      8.64      0.00
    6    0    2     13.57      0.00
    6    0    3     -2.02      0.00
    6    0    4      5.20      0.00
    6    0    5     -4.83      0.00
    6    0    6      0.45      0.00
    6    0    7      0.39      0.00
    6    0    8      1.30      0.00
    6    0    9      4.72      0.00
    6    0   10      0.69      0.00
    6    0   11      4.35      0.00
    6    0   12     -0.05      0.00
    6    0   13      2.35      0.00
    6    0   14      0.59      0.00
    6    0   15      0.45      0.00
    6    0   16      1.25      0.00
    6    0   17     -2.76      0.00
    6    0   18      2.15      0.00
    6    0   19     -5.48      0.00
    6    0   20      2.86      0.00
    6    0   21     -5.42      0.00
    6    0   22      2.79      0.00
    6    0   23     -3.62      0.00
    6    0   24      1.86      0.00
    6    0   25     -1.65      0.00
    6    0   26      0.50      0.00
   -6   -1   20     -1.55      0.00
   -6   -1   19     -1.01      0.00
   -6   -1   18     -2.44      0.00
   -6   -1   17     -1.88      0.00
   -6   -1   16     -2.03      0.00
   -6   -1   15      0.16      0.00
   -6   -1   14      0.06      0.00
   -6   -1   13      3.44      0.00
   -6   -1   12      1.58      0.00
   -6   -1   11      5.32      0.00
   -6   -1   10      2.43      0.00
   -6   -1    9      5.43      0.00
   -6   -1    8      2.81      0.00
   -6   -1    7      3.70      0.00
   -6   -1    6     -0.67      0.00
   -6   -1    5     -0.55      0.00
   -6   -1    4    -11.60      0.00
   -6   -1    3     -3.62      0.00
   -6   -1    2    -25.33      0.00
   -6   -1    1      0.97      0.00
    6    1    0    -26.75      0.00
    6    1    1      9.50      0.00
    6    1    2    -12.68      0.00
    6    1    3     10.45      0.00
    6    1    4     -2.70      0.00
    6    1    5      3.19      0.00
    6    1    6     -5.40      0.00
    6    1    7     -1.96      0.00
    6    1    8     -7.90      0.00
    6    1    9     -0.45      0.00
    6    1   10     -5.43      0.00
    6    1   11      2.34      0.00
    6    1   12     -3.48      0.00
    6    1   13      3.21      0.00
    6    1   14     -3.59      0.00
    6    1   15      5.27      0.00
    6    1   16     -4.31      0.00
    6    1   17      7.32      0.00
    6    1   18     -3.69      0.00
    6    1   19      5.56      0.00
    6    1   20     -1.86      0.00
    6    1   21      2.22      0.00
    6    1   22     -0.43      0.00
    6    1   23      0.17      0.00
    6    1   24      0.65      0.00
    6    1   25     -0.43      0.00
    6    1   26      1.00      0.00
   -6   -2   20      0.22      0.00
   -6   -2   19      0.64      0.00
   -6   -2   18      0.52      0.00
   -6   -2   17     -1.89      0.00
   -6   -2   16     -1.26      0.00
   -6   -2   15     -4.52      0.00
   -6   -2   14     -3.29      0.00
   -6   -2   13     -3.86      0.00
   -6   -2   12     -3.42      0.00
   -6   -2   11     -0.31      0.00
   -6   -2   10     -0.82      0.00
   -6   -2    9      1.88      0.00
   -6   -2    8      5.48      0.00
   -6   -2    7      2.09      0.00
   -6   -2    6     13.83      0.00
   -6   -2    5      1.88      0.00
   -6   -2    4     19.42      0.00
   -6   -2    3      0.18      0.00
   -6   -2    2     12.66      0.00
   -6   -2    1     -2.44      0.00
    6    2    0     -6.63      0.00
    6    2    1     -2.52      0.00
    6    2    2    -17.02      0.00
    6    2    3      1.50      0.00
    6    2    4     -8.43      0.00
    6    2    5      4.67      0.00
    6    2    6      1.63      0.00
    6    2    7      1.07      0.00
    6    2    8      2.35      0.00
    6    2    9     -4.64      0.00
    6    2   10      0.79      0.00
    6    2   11     -5.54      0.00
    6    2   12      1.08      0.00
    6    2   13     -4.11      0.00
    6    2   14      0.65      0.00
    6    2   15     -3.11      0.00
    6    2   16     -0.72      0.00
    6    2   17     -0.96      0.00
    6    2   18     -1.58      0.00
    6    2   19      1.81      0.00
    6    2   20     -2.00      0.00
    6    2   21      2.91      0.00
    6    2   22     -2.05      0.00
    6    2   23      2.04      0.00
    6    2   24     -1.54      0.00
    6    2   25      0.75      0.00
    6    2   26     -0.63      0.00
   -6   -3   19      1.80      0.00
   -6   -3   18      0.61      0.00
   -6   -3   17      2.92      0.00
   -6   -3   16      2.01      0.00
   -6   -3   15      0.56      0.00
   -6   -3   14      1.63      0.00
   -6   -3   13     -3.95      0.00
   -6   -3   12     -1.97      0.00
   -6   -3   11     -5.78      0.00
   -6   -3   10     -7.21      0.00
   -6   -3    9     -3.50      0.00
   -6   -3    8    -10.70      0.00
   -6   -3    7      0.25      0.00
   -6   -3    6     -9.15      0.00
   -6   -3    5      2.42      0.00
   -6   -3    4      1.90      0.00
   -6   -3    3      1.98      0.00
   -6   -3    2     20.52      0.00
   -6   -3    1      1.61      0.00
    6    3    0     27.86      0.00
    6    3    1      1.64      0.00
    6    3    2     14.20      0.00
    6    3    3     -0.07      0.00
    6    3    4     -0.85      0.00
    6    3    5      1.21      0.00
    6    3    6     -2.57      0.00
    6    3    7      6.72      0.00
    6    3    8      0.46      0.00
    6    3    9      8.17      0.00
    6    3   10      0.55      0.00
    6    3   11      4.52      0.00
    6    3   12      1.09      0.00
    6    3   13      0.69      0.00
    6    3   14      3.84      0.00
    6    3   15     -2.34      0.00
    6    3   16      4.46      0.00
    6    3   17     -3.63      0.00
    6    3   18      2.12      0.00
    6    3   19     -2.98      0.00
    6    3   20      0.38      0.00
    6    3   21     -1.77      0.00
    6    3   22     -0.04      0.00
    6    3   23     -0.57      0.00
    6    3   24     -0.37      0.00
    6    3   25      0.20      0.00
    6    3   26     -0.83      0.00
   -6   -4   19     -0.89      0.00
   -6   -4   18      0.38      0.00
   -6   -4   17      0.60      0.00
   -6   -4   16      1.51      0.00
   -6   -4   15      2.98      0.00
   -6   -4   14      5.79      0.00
   -6   -4   13      2.58      0.00
   -6   -4   12      9.46      0.00
   -6   -4   11     -0.33      0.00
   -6   -4   10      7.32      0.00
   -6   -4    9     -3.15      0.00
   -6   -4    8      1.42      0.00
   -6   -4    7     -5.36      0.00
   -6   -4    6     -4.73      0.00
   -6   -4    5     -5.90      0.00
   -6   -4    4    -11.44      0.00
   -6   -4    3     -6.45      0.00
   -6   -4    2    -11.48      0.00
   -6   -4    1     -7.71      0.00
    6    4    0      1.43      0.00
    6    4    1     -5.56      0.00
    6    4    2     13.60      0.00
    6    4    3     -3.15      0.00
    6    4    4     10.94      0.00
    6    4    5     -5.88      0.00
    6    4    6      2.23      0.00
    6    4    7     -8.02      0.00
    6    4    8     -0.27      0.00
    6    4    9     -4.83      0.00
    6    4   10      0.19      0.00
    6    4   11     -0.32      0.00
    6    4   12     -1.90      0.00
    6    4   13      2.92      0.00
    6    4   14     -3.34      0.00
    6    4   15      4.21      0.00
    6    4   16     -1.12      0.00
    6    4   17      2.52      0.00
    6    4   18      1.57      0.00
    6    4   19      0.37      0.00
    6    4   20      1.77      0.00
    6    4   21     -0.17      0.00
    6    4   22      1.10      0.00
    6    4   23     -0.33      0.00
    6    4   24      1.10      0.00
    6    4   25     -0.46      0.00
    6    4   26      0.82      0.00
   -6   -5   18     -1.62      0.00
   -6   -5   17     -0.77      0.00
   -6   -5   16     -4.60      0.00
   -6   -5   15      0.40      0.00
   -6   -5   14     -5.65      0.00
   -6   -5   13      2.04      0.00
   -6   -5   12     -0.91      0.00
   -6   -5   11      2.32      0.00
   -6   -5   10      6.67      0.00
   -6   -5    9      1.53      0.00
   -6   -5    8     10.06      0.00
   -6   -5    7      0.61      0.00
   -6   -5    6      7.45      0.00
   -6   -5    5      1.52      0.00
   -6   -5    4      0.20      0.00
   -6   -5    3      3.47      0.00
   -6   -5    2     -9.40      0.00
   -6   -5    1     -0.09      0.00
    6    5    0    -13.79      0.00
    6    5    1     -5.81      0.00
    6    5    2     -7.34      0.00
    6    5    3     -4.19      0.00
    6    5    4      3.01      0.00
    6    5    5      0.27      0.00
    6    5    6      6.05      0.00
    6    5    7      0.04      0.00
    6    5    8      2.95      0.00
    6    5    9     -2.41      0.00
    6    5   10      2.00      0.00
    6    5   11     -3.62      0.00
    6    5   12      2.68      0.00
    6    5   13     -3.57      0.00
    6    5   14      1.20      0.00
    6    5   15     -2.50      0.00
    6    5   16     -0.66      0.00
    6    5   17     -1.10      0.00
    6    5   18     -0.81      0.00
    6    5   19     -0.49      0.00
    6    5   20     -0.27      0.00
    6    5   21     -0.13      0.00
    6    5   22     -0.41      0.00
    6    5   23      0.19      0.00
    6    5   24     -0.36      0.00
    6    5   25     -0.18      0.00
   -6   -6   18      1.03      0.00
   -6   -6   17     -0.51      0.00
   -6   -6   16      0.08      0.00
   -6   -6   15     -0.10      0.00
   -6   -6   14     -4.97      0.00
   -6   -6   13      1.21      0.00
   -6   -6   12    -10.21      0.00
   -6   -6   11      2.16      0.00
   -6   -6   10    -10.11      0.00
   -6   -6    9      3.21      0.00
   -6   -6    8     -4.89      0.00
   -6   -6    7      3.88      0.00
   -6   -6    6      1.78      0.00
   -6   -6    5      2.72      0.00
   -6   -6    4      6.58      0.00
   -6   -6    3      4.19      0.00
   -6   -6    2      5.66      0.00
   -6   -6    1      8.57      0.00
    6    6    0     -2.08      0.00
    6    6    1      7.03      0.00
    6    6    2    -10.36      0.00
    6    6    3      1.18      0.00
    6    6    4    -11.47      0.00
    6    6    5      0.47      0.00
    6    6    6     -6.43      0.00
    6    6    7      3.23      0.00
    6    6    8     -2.33      0.00
    6    6    9      3.70      0.00
    6    6   10     -1.04      0.00
    6    6   11      2.27      0.00
    6    6   12      0.20      0.00
    6    6   13      0.93      0.00
    6    6   14      0.65      0.00
    6    6   15      0.49      0.00
    6    6   16     -0.47      0.00
    6    6   17      0.59      0.00
    6    6   18     -0.82      0.00
    6    6   19      0.39      0.00
    6    6   20     -0.16      0.00
    6    6   21      0.20      0.00
    6    6   22     -0.14      0.00
    6    6   23      0.40      0.00
    6    6   24     -0.86      0.00
    6    6   25      0.45      0.00
   -6   -7   17     -1.11      0.00
   -6   -7   16      4.00      0.00
   -6   -7   15     -2.15      0.00
   -6   -7   14      5.68      0.00
   -6   -7   13     -1.93      0.00
   -6   -7   12      2.53      0.00
   -6   -7   11     -0.87      0.00
   -6   -7   10     -3.43      0.00
   -6   -7    9     -1.08      0.00
   -6   -7    8     -7.01      0.00
   -6   -7    7     -1.59      0.00
   -6   -7    6     -5.95      0.00
   -6   -7    5     -1.92      0.00
   -6   -7    4     -1.92      0.00
   -6   -7    3     -1.53      0.00
   -6   -7    2      2.69      0.00
   -6   -7    1      2.56      0.00
    6    7    0      6.33      0.00
    6    7    1      6.96      0.00
    6    7    2      5.93      0.00
    6    7    3      4.89      0.00
    6    7    4      1.35      0.00
    6    7    5     -0.65      0.00
    6    7    6     -2.46      0.00
    6    7    7     -2.33      0.00
    6    7    8     -3.36      0.00
    6    7    9     -0.72      0.00
    6    7   10     -3.32      0.00
    6    7   11      0.58      0.00
    6    7   12     -2.82      0.00
    6    7   13      1.01      0.00
    6    7   14     -1.07      0.00
    6    7   15      0.70      0.00
    6    7   16      0.50      0.00
    6    7   17      0.38      0.00
    6    7   18      0.69      0.00
    6    7   19      0.29      0.00
    6    7   20      0.82      0.00
    6    7   21     -0.06      0.00
    6    7   22      1.25      0.00
    6    7   23     -0.03      0.00
    6    7   24      1.28      0.00
    6    7   25      0.06      0.00
   -6   -8   16     -0.29      0.00
   -6   -8   15     -0.28      0.00
   -6   -8   14      2.96      0.00
   -6   -8   13     -1.72      0.00
   -6   -8   12      6.78      0.00
   -6   -8   11     -1.85      0.00
   -6   -8   10      6.97      0.00
   -6   -8    9     -0.93      0.00
   -6   -8    8      3.30      0.00
   -6   -8    7     -0.92      0.00
   -6   -8    6     -1.08      0.00
   -6   -8    5     -2.36      0.00
   -6   -8    4     -3.15      0.00
   -6   -8    3     -6.14      0.00
   -6   -8    2     -2.58      0.00
   -6   -8    1     -8.61      0.00
    6    8    0     -0.24      0.00
    6    8    1     -3.88      0.00
    6    8    2      3.53      0.00
    6    8    3      3.52      0.00
    6    8    4      6.10      0.00
    6    8    5      5.33      0.00
    6    8    6      5.32      0.00
    6    8    7      2.73      0.00
    6    8    8      3.35      0.00
    6    8    9      0.48      0.00
    6    8   10      1.90      0.00
    6    8   11     -0.68      0.00
    6    8   12      0.40      0.00
    6    8   13     -0.90      0.00
    6    8   14     -1.04      0.00
    6    8   15      0.08      0.00
    6    8   16     -1.67      0.00
    6    8   17      0.73      0.00
    6    8   18     -1.55      0.00
    6    8   19      0.26      0.00
    6    8   20     -1.31      0.00
    6    8   21     -0.39      0.00
    6    8   22     -1.05      0.00
    6    8   23     -0.48      0.00
    6    8   24     -0.34      0.00
   -6   -9   15      1.68      0.00
   -6   -9   14     -3.04      0.00
   -6   -9   13      1.23      0.00
   -6   -9   12     -1.38      0.00
   -6   -9   11      0.15      0.00
   -6   -9   10      1.96      0.00
   -6   -9    9      0.40      0.00
   -6   -9    8      4.19      0.00
   -6   -9    7      1.81      0.00
   -6   -9    6      4.12      0.00
   -6   -9    5      2.82      0.00
   -6   -9    4      2.67      0.00
   -6   -9    3      1.58      0.00
   -6   -9    2      0.34      0.00
   -6   -9    1     -3.92      0.00
    6    9    0     -2.64      0.00
    6    9    1     -9.72      0.00
    6    9    2     -3.95      0.00
    6    9    3     -9.09      0.00
    6    9    4     -1.75      0.00
    6    9    5     -4.17      0.00
    6    9    6      1.20      0.00
    6    9    7     -0.62      0.00
    6    9    8      2.12      0.00
    6    9    9      0.50      0.00
    6    9   10      2.58      0.00
    6    9   11     -0.02      0.00
    6    9   12      3.11      0.00
    6    9   13     -1.20      0.00
    6    9   14      2.54      0.00
    6    9   15     -1.87      0.00
    6    9   16      1.34      0.00
    6    9   17     -1.28      0.00
    6    9   18      0.12      0.00
    6    9   19     -0.10      0.00
    6    9   20     -0.38      0.00
    6    9   21      0.39      0.00
    6    9   22     -0.53      0.00
    6    9   23      0.53      0.00
   -6  -10   14     -1.36      0.00
   -6  -10   13      0.81      0.00
   -6  -10   12     -3.22      0.00
   -6  -10   11      0.25      0.00
   -6  -10   10     -3.37      0.00
   -6  -10    9     -0.47      0.00
   -6  -10    8     -2.12      0.00
   -6  -10    7     -0.06      0.00
   -6  -10    6     -0.52      0.00
   -6  -10    5      1.69      0.00
   -6  -10    4      0.61      0.00
   -6  -10    3      5.38      0.00
   -6  -10    2      1.84      0.00
   -6  -10    1      8.04      0.00
    6   10    0      2.16      0.00
    6   10    1      4.97      0.00
    6   10    2     -0.43      0.00
    6   10    3     -1.24      0.00
    6   10    4     -3.44      0.00
    6   10    5     -4.32      0.00
    6   10    6     -3.65      0.00
    6   10    7     -3.55      0.00
    6   10    8     -2.64      0.00
    6   10    9     -1.41      0.00
    6   10   10     -1.98      0.00
    6   10   11      0.32      0.00
    6   10   12     -0.43      0.00
    6   10   13      0.49      0.00
    6   10   14      1.37      0.00
    6   10   15     -0.38      0.00
    6   10   16      1.93      0.00
    6   10   17     -1.04      0.00
    6   10   18      1.66      0.00
    6   10   19     -1.06      0.00
    6   10   20      1.28      0.00
    6   10   21     -0.95      0.00
    6   10   22      1.56      0.00
   -6  -11   12     -0.02      0.00
   -6  -11   11      0.74      0.00
   -6  -11   10     -0.96      0.00
   -6  -11    9     -0.04      0.00
   -6  -11    8     -1.61      0.00
   -6  -11    7     -1.33      0.00
   -6  -11    6     -2.36      0.00
   -6  -11    5     -2.04      0.00
   -6  -11    4     -3.25      0.00
   -6  -11    3     -1.29      0.00
   -6  -11    2     -3.35      0.00
   -6  -11    1      2.71      0.00
    6   11    0     -0.77      0.00
    6   11    1      7.38      0.00
    6   11    2      2.41      0.00
    6   11    3      7.89      0.00
    6   11    4      2.34      0.00
    6   11    5      4.41      0.00
    6   11    6      0.35      0.00
    6   11    7      0.98      0.00
    6   11    8     -1.36      0.00
    6   11    9     -0.16      0.00
    6   11   10     -2.65      0.00
    6   11   11      0.30      0.00
    6   11   12     -3.07      0.00
    6   11   13      1.57      0.00
    6   11   14     -2.60      0.00
    6   11   15      2.24      0.00
    6   11   16     -1.46      0.00
    6   11   17      1.43      0.00
    6   11   18     -0.36      0.00
    6   11   19      0.85      0.00
    6   11   20     -0.39      0.00
    6   11   21      0.82      0.00
   -6  -12   11     -0.57      0.00
   -6  -12   10      1.57      0.00
   -6  -12    9     -0.09      0.00
   -6  -12    8      1.51      0.00
   -6  -12    7     -0.21      0.00
   -6  -12    6      1.74      0.00
   -6  -12    5     -1.73      0.00
   -6  -12    4      2.28      0.00
   -6  -12    3     -4.62      0.00
   -6  -12    2      0.85      0.00
   -6  -12    1     -6.17      0.00
    6   12    0     -2.30      0.00
    6   12    1     -3.46      0.00
    6   12    2     -2.64      0.00
    6   12    3      1.22      0.00
    6   12    4      0.20      0.00
    6   12    5      3.53      0.00
    6   12    6      2.34      0.00
    6   12    7      2.72      0.00
    6   12    8      2.35      0.00
    6   12    9      0.95      0.00
    6   12   10      0.64      0.00
    6   12   11     -0.53      0.00
    6   12   12     -1.03      0.00
    6   12   13     -1.36      0.00
    6   12   14     -1.29      0.00
    6   12   15     -0.33      0.00
    6   12   16     -1.13      0.00
    6   12   17      1.09      0.00
    6   12   18     -0.54      0.00
    6   12   19      0.95      0.00
    6   12   20      0.34      0.00
   -6  -13    9      0.90      0.00
   -6  -13    8     -0.21      0.00
   -6  -13    7      0.93      0.00
   -6  -13    6      0.32      0.00
   -6  -13    5      1.35      0.00
   -6  -13    4      1.54      0.00
   -6  -13    3      1.13      0.00
   -6  -13    2      3.34      0.00
   -6  -13    1     -1.40      0.00
    6   13    0      3.06      0.00
    6   13    1     -4.78      0.00
    6   13    2      0.22      0.00
    6   13    3     -5.07      0.00
    6   13    4     -1.97      0.00
    6   13    5     -2.14      0.00
    6   13    6     -1.02      0.00
    6   13    7      0.41      0.00
    6   13    8      1.95      0.00
    6   13    9      1.50      0.00
    6   13   10      3.91      0.00
    6   13   11      1.34      0.00
    6   13   12      3.59      0.00
    6   13   13     -0.38      0.00
    6   13   14      2.07      0.00
    6   13   15     -1.61      0.00
    6   13   16      0.71      0.00
    6   13   17     -0.91      0.00
    6   13   18     -0.12      0.00
   -6  -14    6     -1.40      0.00
   -6  -14    5      1.20      0.00
   -6  -14    4     -2.41      0.00
   -6  -14    3      1.60      0.00
   -6  -14    2     -1.16      0.00
   -6  -14    1      1.64      0.00
    6   14    0      1.52      0.00
    6   14    1      0.86      0.00
    6   14    2      2.26      0.00
    6   14    3     -1.28      0.00
    6   14    4      0.37      0.00
    6   14    5     -3.13      0.00
    6   14    6     -2.33      0.00
    6   14    7     -3.18      0.00
    6   14    8     -3.45      0.00
    6   14    9     -1.91      0.00
    6   14   10     -2.23      0.00
    6   14   11      0.40      0.00
    6   14   12     -0.34      0.00
    6   14   13      1.63      0.00
    6   14   14      0.82      0.00
    6   14   15      0.14      0.00
    6   14   16      0.61      0.00
   -6  -15    3      1.62      0.00
   -6  -15    2     -2.41      0.00
   -6  -15    1      2.25      0.00
    6   15    0     -2.43      0.00
    6   15    1      2.43      0.00
    6   15    2     -0.22      0.00
    6   15    3      2.04      0.00
    6   15    4      1.87      0.00
    6   15    5      1.15      0.00
    6   15    6      1.98      0.00
    6   15    7     -0.10      0.00
    6   15    8      0.30      0.00
    6   15    9     -1.42      0.00
    6   15   10     -1.60      0.00
    6   15   11     -1.64      0.00
    6   15   12     -1.96      0.00
    6   15   13     -0.15      0.00
    6   16    3      0.64      0.00
    6   16    4     -0.89      0.00
    6   16    5      1.17      0.00
    6   16    6      0.44      0.00
    6   16    7      1.63      0.00
    6   16    8      1.54      0.00
   -7   14    4     -0.65      0.00
   -7   14    3      0.95      0.00
   -7   14    2     -0.02      0.00
   -7   14    1      0.32      0.00
   -7   14    0      0.07      0.00
    7  -14    1      0.05      0.00
    7  -14    2      0.12      0.00
    7  -14    3      0.28      0.00
    7  -14    4      1.05      0.00
    7  -14    5      0.26      0.00
    7  -14    6      1.36      0.00
   -7   13    8     -0.01      0.00
   -7   13    7     -0.40      0.00
   -7   13    6     -0.32      0.00
   -7   13    5     -0.28      0.00
   -7   13    4     -0.21      0.00
   -7   13    3     -0.17      0.00
   -7   13    2     -0.01      0.00
   -7   13    1      0.39      0.00
   -7   13    0     -0.44      0.00
    7  -13    1      0.68      0.00
    7  -13    2     -1.21      0.00
    7  -13    3      0.28      0.00
    7  -13    4     -1.01      0.00
    7  -13    5      0.13      0.00
    7  -13    6     -0.07      0.00
    7  -13    7      0.70      0.00
    7  -13    8      0.38      0.00
    7  -13    9      0.75      0.00
    7  -13   10      0.27      0.00
    7  -13   11     -0.21      0.00
   -7   12   11      1.00      0.00
   -7   12   10      0.19      0.00
   -7   12    9      0.52      0.00
   -7   12    8      0.33      0.00
   -7   12    7     -0.05      0.00
   -7   12    6     -0.48      0.00
   -7   12    5     -0.04      0.00
   -7   12    4     -1.31      0.00
   -7   12    3     -0.16      0.00
   -7   12    2     -1.19      0.00
   -7   12    1     -0.40      0.00
   -7   12    0     -0.70      0.00
    7  -12    1      0.20      0.00
    7  -12    2     -1.11      0.00
    7  -12    3      0.90      0.00
    7  -12    4     -2.02      0.00
    7  -12    5      0.38      0.00
    7  -12    6     -1.89      0.00
    7  -12    7     -0.25      0.00
    7  -12    8     -0.89      0.00
    7  -12    9      0.60      0.00
    7  -12   10      0.09      0.00
    7  -12   11      1.61      0.00
    7  -12   12      0.55      0.00
    7  -12   13      1.43      0.00
   -7   11   12      0.37      0.00
   -7   11   11     -0.62      0.00
   -7   11   10      0.22      0.00
   -7   11    9      0.11      0.00
   -7   11    8      1.04      0.00
   -7   11    7      0.15      0.00
   -7   11    6      1.52      0.00
   -7   11    5      0.10      0.00
   -7   11    4      1.29      0.00
   -7   11    3      0.00      0.00
   -7   11    2      1.32      0.00
   -7   11    1     -0.81      0.00
   -7   11    0      1.88      0.00
    7  -11    1     -1.79      0.00
    7  -11    2      2.56      0.00
    7  -11    3     -1.79      0.00
    7  -11    4      2.55      0.00
    7  -11    5     -1.10      0.00
    7  -11    6      1.38      0.00
    7  -11    7     -0.67      0.00
    7  -11    8     -0.55      0.00
    7  -11    9     -0.49      0.00
    7  -11   10     -1.76      0.00
    7  -11   11     -0.19      0.00
    7  -11   12     -1.26      0.00
    7  -11   13     -0.16      0.00
    7  -11   14     -0.20      0.00
    7  -11   15     -0.62      0.00
    7  -11   16      0.50      0.00
   -7   10   14     -0.30      0.00
   -7   10   13      0.15      0.00
   -7   10   12     -0.33      0.00
   -7   10   11     -0.59      0.00
   -7   10   10     -0.77      0.00
   -7   10    9     -1.09      0.00
   -7   10    8     -0.32      0.00
   -7   10    7     -1.35      0.00
   -7   10    6      0.60      0.00
   -7   10    5     -0.99      0.00
   -7   10    4      0.23      0.00
   -7   10    3     -0.04      0.00
   -7   10    2     -0.60      0.00
   -7   10    1      0.84      0.00
   -7   10    0     -0.88      0.00
    7  -10    1      0.94      0.00
    7  -10    2     -0.77      0.00
    7  -10    3      0.23      0.00
    7  -10    4      0.00      0.00
    7  -10    5     -0.55      0.00
    7  -10    6      1.48      0.00
    7  -10    7     -0.93      0.00
    7  -10    8      2.57      0.00
    7  -10    9     -1.17      0.00
    7  -10   10      1.89      0.00
    7  -10   11     -1.15      0.00
    7  -10   12      0.35      0.00
    7  -10   13     -0.47      0.00
    7  -10   14     -0.48      0.00
    7  -10   15      0.32      0.00
    7  -10   16     -0.71      0.00
    7  -10   17      0.50      0.00
   -7    9   15      0.38      0.00
   -7    9   14     -0.24      0.00
   -7    9   13      0.83      0.00
   -7    9   12      0.16      0.00
   -7    9   11      0.83      0.00
   -7    9   10     -0.50      0.00
   -7    9    9      0.45      0.00
   -7    9    8     -1.40      0.00
   -7    9    7     -0.10      0.00
   -7    9    6     -0.53      0.00
   -7    9    5     -0.69      0.00
   -7    9    4      0.98      0.00
   -7    9    3     -1.08      0.00
   -7    9    2      0.89      0.00
   -7    9    1     -0.51      0.00
   -7    9    0     -0.27      0.00
    7   -9    1      0.83      0.00
    7   -9    2     -1.18      0.00
    7   -9    3      1.44      0.00
    7   -9    4     -1.44      0.00
    7   -9    5      0.85      0.00
    7   -9    6     -1.03      0.00
    7   -9    7     -0.01      0.00
    7   -9    8      0.11      0.00
    7   -9    9     -0.45      0.00
    7   -9   10      1.30      0.00
    7   -9   11     -0.74      0.00
    7   -9   12      1.34      0.00
    7   -9   13     -0.86      0.00
    7   -9   14      0.81      0.00
    7   -9   15     -0.45      0.00
    7   -9   16      0.49      0.00
    7   -9   17      0.02      0.00
    7   -9   18      0.15      0.00
    7   -9   19      0.29      0.00
   -7    8   16      0.21      0.00
   -7    8   15     -0.58      0.00
   -7    8   14     -0.62      0.00
   -7    8   13     -0.36      0.00
   -7    8   12     -0.45      0.00
   -7    8   11      1.05      0.00
   -7    8   10     -0.02      0.00
   -7    8    9      2.57      0.00
   -7    8    8     -0.96      0.00
   -7    8    7      2.59      0.00
   -7    8    6     -2.07      0.00
   -7    8    5      1.69      0.00
   -7    8    4     -1.55      0.00
   -7    8    3      0.82      0.00
   -7    8    2     -0.07      0.00
   -7    8    1     -0.45      0.00
   -7    8    0      1.02      0.00
    7   -8    1     -0.81      0.00
    7   -8    2      0.93      0.00
    7   -8    3      0.47      0.00
    7   -8    4     -0.24      0.00
    7   -8    5      1.56      0.00
    7   -8    6     -1.78      0.00
    7   -8    7      1.78      0.00
    7   -8    8     -2.79      0.00
    7   -8    9      1.88      0.00
    7   -8   10     -2.24      0.00
    7   -8   11      1.76      0.00
    7   -8   12     -0.74      0.00
    7   -8   13      0.75      0.00
    7   -8   14      0.15      0.00
    7   -8   15     -0.70      0.00
    7   -8   16      0.68      0.00
    7   -8   17     -1.61      0.00
    7   -8   18      0.87      0.00
    7   -8   19     -1.63      0.00
    7   -8   20      0.06      0.00
   -7    7   17      0.73      0.00
   -7    7   16      1.25      0.00
   -7    7   15      0.59      0.00
   -7    7   14      1.44      0.00
   -7    7   13     -1.03      0.00
   -7    7   12      0.81      0.00
   -7    7   11     -2.15      0.00
   -7    7   10      1.12      0.00
   -7    7    9     -1.04      0.00
   -7    7    8      1.27      0.00
   -7    7    7      1.27      0.00
   -7    7    6     -0.76      0.00
   -7    7    5      2.40      0.00
   -7    7    4     -2.91      0.00
   -7    7    3      2.20      0.00
   -7    7    2     -3.07      0.00
   -7    7    1      1.08      0.00
   -7    7    0     -2.38      0.00
    7   -7    1     -0.57      0.00
    7   -7    2     -1.82      0.00
    7   -7    3     -0.70      0.00
    7   -7    4     -1.30      0.00
    7   -7    5      0.56      0.00
    7   -7    6     -1.00      0.00
    7   -7    7      1.15      0.00
    7   -7    8     -1.29      0.00
    7   -7    9      1.11      0.00
    7   -7   10     -1.49      0.00
    7   -7   11      1.56      0.00
    7   -7   12     -0.98      0.00
    7   -7   13      2.56      0.00
    7   -7   14     -0.98      0.00
    7   -7   15      3.19      0.00
    7   -7   16     -1.56      0.00
    7   -7   17      2.84      0.00
    7   -7   18     -0.90      0.00
    7   -7   19      1.61      0.00
    7   -7   20      0.18      0.00
    7   -7   21      0.53      0.00
   -7    6   17     -0.96      0.00
   -7    6   16     -0.97      0.00
   -7    6   15      0.35      0.00
   -7    6   14      0.52      0.00
   -7    6   13      1.27      0.00
   -7    6   12      1.03      0.00
   -7    6   11     -0.58      0.00
   -7    6   10      1.08      0.00
   -7    6    9     -4.01      0.00
   -7    6    8      2.90      0.00
   -7    6    7     -5.27      0.00
   -7    6    6      4.97      0.00
   -7    6    5     -3.88      0.00
   -7    6    4      4.58      0.00
   -7    6    3     -1.60      0.00
   -7    6    2      3.31      0.00
   -7    6    1      0.32      0.00
   -7    6    0      3.30      0.00
    7   -6    1     -0.15      0.00
    7   -6    2      3.45      0.00
    7   -6    3     -2.50      0.00
    7   -6    4      3.36      0.00
    7   -6    5     -3.28      0.00
    7   -6    6      3.69      0.00
    7   -6    7     -2.18      0.00
    7   -6    8      3.27      0.00
    7   -6    9     -1.74      0.00
    7   -6   10      1.28      0.00
    7   -6   11     -2.39      0.00
    7   -6   12     -0.38      0.00
    7   -6   13     -2.43      0.00
    7   -6   14     -0.44      0.00
    7   -6   15     -1.35      0.00
    7   -6   16     -0.27      0.00
    7   -6   17     -0.40      0.00
    7   -6   18     -0.07      0.00
    7   -6   19     -0.13      0.00
    7   -6   20      0.65      0.00
    7   -6   21      0.06      0.00
    7   -6   22      0.37      0.00
   -7    5   18     -0.12      0.00
   -7    5   17     -0.04      0.00
   -7    5   16     -2.56      0.00
   -7    5   15     -0.82      0.00
   -7    5   14     -3.30      0.00
   -7    5   13      0.64      0.00
   -7    5   12     -2.22      0.00
   -7    5   11      3.12      0.00
   -7    5   10     -2.11      0.00
   -7    5    9      2.73      0.00
   -7    5    8     -2.38      0.00
   -7    5    7     -0.51      0.00
   -7    5    6     -0.78      0.00
   -7    5    5     -2.92      0.00
   -7    5    4      1.04      0.00
   -7    5    3     -3.42      0.00
   -7    5    2      0.58      0.00
   -7    5    1     -1.92      0.00
   -7    5    0      0.18      0.00
    7   -5    1      0.53      0.00
    7   -5    2      1.80      0.00
    7   -5    3      0.42      0.00
    7   -5    4      2.99      0.00
    7   -5    5     -2.02      0.00
    7   -5    6      3.09      0.00
    7   -5    7     -2.66      0.00
    7   -5    8      3.77      0.00
    7   -5    9     -1.09      0.00
    7   -5   10      4.18      0.00
    7   -5   11     -0.74      0.00
    7   -5   12      3.39      0.00
    7   -5   13     -2.40      0.00
    7   -5   14      2.73      0.00
    7   -5   15     -3.22      0.00
    7   -5   16      1.94      0.00
    7   -5   17     -1.98      0.00
    7   -5   18     -0.02      0.00
    7   -5   19     -0.85      0.00
    7   -5   20     -0.63      0.00
    7   -5   21     -0.96      0.00
    7   -5   22      0.61      0.00
    7   -5   23     -0.67      0.00
   -7    4   18      2.91      0.00
   -7    4   17      1.19      0.00
   -7    4   16      3.15      0.00
   -7    4   15      0.05      0.00
   -7    4   14      0.79      0.00
   -7    4   13     -1.84      0.00
   -7    4   12     -1.29      0.00
   -7    4   11     -0.33      0.00
   -7    4   10     -2.37      0.00
   -7    4    9      4.22      0.00
   -7    4    8     -3.55      0.00
   -7    4    7      6.38      0.00
   -7    4    6     -4.16      0.00
   -7    4    5      4.89      0.00
   -7    4    4     -3.29      0.00
   -7    4    3      2.31      0.00
   -7    4    2     -3.37      0.00
   -7    4    1     -0.03      0.00
   -7    4    0     -6.22      0.00
    7   -4    1      0.22      0.00
    7   -4    2     -7.95      0.00
    7   -4    3      3.16      0.00
    7   -4    4     -6.05      0.00
    7   -4    5      3.88      0.00
    7   -4    6     -4.26      0.00
    7   -4    7      1.16      0.00
    7   -4    8     -4.19      0.00
    7   -4    9     -0.35      0.00
    7   -4   10     -3.24      0.00
    7   -4   11      1.16      0.00
    7   -4   12     -1.43      0.00
    7   -4   13      2.26      0.00
    7   -4   14     -0.12      0.00
    7   -4   15      1.05      0.00
    7   -4   16      1.39      0.00
    7   -4   17     -0.33      0.00
    7   -4   18      2.15      0.00
    7   -4   19     -0.58      0.00
    7   -4   20      1.05      0.00
    7   -4   21     -0.96      0.00
    7   -4   22      0.42      0.00
    7   -4   23     -1.37      0.00
    7   -4   24      0.67      0.00
   -7    3   19     -1.58      0.00
   -7    3   18     -1.00      0.00
   -7    3   17     -0.39      0.00
   -7    3   16      1.77      0.00
   -7    3   15      1.20      0.00
   -7    3   14      3.84      0.00
   -7    3   13     -0.07      0.00
   -7    3   12      3.66      0.00
   -7    3   11     -3.12      0.00
   -7    3   10      2.71      0.00
   -7    3    9     -3.11      0.00
   -7    3    8      1.75      0.00
   -7    3    7      0.25      0.00
   -7    3    6      0.58      0.00
   -7    3    5      2.84      0.00
   -7    3    4      1.02      0.00
   -7    3    3      3.42      0.00
   -7    3    2      4.25      0.00
   -7    3    1      2.94      0.00
   -7    3    0      5.27      0.00
    7   -3    1      1.71      0.00
    7   -3    2      0.38      0.00
    7   -3    3      1.82      0.00
    7   -3    4     -4.11      0.00
    7   -3    5      3.99      0.00
    7   -3    6     -2.95      0.00
    7   -3    7      4.60      0.00
    7   -3    8     -1.03      0.00
    7   -3    9      2.28      0.00
    7   -3   10     -2.09      0.00
    7   -3   11      0.64      0.00
    7   -3   12     -3.43      0.00
    7   -3   13      1.73      0.00
    7   -3   14     -3.85      0.00
    7   -3   15      2.45      0.00
    7   -3   16     -3.34      0.00
    7   -3   17      1.27      0.00
    7   -3   18     -1.87      0.00
    7   -3   19      1.30      0.00
    7   -3   20     -1.41      0.00
    7   -3   21      2.12      0.00
    7   -3   22     -1.55      0.00
    7   -3   23      0.87      0.00
    7   -3   24     -0.53      0.00
   -7    2   19      0.10      0.00
   -7    2   18     -3.01      0.00
   -7    2   17     -1.11      0.00
   -7    2   16     -3.66      0.00
   -7    2   15     -0.34      0.00
   -7    2   14     -1.32      0.00
   -7    2   13      1.62      0.00
   -7    2   12      1.65      0.00
   -7    2   11      0.96      0.00
   -7    2   10      3.11      0.00
   -7    2    9     -2.08      0.00
   -7    2    8      2.81      0.00
   -7    2    7     -3.66      0.00
   -7    2    6      0.93      0.00
   -7    2    5     -3.11      0.00
   -7    2    4     -2.28      0.00
   -7    2    3     -2.60      0.00
   -7    2    2     -2.92      0.00
   -7    2    1     -2.32      0.00
   -7    2    0      2.26      0.00
    7   -2    1     -1.51      0.00
    7   -2    2      6.49      0.00
    7   -2    3     -1.41      0.00
    7   -2    4      2.82      0.00
    7   -2    5     -1.97      0.00
    7   -2    6     -2.55      0.00
    7   -2    7     -0.79      0.00
    7   -2    8     -2.08      0.00
    7   -2    9      1.12      0.00
    7   -2   10      1.06      0.00
    7   -2   11      0.43      0.00
    7   -2   12      2.15      0.00
    7   -2   13     -0.94      0.00
    7   -2   14      1.13      0.00
    7   -2   15      0.41      0.00
    7   -2   16     -0.62      0.00
    7   -2   17      1.40      0.00
    7   -2   18     -1.04      0.00
    7   -2   19      0.36      0.00
    7   -2   20     -0.44      0.00
    7   -2   21      0.89      0.00
    7   -2   22     -0.91      0.00
    7   -2   23      2.31      0.00
    7   -2   24     -1.39      0.00
    7   -2   25      1.90      0.00
   -7    1   19     -0.15      0.00
   -7    1   18      2.44      0.00
   -7    1   17     -0.85      0.00
   -7    1   16     -0.98      0.00
   -7    1   15     -1.90      0.00
   -7    1   14     -3.67      0.00
   -7    1   13     -1.31      0.00
   -7    1   12     -2.88      0.00
   -7    1   11      0.42      0.00
   -7    1   10     -0.48      0.00
   -7    1    9      0.40      0.00
   -7    1    8      1.81      0.00
   -7    1    7     -1.15      0.00
   -7    1    6      3.97      0.00
   -7    1    5     -1.53      0.00
   -7    1    4      4.62      0.00
   -7    1    3     -1.38      0.00
   -7    1    2      1.82      0.00
   -7    1    1     -4.14      0.00
   -7    1    0      0.24      0.00
    7   -1    1     -8.76      0.00
    7   -1    2      5.60      0.00
    7   -1    3     -9.33      0.00
    7   -1    4     11.01      0.00
    7   -1    5     -6.15      0.00
    7   -1    6      8.26      0.00
    7   -1    7     -4.89      0.00
    7   -1    8      2.30      0.00
    7   -1    9     -4.16      0.00
    7   -1   10      0.11      0.00
    7   -1   11     -1.63      0.00
    7   -1   12      1.21      0.00
    7   -1   13     -1.09      0.00
    7   -1   14      2.44      0.00
    7   -1   15     -1.93      0.00
    7   -1   16      2.43      0.00
    7   -1   17     -1.41      0.00
    7   -1   18      2.15      0.00
    7   -1   19     -1.61      0.00
    7   -1   20      2.22      0.00
    7   -1   21     -2.09      0.00
    7   -1   22      1.72      0.00
    7   -1   23     -0.94      0.00
    7   -1   24      0.74      0.00
    7   -1   25      0.07      0.00
   -7    0   19      1.07      0.00
   -7    0   18      2.32      0.00
   -7    0   17      1.79      0.00
   -7    0   16      3.17      0.00
   -7    0   15      0.95      0.00
   -7    0   14      0.59      0.00
   -7    0   13     -1.30      0.00
   -7    0   12     -2.68      0.00
   -7    0   11     -2.09      0.00
   -7    0   10     -4.05      0.00
   -7    0    9     -1.16      0.00
   -7    0    8     -4.03      0.00
   -7    0    7     -0.53      0.00
   -7    0    6     -3.28      0.00
   -7    0    5      0.42      0.00
   -7    0    4     -1.50      0.00
   -7    0    3      4.92      0.00
   -7    0    2     -0.74      0.00
   -7    0    1     11.20      0.00
    7    0    0     -3.90      0.00
    7    0    1     10.89      0.00
    7    0    2     -6.53      0.00
    7    0    3      3.10      0.00
    7    0    4     -1.77      0.00
    7    0    5     -1.40      0.00
    7    0    6      5.52      0.00
    7    0    7      0.45      0.00
    7    0    8      6.20      0.00
    7    0    9      1.26      0.00
    7    0   10      1.42      0.00
    7    0   11      0.49      0.00
    7    0   12     -1.66      0.00
    7    0   13      0.53      0.00
    7    0   14     -1.04      0.00
    7    0   15     -0.07      0.00
    7    0   16     -0.45      0.00
    7    0   17     -0.52      0.00
    7    0   18     -0.66      0.00
    7    0   19     -1.07      0.00
    7    0   20      0.47      0.00
    7    0   21     -2.64      0.00
    7    0   22      1.59      0.00
    7    0   23     -2.91      0.00
    7    0   24      1.49      0.00
    7    0   25     -1.87      0.00
   -7   -1   19     -0.01      0.00
   -7   -1   18     -1.91      0.00
   -7   -1   17      0.55      0.00
   -7   -1   16      1.58      0.00
   -7   -1   15      3.20      0.00
   -7   -1   14      4.17      0.00
   -7   -1   13      5.03      0.00
   -7   -1   12      2.77      0.00
   -7   -1   11      4.62      0.00
   -7   -1   10     -0.70      0.00
   -7   -1    9      3.44      0.00
   -7   -1    8     -2.75      0.00
   -7   -1    7      1.32      0.00
   -7   -1    6     -3.33      0.00
   -7   -1    5     -2.76      0.00
   -7   -1    4     -3.91      0.00
   -7   -1    3     -6.62      0.00
   -7   -1    2     -4.58      0.00
   -7   -1    1     -2.98      0.00
    7    1    0     -6.79      0.00
    7    1    1      8.31      0.00
    7    1    2    -11.83      0.00
    7    1    3     13.36      0.00
    7    1    4    -16.15      0.00
    7    1    5      7.16      0.00
    7    1    6    -14.01      0.00
    7    1    7      1.17      0.00
    7    1    8     -5.62      0.00
    7    1    9      0.28      0.00
    7    1   10      0.90      0.00
    7    1   11      0.34      0.00
    7    1   12      0.72      0.00
    7    1   13      0.76      0.00
    7    1   14     -1.30      0.00
    7    1   15      2.01      0.00
    7    1   16     -1.72      0.00
    7    1   17      3.29      0.00
    7    1   18     -2.26      0.00
    7    1   19      4.43      0.00
    7    1   20     -2.52      0.00
    7    1   21      4.06      0.00
    7    1   22     -1.78      0.00
    7    1   23      2.27      0.00
    7    1   24     -1.15      0.00
    7    1   25      1.06      0.00
    7    1   26     -0.58      0.00
   -7   -2   18     -2.60      0.00
   -7   -2   17     -2.22      0.00
   -7   -2   16     -4.30      0.00
   -7   -2   15     -3.11      0.00
   -7   -2   14     -2.21      0.00
   -7   -2   13     -1.69      0.00
   -7   -2   12      2.20      0.00
   -7   -2   11      0.64      0.00
   -7   -2   10      4.67      0.00
   -7   -2    9      2.98      0.00
   -7   -2    8      3.96      0.00
   -7   -2    7      5.04      0.00
   -7   -2    6      2.61      0.00
   -7   -2    5      4.77      0.00
   -7   -2    4      3.06      0.00
   -7   -2    3     -1.37      0.00
   -7   -2    2      5.47      0.00
   -7   -2    1    -11.77      0.00
    7    2    0      7.71      0.00
    7    2    1    -13.91      0.00
    7    2    2      7.66      0.00
    7    2    3     -3.53      0.00
    7    2    4      5.43      0.00
    7    2    5      4.49      0.00
    7    2    6      0.91      0.00
    7    2    7      2.86      0.00
    7    2    8     -3.43      0.00
    7    2    9     -0.17      0.00
    7    2   10     -2.64      0.00
    7    2   11     -0.71      0.00
    7    2   12      0.54      0.00
    7    2   13     -1.58      0.00
    7    2   14      1.63      0.00
    7    2   15     -3.48      0.00
    7    2   16      1.86      0.00
    7    2   17     -4.00      0.00
    7    2   18      1.18      0.00
    7    2   19     -2.26      0.00
    7    2   20     -0.13      0.00
    7    2   21     -0.34      0.00
    7    2   22     -0.37      0.00
    7    2   23      0.38      0.00
    7    2   24     -0.53      0.00
    7    2   25      0.35      0.00
    7    2   26     -0.86      0.00
   -7   -3   18      1.97      0.00
   -7   -3   17      1.02      0.00
   -7   -3   16      0.19      0.00
   -7   -3   15     -1.20      0.00
   -7   -3   14     -3.06      0.00
   -7   -3   13     -4.66      0.00
   -7   -3   12     -3.76      0.00
   -7   -3   11     -6.20      0.00
   -7   -3   10     -2.11      0.00
   -7   -3    9     -3.92      0.00
   -7   -3    8     -0.96      0.00
   -7   -3    7      0.50      0.00
   -7   -3    6     -0.59      0.00
   -7   -3    5      5.12      0.00
   -7   -3    4     -0.15      0.00
   -7   -3    3      8.87      0.00
   -7   -3    2      2.07      0.00
   -7   -3    1      6.00      0.00
    7    3    0      5.87      0.00
    7    3    1     -4.73      0.00
    7    3    2      7.12      0.00
    7    3    3    -10.14      0.00
    7    3    4      5.51      0.00
    7    3    5     -3.20      0.00
    7    3    6      4.09      0.00
    7    3    7      4.60      0.00
    7    3    8      1.79      0.00
    7    3    9      4.63      0.00
    7    3   10     -1.11      0.00
    7    3   11      1.79      0.00
    7    3   12     -1.59      0.00
    7    3   13      1.48      0.00
    7    3   14     -1.06      0.00
    7    3   15      2.15      0.00
    7    3   16     -0.57      0.00
    7    3   17      0.94      0.00
    7    3   18      0.71      0.00
    7    3   19     -1.11      0.00
    7    3   20      0.92      0.00
    7    3   21     -1.73      0.00
    7    3   22      0.29      0.00
    7    3   23     -1.01      0.00
    7    3   24      0.55      0.00
    7    3   25     -0.35      0.00
    7    3   26      0.67      0.00
   -7   -4   18      1.67      0.00
   -7   -4   17      0.59      0.00
   -7   -4   16      3.50      0.00
   -7   -4   15      2.71      0.00
   -7   -4   14      3.51      0.00
   -7   -4   13      2.57      0.00
   -7   -4   12      1.89      0.00
   -7   -4   11     -1.91      0.00
   -7   -4   10      1.51      0.00
   -7   -4    9     -8.11      0.00
   -7   -4    8      2.37      0.00
   -7   -4    7    -10.75      0.00
   -7   -4    6      2.15      0.00
   -7   -4    5     -8.06      0.00
   -7   -4    4     -1.03      0.00
   -7   -4    3     -0.89      0.00
   -7   -4    2     -5.32      0.00
   -7   -4    1      7.10      0.00
    7    4    0     -4.32      0.00
    7    4    1      7.21      0.00
    7    4    2      1.08      0.00
    7    4    3     -2.55      0.00
    7    4    4      3.84      0.00
    7    4    5    -11.60      0.00
    7    4    6      4.24      0.00
    7    4    7    -10.91      0.00
    7    4    8      4.11      0.00
    7    4    9     -4.27      0.00
    7    4   10      2.00      0.00
    7    4   11     -0.41      0.00
    7    4   12     -0.32      0.00
    7    4   13      0.08      0.00
    7    4   14     -0.78      0.00
    7    4   15      0.80      0.00
    7    4   16     -0.40      0.00
    7    4   17      1.80      0.00
    7    4   18      0.36      0.00
    7    4   19      1.93      0.00
    7    4   20      1.19      0.00
    7    4   21      0.91      0.00
    7    4   22      0.76      0.00
    7    4   23      0.01      0.00
    7    4   24     -0.22      0.00
    7    4   25     -0.03      0.00
   -7   -5   17     -0.79      0.00
   -7   -5   16     -1.40      0.00
   -7   -5   15      0.46      0.00
   -7   -5   14     -0.64      0.00
   -7   -5   13      4.90      0.00
   -7   -5   12     -0.36      0.00
   -7   -5   11      8.24      0.00
   -7   -5   10     -0.20      0.00
   -7   -5    9      6.58      0.00
   -7   -5    8     -0.07      0.00
   -7   -5    7      1.25      0.00
   -7   -5    6      0.80      0.00
   -7   -5    5     -4.74      0.00
   -7   -5    4      3.01      0.00
   -7   -5    3     -8.50      0.00
   -7   -5    2      1.95      0.00
   -7   -5    1     -5.45      0.00
    7    5    0     -3.16      0.00
    7    5    1      3.57      0.00
    7    5    2     -4.60      0.00
    7    5    3      9.49      0.00
    7    5    4     -1.73      0.00
    7    5    5      7.19      0.00
    7    5    6     -0.14      0.00
    7    5    7      1.08      0.00
    7    5    8      0.77      0.00
    7    5    9     -2.35      0.00
    7    5   10      2.39      0.00
    7    5   11     -2.57      0.00
    7    5   12      3.25      0.00
    7    5   13     -2.87      0.00
    7    5   14      2.72      0.00
    7    5   15     -2.94      0.00
    7    5   16      0.60      0.00
    7    5   17     -1.87      0.00
    7    5   18     -1.48      0.00
    7    5   19     -0.78      0.00
    7    5   20     -1.06      0.00
    7    5   21     -0.02      0.00
    7    5   22      0.54      0.00
    7    5   23      0.24      0.00
    7    5   24      0.51      0.00
    7    5   25      0.21      0.00
   -7   -6   16     -0.78      0.00
   -7   -6   15     -2.63      0.00
   -7   -6   14     -1.36      0.00
   -7   -6   13     -2.69      0.00
   -7   -6   12     -2.34      0.00
   -7   -6   11      1.95      0.00
   -7   -6   10     -3.33      0.00
   -7   -6    9      7.96      0.00
   -7   -6    8     -3.24      0.00
   -7   -6    7     10.16      0.00
   -7   -6    6     -3.05      0.00
   -7   -6    5      7.48      0.00
   -7   -6    4     -2.19      0.00
   -7   -6    3      2.27      0.00
   -7   -6    2     -0.60      0.00
   -7   -6    1     -2.22      0.00
    7    6    0     -2.08      0.00
    7    6    1     -3.13      0.00
    7    6    2     -5.71      0.00
    7    6    3      0.11      0.00
    7    6    4     -6.31      0.00
    7    6    5      3.68      0.00
    7    6    6     -3.91      0.00
    7    6    7      3.90      0.00
    7    6    8     -2.14      0.00
    7    6    9      2.76      0.00
    7    6   10     -1.89      0.00
    7    6   11      3.01      0.00
    7    6   12     -1.72      0.00
    7    6   13      3.07      0.00
    7    6   14     -0.60      0.00
    7    6   15      1.54      0.00
    7    6   16      0.87      0.00
    7    6   17      0.06      0.00
    7    6   18      0.55      0.00
    7    6   19     -0.39      0.00
    7    6   20     -0.89      0.00
    7    6   21     -0.53      0.00
    7    6   22     -0.44      0.00
    7    6   23     -0.44      0.00
    7    6   24      0.70      0.00
    7    6   25     -0.01      0.00
   -7   -7   16      1.21      0.00
   -7   -7   15     -0.86      0.00
   -7   -7   14      1.93      0.00
   -7   -7   13     -4.71      0.00
   -7   -7   12      2.30      0.00
   -7   -7   11     -7.89      0.00
   -7   -7   10      1.33      0.00
   -7   -7    9     -6.20      0.00
   -7   -7    8     -0.13      0.00
   -7   -7    7     -0.22      0.00
   -7   -7    6     -0.97      0.00
   -7   -7    5      5.61      0.00
   -7   -7    4     -1.20      0.00
   -7   -7    3      7.04      0.00
   -7   -7    2      1.00      0.00
   -7   -7    1      3.88      0.00
    7    7    0      3.69      0.00
    7    7    1     -0.20      0.00
    7    7    2      2.11      0.00
    7    7    3     -1.98      0.00
    7    7    4     -1.72      0.00
    7    7    5     -1.00      0.00
    7    7    6     -3.47      0.00
    7    7    7      0.18      0.00
    7    7    8     -3.10      0.00
    7    7    9     -0.26      0.00
    7    7   10     -2.31      0.00
    7    7   11     -0.51      0.00
    7    7   12     -1.72      0.00
    7    7   13      0.20      0.00
    7    7   14     -1.26      0.00
    7    7   15      0.76      0.00
    7    7   16     -0.74      0.00
    7    7   17      1.18      0.00
    7    7   18      0.29      0.00
    7    7   19      1.29      0.00
    7    7   20      0.47      0.00
    7    7   21      0.57      0.00
    7    7   22     -0.49      0.00
    7    7   23     -0.40      0.00
    7    7   24     -0.36      0.00
   -7   -8   15      1.68      0.00
   -7   -8   14      0.29      0.00
   -7   -8   13      2.19      0.00
   -7   -8   12      1.65      0.00
   -7   -8   11     -0.82      0.00
   -7   -8   10      3.08      0.00
   -7   -8    9     -5.96      0.00
   -7   -8    8      2.84      0.00
   -7   -8    7     -8.64      0.00
   -7   -8    6      1.51      0.00
   -7   -8    5     -6.71      0.00
   -7   -8    4      0.65      0.00
   -7   -8    3     -2.63      0.00
   -7   -8    2      1.16      0.00
   -7   -8    1      0.51      0.00
    7    8    0      4.02      0.00
    7    8    1      1.46      0.00
    7    8    2      6.62      0.00
    7    8    3      0.66      0.00
    7    8    4      5.66      0.00
    7    8    5     -0.07      0.00
    7    8    6      3.50      0.00
    7    8    7      0.25      0.00
    7    8    8      2.50      0.00
    7    8    9      0.52      0.00
    7    8   10      1.45      0.00
    7    8   11     -0.04      0.00
    7    8   12      0.50      0.00
    7    8   13     -0.62      0.00
    7    8   14      0.65      0.00
    7    8   15     -0.93      0.00
    7    8   16      0.69      0.00
    7    8   17     -0.96      0.00
    7    8   18     -0.11      0.00
    7    8   19      0.01      0.00
    7    8   20     -0.48      0.00
    7    8   21      0.91      0.00
    7    8   22     -0.55      0.00
    7    8   23      0.79      0.00
    7    8   24     -1.08      0.00
   -7   -9   14     -1.77      0.00
   -7   -9   13      2.83      0.00
   -7   -9   12     -2.15      0.00
   -7   -9   11      4.73      0.00
   -7   -9   10     -0.72      0.00
   -7   -9    9      3.93      0.00
   -7   -9    8      1.18      0.00
   -7   -9    7      0.50      0.00
   -7   -9    6      1.68      0.00
   -7   -9    5     -3.00      0.00
   -7   -9    4      0.36      0.00
   -7   -9    3     -4.12      0.00
   -7   -9    2     -2.47      0.00
   -7   -9    1     -3.73      0.00
    7    9    0     -3.72      0.00
    7    9    1     -3.12      0.00
    7    9    2     -0.90      0.00
    7    9    3     -2.42      0.00
    7    9    4      2.09      0.00
    7    9    5     -2.01      0.00
    7    9    6      1.77      0.00
    7    9    7     -1.75      0.00
    7    9    8      0.98      0.00
    7    9    9     -1.18      0.00
    7    9   10      0.92      0.00
    7    9   11     -0.21      0.00
    7    9   12     -0.34      0.00
    7    9   13      0.28      0.00
    7    9   14     -1.04      0.00
    7    9   15     -0.10      0.00
    7    9   16      0.06      0.00
    7    9   17     -0.57      0.00
    7    9   18      0.49      0.00
    7    9   19     -0.66      0.00
    7    9   20     -0.03      0.00
    7    9   21     -0.16      0.00
    7    9   22      0.31      0.00
    7    9   23     -0.04      0.00
   -7  -10   12     -1.13      0.00
   -7  -10   11      0.69      0.00
   -7  -10   10     -2.79      0.00
   -7  -10    9      3.03      0.00
   -7  -10    8     -2.18      0.00
   -7  -10    7      4.27      0.00
   -7  -10    6     -0.78      0.00
   -7  -10    5      4.09      0.00
   -7  -10    4     -0.09      0.00
   -7  -10    3      3.16      0.00
   -7  -10    2     -0.45      0.00
   -7  -10    1      2.26      0.00
    7   10    0     -2.85      0.00
    7   10    1      0.86      0.00
    7   10    2     -4.69      0.00
    7   10    3     -0.43      0.00
    7   10    4     -2.94      0.00
    7   10    5     -0.57      0.00
    7   10    6     -0.06      0.00
    7   10    7     -0.70      0.00
    7   10    8      1.10      0.00
    7   10    9     -1.28      0.00
    7   10   10      1.39      0.00
    7   10   11     -1.16      0.00
    7   10   12      1.06      0.00
    7   10   13     -0.28      0.00
    7   10   14     -0.36      0.00
    7   10   15     -0.11      0.00
    7   10   16     -0.59      0.00
    7   10   17     -1.07      0.00
    7   10   18      0.86      0.00
    7   10   19     -1.71      0.00
    7   10   20      0.95      0.00
    7   10   21     -1.11      0.00
    7   10   22     -0.11      0.00
   -7  -11   11     -1.97      0.00
   -7  -11   10      0.48      0.00
   -7  -11    9     -1.99      0.00
   -7  -11    8     -0.67      0.00
   -7  -11    7     -0.75      0.00
   -7  -11    6     -0.65      0.00
   -7  -11    5      0.32      0.00
   -7  -11    4      0.39      0.00
   -7  -11    3      0.16      0.00
   -7  -11    2      1.75      0.00
   -7  -11    1      0.57      0.00
    7   11    0      1.72      0.00
    7   11    1      2.27      0.00
    7   11    2     -1.12      0.00
    7   11    3      2.76      0.00
    7   11    4     -3.93      0.00
    7   11    5      1.94      0.00
    7   11    6     -4.00      0.00
    7   11    7      1.80      0.00
    7   11    8     -2.43      0.00
    7   11    9      1.82      0.00
    7   11   10     -0.79      0.00
    7   11   11      1.65      0.00
    7   11   12      0.19      0.00
    7   11   13      1.98      0.00
    7   11   14      0.04      0.00
    7   11   15      2.20      0.00
    7   11   16     -1.30      0.00
    7   11   17      1.94      0.00
    7   11   18     -1.78      0.00
    7   11   19      1.09      0.00
    7   11   20     -0.50      0.00
    7   11   21      0.09      0.00
   -7  -12    9     -0.04      0.00
   -7  -12    8      0.28      0.00
   -7  -12    7     -1.00      0.00
   -7  -12    6     -0.30      0.00
   -7  -12    5     -1.14      0.00
   -7  -12    4     -0.25      0.00
   -7  -12    3     -0.60      0.00
   -7  -12    2      0.69      0.00
   -7  -12    1     -0.85      0.00
    7   12    0      2.59      0.00
    7   12    1     -0.80      0.00
    7   12    2      3.94      0.00
    7   12    3      0.41      0.00
    7   12    4      2.51      0.00
    7   12    5      1.31      0.00
    7   12    6     -0.52      0.00
    7   12    7      0.54      0.00
    7   12    8     -1.97      0.00
    7   12    9     -1.23      0.00
    7   12   10     -1.31      0.00
    7   12   11     -2.32      0.00
    7   12   12      0.14      0.00
    7   12   13     -1.86      0.00
    7   12   14      1.38      0.00
    7   12   15     -0.42      0.00
    7   12   16      1.49      0.00
    7   12   17      0.68      0.00
    7   12   18      0.37      0.00
    7   12   19      1.16      0.00
    7   12   20     -0.26      0.00
   -7  -13    7     -0.25      0.00
   -7  -13    6      0.87      0.00
   -7  -13    5     -0.46      0.00
   -7  -13    4     -0.53      0.00
   -7  -13    3     -0.52      0.00
   -7  -13    2     -0.79      0.00
   -7  -13    1     -1.39      0.00
    7   13    0      0.69      0.00
    7   13    1     -2.75      0.00
    7   13    2      2.63      0.00
    7   13    3     -2.65      0.00
    7   13    4      4.08      0.00
    7   13    5     -0.95      0.00
    7   13    6      4.06      0.00
    7   13    7      1.24      0.00
    7   13    8      2.27      0.00
    7   13    9      1.85      0.00
    7   13   10      0.18      0.00
    7   13   11      0.37      0.00
    7   13   12     -1.48      0.00
    7   13   13     -1.03      0.00
    7   13   14     -1.65      0.00
    7   13   15     -1.42      0.00
    7   13   16      0.25      0.00
    7   13   17     -1.02      0.00
    7   13   18      1.44      0.00
   -7  -14    5      0.87      0.00
   -7  -14    4     -1.11      0.00
   -7  -14    3      1.58      0.00
   -7  -14    2     -2.83      0.00
   -7  -14    1      2.43      0.00
    7   14    0     -4.01      0.00
    7   14    1      1.86      0.00
    7   14    2     -3.09      0.00
    7   14    3     -0.59      0.00
    7   14    4     -0.99      0.00
    7   14    5     -2.73      0.00
    7   14    6      0.48      0.00
    7   14    7     -2.36      0.00
    7   14    8      1.24      0.00
    7   14    9     -0.04      0.00
    7   14   10      1.86      0.00
    7   14   11      1.40      0.00
    7   14   12      1.67      0.00
    7   14   13      0.86      0.00
    7   14   14      0.03      0.00
    7   14   15     -0.44      0.00
    7   14   16     -1.17      0.00
   -7  -15    1     -0.08      0.00
    7   15    0      0.30      0.00
    7   15    1      1.01      0.00
    7   15    2     -1.37      0.00
    7   15    3      1.93      0.00
    7   15    4     -2.00      0.00
    7   15    5      1.33      0.00
    7   15    6     -1.40      0.00
    7   15    7     -0.69      0.00
    7   15    8     -1.09      0.00
    7   15    9     -1.72      0.00
    7   15   10     -0.62      0.00
    7   15   11     -0.81      0.00
    7   15   12      0.67      0.00
   -8   13    5      0.18      0.00
   -8   13    4     -0.01      0.00
   -8   13    3      0.60      0.00
   -8   13    2     -0.78      0.00
   -8   13    1      0.41      0.00
   -8   13    0     -0.65      0.00
    8  -13    1     -0.04      0.00
    8  -13    2     -0.17      0.00
    8  -13    3      0.53      0.00
    8  -13    4     -0.21      0.00
    8  -13    5      1.44      0.00
    8  -13    6     -0.06      0.00
    8  -13    7      1.14      0.00
    8  -13    8      0.63      0.00
   -8   12    8     -0.68      0.00
   -8   12    7      0.06      0.00
   -8   12    6     -0.11      0.00
   -8   12    5     -0.30      0.00
   -8   12    4      0.47      0.00
   -8   12    3     -0.20      0.00
   -8   12    2      0.26      0.00
   -8   12    1     -0.11      0.00
   -8   12    0     -0.34      0.00
    8  -12    1     -0.63      0.00
    8  -12    2     -0.55      0.00
    8  -12    3     -1.37      0.00
    8  -12    4     -0.58      0.00
    8  -12    5     -1.14      0.00
    8  -12    6     -0.90      0.00
    8  -12    7     -0.23      0.00
    8  -12    8     -1.03      0.00
    8  -12    9      0.65      0.00
    8  -12   10     -0.47      0.00
    8  -12   11      1.19      0.00
    8  -12   12      0.13      0.00
   -8   11   10      0.52      0.00
   -8   11    9     -0.61      0.00
   -8   11    8      0.46      0.00
   -8   11    7     -0.85      0.00
   -8   11    6      0.45      0.00
   -8   11    5     -1.12      0.00
   -8   11    4      0.82      0.00
   -8   11    3     -0.49      0.00
   -8   11    2      1.05      0.00
   -8   11    1      0.32      0.00
   -8   11    0      0.93      0.00
    8  -11    1      0.32      0.00
    8  -11    2      0.95      0.00
    8  -11    3     -0.45      0.00
    8  -11    4      1.04      0.00
    8  -11    5     -1.18      0.00
    8  -11    6      0.88      0.00
    8  -11    7     -1.76      0.00
    8  -11    8      0.51      0.00
    8  -11    9     -2.24      0.00
    8  -11   10      0.01      0.00
    8  -11   11     -1.72      0.00
    8  -11   12     -0.38      0.00
    8  -11   13     -0.65      0.00
    8  -11   14     -0.53      0.00
   -8   10   12     -0.09      0.00
   -8   10   11      0.41      0.00
   -8   10   10      0.45      0.00
   -8   10    9      0.60      0.00
   -8   10    8      0.25      0.00
   -8   10    7      0.78      0.00
   -8   10    6     -0.45      0.00
   -8   10    5     -0.41      0.00
   -8   10    4     -0.67      0.00
   -8   10    3     -1.70      0.00
   -8   10    2     -0.07      0.00
   -8   10    1     -0.95      0.00
   -8   10    0     -0.03      0.00
    8  -10    1      1.00      0.00
    8  -10    2     -0.59      0.00
    8  -10    3      1.89      0.00
    8  -10    4     -0.54      0.00
    8  -10    5      1.41      0.00
    8  -10    6      0.36      0.00
    8  -10    7      0.58      0.00
    8  -10    8      1.57      0.00
    8  -10    9     -0.33      0.00
    8  -10   10      1.89      0.00
    8  -10   11     -0.97      0.00
    8  -10   12      1.08      0.00
    8  -10   13     -0.59      0.00
    8  -10   14      0.05      0.00
    8  -10   15      0.14      0.00
    8  -10   16     -0.67      0.00
   -8    9   13     -0.24      0.00
   -8    9   12     -0.58      0.00
   -8    9   11     -0.31      0.00
   -8    9   10     -0.91      0.00
   -8    9    9     -0.11      0.00
   -8    9    8     -0.57      0.00
   -8    9    7      1.13      0.00
   -8    9    6      0.38      0.00
   -8    9    5      2.00      0.00
   -8    9    4      0.43      0.00
   -8    9    3      0.70      0.00
   -8    9    2      0.03      0.00
   -8    9    1     -1.66      0.00
   -8    9    0      0.87      0.00
    8   -9    1     -2.59      0.00
    8   -9    2      1.46      0.00
    8   -9    3     -1.25      0.00
    8   -9    4      0.39      0.00
    8   -9    5      0.81      0.00
    8   -9    6     -1.04      0.00
    8   -9    7      1.71      0.00
    8   -9    8     -1.22      0.00
    8   -9    9      1.24      0.00
    8   -9   10     -0.27      0.00
    8   -9   11     -0.07      0.00
    8   -9   12      0.65      0.00
    8   -9   13     -1.08      0.00
    8   -9   14      1.04      0.00
    8   -9   15     -0.88      0.00
    8   -9   16      0.78      0.00
    8   -9   17     -0.45      0.00
    8   -9   18      0.32      0.00
   -8    8   14     -0.37      0.00
   -8    8   13      0.47      0.00
   -8    8   12     -0.30      0.00
   -8    8   11      0.28      0.00
   -8    8   10     -0.68      0.00
   -8    8    9     -0.50      0.00
   -8    8    8     -2.02      0.00
   -8    8    7     -0.38      0.00
   -8    8    6     -3.11      0.00
   -8    8    5      1.99      0.00
   -8    8    4     -2.66      0.00
   -8    8    3      3.94      0.00
   -8    8    2     -1.87      0.00
   -8    8    1      2.82      0.00
   -8    8    0     -1.38      0.00
    8   -8    1      0.37      0.00
    8   -8    2     -0.54      0.00
    8   -8    3     -1.14      0.00
    8   -8    4     -0.11      0.00
    8   -8    5     -0.94      0.00
    8   -8    6     -0.73      0.00
    8   -8    7      0.31      0.00
    8   -8    8     -1.54      0.00
    8   -8    9      1.33      0.00
    8   -8   10     -1.66      0.00
    8   -8   11      1.54      0.00
    8   -8   12     -1.18      0.00
    8   -8   13      0.87      0.00
    8   -8   14     -0.48      0.00
    8   -8   15      0.28      0.00
    8   -8   16      0.05      0.00
    8   -8   17      0.45      0.00
    8   -8   18     -0.11      0.00
    8   -8   19      0.16      0.00
   -8    7   15     -0.74      0.00
   -8    7   14      1.02      0.00
   -8    7   13     -0.47      0.00
   -8    7   12      0.96      0.00
   -8    7   11      0.07      0.00
   -8    7   10      2.38      0.00
   -8    7    9     -0.21      0.00
   -8    7    8      3.56      0.00
   -8    7    7     -2.07      0.00
   -8    7    6      2.31      0.00
   -8    7    5     -3.48      0.00
   -8    7    4     -0.10      0.00
   -8    7    3     -1.24      0.00
   -8    7    2     -1.94      0.00
   -8    7    1      2.17      0.00
   -8    7    0     -2.82      0.00
    8   -7    1      2.55      0.00
    8   -7    2     -2.22      0.00
    8   -7    3      0.85      0.00
    8   -7    4     -1.14      0.00
    8   -7    5     -0.47      0.00
    8   -7    6     -1.21      0.00
    8   -7    7     -0.70      0.00
    8   -7    8     -1.61      0.00
    8   -7    9      0.13      0.00
    8   -7   10     -1.31      0.00
    8   -7   11      1.67      0.00
    8   -7   12     -0.88      0.00
    8   -7   13      2.54      0.00
    8   -7   14     -0.96      0.00
    8   -7   15      1.92      0.00
    8   -7   16     -1.11      0.00
    8   -7   17      1.41      0.00
    8   -7   18     -0.87      0.00
    8   -7   19      1.34      0.00
    8   -7   20     -0.46      0.00
    8   -7   21      0.47      0.00
   -8    6   16     -0.40      0.00
   -8    6   15      1.08      0.00
   -8    6   14      0.01      0.00
   -8    6   13      0.45      0.00
   -8    6   12     -0.50      0.00
   -8    6   11     -0.14      0.00
   -8    6   10     -0.68      0.00
   -8    6    9      0.25      0.00
   -8    6    8      1.41      0.00
   -8    6    7      0.47      0.00
   -8    6    6      4.53      0.00
   -8    6    5     -1.59      0.00
   -8    6    4      5.61      0.00
   -8    6    3     -3.82      0.00
   -8    6    2      4.84      0.00
   -8    6    1     -2.65      0.00
   -8    6    0      3.47      0.00
    8   -6    1     -0.24      0.00
    8   -6    2      2.61      0.00
    8   -6    3     -0.06      0.00
    8   -6    4      3.62      0.00
    8   -6    5     -1.34      0.00
    8   -6    6      4.74      0.00
    8   -6    7     -2.57      0.00
    8   -6    8      3.74      0.00
    8   -6    9     -3.58      0.00
    8   -6   10      1.83      0.00
    8   -6   11     -3.64      0.00
    8   -6   12      0.92      0.00
    8   -6   13     -2.53      0.00
    8   -6   14      1.08      0.00
    8   -6   15     -1.82      0.00
    8   -6   16      1.01      0.00
    8   -6   17     -1.42      0.00
    8   -6   18      0.17      0.00
    8   -6   19     -0.05      0.00
    8   -6   20     -0.42      0.00
    8   -6   21      0.64      0.00
    8   -6   22     -0.31      0.00
   -8    5   17     -1.47      0.00
   -8    5   16     -0.75      0.00
   -8    5   15     -1.30      0.00
   -8    5   14     -0.31      0.00
   -8    5   13     -0.22      0.00
   -8    5   12     -0.46      0.00
   -8    5   11      0.27      0.00
   -8    5   10     -2.47      0.00
   -8    5    9     -0.17      0.00
   -8    5    8     -4.88      0.00
   -8    5    7      0.11      0.00
   -8    5    6     -4.25      0.00
   -8    5    5      0.54      0.00
   -8    5    4     -1.11      0.00
   -8    5    3     -1.11      0.00
   -8    5    2      0.87      0.00
   -8    5    1     -3.08      0.00
   -8    5    0      1.21      0.00
    8   -5    1     -2.45      0.00
    8   -5    2      0.26      0.00
    8   -5    3     -0.42      0.00
    8   -5    4     -1.03      0.00
    8   -5    5      0.99      0.00
    8   -5    6     -0.03      0.00
    8   -5    7      1.66      0.00
    8   -5    8      2.38      0.00
    8   -5    9      1.22      0.00
    8   -5   10      2.82      0.00
    8   -5   11     -0.27      0.00
    8   -5   12      1.23      0.00
    8   -5   13     -1.11      0.00
    8   -5   14      0.28      0.00
    8   -5   15     -0.99      0.00
    8   -5   16      0.86      0.00
    8   -5   17     -1.41      0.00
    8   -5   18      1.40      0.00
    8   -5   19     -1.64      0.00
    8   -5   20      1.30      0.00
    8   -5   21     -0.64      0.00
    8   -5   22      1.21      0.00
   -8    4   17      0.92      0.00
   -8    4   16      0.44      0.00
   -8    4   15     -0.24      0.00
   -8    4   14      0.09      0.00
   -8    4   13     -0.43      0.00
   -8    4   12      0.92      0.00
   -8    4   11      0.76      0.00
   -8    4   10      1.52      0.00
   -8    4    9      2.08      0.00
   -8    4    8     -1.02      0.00
   -8    4    7      3.16      0.00
   -8    4    6     -5.63      0.00
   -8    4    5      4.37      0.00
   -8    4    4     -7.09      0.00
   -8    4    3      4.50      0.00
   -8    4    2     -5.12      0.00
   -8    4    1      2.42      0.00
   -8    4    0     -3.38      0.00
    8   -4    1      0.51      0.00
    8   -4    2     -2.91      0.00
    8   -4    3      0.70      0.00
    8   -4    4     -3.81      0.00
    8   -4    5      1.42      0.00
    8   -4    6     -5.02      0.00
    8   -4    7      1.73      0.00
    8   -4    8     -3.70      0.00
    8   -4    9      2.11      0.00
    8   -4   10     -0.41      0.00
    8   -4   11      2.00      0.00
    8   -4   12      0.94      0.00
    8   -4   13      1.36      0.00
    8   -4   14     -0.24      0.00
    8   -4   15      1.21      0.00
    8   -4   16     -0.94      0.00
    8   -4   17      1.10      0.00
    8   -4   18     -0.65      0.00
    8   -4   19      0.31      0.00
    8   -4   20     -0.78      0.00
    8   -4   21     -0.05      0.00
    8   -4   22     -0.50      0.00
    8   -4   23      0.07      0.00
   -8    3   17      0.95      0.00
   -8    3   16      0.55      0.00
   -8    3   15      0.72      0.00
   -8    3   14      0.33      0.00
   -8    3   13     -0.99      0.00
   -8    3   12      0.00      0.00
   -8    3   11     -2.47      0.00
   -8    3   10      2.38      0.00
   -8    3    9     -2.91      0.00
   -8    3    8      6.45      0.00
   -8    3    7     -2.04      0.00
   -8    3    6      7.06      0.00
   -8    3    5     -0.24      0.00
   -8    3    4      3.61      0.00
   -8    3    3      2.21      0.00
   -8    3    2      0.61      0.00
   -8    3    1      3.88      0.00
   -8    3    0      0.10      0.00
    8   -3    1      2.76      0.00
    8   -3    2      0.98      0.00
    8   -3    3      1.03      0.00
    8   -3    4      1.21      0.00
    8   -3    5      1.36      0.00
    8   -3    6     -1.11      0.00
    8   -3    7      1.84      0.00
    8   -3    8     -4.43      0.00
    8   -3    9      1.16      0.00
    8   -3   10     -4.74      0.00
    8   -3   11      0.76      0.00
    8   -3   12     -2.10      0.00
    8   -3   13      0.87      0.00
    8   -3   14     -0.65      0.00
    8   -3   15      0.92      0.00
    8   -3   16     -1.42      0.00
    8   -3   17      1.39      0.00
    8   -3   18     -1.65      0.00
    8   -3   19      1.42      0.00
    8   -3   20     -1.11      0.00
    8   -3   21      0.45      0.00
    8   -3   22     -1.28      0.00
    8   -3   23      0.01      0.00
    8   -3   24     -1.07      0.00
   -8    2   17     -0.59      0.00
   -8    2   16     -0.54      0.00
   -8    2   15      1.53      0.00
   -8    2   14     -0.25      0.00
   -8    2   13      2.60      0.00
   -8    2   12     -1.47      0.00
   -8    2   11      1.51      0.00
   -8    2   10     -3.23      0.00
   -8    2    9     -0.86      0.00
   -8    2    8     -2.37      0.00
   -8    2    7     -2.87      0.00
   -8    2    6      0.62      0.00
   -8    2    5     -3.47      0.00
   -8    2    4      1.86      0.00
   -8    2    3     -3.27      0.00
   -8    2    2      0.68      0.00
   -8    2    1     -2.25      0.00
   -8    2    0     -0.08      0.00
    8   -2    1     -1.65      0.00
    8   -2    2      1.27      0.00
    8   -2    3     -3.24      0.00
    8   -2    4      3.42      0.00
    8   -2    5     -4.00      0.00
    8   -2    6      3.90      0.00
    8   -2    7     -1.76      0.00
    8   -2    8      1.85      0.00
    8   -2    9     -0.01      0.00
    8   -2   10     -1.09      0.00
    8   -2   11     -0.32      0.00
    8   -2   12     -1.89      0.00
    8   -2   13     -0.59      0.00
    8   -2   14      0.10      0.00
    8   -2   15     -0.38      0.00
    8   -2   16      1.51      0.00
    8   -2   17     -0.08      0.00
    8   -2   18      0.82      0.00
    8   -2   19      0.82      0.00
    8   -2   20      0.11      0.00
    8   -2   21      1.39      0.00
    8   -2   22     -0.52      0.00
    8   -2   23      1.17      0.00
    8   -2   24     -1.60      0.00
   -8    1   17     -1.42      0.00
   -8    1   16     -0.07      0.00
   -8    1   15     -2.28      0.00
   -8    1   14      1.07      0.00
   -8    1   13     -0.79      0.00
   -8    1   12      2.52      0.00
   -8    1   11      1.62      0.00
   -8    1   10      2.11      0.00
   -8    1    9      2.28      0.00
   -8    1    8      0.74      0.00
   -8    1    7      0.42      0.00
   -8    1    6      0.98      0.00
   -8    1    5     -1.79      0.00
   -8    1    4      2.99      0.00
   -8    1    3     -2.77      0.00
   -8    1    2      3.67      0.00
   -8    1    1     -2.35      0.00
   -8    1    0      1.69      0.00
    8   -1    1     -0.73      0.00
    8   -1    2      0.67      0.00
    8   -1    3     -0.83      0.00
    8   -1    4      3.25      0.00
    8   -1    5     -4.33      0.00
    8   -1    6      6.39      0.00
    8   -1    7     -6.23      0.00
    8   -1    8      6.66      0.00
    8   -1    9     -3.53      0.00
    8   -1   10      4.46      0.00
    8   -1   11     -0.64      0.00
    8   -1   12      1.20      0.00
    8   -1   13     -0.56      0.00
    8   -1   14     -0.74      0.00
    8   -1   15     -1.52      0.00
    8   -1   16      0.13      0.00
    8   -1   17     -2.01      0.00
    8   -1   18      1.34      0.00
    8   -1   19     -2.09      0.00
    8   -1   20      1.85      0.00
    8   -1   21     -2.00      0.00
    8   -1   22      2.59      0.00
    8   -1   23     -1.72      0.00
    8   -1   24      2.22      0.00
    8   -1   25     -1.12      0.00
   -8    0   17      1.07      0.00
   -8    0   16     -0.31      0.00
   -8    0   15     -1.24      0.00
   -8    0   14     -1.75      0.00
   -8    0   13     -2.64      0.00
   -8    0   12     -2.31      0.00
   -8    0   11     -1.21      0.00
   -8    0   10     -2.08      0.00
   -8    0    9      1.70      0.00
   -8    0    8     -2.33      0.00
   -8    0    7      3.23      0.00
   -8    0    6     -3.01      0.00
   -8    0    5      2.83      0.00
   -8    0    4     -2.62      0.00
   -8    0    3      2.18      0.00
   -8    0    2     -0.29      0.00
   -8    0    1      2.58      0.00
    8    0    0     -0.10      0.00
    8    0    1      4.96      0.00
    8    0    2     -4.37      0.00
    8    0    3      7.98      0.00
    8    0    4     -6.95      0.00
    8    0    5      7.62      0.00
    8    0    6     -4.02      0.00
    8    0    7      2.81      0.00
    8    0    8      0.44      0.00
    8    0    9     -2.20      0.00
    8    0   10      3.29      0.00
    8    0   11     -3.15      0.00
    8    0   12      3.88      0.00
    8    0   13     -0.99      0.00
    8    0   14      1.75      0.00
    8    0   15      0.27      0.00
    8    0   16     -0.59      0.00
    8    0   17     -0.24      0.00
    8    0   18     -1.30      0.00
    8    0   19     -0.51      0.00
    8    0   20     -1.59      0.00
    8    0   21     -0.34      0.00
    8    0   22     -0.76      0.00
    8    0   23     -0.54      0.00
    8    0   24      0.80      0.00
    8    0   25     -0.47      0.00
   -8   -1   17      2.54      0.00
   -8   -1   16      0.08      0.00
   -8   -1   15      3.82      0.00
   -8   -1   14      0.46      0.00
   -8   -1   13      2.02      0.00
   -8   -1   12      0.00      0.00
   -8   -1   11     -0.89      0.00
   -8   -1   10     -0.63      0.00
   -8   -1    9     -1.74      0.00
   -8   -1    8     -1.19      0.00
   -8   -1    7     -0.29      0.00
   -8   -1    6     -2.00      0.00
   -8   -1    5      0.69      0.00
   -8   -1    4     -3.30      0.00
   -8   -1    3     -0.93      0.00
   -8   -1    2     -3.07      0.00
   -8   -1    1     -3.88      0.00
    8    1    0     -0.04      0.00
    8    1    1     -4.63      0.00
    8    1    2      0.11      0.00
    8    1    3     -1.30      0.00
    8    1    4     -5.55      0.00
    8    1    5      3.47      0.00
    8    1    6     -9.61      0.00
    8    1    7      6.18      0.00
    8    1    8     -8.09      0.00
    8    1    9      5.73      0.00
    8    1   10     -4.67      0.00
    8    1   11      2.84      0.00
    8    1   12     -1.29      0.00
    8    1   13      0.99      0.00
    8    1   14      1.16      0.00
    8    1   15      1.87      0.00
    8    1   16      1.51      0.00
    8    1   17      2.72      0.00
    8    1   18      0.50      0.00
    8    1   19      2.67      0.00
    8    1   20     -1.02      0.00
    8    1   21      2.38      0.00
    8    1   22     -2.02      0.00
    8    1   23      1.40      0.00
    8    1   24     -1.28      0.00
    8    1   25      0.45      0.00
   -8   -2   17     -1.95      0.00
   -8   -2   16     -0.43      0.00
   -8   -2   15     -0.29      0.00
   -8   -2   14      0.80      0.00
   -8   -2   13      1.85      0.00
   -8   -2   12      1.90      0.00
   -8   -2   11      1.85      0.00
   -8   -2   10      1.96      0.00
   -8   -2    9      0.63      0.00
   -8   -2    8      1.05      0.00
   -8   -2    7      0.62      0.00
   -8   -2    6      0.48      0.00
   -8   -2    5      2.55      0.00
   -8   -2    4      0.38      0.00
   -8   -2    3      4.34      0.00
   -8   -2    2     -0.23      0.00
   -8   -2    1      1.73      0.00
    8    2    0      1.53      0.00
    8    2    1     -4.64      0.00
    8    2    2      6.89      0.00
    8    2    3     -8.09      0.00
    8    2    4      8.91      0.00
    8    2    5     -5.93      0.00
    8    2    6      3.77      0.00
    8    2    7     -1.87      0.00
    8    2    8     -2.05      0.00
    8    2    9      1.16      0.00
    8    2   10     -3.51      0.00
    8    2   11      1.63      0.00
    8    2   12     -2.29      0.00
    8    2   13     -0.92      0.00
    8    2   14     -0.88      0.00
    8    2   15     -3.11      0.00
    8    2   16      0.21      0.00
    8    2   17     -3.14      0.00
    8    2   18      1.48      0.00
    8    2   19     -2.30      0.00
    8    2   20      1.95      0.00
    8    2   21     -0.66      0.00
    8    2   22      0.62      0.00
    8    2   23      0.37      0.00
    8    2   24     -0.63      0.00
    8    2   25     -0.12      0.00
   -8   -3   17     -1.43      0.00
   -8   -3   16     -0.18      0.00
   -8   -3   15     -2.72      0.00
   -8   -3   14     -1.17      0.00
   -8   -3   13     -2.43      0.00
   -8   -3   12     -0.67      0.00
   -8   -3   11     -1.12      0.00
   -8   -3   10      1.31      0.00
   -8   -3    9     -1.39      0.00
   -8   -3    8      3.33      0.00
   -8   -3    7     -3.38      0.00
   -8   -3    6      3.16      0.00
   -8   -3    5     -4.23      0.00
   -8   -3    4      1.20      0.00
   -8   -3    3     -0.30      0.00
   -8   -3    2     -1.50      0.00
   -8   -3    1      6.52      0.00
    8    3    0     -4.04      0.00
    8    3    1      7.75      0.00
    8    3    2     -2.58      0.00
    8    3    3      1.92      0.00
    8    3    4      3.63      0.00
    8    3    5     -3.31      0.00
    8    3    6      8.42      0.00
    8    3    7     -4.37      0.00
    8    3    8      6.79      0.00
    8    3    9     -2.34      0.00
    8    3   10      1.16      0.00
    8    3   11      1.39      0.00
    8    3   12     -2.64      0.00
    8    3   13      3.74      0.00
    8    3   14     -3.25      0.00
    8    3   15      3.20      0.00
    8    3   16     -2.90      0.00
    8    3   17      1.55      0.00
    8    3   18     -2.15      0.00
    8    3   19      0.01      0.00
    8    3   20     -0.64      0.00
    8    3   21     -0.63      0.00
    8    3   22      0.73      0.00
    8    3   23      0.05      0.00
    8    3   24      0.77      0.00
    8    3   25      0.48      0.00
   -8   -4   16      1.45      0.00
   -8   -4   15      0.16      0.00
   -8   -4   14      0.95      0.00
   -8   -4   13     -1.40      0.00
   -8   -4   12     -1.02      0.00
   -8   -4   11     -1.77      0.00
   -8   -4   10     -1.82      0.00
   -8   -4    9     -1.48      0.00
   -8   -4    8     -0.06      0.00
   -8   -4    7     -1.26      0.00
   -8   -4    6      2.49      0.00
   -8   -4    5     -2.87      0.00
   -8   -4    4      3.64      0.00
   -8   -4    3     -6.50      0.00
   -8   -4    2      2.99      0.00
   -8   -4    1     -6.10      0.00
    8    4    0     -0.02      0.00
    8    4    1      0.32      0.00
    8    4    2     -4.20      0.00
    8    4    3      4.24      0.00
    8    4    4     -5.06      0.00
    8    4    5      1.80      0.00
    8    4    6     -1.33      0.00
    8    4    7     -1.88      0.00
    8    4    8      3.52      0.00
    8    4    9     -3.90      0.00
    8    4   10      5.39      0.00
    8    4   11     -4.12      0.00
    8    4   12      3.81      0.00
    8    4   13     -2.83      0.00
    8    4   14      2.23      0.00
    8    4   15     -1.21      0.00
    8    4   16      1.72      0.00
    8    4   17      0.26      0.00
    8    4   18      0.85      0.00
    8    4   19      0.73      0.00
    8    4   20     -0.26      0.00
    8    4   21     -0.28      0.00
    8    4   22     -0.72      0.00
    8    4   23     -0.98      0.00
    8    4   24     -0.22      0.00
    8    4   25     -0.41      0.00
   -8   -5   16     -0.66      0.00
   -8   -5   15      2.20      0.00
   -8   -5   14      0.21      0.00
   -8   -5   13      2.57      0.00
   -8   -5   12     -0.18      0.00
   -8   -5   11      2.73      0.00
   -8   -5   10     -3.14      0.00
   -8   -5    9      2.99      0.00
   -8   -5    8     -5.32      0.00
   -8   -5    7      2.25      0.00
   -8   -5    6     -3.16      0.00
   -8   -5    5      1.38      0.00
   -8   -5    4      1.93      0.00
   -8   -5    3     -0.74      0.00
   -8   -5    2      5.55      0.00
   -8   -5    1     -4.56      0.00
    8    5    0      5.37      0.00
    8    5    1     -4.94      0.00
    8    5    2      2.18      0.00
    8    5    3      0.02      0.00
    8    5    4     -1.87      0.00
    8    5    5      4.59      0.00
    8    5    6     -3.93      0.00
    8    5    7      4.27      0.00
    8    5    8     -2.52      0.00
    8    5    9      0.95      0.00
    8    5   10      0.36      0.00
    8    5   11     -1.28      0.00
    8    5   12      1.45      0.00
    8    5   13     -1.28      0.00
    8    5   14      0.64      0.00
    8    5   15     -0.97      0.00
    8    5   16      0.29      0.00
    8    5   17     -1.08      0.00
    8    5   18      0.77      0.00
    8    5   19     -0.22      0.00
    8    5   20      0.73      0.00
    8    5   21      0.90      0.00
    8    5   22      0.05      0.00
    8    5   23      0.22      0.00
    8    5   24     -0.05      0.00
    8    5   25     -0.76      0.00
   -8   -6   15     -0.53      0.00
   -8   -6   14      0.31      0.00
   -8   -6   13     -0.01      0.00
   -8   -6   12      2.49      0.00
   -8   -6   11      0.52      0.00
   -8   -6   10      2.83      0.00
   -8   -6    9      2.20      0.00
   -8   -6    8     -0.94      0.00
   -8   -6    7      4.33      0.00
   -8   -6    6     -7.11      0.00
   -8   -6    5      6.21      0.00
   -8   -6    4    -10.95      0.00
   -8   -6    3      8.06      0.00
   -8   -6    2     -8.80      0.00
   -8   -6    1      6.52      0.00
    8    6    0     -3.13      0.00
    8    6    1      1.20      0.00
    8    6    2     -0.01      0.00
    8    6    3     -2.28      0.00
    8    6    4     -1.01      0.00
    8    6    5     -1.10      0.00
    8    6    6     -3.31      0.00
    8    6    7      2.56      0.00
    8    6    8     -4.30      0.00
    8    6    9      4.45      0.00
    8    6   10     -3.10      0.00
    8    6   11      3.05      0.00
    8    6   12     -1.16      0.00
    8    6   13      1.35      0.00
    8    6   14     -0.13      0.00
    8    6   15      0.93      0.00
    8    6   16     -0.08      0.00
    8    6   17      0.36      0.00
    8    6   18     -0.19      0.00
    8    6   19     -0.58      0.00
    8    6   20      0.42      0.00
    8    6   21      0.14      0.00
    8    6   22      0.79      0.00
    8    6   23      1.72      0.00
    8    6   24      0.27      0.00
   -8   -7   14     -0.68      0.00
   -8   -7   13     -2.07      0.00
   -8   -7   12      0.11      0.00
   -8   -7   11     -2.86      0.00
   -8   -7   10      3.38      0.00
   -8   -7    9     -3.45      0.00
   -8   -7    8      7.14      0.00
   -8   -7    7     -3.03      0.00
   -8   -7    6      7.89      0.00
   -8   -7    5     -2.41      0.00
   -8   -7    4      4.00      0.00
   -8   -7    3     -1.57      0.00
   -8   -7    2     -0.96      0.00
   -8   -7    1      0.62      0.00
    8    7    0     -2.13      0.00
    8    7    1      2.14      0.00
    8    7    2      0.49      0.00
    8    7    3      1.08      0.00
    8    7    4      2.64      0.00
    8    7    5     -1.27      0.00
    8    7    6      1.44      0.00
    8    7    7     -2.57      0.00
    8    7    8     -1.25      0.00
    8    7    9     -1.45      0.00
    8    7   10     -2.31      0.00
    8    7   11      0.33      0.00
    8    7   12     -1.89      0.00
    8    7   13      0.54      0.00
    8    7   14     -1.58      0.00
    8    7   15      0.16      0.00
    8    7   16     -1.16      0.00
    8    7   17      0.41      0.00
    8    7   18     -0.66      0.00
    8    7   19      0.25      0.00
    8    7   20     -0.77      0.00
    8    7   21     -0.61      0.00
    8    7   22     -0.65      0.00
    8    7   23     -0.21      0.00
    8    7   24     -0.13      0.00
   -8   -8   13      0.91      0.00
   -8   -8   12     -2.60      0.00
   -8   -8   11     -0.02      0.00
   -8   -8   10     -2.96      0.00
   -8   -8    9     -1.84      0.00
   -8   -8    8     -1.03      0.00
   -8   -8    7     -3.58      0.00
   -8   -8    6      2.93      0.00
   -8   -8    5     -3.91      0.00
   -8   -8    4      5.96      0.00
   -8   -8    3     -2.93      0.00
   -8   -8    2      4.43      0.00
   -8   -8    1     -1.51      0.00
    8    8    0      0.70      0.00
    8    8    1     -0.65      0.00
    8    8    2     -0.35      0.00
    8    8    3     -0.15      0.00
    8    8    4      2.06      0.00
    8    8    5      0.95      0.00
    8    8    6      4.35      0.00
    8    8    7      1.70      0.00
    8    8    8      3.32      0.00
    8    8    9      0.79      0.00
    8    8   10      1.27      0.00
    8    8   11      0.00      0.00
    8    8   12      0.92      0.00
    8    8   13      0.85      0.00
    8    8   14      0.83      0.00
    8    8   15      1.06      0.00
    8    8   16      0.24      0.00
    8    8   17     -0.09      0.00
    8    8   18      0.09      0.00
    8    8   19     -0.39      0.00
    8    8   20      0.01      0.00
    8    8   21     -0.43      0.00
    8    8   22     -0.78      0.00
    8    8   23     -1.14      0.00
   -8   -9   12      0.01      0.00
   -8   -9   11      2.31      0.00
   -8   -9   10     -2.24      0.00
   -8   -9    9      3.53      0.00
   -8   -9    8     -4.27      0.00
   -8   -9    7      2.49      0.00
   -8   -9    6     -4.16      0.00
   -8   -9    5      0.01      0.00
   -8   -9    4     -1.38      0.00
   -8   -9    3     -1.69      0.00
   -8   -9    2      2.15      0.00
   -8   -9    1     -2.07      0.00
    8    9    0      3.00      0.00
    8    9    1     -1.74      0.00
    8    9    2      0.79      0.00
    8    9    3     -2.52      0.00
    8    9    4     -1.27      0.00
    8    9    5     -4.25      0.00
    8    9    6     -0.12      0.00
    8    9    7     -4.19      0.00
    8    9    8      2.51      0.00
    8    9    9     -2.45      0.00
    8    9   10      2.63      0.00
    8    9   11     -1.86      0.00
    8    9   12      1.04      0.00
    8    9   13     -1.39      0.00
    8    9   14      0.22      0.00
    8    9   15      1.04      0.00
    8    9   16      0.16      0.00
    8    9   17      2.15      0.00
    8    9   18      0.68      0.00
    8    9   19      0.64      0.00
    8    9   20      1.39      0.00
    8    9   21      0.02      0.00
    8    9   22      1.30      0.00
    8    9   23      0.29      0.00
   -8  -10   11     -0.54      0.00
   -8  -10   10      1.69      0.00
   -8  -10    9      0.54      0.00
   -8  -10    8      0.01      0.00
   -8  -10    7      2.60      0.00
   -8  -10    6     -2.33      0.00
   -8  -10    5      3.50      0.00
   -8  -10    4     -3.47      0.00
   -8  -10    3      2.75      0.00
   -8  -10    2     -2.67      0.00
   -8  -10    1      1.98      0.00
    8   10    0     -1.08      0.00
    8   10    1      2.49      0.00
    8   10    2     -0.22      0.00
    8   10    3      3.76      0.00
    8   10    4     -0.85      0.00
    8   10    5      3.08      0.00
    8   10    6     -2.42      0.00
    8   10    7      0.64      0.00
    8   10    8     -2.88      0.00
    8   10    9     -0.41      0.00
    8   10   10     -1.26      0.00
    8   10   11     -1.03      0.00
    8   10   12      0.51      0.00
    8   10   13     -3.34      0.00
    8   10   14      0.50      0.00
    8   10   15     -4.43      0.00
    8   10   16     -0.56      0.00
    8   10   17     -2.17      0.00
    8   10   18     -1.04      0.00
    8   10   19     -0.42      0.00
    8   10   20     -0.42      0.00
    8   10   21     -0.79      0.00
    8   10   22      0.40      0.00
   -8  -11    9     -1.49      0.00
   -8  -11    8      1.80      0.00
   -8  -11    7     -1.28      0.00
   -8  -11    6      1.58      0.00
   -8  -11    5     -0.62      0.00
   -8  -11    4      0.22      0.00
   -8  -11    3     -0.44      0.00
   -8  -11    2     -1.33      0.00
   -8  -11    1     -0.87      0.00
    8   11    0     -2.01      0.00
    8   11    1     -1.27      0.00
    8   11    2     -1.90      0.00
    8   11    3     -0.32      0.00
    8   11    4     -1.17      0.00
    8   11    5      2.32      0.00
    8   11    6     -0.51      0.00
    8   11    7      3.68      0.00
    8   11    8     -0.59      0.00
    8   11    9      2.88      0.00
    8   11   10     -1.04      0.00
    8   11   11      2.66      0.00
    8   11   12     -0.49      0.00
    8   11   13      2.69      0.00
    8   11   14      0.66      0.00
    8   11   15      1.30      0.00
    8   11   16      0.12      0.00
    8   11   17      0.28      0.00
    8   11   18     -1.33      0.00
    8   11   19      0.71      0.00
    8   11   20     -1.57      0.00
   -8  -12    8      0.39      0.00
   -8  -12    7     -0.99      0.00
   -8  -12    6      1.57      0.00
   -8  -12    5     -0.37      0.00
   -8  -12    4      2.05      0.00
   -8  -12    3      0.73      0.00
   -8  -12    2      1.49      0.00
   -8  -12    1      0.47      0.00
    8   12    0      1.26      0.00
    8   12    1     -1.35      0.00
    8   12    2      1.32      0.00
    8   12    3     -3.16      0.00
    8   12    4      0.59      0.00
    8   12    5     -3.26      0.00
    8   12    6     -0.22      0.00
    8   12    7     -1.41      0.00
    8   12    8     -0.55      0.00
    8   12    9      0.62      0.00
    8   12   10     -0.74      0.00
    8   12   11      1.31      0.00
    8   12   12     -0.82      0.00
    8   12   13      1.43      0.00
    8   12   14     -0.11      0.00
    8   12   15      1.11      0.00
    8   12   16      1.26      0.00
    8   12   17     -0.05      0.00
    8   12   18      1.46      0.00
    8   12   19     -0.30      0.00
   -8  -13    5     -0.38      0.00
   -8  -13    4     -0.32      0.00
   -8  -13    3     -0.34      0.00
   -8  -13    2      0.75      0.00
   -8  -13    1      0.96      0.00
    8   13    0      0.73      0.00
    8   13    1      2.09      0.00
    8   13    2      0.80      0.00
    8   13    3      1.22      0.00
    8   13    4      2.12      0.00
    8   13    5     -1.28      0.00
    8   13    6      2.98      0.00
    8   13    7     -2.93      0.00
    8   13    8      2.01      0.00
    8   13    9     -2.60      0.00
    8   13   10      0.39      0.00
    8   13   11     -1.43      0.00
    8   13   12     -0.23      0.00
    8   13   13     -0.76      0.00
    8   13   14      0.05      0.00
    8   13   15     -0.24      0.00
    8   13   16      0.41      0.00
    8   13   17      0.16      0.00
   -8  -14    3     -1.43      0.00
   -8  -14    2     -0.87      0.00
   -8  -14    1     -0.83      0.00
    8   14    0     -0.87      0.00
    8   14    1      0.61      0.00
    8   14    2     -0.92      0.00
    8   14    3      1.89      0.00
    8   14    4     -1.36      0.00
    8   14    5      2.16      0.00
    8   14    6     -0.71      0.00
    8   14    7      1.00      0.00
    8   14    8      0.92      0.00
    8   14    9     -0.20      0.00
    8   14   10      1.11      0.00
    8   14   11     -0.84      0.00
    8   14   12     -0.14      0.00
    8   14   13     -1.07      0.00
    8   14   14     -1.29      0.00
    8   15    2     -0.17      0.00
    8   15    3      0.82      0.00
    8   15    4     -0.79      0.00
    8   15    8     -1.32      0.00
    8   15    9      0.71      0.00
    8   15   10      0.03      0.00
   -9   13    0      0.36      0.00
    9  -13    1      0.52      0.00
    9  -13    2      0.40      0.00
    9  -13    3      1.25      0.00
    9  -13    4      0.71      0.00
   -9   12    5     -0.05      0.00
   -9   12    4     -0.44      0.00
   -9   12    3     -0.49      0.00
   -9   12    2     -0.53      0.00
   -9   12    1     -0.42      0.00
   -9   12    0     -1.08      0.00
    9  -12    1     -0.37      0.00
    9  -12    2     -1.37      0.00
    9  -12    3     -0.61      0.00
    9  -12    4     -0.75      0.00
    9  -12    5     -0.95      0.00
    9  -12    6     -0.24      0.00
    9  -12    7     -1.09      0.00
    9  -12    8      0.01      0.00
    9  -12    9     -0.49      0.00
    9  -12   10      0.95      0.00
   -9   11    8      0.90      0.00
   -9   11    7     -0.15      0.00
   -9   11    6      0.70      0.00
   -9   11    5      0.56      0.00
   -9   11    4      0.96      0.00
   -9   11    3      0.29      0.00
   -9   11    2      1.42      0.00
   -9   11    1     -0.51      0.00
   -9   11    0      1.22      0.00
    9  -11    1     -0.53      0.00
    9  -11    2      0.09      0.00
    9  -11    3      0.06      0.00
    9  -11    4     -0.61      0.00
    9  -11    5      0.18      0.00
    9  -11    6     -0.32      0.00
    9  -11    7     -0.50      0.00
    9  -11    8     -0.53      0.00
    9  -11    9     -1.60      0.00
    9  -11   10     -0.83      0.00
    9  -11   11     -1.63      0.00
    9  -11   12     -0.19      0.00
    9  -11   13     -0.25      0.00
   -9   10   10     -0.54      0.00
   -9   10    9      0.23      0.00
   -9   10    8     -0.56      0.00
   -9   10    7     -0.38      0.00
   -9   10    6     -0.77      0.00
   -9   10    5     -0.74      0.00
   -9   10    4     -0.59      0.00
   -9   10    3     -0.20      0.00
   -9   10    2      0.28      0.00
   -9   10    1      0.16      0.00
   -9   10    0      1.38      0.00
    9  -10    1     -0.43      0.00
    9  -10    2      1.61      0.00
    9  -10    3     -0.50      0.00
    9  -10    4      0.54      0.00
    9  -10    5      0.28      0.00
    9  -10    6     -0.15      0.00
    9  -10    7      1.09      0.00
    9  -10    8      0.23      0.00
    9  -10    9      0.92      0.00
    9  -10   10      0.36      0.00
    9  -10   11     -0.78      0.00
    9  -10   12      0.38      0.00
    9  -10   13     -2.03      0.00
    9  -10   14      0.73      0.00
    9  -10   15     -1.57      0.00
   -9    9   11      0.03      0.00
   -9    9   10     -0.13      0.00
   -9    9    9      0.35      0.00
   -9    9    8      0.25      0.00
   -9    9    7      0.87      0.00
   -9    9    6      0.08      0.00
   -9    9    5      1.05      0.00
   -9    9    4     -1.13      0.00
   -9    9    3      0.76      0.00
   -9    9    2     -1.66      0.00
   -9    9    1      0.72      0.00
   -9    9    0     -0.47      0.00
    9   -9    1      0.35      0.00
    9   -9    2      1.12      0.00
    9   -9    3     -0.57      0.00
    9   -9    4      1.61      0.00
    9   -9    5     -1.01      0.00
    9   -9    6      0.55      0.00
    9   -9    7     -0.15      0.00
    9   -9    8     -0.89      0.00
    9   -9    9      1.62      0.00
    9   -9   10     -1.26      0.00
    9   -9   11      1.96      0.00
    9   -9   12     -0.92      0.00
    9   -9   13      0.24      0.00
    9   -9   14     -0.42      0.00
    9   -9   15     -1.18      0.00
    9   -9   16      0.15      0.00
    9   -9   17     -1.27      0.00
   -9    8   13      0.32      0.00
   -9    8   12     -0.33      0.00
   -9    8   11      0.16      0.00
   -9    8   10     -0.74      0.00
   -9    8    9     -0.50      0.00
   -9    8    8     -0.78      0.00
   -9    8    7     -0.56      0.00
   -9    8    6     -0.29      0.00
   -9    8    5      0.34      0.00
   -9    8    4     -0.17      0.00
   -9    8    3      0.78      0.00
   -9    8    2     -1.92      0.00
   -9    8    1      1.41      0.00
   -9    8    0     -3.66      0.00
    9   -8    1      2.42      0.00
    9   -8    2     -2.72      0.00
    9   -8    3      2.13      0.00
    9   -8    4     -0.29      0.00
    9   -8    5      0.82      0.00
    9   -8    6      1.31      0.00
    9   -8    7     -0.34      0.00
    9   -8    8      1.07      0.00
    9   -8    9     -0.38      0.00
    9   -8   10     -0.32      0.00
    9   -8   11      1.19      0.00
    9   -8   12     -1.30      0.00
    9   -8   13      2.46      0.00
    9   -8   14     -1.23      0.00
    9   -8   15      1.95      0.00
    9   -8   16     -0.33      0.00
    9   -8   17      0.68      0.00
    9   -8   18      0.41      0.00
    9   -8   19      0.03      0.00
   -9    7   14      0.78      0.00
   -9    7   13     -0.33      0.00
   -9    7   12      1.34      0.00
   -9    7   11      0.21      0.00
   -9    7   10      1.11      0.00
   -9    7    9      0.41      0.00
   -9    7    8      0.75      0.00
   -9    7    7     -1.05      0.00
   -9    7    6      1.07      0.00
   -9    7    5     -2.47      0.00
   -9    7    4      2.28      0.00
   -9    7    3     -2.28      0.00
   -9    7    2      2.31      0.00
   -9    7    1     -1.49      0.00
   -9    7    0     -0.74      0.00
    9   -7    1     -0.18      0.00
    9   -7    2     -3.96      0.00
    9   -7    3      1.08      0.00
    9   -7    4     -4.07      0.00
    9   -7    5      0.78      0.00
    9   -7    6     -1.92      0.00
    9   -7    7     -0.16      0.00
    9   -7    8     -0.02      0.00
    9   -7    9     -0.56      0.00
    9   -7   10      0.48      0.00
    9   -7   11     -0.59      0.00
    9   -7   12      0.16      0.00
    9   -7   13      0.08      0.00
    9   -7   14     -0.47      0.00
    9   -7   15      1.10      0.00
    9   -7   16     -0.89      0.00
    9   -7   17      1.32      0.00
    9   -7   18     -0.63      0.00
    9   -7   19      0.93      0.00
    9   -7   20     -0.54      0.00
   -9    6   14     -0.37      0.00
   -9    6   13     -0.77      0.00
   -9    6   12      0.14      0.00
   -9    6   11     -0.86      0.00
   -9    6   10      0.61      0.00
   -9    6    9      0.36      0.00
   -9    6    8      0.96      0.00
   -9    6    7      1.38      0.00
   -9    6    6      0.79      0.00
   -9    6    5      0.60      0.00
   -9    6    4      1.47      0.00
   -9    6    3     -1.43      0.00
   -9    6    2      4.92      0.00
   -9    6    1     -3.11      0.00
   -9    6    0      7.54      0.00
    9   -6    1     -3.73      0.00
    9   -6    2      5.82      0.00
    9   -6    3     -2.89      0.00
    9   -6    4      2.26      0.00
    9   -6    5     -1.70      0.00
    9   -6    6      0.22      0.00
    9   -6    7     -1.92      0.00
    9   -6    8      0.26      0.00
    9   -6    9     -2.47      0.00
    9   -6   10      1.08      0.00
    9   -6   11     -2.18      0.00
    9   -6   12      1.44      0.00
    9   -6   13     -1.80      0.00
    9   -6   14      1.12      0.00
    9   -6   15     -1.54      0.00
    9   -6   16      0.51      0.00
    9   -6   17     -1.29      0.00
    9   -6   18      0.46      0.00
    9   -6   19     -1.07      0.00
    9   -6   20      0.51      0.00
    9   -6   21     -0.49      0.00
   -9    5   15      0.74      0.00
   -9    5   14     -0.76      0.00
   -9    5   13      0.49      0.00
   -9    5   12     -1.30      0.00
   -9    5   11     -0.49      0.00
   -9    5   10     -1.86      0.00
   -9    5    9     -0.52      0.00
   -9    5    8     -2.65      0.00
   -9    5    7      1.09      0.00
   -9    5    6     -3.30      0.00
   -9    5    5      2.79      0.00
   -9    5    4     -4.23      0.00
   -9    5    3      2.37      0.00
   -9    5    2     -3.83      0.00
   -9    5    1      0.71      0.00
   -9    5    0     -0.77      0.00
    9   -5    1      0.14      0.00
    9   -5    2      1.72      0.00
    9   -5    3      0.65      0.00
    9   -5    4      1.75      0.00
    9   -5    5      1.36      0.00
    9   -5    6      0.90      0.00
    9   -5    7      1.43      0.00
    9   -5    8      0.11      0.00
    9   -5    9      0.41      0.00
    9   -5   10      0.06      0.00
    9   -5   11     -0.72      0.00
    9   -5   12      1.17      0.00
    9   -5   13     -0.99      0.00
    9   -5   14      2.05      0.00
    9   -5   15     -0.45      0.00
    9   -5   16      1.56      0.00
    9   -5   17     -0.02      0.00
    9   -5   18      0.73      0.00
    9   -5   19     -0.28      0.00
    9   -5   20      0.54      0.00
    9   -5   21     -0.60      0.00
    9   -5   22      0.45      0.00
   -9    4   15      0.25      0.00
   -9    4   14      0.48      0.00
   -9    4   13      1.06      0.00
   -9    4   12      1.09      0.00
   -9    4   11      0.69      0.00
   -9    4   10      1.43      0.00
   -9    4    9     -0.93      0.00
   -9    4    8      1.02      0.00
   -9    4    7     -2.18      0.00
   -9    4    6     -0.30      0.00
   -9    4    5     -0.58      0.00
   -9    4    4     -2.84      0.00
   -9    4    3      2.78      0.00
   -9    4    2     -5.95      0.00
   -9    4    1      3.96      0.00
   -9    4    0     -6.66      0.00
    9   -4    1      2.60      0.00
    9   -4    2     -3.82      0.00
    9   -4    3      1.12      0.00
    9   -4    4     -0.82      0.00
    9   -4    5      1.28      0.00
    9   -4    6      0.16      0.00
    9   -4    7      3.02      0.00
    9   -4    8     -0.11      0.00
    9   -4    9      4.02      0.00
    9   -4   10     -1.32      0.00
    9   -4   11      2.89      0.00
    9   -4   12     -2.41      0.00
    9   -4   13      0.87      0.00
    9   -4   14     -1.93      0.00
    9   -4   15     -0.19      0.00
    9   -4   16     -0.84      0.00
    9   -4   17      0.13      0.00
    9   -4   18     -0.36      0.00
    9   -4   19      0.61      0.00
    9   -4   20     -0.04      0.00
    9   -4   21      0.81      0.00
    9   -4   22      0.14      0.00
    9   -4   23      0.92      0.00
   -9    3   16     -0.43      0.00
   -9    3   15     -0.58      0.00
   -9    3   14     -1.01      0.00
   -9    3   13      0.14      0.00
   -9    3   12     -0.73      0.00
   -9    3   11      1.20      0.00
   -9    3   10      0.51      0.00
   -9    3    9      1.34      0.00
   -9    3    8      2.31      0.00
   -9    3    7     -0.34      0.00
   -9    3    6      4.30      0.00
   -9    3    5     -2.66      0.00
   -9    3    4      5.25      0.00
   -9    3    3     -2.70      0.00
   -9    3    2      4.01      0.00
   -9    3    1     -0.97      0.00
   -9    3    0      0.67      0.00
    9   -3    1      0.14      0.00
    9   -3    2     -2.71      0.00
    9   -3    3     -0.04      0.00
    9   -3    4     -3.77      0.00
    9   -3    5     -1.25      0.00
    9   -3    6     -2.65      0.00
    9   -3    7     -1.58      0.00
    9   -3    8     -0.86      0.00
    9   -3    9      0.57      0.00
    9   -3   10      0.16      0.00
    9   -3   11      2.80      0.00
    9   -3   12     -0.32      0.00
    9   -3   13      2.25      0.00
    9   -3   14     -1.24      0.00
    9   -3   15      0.10      0.00
    9   -3   16     -1.53      0.00
    9   -3   17     -1.05      0.00
    9   -3   18     -1.44      0.00
    9   -3   19     -0.83      0.00
    9   -3   20     -1.31      0.00
    9   -3   21     -0.04      0.00
    9   -3   22     -0.88      0.00
    9   -3   23      0.89      0.00
   -9    2   16      0.95      0.00
   -9    2   15     -0.36      0.00
   -9    2   14      0.61      0.00
   -9    2   13     -1.18      0.00
   -9    2   12     -0.65      0.00
   -9    2   11     -1.11      0.00
   -9    2   10     -1.87      0.00
   -9    2    9      0.29      0.00
   -9    2    8     -2.16      0.00
   -9    2    7      1.25      0.00
   -9    2    6     -0.72      0.00
   -9    2    5      0.12      0.00
   -9    2    4      1.68      0.00
   -9    2    3     -1.88      0.00
   -9    2    2      3.60      0.00
   -9    2    1     -2.49      0.00
   -9    2    0      4.17      0.00
    9   -2    1     -1.82      0.00
    9   -2    2      3.14      0.00
    9   -2    3     -1.36      0.00
    9   -2    4      1.68      0.00
    9   -2    5     -2.32      0.00
    9   -2    6      0.68      0.00
    9   -2    7     -4.32      0.00
    9   -2    8     -0.32      0.00
    9   -2    9     -4.26      0.00
    9   -2   10     -0.88      0.00
    9   -2   11     -0.52      0.00
    9   -2   12     -0.40      0.00
    9   -2   13      3.50      0.00
    9   -2   14      0.52      0.00
    9   -2   15      4.16      0.00
    9   -2   16      1.16      0.00
    9   -2   17      2.29      0.00
    9   -2   18      1.42      0.00
    9   -2   19      0.20      0.00
    9   -2   20      1.23      0.00
    9   -2   21     -1.15      0.00
    9   -2   22      0.33      0.00
    9   -2   23     -1.12      0.00
    9   -2   24     -0.70      0.00
   -9    1   16     -0.13      0.00
   -9    1   15      0.28      0.00
   -9    1   14      1.13      0.00
   -9    1   13     -0.04      0.00
   -9    1   12      1.50      0.00
   -9    1   11     -0.99      0.00
   -9    1   10      0.66      0.00
   -9    1    9     -1.02      0.00
   -9    1    8     -0.93      0.00
   -9    1    7      0.43      0.00
   -9    1    6     -2.01      0.00
   -9    1    5      1.60      0.00
   -9    1    4     -1.58      0.00
   -9    1    3      1.19      0.00
   -9    1    2     -0.05      0.00
   -9    1    1     -0.39      0.00
   -9    1    0      1.94      0.00
    9   -1    1     -0.98      0.00
    9   -1    2      2.95      0.00
    9   -1    3      0.75      0.00
    9   -1    4      2.84      0.00
    9   -1    5      2.21      0.00
    9   -1    6      3.48      0.00
    9   -1    7     -0.22      0.00
    9   -1    8      4.53      0.00
    9   -1    9     -5.95      0.00
    9   -1   10      4.01      0.00
    9   -1   11     -9.81      0.00
    9   -1   12      2.03      0.00
    9   -1   13     -8.13      0.00
    9   -1   14      0.31      0.00
    9   -1   15     -3.41      0.00
    9   -1   16     -0.09      0.00
    9   -1   17     -0.07      0.00
    9   -1   18      0.54      0.00
    9   -1   19      0.78      0.00
    9   -1   20      1.32      0.00
    9   -1   21      0.15      0.00
    9   -1   22      1.74      0.00
    9   -1   23     -1.14      0.00
    9   -1   24      1.75      0.00
   -9    0   16     -0.66      0.00
   -9    0   15      0.42      0.00
   -9    0   14     -1.23      0.00
   -9    0   13      0.78      0.00
   -9    0   12     -0.16      0.00
   -9    0   11      0.46      0.00
   -9    0   10      1.15      0.00
   -9    0    9     -0.52      0.00
   -9    0    8      0.98      0.00
   -9    0    7     -0.95      0.00
   -9    0    6     -0.51      0.00
   -9    0    5     -0.48      0.00
   -9    0    4     -1.74      0.00
   -9    0    3      0.50      0.00
   -9    0    2     -1.89      0.00
   -9    0    1      0.90      0.00
    9    0    0     -1.02      0.00
    9    0    1     -0.03      0.00
    9    0    2     -0.32      0.00
    9    0    3      0.40      0.00
    9    0    4     -1.69      0.00
    9    0    5      4.30      0.00
    9    0    6     -3.48      0.00
    9    0    7      8.38      0.00
    9    0    8     -2.59      0.00
    9    0    9      8.39      0.00
    9    0   10     -0.25      0.00
    9    0   11      4.09      0.00
    9    0   12      0.77      0.00
    9    0   13     -1.04      0.00
    9    0   14      0.11      0.00
    9    0   15     -3.29      0.00
    9    0   16     -1.12      0.00
    9    0   17     -2.26      0.00
    9    0   18     -1.82      0.00
    9    0   19     -0.27      0.00
    9    0   20     -1.57      0.00
    9    0   21      0.95      0.00
    9    0   22     -0.87      0.00
    9    0   23      1.13      0.00
    9    0   24     -0.30      0.00
   -9   -1   16      0.13      0.00
   -9   -1   15      0.67      0.00
   -9   -1   14     -0.87      0.00
   -9   -1   13      1.37      0.00
   -9   -1   12     -1.36      0.00
   -9   -1   11      2.11      0.00
   -9   -1   10     -0.53      0.00
   -9   -1    9      2.35      0.00
   -9   -1    8      0.11      0.00
   -9   -1    7      2.40      0.00
   -9   -1    6     -0.66      0.00
   -9   -1    5      2.05      0.00
   -9   -1    4     -2.48      0.00
   -9   -1    3      1.69      0.00
   -9   -1    2     -4.35      0.00
   -9   -1    1      2.09      0.00
    9    1    0     -4.01      0.00
    9    1    1      1.01      0.00
    9    1    2     -1.11      0.00
    9    1    3     -2.39      0.00
    9    1    4      0.46      0.00
    9    1    5     -3.91      0.00
    9    1    6     -1.73      0.00
    9    1    7     -0.51      0.00
    9    1    8     -4.43      0.00
    9    1    9      4.96      0.00
    9    1   10     -3.75      0.00
    9    1   11      7.71      0.00
    9    1   12     -0.36      0.00
    9    1   13      6.19      0.00
    9    1   14      2.49      0.00
    9    1   15      2.80      0.00
    9    1   16      2.62      0.00
    9    1   17      0.18      0.00
    9    1   18      0.85      0.00
    9    1   19     -1.01      0.00
    9    1   20     -0.71      0.00
    9    1   21     -0.64      0.00
    9    1   22     -1.54      0.00
    9    1   23      0.69      0.00
    9    1   24     -1.65      0.00
    9    1   25      1.01      0.00
   -9   -2   16      1.04      0.00
   -9   -2   15     -1.51      0.00
   -9   -2   14      0.99      0.00
   -9   -2   13     -1.57      0.00
   -9   -2   12     -0.02      0.00
   -9   -2   11     -1.39      0.00
   -9   -2   10     -0.44      0.00
   -9   -2    9     -1.29      0.00
   -9   -2    8      1.05      0.00
   -9   -2    7     -1.20      0.00
   -9   -2    6      3.44      0.00
   -9   -2    5     -0.52      0.00
   -9   -2    4      4.69      0.00
   -9   -2    3     -0.04      0.00
   -9   -2    2      2.76      0.00
   -9   -2    1      0.57      0.00
    9    2    0     -1.26      0.00
    9    2    1      1.64      0.00
    9    2    2     -1.96      0.00
    9    2    3      0.36      0.00
    9    2    4      1.75      0.00
    9    2    5     -3.94      0.00
    9    2    6      4.31      0.00
    9    2    7     -7.60      0.00
    9    2    8      2.41      0.00
    9    2    9     -7.03      0.00
    9    2   10     -1.87      0.00
    9    2   11     -2.51      0.00
    9    2   12     -4.72      0.00
    9    2   13      1.78      0.00
    9    2   14     -4.07      0.00
    9    2   15      2.86      0.00
    9    2   16     -1.21      0.00
    9    2   17      1.89      0.00
    9    2   18      0.90      0.00
    9    2   19      0.47      0.00
    9    2   20      1.32      0.00
    9    2   21     -0.91      0.00
    9    2   22      0.95      0.00
    9    2   23     -1.15      0.00
    9    2   24      0.18      0.00
    9    2   25     -0.13      0.00
   -9   -3   15     -0.45      0.00
   -9   -3   14      1.26      0.00
   -9   -3   13     -0.73      0.00
   -9   -3   12      1.48      0.00
   -9   -3   11     -0.93      0.00
   -9   -3   10      0.33      0.00
   -9   -3    9     -1.43      0.00
   -9   -3    8     -1.17      0.00
   -9   -3    7     -1.90      0.00
   -9   -3    6     -2.47      0.00
   -9   -3    5     -1.52      0.00
   -9   -3    4     -1.55      0.00
   -9   -3    3     -0.45      0.00
   -9   -3    2      1.54      0.00
   -9   -3    1      0.54      0.00
    9    3    0      1.50      0.00
    9    3    1      2.06      0.00
    9    3    2     -2.64      0.00
    9    3    3      4.00      0.00
    9    3    4     -4.04      0.00
    9    3    5      3.80      0.00
    9    3    6      0.03      0.00
    9    3    7      0.61      0.00
    9    3    8      4.44      0.00
    9    3    9     -3.35      0.00
    9    3   10      4.94      0.00
    9    3   11     -4.96      0.00
    9    3   12      2.20      0.00
    9    3   13     -3.19      0.00
    9    3   14     -0.77      0.00
    9    3   15     -0.68      0.00
    9    3   16     -1.84      0.00
    9    3   17      0.77      0.00
    9    3   18     -1.03      0.00
    9    3   19      1.53      0.00
    9    3   20      0.55      0.00
    9    3   21      1.24      0.00
    9    3   22      1.59      0.00
    9    3   23      0.19      0.00
    9    3   24      1.31      0.00
    9    3   25     -0.18      0.00
   -9   -4   15      0.35      0.00
   -9   -4   14     -1.04      0.00
   -9   -4   13      0.34      0.00
   -9   -4   12      0.09      0.00
   -9   -4   11      0.48      0.00
   -9   -4   10      0.97      0.00
   -9   -4    9      0.95      0.00
   -9   -4    8      1.45      0.00
   -9   -4    7      0.03      0.00
   -9   -4    6      2.41      0.00
   -9   -4    5     -3.33      0.00
   -9   -4    4      2.88      0.00
   -9   -4    3     -6.79      0.00
   -9   -4    2      4.19      0.00
   -9   -4    1     -7.51      0.00
    9    4    0      6.69      0.00
    9    4    1     -5.51      0.00
    9    4    2      5.75      0.00
    9    4    3     -2.14      0.00
    9    4    4      0.13      0.00
    9    4    5      1.70      0.00
    9    4    6     -4.43      0.00
    9    4    7      4.01      0.00
    9    4    8     -3.08      0.00
    9    4    9      2.86      0.00
    9    4   10      1.69      0.00
    9    4   11     -0.63      0.00
    9    4   12      4.02      0.00
    9    4   13     -3.07      0.00
    9    4   14      2.50      0.00
    9    4   15     -2.93      0.00
    9    4   16     -0.01      0.00
    9    4   17     -2.05      0.00
    9    4   18     -1.47      0.00
    9    4   19     -1.38      0.00
    9    4   20     -1.80      0.00
    9    4   21     -0.40      0.00
    9    4   22     -1.18      0.00
    9    4   23      0.07      0.00
    9    4   24     -0.08      0.00
    9    4   25     -0.35      0.00
   -9   -5   14     -1.02      0.00
   -9   -5   13      0.60      0.00
   -9   -5   12     -1.78      0.00
   -9   -5   11      0.14      0.00
   -9   -5   10     -1.72      0.00
   -9   -5    9      0.65      0.00
   -9   -5    8     -2.59      0.00
   -9   -5    7      3.25      0.00
   -9   -5    6     -3.85      0.00
   -9   -5    5      6.56      0.00
   -9   -5    4     -4.72      0.00
   -9   -5    3      6.93      0.00
   -9   -5    2     -5.41      0.00
   -9   -5    1      3.15      0.00
    9    5    0     -2.95      0.00
    9    5    1     -1.20      0.00
    9    5    2      2.62      0.00
    9    5    3     -2.60      0.00
    9    5    4      5.52      0.00
    9    5    5     -1.46      0.00
    9    5    6      3.05      0.00
    9    5    7      0.44      0.00
    9    5    8     -1.50      0.00
    9    5    9      2.34      0.00
    9    5   10     -2.82      0.00
    9    5   11      3.11      0.00
    9    5   12     -0.02      0.00
    9    5   13      1.90      0.00
    9    5   14      2.69      0.00
    9    5   15      0.13      0.00
    9    5   16      2.87      0.00
    9    5   17     -0.53      0.00
    9    5   18      1.61      0.00
    9    5   19     -0.88      0.00
    9    5   20      0.34      0.00
    9    5   21     -1.43      0.00
    9    5   22     -0.65      0.00
    9    5   23     -0.79      0.00
    9    5   24     -1.20      0.00
   -9   -6   14      1.25      0.00
   -9   -6   13      0.43      0.00
   -9   -6   12      0.74      0.00
   -9   -6   11      0.32      0.00
   -9   -6   10      0.66      0.00
   -9   -6    9     -0.80      0.00
   -9   -6    8      0.76      0.00
   -9   -6    7     -1.69      0.00
   -9   -6    6     -0.50      0.00
   -9   -6    5     -0.53      0.00
   -9   -6    4     -1.82      0.00
   -9   -6    3      3.02      0.00
   -9   -6    2     -3.26      0.00
   -9   -6    1      5.55      0.00
    9    6    0     -6.08      0.00
    9    6    1      4.11      0.00
    9    6    2     -7.06      0.00
    9    6    3      0.36      0.00
    9    6    4     -3.85      0.00
    9    6    5     -1.78      0.00
    9    6    6     -0.03      0.00
    9    6    7     -0.85      0.00
    9    6    8      0.35      0.00
    9    6    9      0.81      0.00
    9    6   10     -2.25      0.00
    9    6   11      1.55      0.00
    9    6   12     -3.48      0.00
    9    6   13      1.93      0.00
    9    6   14     -1.56      0.00
    9    6   15      2.10      0.00
    9    6   16      0.51      0.00
    9    6   17      2.09      0.00
    9    6   18      0.94      0.00
    9    6   19      2.19      0.00
    9    6   20      0.91      0.00
    9    6   21      1.52      0.00
    9    6   22      1.13      0.00
    9    6   23      0.08      0.00
    9    6   24      0.71      0.00
   -9   -7   13     -0.11      0.00
   -9   -7   12      0.69      0.00
   -9   -7   11      0.13      0.00
   -9   -7   10      1.31      0.00
   -9   -7    9     -0.63      0.00
   -9   -7    8      3.16      0.00
   -9   -7    7     -1.79      0.00
   -9   -7    6      4.73      0.00
   -9   -7    5     -3.34      0.00
   -9   -7    4      4.47      0.00
   -9   -7    3     -3.73      0.00
   -9   -7    2      3.54      0.00
   -9   -7    1     -0.34      0.00
    9    7    0      2.04      0.00
    9    7    1      3.82      0.00
    9    7    2     -0.48      0.00
    9    7    3      4.11      0.00
    9    7    4     -2.55      0.00
    9    7    5      0.88      0.00
    9    7    6     -2.35      0.00
    9    7    7     -1.96      0.00
    9    7    8     -0.35      0.00
    9    7    9     -1.93      0.00
    9    7   10      0.26      0.00
    9    7   11     -1.01      0.00
    9    7   12     -2.17      0.00
    9    7   13     -1.03      0.00
    9    7   14     -4.37      0.00
    9    7   15     -1.05      0.00
    9    7   16     -3.28      0.00
    9    7   17     -0.81      0.00
    9    7   18     -0.96      0.00
    9    7   19     -0.22      0.00
    9    7   20      0.09      0.00
    9    7   21      0.72      0.00
    9    7   22      0.76      0.00
    9    7   23      0.89      0.00
   -9   -8   12     -0.88      0.00
   -9   -8   11      0.06      0.00
   -9   -8   10     -1.83      0.00
   -9   -8    9      0.89      0.00
   -9   -8    8     -2.58      0.00
   -9   -8    7      0.61      0.00
   -9   -8    6     -0.98      0.00
   -9   -8    5     -0.71      0.00
   -9   -8    4      1.63      0.00
   -9   -8    3     -3.83      0.00
   -9   -8    2      3.27      0.00
   -9   -8    1     -7.07      0.00
    9    8    0      4.39      0.00
    9    8    1     -6.10      0.00
    9    8    2      4.99      0.00
    9    8    3     -1.38      0.00
    9    8    4      4.63      0.00
    9    8    5      2.09      0.00
    9    8    6      3.27      0.00
    9    8    7      1.36      0.00
    9    8    8      1.90      0.00
    9    8    9     -0.65      0.00
    9    8   10      2.19      0.00
    9    8   11     -0.10      0.00
    9    8   12      3.14      0.00
    9    8   13      1.06      0.00
    9    8   14      1.98      0.00
    9    8   15      0.50      0.00
    9    8   16     -0.70      0.00
    9    8   17     -0.38      0.00
    9    8   18     -1.73      0.00
    9    8   19     -0.79      0.00
    9    8   20     -1.28      0.00
    9    8   21     -0.67      0.00
    9    8   22     -1.15      0.00
    9    8   23     -0.18      0.00
   -9   -9   11     -0.39      0.00
   -9   -9   10     -0.26      0.00
   -9   -9    9      0.42      0.00
   -9   -9    8     -1.20      0.00
   -9   -9    7      1.57      0.00
   -9   -9    6     -3.37      0.00
   -9   -9    5      2.81      0.00
   -9   -9    4     -3.93      0.00
   -9   -9    3      3.39      0.00
   -9   -9    2     -2.32      0.00
   -9   -9    1      1.55      0.00
    9    9    0     -1.30      0.00
    9    9    1     -1.74      0.00
    9    9    2     -1.51      0.00
    9    9    3     -3.47      0.00
    9    9    4     -1.15      0.00
    9    9    5     -2.30      0.00
    9    9    6      0.63      0.00
    9    9    7     -0.30      0.00
    9    9    8      1.90      0.00
    9    9    9     -0.67      0.00
    9    9   10      1.52      0.00
    9    9   11     -2.24      0.00
    9    9   12      2.11      0.00
    9    9   13     -1.83      0.00
    9    9   14      4.34      0.00
    9    9   15     -0.15      0.00
    9    9   16      4.50      0.00
    9    9   17      0.82      0.00
    9    9   18      1.86      0.00
    9    9   19      0.72      0.00
    9    9   20      0.17      0.00
    9    9   21     -0.20      0.00
    9    9   22      0.13      0.00
   -9  -10    9     -0.69      0.00
   -9  -10    8      1.57      0.00
   -9  -10    7     -0.31      0.00
   -9  -10    6      1.06      0.00
   -9  -10    5      0.51      0.00
   -9  -10    4     -1.03      0.00
   -9  -10    3      2.01      0.00
   -9  -10    2     -2.19      0.00
   -9  -10    1      3.79      0.00
    9   10    0     -1.08      0.00
    9   10    1      4.09      0.00
    9   10    2     -0.15      0.00
    9   10    3      2.34      0.00
    9   10    4     -1.40      0.00
    9   10    5      0.05      0.00
    9   10    6     -3.42      0.00
    9   10    7     -0.21      0.00
    9   10    8     -3.12      0.00
    9   10    9      0.87      0.00
    9   10   10     -1.78      0.00
    9   10   11      0.54      0.00
    9   10   12     -2.86      0.00
    9   10   13     -1.11      0.00
    9   10   14     -3.61      0.00
    9   10   15     -2.22      0.00
    9   10   16     -1.07      0.00
    9   10   17     -1.70      0.00
    9   10   18      0.97      0.00
    9   10   19     -0.18      0.00
    9   10   20      0.23      0.00
    9   10   21      0.70      0.00
   -9  -11    8      0.95      0.00
   -9  -11    7     -1.40      0.00
   -9  -11    6      2.15      0.00
   -9  -11    5     -1.65      0.00
   -9  -11    4      2.05      0.00
   -9  -11    3     -1.14      0.00
   -9  -11    2      0.06      0.00
   -9  -11    1     -0.59      0.00
    9   11    0     -1.20      0.00
    9   11    1      0.02      0.00
    9   11    2     -0.23      0.00
    9   11    3      1.16      0.00
    9   11    4      1.22      0.00
    9   11    5      1.89      0.00
    9   11    6      0.73      0.00
    9   11    7      1.29      0.00
    9   11    8     -1.24      0.00
    9   11    9      1.17      0.00
    9   11   10     -1.51      0.00
    9   11   11      2.29      0.00
    9   11   12     -0.48      0.00
    9   11   13      2.98      0.00
    9   11   14     -1.27      0.00
    9   11   15      1.86      0.00
    9   11   16     -2.15      0.00
    9   11   17     -0.40      0.00
    9   11   18     -0.79      0.00
    9   11   19     -1.23      0.00
    9   11   20      0.30      0.00
   -9  -12    6     -0.76      0.00
   -9  -12    5      0.09      0.00
   -9  -12    4      0.63      0.00
   -9  -12    3     -0.64      0.00
   -9  -12    2      1.81      0.00
   -9  -12    1     -1.15      0.00
    9   12    0      1.13      0.00
    9   12    1     -1.37      0.00
    9   12    2     -0.51      0.00
    9   12    3     -1.38      0.00
    9   12    4     -0.43      0.00
    9   12    5     -1.08      0.00
    9   12    6      1.67      0.00
    9   12    7     -0.48      0.00
    9   12    8      2.26      0.00
    9   12    9     -0.30      0.00
    9   12   10      0.65      0.00
    9   12   11     -0.42      0.00
    9   12   12     -0.07      0.00
    9   12   13      0.16      0.00
    9   12   14      0.47      0.00
    9   12   15      1.29      0.00
    9   12   16      0.11      0.00
    9   12   17      1.40      0.00
    9   12   18     -0.64      0.00
   -9  -13    3     -0.37      0.00
   -9  -13    2      0.27      0.00
   -9  -13    1     -0.04      0.00
    9   13    0      0.31      0.00
    9   13    1      0.06      0.00
    9   13    2      0.38      0.00
    9   13    3     -0.58      0.00
    9   13    4     -0.26      0.00
    9   13    5     -1.15      0.00
    9   13    6     -0.49      0.00
    9   13    7     -1.46      0.00
    9   13    8      1.25      0.00
    9   13    9     -1.57      0.00
    9   13   10      2.72      0.00
    9   13   11     -1.34      0.00
    9   13   12      2.37      0.00
    9   13   13     -1.06      0.00
    9   13   14      1.38      0.00
    9   13   15     -0.36      0.00
    9   13   16      0.60      0.00
    9   14    0     -0.11      0.00
    9   14    1      0.09      0.00
    9   14    2     -0.01      0.00
    9   14    3      0.96      0.00
    9   14    4     -0.82      0.00
    9   14    5      1.74      0.00
    9   14    6     -2.01      0.00
    9   14    7      1.45      0.00
    9   14    8     -2.32      0.00
    9   14    9      0.43      0.00
    9   14   10     -1.39      0.00
    9   14   11     -0.23      0.00
    9   14   12     -0.54      0.00
  -10   12    0     -0.17      0.00
   10  -12    1     -0.76      0.00
   10  -12    2     -0.68      0.00
   10  -12    3     -0.68      0.00
   10  -12    4     -1.34      0.00
   10  -12    5      0.17      0.00
   10  -12    6     -1.20      0.00
  -10   11    5     -0.88      0.00
  -10   11    4      0.69      0.00
  -10   11    3     -1.10      0.00
  -10   11    2      0.01      0.00
  -10   11    1     -0.51      0.00
  -10   11    0      0.25      0.00
   10  -11    1     -0.23      0.00
   10  -11    2      0.97      0.00
   10  -11    3     -0.71      0.00
   10  -11    4      0.94      0.00
   10  -11    5     -0.74      0.00
   10  -11    6      0.14      0.00
   10  -11    7     -0.49      0.00
   10  -11    8     -0.76      0.00
   10  -11    9     -0.09      0.00
   10  -11   10     -0.95      0.00
   10  -11   11      0.94      0.00
  -10   10    7     -0.07      0.00
  -10   10    6      0.40      0.00
  -10   10    5      0.34      0.00
  -10   10    4      0.34      0.00
  -10   10    3      0.48      0.00
  -10   10    2     -0.01      0.00
  -10   10    1     -0.13      0.00
  -10   10    0     -0.20      0.00
   10  -10    1     -0.71      0.00
   10  -10    2      0.40      0.00
   10  -10    3     -0.86      0.00
   10  -10    4      0.93      0.00
   10  -10    5     -0.46      0.00
   10  -10    6      0.64      0.00
   10  -10    7      0.06      0.00
   10  -10    8      0.02      0.00
   10  -10    9     -0.34      0.00
   10  -10   10     -0.61      0.00
   10  -10   11     -1.29      0.00
   10  -10   12     -0.17      0.00
   10  -10   13     -1.59      0.00
  -10    9    9      0.62      0.00
  -10    9    8     -0.91      0.00
  -10    9    7      0.99      0.00
  -10    9    6     -0.28      0.00
  -10    9    5      1.22      0.00
  -10    9    4      0.42      0.00
  -10    9    3      1.57      0.00
  -10    9    2      0.77      0.00
  -10    9    1      2.06      0.00
  -10    9    0     -0.28      0.00
   10   -9    1      1.94      0.00
   10   -9    2     -1.28      0.00
   10   -9    3      0.54      0.00
   10   -9    4     -0.57      0.00
   10   -9    5     -0.92      0.00
   10   -9    6      0.42      0.00
   10   -9    7     -1.09      0.00
   10   -9    8      0.89      0.00
   10   -9    9     -0.15      0.00
   10   -9   10      0.21      0.00
   10   -9   11      1.16      0.00
   10   -9   12     -2.09      0.00
   10   -9   13      1.83      0.00
   10   -9   14     -3.02      0.00
   10   -9   15      1.24      0.00
   10   -9   16     -1.40      0.00
  -10    8   10     -0.48      0.00
  -10    8    9     -1.30      0.00
  -10    8    8     -1.48      0.00
  -10    8    7     -1.63      0.00
  -10    8    6     -1.51      0.00
  -10    8    5     -1.66      0.00
  -10    8    4     -1.28      0.00
  -10    8    3     -1.01      0.00
  -10    8    2     -0.86      0.00
  -10    8    1      0.61      0.00
  -10    8    0     -0.23      0.00
   10   -8    1      2.76      0.00
   10   -8    2     -0.62      0.00
   10   -8    3      3.83      0.00
   10   -8    4     -1.29      0.00
   10   -8    5      2.94      0.00
   10   -8    6     -0.92      0.00
   10   -8    7      1.08      0.00
   10   -8    8      0.06      0.00
   10   -8    9     -0.52      0.00
   10   -8   10      1.31      0.00
   10   -8   11     -1.05      0.00
   10   -8   12      1.71      0.00
   10   -8   13     -0.54      0.00
   10   -8   14      0.30      0.00
   10   -8   15      0.51      0.00
   10   -8   16     -1.17      0.00
   10   -8   17      1.41      0.00
  -10    7   12      1.81      0.00
  -10    7   11      1.18      0.00
  -10    7   10      2.26      0.00
  -10    7    9      1.38      0.00
  -10    7    8      1.59      0.00
  -10    7    7      0.54      0.00
  -10    7    6      0.51      0.00
  -10    7    5     -0.79      0.00
  -10    7    4     -0.30      0.00
  -10    7    3     -2.54      0.00
  -10    7    2     -0.36      0.00
  -10    7    1     -4.66      0.00
  -10    7    0      0.54      0.00
   10   -7    1     -4.59      0.00
   10   -7    2      0.98      0.00
   10   -7    3     -1.69      0.00
   10   -7    4     -0.03      0.00
   10   -7    5      1.27      0.00
   10   -7    6     -1.34      0.00
   10   -7    7      2.52      0.00
   10   -7    8     -1.70      0.00
   10   -7    9      1.68      0.00
   10   -7   10     -1.12      0.00
   10   -7   11     -0.01      0.00
   10   -7   12     -0.23      0.00
   10   -7   13     -0.63      0.00
   10   -7   14      0.29      0.00
   10   -7   15     -0.42      0.00
   10   -7   16      0.04      0.00
   10   -7   17      0.01      0.00
   10   -7   18     -0.43      0.00
   10   -7   19      0.38      0.00
  -10    6   12     -0.45      0.00
  -10    6   11     -0.59      0.00
  -10    6   10      0.97      0.00
  -10    6    9      0.16      0.00
  -10    6    8      2.09      0.00
  -10    6    7      1.70      0.00
  -10    6    6      2.25      0.00
  -10    6    5      2.52      0.00
  -10    6    4      2.25      0.00
  -10    6    3      2.41      0.00
  -10    6    2      2.14      0.00
  -10    6    1      0.52      0.00
  -10    6    0      2.01      0.00
   10   -6    1     -3.27      0.00
   10   -6    2      2.23      0.00
   10   -6    3     -5.61      0.00
   10   -6    4      2.35      0.00
   10   -6    5     -4.98      0.00
   10   -6    6      1.82      0.00
   10   -6    7     -2.70      0.00
   10   -6    8      1.06      0.00
   10   -6    9     -0.41      0.00
   10   -6   10      0.80      0.00
   10   -6   11      0.06      0.00
   10   -6   12      1.00      0.00
   10   -6   13     -1.08      0.00
   10   -6   14      1.35      0.00
   10   -6   15     -1.83      0.00
   10   -6   16      1.38      0.00
   10   -6   17     -1.35      0.00
   10   -6   18      0.76      0.00
   10   -6   19     -0.31      0.00
   10   -6   20      0.16      0.00
  -10    5   13     -0.17      0.00
  -10    5   12     -2.56      0.00
  -10    5   11     -1.01      0.00
  -10    5   10     -3.06      0.00
  -10    5    9     -1.88      0.00
  -10    5    8     -2.34      0.00
  -10    5    7     -1.62      0.00
  -10    5    6     -1.40      0.00
  -10    5    5     -0.02      0.00
  -10    5    4     -1.57      0.00
  -10    5    3      2.93      0.00
  -10    5    2     -2.46      0.00
  -10    5    1      5.95      0.00
  -10    5    0     -2.34      0.00
   10   -5    1      5.76      0.00
   10   -5    2     -0.81      0.00
   10   -5    3      2.29      0.00
   10   -5    4      0.87      0.00
   10   -5    5     -1.02      0.00
   10   -5    6      1.05      0.00
   10   -5    7     -2.32      0.00
   10   -5    8     -0.09      0.00
   10   -5    9     -1.77      0.00
   10   -5   10     -0.37      0.00
   10   -5   11     -0.05      0.00
   10   -5   12      0.49      0.00
   10   -5   13      1.21      0.00
   10   -5   14      1.20      0.00
   10   -5   15      0.69      0.00
   10   -5   16      1.48      0.00
   10   -5   17     -0.51      0.00
   10   -5   18      1.04      0.00
   10   -5   19     -0.78      0.00
   10   -5   20      0.28      0.00
   10   -5   21     -0.64      0.00
  -10    4   14      1.62      0.00
  -10    4   13      1.26      0.00
  -10    4   12      1.16      0.00
  -10    4   11      1.71      0.00
  -10    4   10      0.09      0.00
  -10    4    9      0.66      0.00
  -10    4    8     -0.78      0.00
  -10    4    7     -1.39      0.00
  -10    4    6     -1.06      0.00
  -10    4    5     -3.21      0.00
  -10    4    4     -0.94      0.00
  -10    4    3     -3.64      0.00
  -10    4    2     -1.51      0.00
  -10    4    1     -1.14      0.00
  -10    4    0     -2.53      0.00
   10   -4    1      3.19      0.00
   10   -4    2     -2.94      0.00
   10   -4    3      6.19      0.00
   10   -4    4     -2.43      0.00
   10   -4    5      6.27      0.00
   10   -4    6     -1.08      0.00
   10   -4    7      3.95      0.00
   10   -4    8     -0.74      0.00
   10   -4    9      0.95      0.00
   10   -4   10     -2.35      0.00
   10   -4   11     -0.57      0.00
   10   -4   12     -3.52      0.00
   10   -4   13      0.10      0.00
   10   -4   14     -2.84      0.00
   10   -4   15      1.19      0.00
   10   -4   16     -1.24      0.00
   10   -4   17      1.04      0.00
   10   -4   18      0.01      0.00
   10   -4   19      0.47      0.00
   10   -4   20      0.07      0.00
   10   -4   21      0.41      0.00
   10   -4   22     -0.31      0.00
  -10    3   14      0.13      0.00
  -10    3   13     -0.64      0.00
  -10    3   12      1.00      0.00
  -10    3   11      0.75      0.00
  -10    3   10      1.40      0.00
  -10    3    9      2.33      0.00
  -10    3    8      1.41      0.00
  -10    3    7      2.59      0.00
  -10    3    6      1.81      0.00
  -10    3    5      0.57      0.00
  -10    3    4      2.88      0.00
  -10    3    3     -3.19      0.00
  -10    3    2      3.17      0.00
  -10    3    1     -5.97      0.00
  -10    3    0      1.84      0.00
   10   -3    1     -5.62      0.00
   10   -3    2      0.35      0.00
   10   -3    3     -3.46      0.00
   10   -3    4     -0.17      0.00
   10   -3    5     -1.31      0.00
   10   -3    6      0.64      0.00
   10   -3    7      0.96      0.00
   10   -3    8      2.25      0.00
   10   -3    9      2.60      0.00
   10   -3   10      2.41      0.00
   10   -3   11      2.02      0.00
   10   -3   12      0.14      0.00
   10   -3   13      0.68      0.00
   10   -3   14     -2.40      0.00
   10   -3   15      0.48      0.00
   10   -3   16     -3.03      0.00
   10   -3   17      0.62      0.00
   10   -3   18     -2.04      0.00
   10   -3   19      0.40      0.00
   10   -3   20     -0.79      0.00
   10   -3   21      0.08      0.00
   10   -3   22      0.11      0.00
  -10    2   14     -0.67      0.00
  -10    2   13     -1.52      0.00
  -10    2   12     -0.41      0.00
  -10    2   11     -1.92      0.00
  -10    2   10     -0.27      0.00
  -10    2    9     -1.20      0.00
  -10    2    8     -0.78      0.00
  -10    2    7      0.76      0.00
  -10    2    6     -1.79      0.00
  -10    2    5      3.39      0.00
  -10    2    4     -1.72      0.00
  -10    2    3      4.45      0.00
  -10    2    2     -0.26      0.00
  -10    2    1      2.15      0.00
  -10    2    0      0.75      0.00
   10   -2    1     -1.96      0.00
   10   -2    2      0.39      0.00
   10   -2    3     -4.27      0.00
   10   -2    4     -1.15      0.00
   10   -2    5     -4.00      0.00
   10   -2    6     -2.48      0.00
   10   -2    7     -2.95      0.00
   10   -2    8     -0.84      0.00
   10   -2    9     -1.40      0.00
   10   -2   10      3.59      0.00
   10   -2   11      0.20      0.00
   10   -2   12      6.31      0.00
   10   -2   13      0.69      0.00
   10   -2   14      4.63      0.00
   10   -2   15      0.71      0.00
   10   -2   16      1.32      0.00
   10   -2   17      0.62      0.00
   10   -2   18     -0.29      0.00
   10   -2   19      0.12      0.00
   10   -2   20     -0.36      0.00
   10   -2   21     -0.22      0.00
   10   -2   22     -0.06      0.00
   10   -2   23     -0.51      0.00
  -10    1   14      0.55      0.00
  -10    1   13      0.53      0.00
  -10    1   12      0.20      0.00
  -10    1   11     -0.89      0.00
  -10    1   10      0.52      0.00
  -10    1    9     -2.15      0.00
  -10    1    8      1.33      0.00
  -10    1    7     -2.49      0.00
  -10    1    6      1.35      0.00
  -10    1    5     -1.92      0.00
  -10    1    4      0.83      0.00
  -10    1    3     -0.22      0.00
  -10    1    2      1.37      0.00
  -10    1    1      2.06      0.00
  -10    1    0      2.63      0.00
   10   -1    1      2.41      0.00
   10   -1    2      3.36      0.00
   10   -1    3      0.14      0.00
   10   -1    4      2.88      0.00
   10   -1    5     -2.16      0.00
   10   -1    6      0.22      0.00
   10   -1    7     -3.73      0.00
   10   -1    8     -3.72      0.00
   10   -1    9     -5.18      0.00
   10   -1   10     -4.93      0.00
   10   -1   11     -5.40      0.00
   10   -1   12     -1.46      0.00
   10   -1   13     -4.36      0.00
   10   -1   14      2.66      0.00
   10   -1   15     -3.10      0.00
   10   -1   16      3.42      0.00
   10   -1   17     -1.55      0.00
   10   -1   18      1.79      0.00
   10   -1   19      0.07      0.00
   10   -1   20      0.20      0.00
   10   -1   21      0.90      0.00
   10   -1   22     -0.03      0.00
   10   -1   23      0.70      0.00
  -10    0   14     -0.41      0.00
  -10    0   13      1.08      0.00
  -10    0   12     -0.72      0.00
  -10    0   11      1.19      0.00
  -10    0   10     -1.33      0.00
  -10    0    9      0.19      0.00
  -10    0    8     -1.47      0.00
  -10    0    7     -0.54      0.00
  -10    0    6     -1.24      0.00
  -10    0    5     -0.48      0.00
  -10    0    4     -1.56      0.00
  -10    0    3     -0.30      0.00
  -10    0    2     -2.46      0.00
  -10    0    1      1.16      0.00
   10    0    0     -2.68      0.00
   10    0    1      4.14      0.00
   10    0    2     -0.87      0.00
   10    0    3      5.91      0.00
   10    0    4      2.24      0.00
   10    0    5      6.11      0.00
   10    0    6      3.84      0.00
   10    0    7      6.47      0.00
   10    0    8      1.58      0.00
   10    0    9      5.88      0.00
   10    0   10     -3.47      0.00
   10    0   11      3.01      0.00
   10    0   12     -6.09      0.00
   10    0   13     -0.27      0.00
   10    0   14     -3.63      0.00
   10    0   15     -1.70      0.00
   10    0   16      0.05      0.00
   10    0   17     -1.34      0.00
   10    0   18      1.72      0.00
   10    0   19     -0.59      0.00
   10    0   20      1.50      0.00
   10    0   21      0.00      0.00
   10    0   22     -0.10      0.00
   10    0   23      0.65      0.00
   10    0   24     -1.29      0.00
  -10   -1   14      0.13      0.00
  -10   -1   13      0.41      0.00
  -10   -1   12      0.12      0.00
  -10   -1   11      1.93      0.00
  -10   -1   10      0.08      0.00
  -10   -1    9      2.55      0.00
  -10   -1    8     -0.02      0.00
  -10   -1    7      1.29      0.00
  -10   -1    6     -0.26      0.00
  -10   -1    5     -0.09      0.00
  -10   -1    4     -0.72      0.00
  -10   -1    3     -1.09      0.00
  -10   -1    2     -1.41      0.00
  -10   -1    1     -2.28      0.00
   10    1    0     -2.95      0.00
   10    1    1     -2.23      0.00
   10    1    2     -4.43      0.00
   10    1    3     -1.28      0.00
   10    1    4     -3.14      0.00
   10    1    5     -1.14      0.00
   10    1    6      0.93      0.00
   10    1    7     -0.27      0.00
   10    1    8      4.94      0.00
   10    1    9      2.90      0.00
   10    1   10      5.21      0.00
   10    1   11      6.16      0.00
   10    1   12      0.57      0.00
   10    1   13      6.35      0.00
   10    1   14     -4.03      0.00
   10    1   15      3.62      0.00
   10    1   16     -4.30      0.00
   10    1   17      0.54      0.00
   10    1   18     -2.28      0.00
   10    1   19     -0.85      0.00
   10    1   20     -0.69      0.00
   10    1   21     -0.67      0.00
   10    1   22      0.03      0.00
   10    1   23     -0.49      0.00
   10    1   24     -0.17      0.00
  -10   -2   14      0.77      0.00
  -10   -2   13     -1.58      0.00
  -10   -2   12      1.03      0.00
  -10   -2   11     -1.52      0.00
  -10   -2   10      1.01      0.00
  -10   -2    9     -0.24      0.00
  -10   -2    8      1.46      0.00
  -10   -2    7      1.16      0.00
  -10   -2    6      1.71      0.00
  -10   -2    5      2.35      0.00
  -10   -2    4      1.25      0.00
  -10   -2    3      2.62      0.00
  -10   -2    2      1.32      0.00
  -10   -2    1      1.27      0.00
   10    2    0      1.40      0.00
   10    2    1      0.12      0.00
   10    2    2     -0.78      0.00
   10    2    3      0.14      0.00
   10    2    4     -3.97      0.00
   10    2    5     -1.17      0.00
   10    2    6     -4.60      0.00
   10    2    7     -4.75      0.00
   10    2    8     -1.80      0.00
   10    2    9     -7.06      0.00
   10    2   10      2.66      0.00
   10    2   11     -4.95      0.00
   10    2   12      5.10      0.00
   10    2   13     -0.42      0.00
   10    2   14      3.31      0.00
   10    2   15      2.31      0.00
   10    2   16      0.14      0.00
   10    2   17      2.18      0.00
   10    2   18     -1.26      0.00
   10    2   19      0.54      0.00
   10    2   20     -0.91      0.00
   10    2   21     -0.86      0.00
   10    2   22      0.27      0.00
   10    2   23     -0.98      0.00
   10    2   24      1.02      0.00
  -10   -3   14     -0.57      0.00
  -10   -3   13     -0.21      0.00
  -10   -3   12     -0.19      0.00
  -10   -3   11     -1.22      0.00
  -10   -3   10     -0.19      0.00
  -10   -3    9     -1.68      0.00
  -10   -3    8     -0.55      0.00
  -10   -3    7     -2.18      0.00
  -10   -3    6      0.24      0.00
  -10   -3    5     -3.18      0.00
  -10   -3    4      1.62      0.00
  -10   -3    3     -3.00      0.00
  -10   -3    2      2.42      0.00
  -10   -3    1     -2.26      0.00
   10    3    0      3.50      0.00
   10    3    1     -2.02      0.00
   10    3    2      4.31      0.00
   10    3    3     -0.44      0.00
   10    3    4      2.69      0.00
   10    3    5      2.76      0.00
   10    3    6     -1.13      0.00
   10    3    7      4.27      0.00
   10    3    8     -4.27      0.00
   10    3    9      1.20      0.00
   10    3   10     -3.97      0.00
   10    3   11     -3.75      0.00
   10    3   12     -0.35      0.00
   10    3   13     -4.83      0.00
   10    3   14      2.95      0.00
   10    3   15     -1.82      0.00
   10    3   16      3.19      0.00
   10    3   17      1.06      0.00
   10    3   18      1.83      0.00
   10    3   19      1.97      0.00
   10    3   20      0.42      0.00
   10    3   21      1.58      0.00
   10    3   22     -0.74      0.00
   10    3   23      0.83      0.00
   10    3   24     -0.66      0.00
  -10   -4   13      1.10      0.00
  -10   -4   12     -0.31      0.00
  -10   -4   11      0.91      0.00
  -10   -4   10      0.08      0.00
  -10   -4    9      0.44      0.00
  -10   -4    8      0.40      0.00
  -10   -4    7      0.41      0.00
  -10   -4    6      0.32      0.00
  -10   -4    5      0.16      0.00
  -10   -4    4     -0.09      0.00
  -10   -4    3     -0.38      0.00
  -10   -4    2     -0.26      0.00
  -10   -4    1     -0.92      0.00
   10    4    0      0.51      0.00
   10    4    1     -2.71      0.00
   10    4    2      2.13      0.00
   10    4    3     -4.70      0.00
   10    4    4      3.45      0.00
   10    4    5     -3.91      0.00
   10    4    6      3.39      0.00
   10    4    7     -0.27      0.00
   10    4    8      1.60      0.00
   10    4    9      3.02      0.00
   10    4   10     -1.27      0.00
   10    4   11      1.96      0.00
   10    4   12     -3.27      0.00
   10    4   13     -2.43      0.00
   10    4   14     -2.75      0.00
   10    4   15     -4.72      0.00
   10    4   16     -0.96      0.00
   10    4   17     -3.33      0.00
   10    4   18     -0.01      0.00
   10    4   19     -0.86      0.00
   10    4   20      0.52      0.00
   10    4   21      0.45      0.00
   10    4   22      0.83      0.00
   10    4   23      0.58      0.00
   10    4   24      0.31      0.00
  -10   -5   13     -0.14      0.00
  -10   -5   12     -0.80      0.00
  -10   -5   11      0.66      0.00
  -10   -5   10     -1.18      0.00
  -10   -5    9      0.88      0.00
  -10   -5    8     -1.57      0.00
  -10   -5    7      1.24      0.00
  -10   -5    6     -1.97      0.00
  -10   -5    5      2.46      0.00
  -10   -5    4     -2.31      0.00
  -10   -5    3      3.36      0.00
  -10   -5    2     -2.76      0.00
  -10   -5    1      3.89      0.00
   10    5    0     -2.68      0.00
   10    5    1      4.20      0.00
   10    5    2     -1.47      0.00
   10    5    3      2.25      0.00
   10    5    4      0.84      0.00
   10    5    5     -1.69      0.00
   10    5    6      3.01      0.00
   10    5    7     -3.40      0.00
   10    5    8      3.30      0.00
   10    5    9     -0.24      0.00
   10    5   10      2.33      0.00
   10    5   11      4.65      0.00
   10    5   12      1.24      0.00
   10    5   13      5.39      0.00
   10    5   14     -0.02      0.00
   10    5   15      1.57      0.00
   10    5   16     -0.64      0.00
   10    5   17     -1.94      0.00
   10    5   18     -0.60      0.00
   10    5   19     -2.68      0.00
   10    5   20     -0.76      0.00
   10    5   21     -1.70      0.00
   10    5   22     -0.57      0.00
   10    5   23     -0.71      0.00
   10    5   24     -0.11      0.00
  -10   -6   12      0.80      0.00
  -10   -6   11     -0.60      0.00
  -10   -6   10      0.73      0.00
  -10   -6    9     -0.19      0.00
  -10   -6    8      0.69      0.00
  -10   -6    7     -1.06      0.00
  -10   -6    6      0.40      0.00
  -10   -6    5     -1.78      0.00
  -10   -6    4     -0.23      0.00
  -10   -6    3     -0.65      0.00
  -10   -6    2     -1.64      0.00
  -10   -6    1      1.31      0.00
   10    6    0     -4.10      0.00
   10    6    1      3.56      0.00
   10    6    2     -6.06      0.00
   10    6    3      5.59      0.00
   10    6    4     -6.45      0.00
   10    6    5      5.28      0.00
   10    6    6     -4.92      0.00
   10    6    7      1.81      0.00
   10    6    8     -2.05      0.00
   10    6    9     -1.94      0.00
   10    6   10      0.26      0.00
   10    6   11     -1.61      0.00
   10    6   12      1.69      0.00
   10    6   13      2.78      0.00
   10    6   14      2.15      0.00
   10    6   15      5.62      0.00
   10    6   16      1.37      0.00
   10    6   17      4.01      0.00
   10    6   18      0.50      0.00
   10    6   19      1.11      0.00
   10    6   20     -0.30      0.00
   10    6   21     -0.36      0.00
   10    6   22     -0.80      0.00
   10    6   23     -0.92      0.00
  -10   -7   11     -0.12      0.00
  -10   -7   10      0.53      0.00
  -10   -7    9      0.25      0.00
  -10   -7    8      0.83      0.00
  -10   -7    7      0.92      0.00
  -10   -7    6      1.91      0.00
  -10   -7    5     -0.54      0.00
  -10   -7    4      3.20      0.00
  -10   -7    3     -2.73      0.00
  -10   -7    2      4.38      0.00
  -10   -7    1     -3.88      0.00
   10    7    0      4.82      0.00
   10    7    1     -4.34      0.00
   10    7    2      3.29      0.00
   10    7    3     -3.21      0.00
   10    7    4      0.54      0.00
   10    7    5     -0.70      0.00
   10    7    6     -1.52      0.00
   10    7    7      0.89      0.00
   10    7    8     -2.13      0.00
   10    7    9      0.03      0.00
   10    7   10     -2.73      0.00
   10    7   11     -2.82      0.00
   10    7   12     -3.93      0.00
   10    7   13     -4.17      0.00
   10    7   14     -3.59      0.00
   10    7   15     -1.59      0.00
   10    7   16     -1.60      0.00
   10    7   17      1.65      0.00
   10    7   18      0.28      0.00
   10    7   19      2.19      0.00
   10    7   20      1.19      0.00
   10    7   21      1.64      0.00
   10    7   22      0.48      0.00
   10    7   23      1.66      0.00
  -10   -8   10     -0.56      0.00
  -10   -8    9     -0.72      0.00
  -10   -8    8     -1.24      0.00
  -10   -8    7     -0.24      0.00
  -10   -8    6     -1.05      0.00
  -10   -8    5      1.04      0.00
  -10   -8    4     -0.23      0.00
  -10   -8    3      0.68      0.00
  -10   -8    2      0.76      0.00
  -10   -8    1     -1.06      0.00
   10    8    0      2.49      0.00
   10    8    1     -2.40      0.00
   10    8    2      4.11      0.00
   10    8    3     -2.81      0.00
   10    8    4      4.17      0.00
   10    8    5     -1.85      0.00
   10    8    6      2.82      0.00
   10    8    7     -0.11      0.00
   10    8    8      1.72      0.00
   10    8    9      1.29      0.00
   10    8   10      2.22      0.00
   10    8   11      1.07      0.00
   10    8   12      2.68      0.00
   10    8   13     -1.80      0.00
   10    8   14      1.33      0.00
   10    8   15     -4.32      0.00
   10    8   16     -0.38      0.00
   10    8   17     -3.12      0.00
   10    8   18     -0.90      0.00
   10    8   19     -0.43      0.00
   10    8   20     -0.06      0.00
   10    8   21      0.37      0.00
   10    8   22      1.09      0.00
  -10   -9    9     -0.63      0.00
  -10   -9    8     -0.28      0.00
  -10   -9    7     -1.10      0.00
  -10   -9    6     -1.75      0.00
  -10   -9    5     -0.32      0.00
  -10   -9    4     -2.55      0.00
  -10   -9    3      1.74      0.00
  -10   -9    2     -3.18      0.00
  -10   -9    1      3.14      0.00
   10    9    0     -3.64      0.00
   10    9    1      2.45      0.00
   10    9    2     -2.17      0.00
   10    9    3      0.36      0.00
   10    9    4      0.60      0.00
   10    9    5     -1.37      0.00
   10    9    6      2.44      0.00
   10    9    7     -1.82      0.00
   10    9    8      2.16      0.00
   10    9    9     -1.58      0.00
   10    9   10      1.33      0.00
   10    9   11     -0.21      0.00
   10    9   12      1.92      0.00
   10    9   13      1.99      0.00
   10    9   14      2.53      0.00
   10    9   15      1.91      0.00
   10    9   16      1.71      0.00
   10    9   17     -0.44      0.00
   10    9   18      0.34      0.00
   10    9   19     -1.52      0.00
   10    9   20     -0.73      0.00
   10    9   21     -0.58      0.00
  -10  -10    7      0.72      0.00
  -10  -10    6      0.83      0.00
  -10  -10    5     -0.73      0.00
  -10  -10    4      0.09      0.00
  -10  -10    3     -1.21      0.00
  -10  -10    2     -0.58      0.00
  -10  -10    1      0.24      0.00
   10   10    0     -1.18      0.00
   10   10    1      1.97      0.00
   10   10    2     -2.12      0.00
   10   10    3      2.60      0.00
   10   10    4     -3.09      0.00
   10   10    5      2.22      0.00
   10   10    6     -3.29      0.00
   10   10    7      1.69      0.00
   10   10    8     -2.58      0.00
   10   10    9      1.38      0.00
   10   10   10     -2.65      0.00
   10   10   11      0.55      0.00
   10   10   12     -3.06      0.00
   10   10   13     -0.09      0.00
   10   10   14     -1.90      0.00
   10   10   15      0.53      0.00
   10   10   16     -0.02      0.00
   10   10   17      0.56      0.00
   10   10   18      1.20      0.00
   10   10   19     -0.86      0.00
   10   10   20      1.20      0.00
  -10  -11    6      1.39      0.00
  -10  -11    5      0.69      0.00
  -10  -11    4      1.86      0.00
  -10  -11    3     -0.72      0.00
  -10  -11    2      1.69      0.00
  -10  -11    1     -1.97      0.00
   10   11    0      1.03      0.00
   10   11    1     -1.51      0.00
   10   11    2      0.54      0.00
   10   11    3     -0.32      0.00
   10   11    4      0.48      0.00
   10   11    5      0.08      0.00
   10   11    6      0.29      0.00
   10   11    7     -0.32      0.00
   10   11    8     -0.02      0.00
   10   11    9      0.11      0.00
   10   11   10     -0.10      0.00
   10   11   11      1.01      0.00
   10   11   12     -0.52      0.00
   10   11   13      0.60      0.00
   10   11   14     -1.29      0.00
   10   11   15      0.31      0.00
   10   11   16     -1.88      0.00
   10   11   17      1.64      0.00
   10   11   18     -1.75      0.00
  -10  -12    3      0.31      0.00
  -10  -12    2      1.28      0.00
  -10  -12    1      0.23      0.00
   10   12    0      1.28      0.00
   10   12    1     -0.09      0.00
   10   12    2      0.69      0.00
   10   12    3     -0.45      0.00
   10   12    4      0.50      0.00
   10   12    5     -0.18      0.00
   10   12    6      0.58      0.00
   10   12    7     -0.04      0.00
   10   12    8      0.82      0.00
   10   12    9     -1.15      0.00
   10   12   10      1.24      0.00
   10   12   11     -1.53      0.00
   10   12   12      1.21      0.00
   10   12   13     -0.87      0.00
   10   12   14      0.70      0.00
   10   12   15     -0.92      0.00
   10   12   16      0.01      0.00
   10   13    0     -0.49      0.00
   10   13    1      0.08      0.00
   10   13    2      0.32      0.00
   10   13    3     -0.04      0.00
   10   13    4      0.27      0.00
   10   13    5      0.23      0.00
   10   13    6      0.24      0.00
   10   13    7      0.80      0.00
   10   13    8      0.66      0.00
   10   13    9      0.77      0.00
   10   13   10      1.12      0.00
   10   13   11      0.01      0.00
   10   13   12      1.46      0.00
   10   13   13     -0.10      0.00
   10   13   14      1.77      0.00
   10   14    7     -0.58      0.00
   11  -11    1     -0.36      0.00
   11  -11    2      0.84      0.00
   11  -11    3     -0.52      0.00
   11  -11    4      0.40      0.00
   11  -11    5     -0.91      0.00
   11  -11    6      0.42      0.00
  -11   10    4     -1.02      0.00
  -11   10    3      0.38      0.00
  -11   10    2     -0.98      0.00
  -11   10    1     -0.36      0.00
  -11   10    0     -0.82      0.00
   11  -10    1      0.02      0.00
   11  -10    2     -0.56      0.00
   11  -10    3      0.63      0.00
   11  -10    4     -0.12      0.00
   11  -10    5      0.00      0.00
   11  -10    6      0.24      0.00
   11  -10    7     -0.95      0.00
   11  -10    8      0.15      0.00
   11  -10    9     -1.31      0.00
   11  -10   10      0.13      0.00
   11  -10   11     -1.00      0.00
  -11    9    6      0.33      0.00
  -11    9    5      0.89      0.00
  -11    9    4      0.84      0.00
  -11    9    3      1.14      0.00
  -11    9    2      0.73      0.00
  -11    9    1      0.81      0.00
  -11    9    0     -0.01      0.00
   11   -9    1     -0.02      0.00
   11   -9    2     -0.93      0.00
   11   -9    3      0.16      0.00
   11   -9    4     -1.33      0.00
   11   -9    5      0.62      0.00
   11   -9    6     -0.59      0.00
   11   -9    7      0.22      0.00
   11   -9    8      0.19      0.00
   11   -9    9     -0.26      0.00
   11   -9   10      0.35      0.00
   11   -9   11     -0.50      0.00
   11   -9   12      0.34      0.00
   11   -9   13     -0.26      0.00
   11   -9   14     -0.03      0.00
  -11    8    8     -0.76      0.00
  -11    8    7     -1.26      0.00
  -11    8    6     -0.74      0.00
  -11    8    5     -0.23      0.00
  -11    8    4     -0.47      0.00
  -11    8    3      0.83      0.00
  -11    8    2      0.25      0.00
  -11    8    1      1.45      0.00
  -11    8    0      1.14      0.00
   11   -8    1      1.34      0.00
   11   -8    2      0.88      0.00
   11   -8    3      1.45      0.00
   11   -8    4     -0.54      0.00
   11   -8    5      1.95      0.00
   11   -8    6     -1.36      0.00
   11   -8    7      2.02      0.00
   11   -8    8     -1.26      0.00
   11   -8    9      1.61      0.00
   11   -8   10     -0.71      0.00
   11   -8   11      0.58      0.00
   11   -8   12      0.22      0.00
   11   -8   13     -0.53      0.00
   11   -8   14      0.43      0.00
   11   -8   15     -0.67      0.00
   11   -8   16     -0.13      0.00
  -11    7    9      0.03      0.00
  -11    7    8      0.52      0.00
  -11    7    7     -1.26      0.00
  -11    7    6     -0.69      0.00
  -11    7    5     -2.16      0.00
  -11    7    4     -1.11      0.00
  -11    7    3     -2.70      0.00
  -11    7    2     -0.73      0.00
  -11    7    1     -2.32      0.00
  -11    7    0      0.54      0.00
   11   -7    1     -1.75      0.00
   11   -7    2      2.22      0.00
   11   -7    3     -1.52      0.00
   11   -7    4      2.20      0.00
   11   -7    5     -0.92      0.00
   11   -7    6      0.62      0.00
   11   -7    7     -0.07      0.00
   11   -7    8     -0.82      0.00
   11   -7    9      0.79      0.00
   11   -7   10     -1.79      0.00
   11   -7   11      1.21      0.00
   11   -7   12     -1.49      0.00
   11   -7   13      0.58      0.00
   11   -7   14      0.13      0.00
   11   -7   15     -0.17      0.00
   11   -7   16      1.20      0.00
   11   -7   17     -0.18      0.00
  -11    6   10      1.03      0.00
  -11    6    9      1.60      0.00
  -11    6    8      2.19      0.00
  -11    6    7      1.73      0.00
  -11    6    6      1.95      0.00
  -11    6    5      1.06      0.00
  -11    6    4      0.81      0.00
  -11    6    3      0.18      0.00
  -11    6    2     -0.87      0.00
  -11    6    1     -0.44      0.00
  -11    6    0     -2.09      0.00
   11   -6    1     -1.23      0.00
   11   -6    2     -1.03      0.00
   11   -6    3     -2.55      0.00
   11   -6    4      1.59      0.00
   11   -6    5     -3.50      0.00
   11   -6    6      3.61      0.00
   11   -6    7     -3.48      0.00
   11   -6    8      4.20      0.00
   11   -6    9     -2.51      0.00
   11   -6   10      2.96      0.00
   11   -6   11     -1.18      0.00
   11   -6   12      0.55      0.00
   11   -6   13     -0.62      0.00
   11   -6   14     -0.85      0.00
   11   -6   15     -0.88      0.00
   11   -6   16     -0.08      0.00
   11   -6   17     -1.33      0.00
   11   -6   18      1.48      0.00
   11   -6   19     -1.25      0.00
  -11    5   11     -0.20      0.00
  -11    5   10     -2.24      0.00
  -11    5    9      0.04      0.00
  -11    5    8     -0.97      0.00
  -11    5    7      0.85      0.00
  -11    5    6      0.82      0.00
  -11    5    5      1.99      0.00
  -11    5    4      1.63      0.00
  -11    5    3      2.66      0.00
  -11    5    2      1.46      0.00
  -11    5    1      2.87      0.00
  -11    5    0     -0.40      0.00
   11   -5    1      3.07      0.00
   11   -5    2     -3.01      0.00
   11   -5    3      3.05      0.00
   11   -5    4     -4.36      0.00
   11   -5    5      2.58      0.00
   11   -5    6     -3.82      0.00
   11   -5    7      1.36      0.00
   11   -5    8     -1.38      0.00
   11   -5    9      0.11      0.00
   11   -5   10      1.37      0.00
   11   -5   11      0.25      0.00
   11   -5   12      2.36      0.00
   11   -5   13      0.89      0.00
   11   -5   14      1.24      0.00
   11   -5   15      0.87      0.00
   11   -5   16     -0.62      0.00
   11   -5   17      0.38      0.00
   11   -5   18     -1.05      0.00
   11   -5   19     -0.38      0.00
   11   -5   20     -0.28      0.00
  -11    4   12      0.47      0.00
  -11    4   11     -0.39      0.00
  -11    4   10     -0.98      0.00
  -11    4    9     -1.02      0.00
  -11    4    8     -2.63      0.00
  -11    4    7     -1.55      0.00
  -11    4    6     -2.57      0.00
  -11    4    5     -1.70      0.00
  -11    4    4     -0.72      0.00
  -11    4    3     -1.83      0.00
  -11    4    2      1.81      0.00
  -11    4    1     -1.32      0.00
  -11    4    0      2.90      0.00
   11   -4    1      0.41      0.00
   11   -4    2      1.74      0.00
   11   -4    3      2.14      0.00
   11   -4    4      0.03      0.00
   11   -4    5      2.56      0.00
   11   -4    6     -1.64      0.00
   11   -4    7      1.43      0.00
   11   -4    8     -3.35      0.00
   11   -4    9     -0.57      0.00
   11   -4   10     -3.93      0.00
   11   -4   11     -1.42      0.00
   11   -4   12     -2.85      0.00
   11   -4   13     -0.23      0.00
   11   -4   14     -1.37      0.00
   11   -4   15      1.36      0.00
   11   -4   16     -0.92      0.00
   11   -4   17      1.80      0.00
   11   -4   18     -0.82      0.00
   11   -4   19      1.02      0.00
   11   -4   20      0.03      0.00
   11   -4   21      0.25      0.00
  -11    3   12      1.23      0.00
  -11    3   11      0.15      0.00
  -11    3   10      1.97      0.00
  -11    3    9      0.75      0.00
  -11    3    8      1.23      0.00
  -11    3    7      0.47      0.00
  -11    3    6     -0.75      0.00
  -11    3    5      0.09      0.00
  -11    3    4     -2.97      0.00
  -11    3    3     -0.32      0.00
  -11    3    2     -3.16      0.00
  -11    3    1     -1.51      0.00
  -11    3    0     -0.19      0.00
   11   -3    1     -2.59      0.00
   11   -3    2      3.24      0.00
   11   -3    3     -2.39      0.00
   11   -3    4      4.34      0.00
   11   -3    5     -0.28      0.00
   11   -3    6      3.21      0.00
   11   -3    7      2.50      0.00
   11   -3    8      1.61      0.00
   11   -3    9      2.73      0.00
   11   -3   10      0.38      0.00
   11   -3   11      0.30      0.00
   11   -3   12     -0.31      0.00
   11   -3   13     -1.51      0.00
   11   -3   14     -0.06      0.00
   11   -3   15     -1.06      0.00
   11   -3   16      0.03      0.00
   11   -3   17      0.48      0.00
   11   -3   18     -0.85      0.00
   11   -3   19      0.87      0.00
   11   -3   20     -1.28      0.00
   11   -3   21      0.05      0.00
  -11    2   12     -0.19      0.00
  -11    2   11     -0.45      0.00
  -11    2   10      0.95      0.00
  -11    2    9     -0.01      0.00
  -11    2    8      2.38      0.00
  -11    2    7      0.67      0.00
  -11    2    6      2.83      0.00
  -11    2    5      1.06      0.00
  -11    2    4      1.64      0.00
  -11    2    3      0.92      0.00
  -11    2    2     -1.05      0.00
  -11    2    1     -0.31      0.00
  -11    2    0     -3.39      0.00
   11   -2    1     -1.72      0.00
   11   -2    2     -3.44      0.00
   11   -2    3     -2.60      0.00
   11   -2    4     -1.54      0.00
   11   -2    5     -3.16      0.00
   11   -2    6      0.58      0.00
   11   -2    7     -1.96      0.00
   11   -2    8      2.15      0.00
   11   -2    9      1.02      0.00
   11   -2   10      2.95      0.00
   11   -2   11      2.46      0.00
   11   -2   12      2.45      0.00
   11   -2   13      0.80      0.00
   11   -2   14      1.66      0.00
   11   -2   15     -1.50      0.00
   11   -2   16      1.67      0.00
   11   -2   17     -1.72      0.00
   11   -2   18      1.34      0.00
   11   -2   19     -0.45      0.00
   11   -2   20      0.37      0.00
   11   -2   21     -0.02      0.00
   11   -2   22     -0.32      0.00
  -11    1   12     -0.59      0.00
  -11    1   11     -0.78      0.00
  -11    1   10     -0.93      0.00
  -11    1    9     -1.23      0.00
  -11    1    8     -0.48      0.00
  -11    1    7     -1.07      0.00
  -11    1    6      0.97      0.00
  -11    1    5     -0.60      0.00
  -11    1    4      2.75      0.00
  -11    1    3      0.81      0.00
  -11    1    2      3.60      0.00
  -11    1    1      2.30      0.00
  -11    1    0      1.98      0.00
   11   -1    1      1.93      0.00
   11   -1    2     -1.16      0.00
   11   -1    3     -0.23      0.00
   11   -1    4     -2.70      0.00
   11   -1    5     -2.93      0.00
   11   -1    6     -2.54      0.00
   11   -1    7     -4.57      0.00
   11   -1    8     -2.49      0.00
   11   -1    9     -3.57      0.00
   11   -1   10     -1.90      0.00
   11   -1   11     -0.67      0.00
   11   -1   12     -0.39      0.00
   11   -1   13      0.85      0.00
   11   -1   14      0.70      0.00
   11   -1   15     -0.66      0.00
   11   -1   16      1.07      0.00
   11   -1   17     -2.31      0.00
   11   -1   18      1.08      0.00
   11   -1   19     -1.74      0.00
   11   -1   20      1.12      0.00
   11   -1   21     -0.18      0.00
   11   -1   22      1.31      0.00
  -11    0   12     -0.75      0.00
  -11    0   11      1.31      0.00
  -11    0   10     -1.87      0.00
  -11    0    9      0.35      0.00
  -11    0    8     -2.69      0.00
  -11    0    7     -0.77      0.00
  -11    0    6     -2.62      0.00
  -11    0    5     -1.32      0.00
  -11    0    4     -2.18      0.00
  -11    0    3     -1.04      0.00
  -11    0    2     -0.58      0.00
  -11    0    1      0.56      0.00
   11    0    0      2.39      0.00
   11    0    1      3.13      0.00
   11    0    2      3.51      0.00
   11    0    3      5.19      0.00
   11    0    4      1.99      0.00
   11    0    5      5.00      0.00
   11    0    6      0.76      0.00
   11    0    7      2.30      0.00
   11    0    8      0.05      0.00
   11    0    9     -0.89      0.00
   11    0   10     -1.38      0.00
   11    0   11     -1.36      0.00
   11    0   12     -2.67      0.00
   11    0   13      1.96      0.00
   11    0   14     -2.74      0.00
   11    0   15      4.80      0.00
   11    0   16     -1.55      0.00
   11    0   17      3.45      0.00
   11    0   18     -0.02      0.00
   11    0   19      0.58      0.00
   11    0   20      0.38      0.00
   11    0   21     -0.81      0.00
   11    0   22      0.05      0.00
   11    0   23     -0.90      0.00
  -11   -1   12      1.08      0.00
  -11   -1   11      0.76      0.00
  -11   -1   10      1.48      0.00
  -11   -1    9      1.63      0.00
  -11   -1    8      0.69      0.00
  -11   -1    7      1.31      0.00
  -11   -1    6     -0.58      0.00
  -11   -1    5      0.61      0.00
  -11   -1    4     -1.92      0.00
  -11   -1    3     -0.16      0.00
  -11   -1    2     -3.47      0.00
  -11   -1    1     -1.62      0.00
   11    1    0     -3.52      0.00
   11    1    1     -2.32      0.00
   11    1    2     -1.68      0.00
   11    1    3     -0.37      0.00
   11    1    4     -0.27      0.00
   11    1    5      2.50      0.00
   11    1    6      0.46      0.00
   11    1    7      3.37      0.00
   11    1    8      1.46      0.00
   11    1    9      1.72      0.00
   11    1   10      1.74      0.00
   11    1   11     -1.44      0.00
   11    1   12      0.17      0.00
   11    1   13     -3.23      0.00
   11    1   14     -2.09      0.00
   11    1   15     -1.43      0.00
   11    1   16     -3.03      0.00
   11    1   17      1.33      0.00
   11    1   18     -2.40      0.00
   11    1   19      2.05      0.00
   11    1   20     -1.04      0.00
   11    1   21      1.11      0.00
   11    1   22     -0.10      0.00
   11    1   23     -0.17      0.00
  -11   -2   12     -0.25      0.00
  -11   -2   11     -1.85      0.00
  -11   -2   10     -0.01      0.00
  -11   -2    9     -0.91      0.00
  -11   -2    8      0.58      0.00
  -11   -2    7      0.77      0.00
  -11   -2    6      1.49      0.00
  -11   -2    5      0.96      0.00
  -11   -2    4      2.71      0.00
  -11   -2    3      0.78      0.00
  -11   -2    2      2.32      0.00
  -11   -2    1      0.84      0.00
   11    2    0      0.37      0.00
   11    2    1     -0.91      0.00
   11    2    2     -0.62      0.00
   11    2    3     -3.13      0.00
   11    2    4     -0.67      0.00
   11    2    5     -2.44      0.00
   11    2    6     -0.87      0.00
   11    2    7      0.45      0.00
   11    2    8     -0.29      0.00
   11    2    9      2.50      0.00
   11    2   10      2.20      0.00
   11    2   11      1.87      0.00
   11    2   12      4.87      0.00
   11    2   13     -1.22      0.00
   11    2   14      4.46      0.00
   11    2   15     -3.45      0.00
   11    2   16      1.50      0.00
   11    2   17     -2.52      0.00
   11    2   18     -0.64      0.00
   11    2   19     -0.61      0.00
   11    2   20     -0.92      0.00
   11    2   21      0.54      0.00
   11    2   22     -0.38      0.00
   11    2   23      0.98      0.00
  -11   -3   12      0.18      0.00
  -11   -3   11      0.55      0.00
  -11   -3   10      0.17      0.00
  -11   -3    9     -1.08      0.00
  -11   -3    8     -0.34      0.00
  -11   -3    7     -1.86      0.00
  -11   -3    6     -0.72      0.00
  -11   -3    5     -2.11      0.00
  -11   -3    4     -0.09      0.00
  -11   -3    3     -2.37      0.00
  -11   -3    2      1.18      0.00
  -11   -3    1     -1.40      0.00
   11    3    0      1.78      0.00
   11    3    1     -0.03      0.00
   11    3    2      1.64      0.00
   11    3    3     -0.53      0.00
   11    3    4      0.87      0.00
   11    3    5     -1.87      0.00
   11    3    6     -0.86      0.00
   11    3    7     -1.50      0.00
   11    3    8     -2.90      0.00
   11    3    9      0.70      0.00
   11    3   10     -3.85      0.00
   11    3   11      3.14      0.00
   11    3   12     -1.79      0.00
   11    3   13      3.89      0.00
   11    3   14      2.16      0.00
   11    3   15      2.02      0.00
   11    3   16      3.72      0.00
   11    3   17     -0.30      0.00
   11    3   18      1.99      0.00
   11    3   19     -0.75      0.00
   11    3   20     -0.26      0.00
   11    3   21     -0.46      0.00
   11    3   22     -1.00      0.00
   11    3   23     -0.26      0.00
  -11   -4   11      0.98      0.00
  -11   -4   10      0.94      0.00
  -11   -4    9      1.45      0.00
  -11   -4    8      1.63      0.00
  -11   -4    7      1.53      0.00
  -11   -4    6      0.86      0.00
  -11   -4    5      1.72      0.00
  -11   -4    4     -0.37      0.00
  -11   -4    3      0.60      0.00
  -11   -4    2     -0.32      0.00
  -11   -4    1     -1.26      0.00
   11    4    0      0.41      0.00
   11    4    1     -1.87      0.00
   11    4    2      1.32      0.00
   11    4    3     -1.91      0.00
   11    4    4      3.07      0.00
   11    4    5     -3.38      0.00
   11    4    6      4.57      0.00
   11    4    7     -5.60      0.00
   11    4    8      3.56      0.00
   11    4    9     -5.95      0.00
   11    4   10     -0.49      0.00
   11    4   11     -4.13      0.00
   11    4   12     -4.83      0.00
   11    4   13     -1.62      0.00
   11    4   14     -4.91      0.00
   11    4   15      0.29      0.00
   11    4   16     -1.05      0.00
   11    4   17      0.49      0.00
   11    4   18      1.97      0.00
   11    4   19     -0.14      0.00
   11    4   20      2.27      0.00
   11    4   21     -0.29      0.00
   11    4   22      1.44      0.00
   11    4   23     -0.45      0.00
  -11   -5   11     -0.94      0.00
  -11   -5   10     -1.60      0.00
  -11   -5    9     -0.50      0.00
  -11   -5    8     -1.44      0.00
  -11   -5    7      0.25      0.00
  -11   -5    6     -0.60      0.00
  -11   -5    5      1.48      0.00
  -11   -5    4     -0.46      0.00
  -11   -5    3      3.07      0.00
  -11   -5    2     -1.46      0.00
  -11   -5    1      4.15      0.00
   11    5    0     -2.76      0.00
   11    5    1      4.80      0.00
   11    5    2     -3.71      0.00
   11    5    3      5.61      0.00
   11    5    4     -3.48      0.00
   11    5    5      6.41      0.00
   11    5    6     -1.52      0.00
   11    5    7      5.41      0.00
   11    5    8      1.54      0.00
   11    5    9      2.10      0.00
   11    5   10      3.84      0.00
   11    5   11     -0.75      0.00
   11    5   12      2.65      0.00
   11    5   13     -1.65      0.00
   11    5   14     -1.53      0.00
   11    5   15     -1.09      0.00
   11    5   16     -3.61      0.00
   11    5   17     -0.26      0.00
   11    5   18     -1.83      0.00
   11    5   19     -0.12      0.00
   11    5   20      0.01      0.00
   11    5   21      0.18      0.00
   11    5   22      0.06      0.00
   11    5   23      0.50      0.00
  -11   -6   10      0.14      0.00
  -11   -6    9     -0.68      0.00
  -11   -6    8     -0.34      0.00
  -11   -6    7     -1.21      0.00
  -11   -6    6     -0.96      0.00
  -11   -6    5     -1.58      0.00
  -11   -6    4     -0.67      0.00
  -11   -6    3     -1.36      0.00
  -11   -6    2      0.13      0.00
  -11   -6    1     -0.80      0.00
   11    6    0      0.39      0.00
   11    6    1     -0.44      0.00
   11    6    2     -0.36      0.00
   11    6    3     -0.16      0.00
   11    6    4     -2.32      0.00
   11    6    5      0.64      0.00
   11    6    6     -3.79      0.00
   11    6    7      2.12      0.00
   11    6    8     -2.86      0.00
   11    6    9      3.06      0.00
   11    6   10      0.15      0.00
   11    6   11      3.09      0.00
   11    6   12      3.59      0.00
   11    6   13      2.65      0.00
   11    6   14      4.27      0.00
   11    6   15      1.46      0.00
   11    6   16      1.04      0.00
   11    6   17      0.37      0.00
   11    6   18     -1.89      0.00
   11    6   19     -0.26      0.00
   11    6   20     -1.68      0.00
   11    6   21     -0.74      0.00
   11    6   22     -0.81      0.00
  -11   -7    9      0.52      0.00
  -11   -7    8      1.31      0.00
  -11   -7    7      0.17      0.00
  -11   -7    6      1.45      0.00
  -11   -7    5     -0.92      0.00
  -11   -7    4      1.07      0.00
  -11   -7    3     -2.38      0.00
  -11   -7    2      1.46      0.00
  -11   -7    1     -3.38      0.00
   11    7    0      2.55      0.00
   11    7    1     -3.52      0.00
   11    7    2      3.25      0.00
   11    7    3     -3.24      0.00
   11    7    4      2.63      0.00
   11    7    5     -3.05      0.00
   11    7    6     -0.12      0.00
   11    7    7     -2.31      0.00
   11    7    8     -3.33      0.00
   11    7    9     -0.99      0.00
   11    7   10     -4.62      0.00
   11    7   11     -0.42      0.00
   11    7   12     -3.36      0.00
   11    7   13     -0.09      0.00
   11    7   14     -0.13      0.00
   11    7   15      0.88      0.00
   11    7   16      1.90      0.00
   11    7   17      1.38      0.00
   11    7   18      0.82      0.00
   11    7   19      0.97      0.00
   11    7   20     -0.45      0.00
   11    7   21      0.08      0.00
   11    7   22      0.03      0.00
  -11   -8    8      0.14      0.00
  -11   -8    7      0.79      0.00
  -11   -8    6      0.36      0.00
  -11   -8    5      1.98      0.00
  -11   -8    4     -0.06      0.00
  -11   -8    3      2.17      0.00
  -11   -8    2     -0.91      0.00
  -11   -8    1      1.13      0.00
   11    8    0     -1.30      0.00
   11    8    1     -0.10      0.00
   11    8    2     -0.25      0.00
   11    8    3     -1.24      0.00
   11    8    4      2.54      0.00
   11    8    5     -2.16      0.00
   11    8    6      5.00      0.00
   11    8    7     -2.64      0.00
   11    8    8      4.69      0.00
   11    8    9     -2.34      0.00
   11    8   10      2.44      0.00
   11    8   11     -1.82      0.00
   11    8   12     -0.11      0.00
   11    8   13     -2.09      0.00
   11    8   14     -1.29      0.00
   11    8   15     -2.04      0.00
   11    8   16      0.16      0.00
   11    8   17     -0.63      0.00
   11    8   18      1.72      0.00
   11    8   19      0.89      0.00
   11    8   20      1.06      0.00
   11    8   21      1.30      0.00
  -11   -9    7     -0.85      0.00
  -11   -9    6     -1.09      0.00
  -11   -9    5     -0.90      0.00
  -11   -9    4     -0.08      0.00
  -11   -9    3      0.67      0.00
  -11   -9    2      0.27      0.00
  -11   -9    1      2.06      0.00
   11    9    0     -0.41      0.00
   11    9    1      2.21      0.00
   11    9    2     -1.92      0.00
   11    9    3      1.98      0.00
   11    9    4     -3.02      0.00
   11    9    5      1.96      0.00
   11    9    6     -2.03      0.00
   11    9    7      1.77      0.00
   11    9    8      0.08      0.00
   11    9    9      0.89      0.00
   11    9   10      1.20      0.00
   11    9   11      0.44      0.00
   11    9   12      1.12      0.00
   11    9   13      0.46      0.00
   11    9   14      0.06      0.00
   11    9   15     -0.57      0.00
   11    9   16     -0.77      0.00
   11    9   17     -1.85      0.00
   11    9   18      0.16      0.00
   11    9   19     -1.87      0.00
   11    9   20      1.57      0.00
  -11  -10    5     -0.49      0.00
  -11  -10    4     -1.26      0.00
  -11  -10    3     -1.00      0.00
  -11  -10    2     -0.59      0.00
  -11  -10    1     -0.47      0.00
   11   10    0      0.59      0.00
   11   10    1      0.91      0.00
   11   10    2      0.74      0.00
   11   10    3      1.80      0.00
   11   10    4     -0.44      0.00
   11   10    5      1.32      0.00
   11   10    6     -1.63      0.00
   11   10    7      0.68      0.00
   11   10    8     -1.62      0.00
   11   10    9      0.85      0.00
   11   10   10     -1.12      0.00
   11   10   11      0.99      0.00
   11   10   12     -0.57      0.00
   11   10   13      1.01      0.00
   11   10   14      0.11      0.00
   11   10   15      0.90      0.00
   11   10   16     -0.32      0.00
   11   10   17      0.44      0.00
   11   10   18     -1.80      0.00
  -11  -11    3     -0.64      0.00
  -11  -11    2      0.44      0.00
  -11  -11    1     -1.88      0.00
   11   11    0     -0.11      0.00
   11   11    1     -2.38      0.00
   11   11    2      0.53      0.00
   11   11    3     -1.46      0.00
   11   11    4      1.32      0.00
   11   11    5     -0.14      0.00
   11   11    6      0.63      0.00
   11   11    7      0.29      0.00
   11   11    8     -0.74      0.00
   11   11    9      0.04      0.00
   11   11   10     -0.80      0.00
   11   11   11     -0.02      0.00
   11   11   12     -0.57      0.00
   11   11   13      0.70      0.00
   11   11   14     -0.81      0.00
   11   11   15      1.76      0.00
   11   11   16     -0.45      0.00
   11   11   17      1.89      0.00
   11   12    0     -0.60      0.00
   11   12    1      0.57      0.00
   11   12    2     -0.83      0.00
   11   12    3     -1.00      0.00
   11   12    4     -0.55      0.00
   11   12    5     -1.37      0.00
   11   12    6      0.67      0.00
   11   12    7     -1.18      0.00
   11   12    8      1.48      0.00
   11   12    9     -1.38      0.00
   11   12   10      1.21      0.00
   11   12   11     -1.86      0.00
   11   12   12      0.80      0.00
   11   12   13     -2.35      0.00
   11   12   14      0.44      0.00
   11   13    5      0.99      0.00
   11   13    6     -0.31      0.00
   11   13    7      1.30      0.00
   11   13    8     -0.78      0.00
   11   13    9      2.33      0.00
   11   13   10     -0.87      0.00
  -12    9    2      0.12      0.00
  -12    9    1      1.35      0.00
  -12    9    0     -0.55      0.00
   12   -9    1      0.39      0.00
   12   -9    2     -1.12      0.00
   12   -9    3     -0.15      0.00
   12   -9    4     -1.05      0.00
   12   -9    5      0.13      0.00
   12   -9    6     -0.83      0.00
   12   -9    7      0.52      0.00
   12   -9    8     -0.88      0.00
   12   -9    9      0.60      0.00
   12   -9   10     -0.72      0.00
   12   -9   11      0.53      0.00
  -12    8    4      0.25      0.00
  -12    8    3     -0.57      0.00
  -12    8    2      0.97      0.00
  -12    8    1      0.60      0.00
  -12    8    0      1.05      0.00
   12   -8    1      1.30      0.00
   12   -8    2      0.82      0.00
   12   -8    3      0.90      0.00
   12   -8    4      0.56      0.00
   12   -8    5      0.79      0.00
   12   -8    6     -0.07      0.00
   12   -8    7      1.38      0.00
   12   -8    8     -0.65      0.00
   12   -8    9      1.36      0.00
   12   -8   10     -1.13      0.00
   12   -8   11      1.03      0.00
   12   -8   12     -1.51      0.00
   12   -8   13      0.57      0.00
  -12    7    6     -0.51      0.00
  -12    7    5     -0.82      0.00
  -12    7    4     -0.99      0.00
  -12    7    3     -1.30      0.00
  -12    7    2     -0.82      0.00
  -12    7    1     -1.50      0.00
  -12    7    0     -0.07      0.00
   12   -7    1     -1.06      0.00
   12   -7    2      0.83      0.00
   12   -7    3     -1.12      0.00
   12   -7    4      1.67      0.00
   12   -7    5     -1.93      0.00
   12   -7    6      1.79      0.00
   12   -7    7     -2.07      0.00
   12   -7    8      1.30      0.00
   12   -7    9     -1.13      0.00
   12   -7   10      0.65      0.00
   12   -7   11      0.25      0.00
   12   -7   12     -0.05      0.00
   12   -7   13      1.46      0.00
   12   -7   14     -0.01      0.00
   12   -7   15      1.58      0.00
  -12    6    8      0.44      0.00
  -12    6    7      1.07      0.00
  -12    6    6      0.77      0.00
  -12    6    5      0.19      0.00
  -12    6    4      0.54      0.00
  -12    6    3     -0.17      0.00
  -12    6    2     -0.04      0.00
  -12    6    1     -0.47      0.00
  -12    6    0     -0.45      0.00
   12   -6    1     -0.22      0.00
   12   -6    2     -0.73      0.00
   12   -6    3      0.24      0.00
   12   -6    4     -0.52      0.00
   12   -6    5     -0.06      0.00
   12   -6    6      0.18      0.00
   12   -6    7     -0.91      0.00
   12   -6    8      1.20      0.00
   12   -6    9     -1.98      0.00
   12   -6   10      2.29      0.00
   12   -6   11     -2.72      0.00
   12   -6   12      2.07      0.00
   12   -6   13     -2.39      0.00
   12   -6   14      1.03      0.00
   12   -6   15     -1.12      0.00
   12   -6   16      0.81      0.00
   12   -6   17      0.23      0.00
  -12    5    8     -0.08      0.00
  -12    5    7      0.86      0.00
  -12    5    6      0.24      0.00
  -12    5    5      1.27      0.00
  -12    5    4      0.35      0.00
  -12    5    3      1.10      0.00
  -12    5    2      0.35      0.00
  -12    5    1      0.63      0.00
  -12    5    0     -0.15      0.00
   12   -5    1      0.59      0.00
   12   -5    2     -1.26      0.00
   12   -5    3      1.28      0.00
   12   -5    4     -1.88      0.00
   12   -5    5      1.67      0.00
   12   -5    6     -1.63      0.00
   12   -5    7      1.85      0.00
   12   -5    8     -1.32      0.00
   12   -5    9      1.97      0.00
   12   -5   10     -0.46      0.00
   12   -5   11      1.34      0.00
   12   -5   12      0.60      0.00
   12   -5   13      0.36      0.00
   12   -5   14      0.09      0.00
   12   -5   15     -0.26      0.00
   12   -5   16     -1.20      0.00
   12   -5   17      0.04      0.00
   12   -5   18     -1.57      0.00
  -12    4    9     -0.54      0.00
  -12    4    8     -0.86      0.00
  -12    4    7     -0.41      0.00
  -12    4    6     -0.74      0.00
  -12    4    5     -0.09      0.00
  -12    4    4     -0.18      0.00
  -12    4    3      0.43      0.00
  -12    4    2      0.05      0.00
  -12    4    1      0.49      0.00
  -12    4    0      0.54      0.00
   12   -4    1     -0.65      0.00
   12   -4    2      0.79      0.00
   12   -4    3     -1.41      0.00
   12   -4    4      0.20      0.00
   12   -4    5     -0.82      0.00
   12   -4    6     -0.94      0.00
   12   -4    7      0.34      0.00
   12   -4    8     -2.52      0.00
   12   -4    9      1.24      0.00
   12   -4   10     -3.55      0.00
   12   -4   11      1.34      0.00
   12   -4   12     -2.70      0.00
   12   -4   13      0.98      0.00
   12   -4   14     -0.79      0.00
   12   -4   15      0.12      0.00
   12   -4   16      0.40      0.00
   12   -4   17     -0.73      0.00
   12   -4   18      0.18      0.00
   12   -4   19     -0.12      0.00
  -12    3   10      0.92      0.00
  -12    3    9     -0.52      0.00
  -12    3    8      0.76      0.00
  -12    3    7     -0.72      0.00
  -12    3    6     -0.15      0.00
  -12    3    5     -0.38      0.00
  -12    3    4     -0.42      0.00
  -12    3    3      0.24      0.00
  -12    3    2     -0.19      0.00
  -12    3    1      1.09      0.00
  -12    3    0      0.64      0.00
   12   -3    1      1.43      0.00
   12   -3    2      1.83      0.00
   12   -3    3      0.82      0.00
   12   -3    4      2.62      0.00
   12   -3    5     -0.30      0.00
   12   -3    6      3.19      0.00
   12   -3    7     -1.27      0.00
   12   -3    8      2.89      0.00
   12   -3    9     -1.09      0.00
   12   -3   10      1.17      0.00
   12   -3   11     -0.30      0.00
   12   -3   12     -0.30      0.00
   12   -3   13      0.28      0.00
   12   -3   14     -0.44      0.00
   12   -3   15      0.75      0.00
   12   -3   16      0.09      0.00
   12   -3   17      0.55      0.00
   12   -3   18      0.00      0.00
   12   -3   19      0.20      0.00
   12   -3   20     -1.02      0.00
  -12    2   10      0.07      0.00
  -12    2    9     -0.28      0.00
  -12    2    8      0.67      0.00
  -12    2    7     -0.14      0.00
  -12    2    6      0.35      0.00
  -12    2    5     -0.80      0.00
  -12    2    4     -0.02      0.00
  -12    2    3     -1.93      0.00
  -12    2    2     -0.74      0.00
  -12    2    1     -1.97      0.00
  -12    2    0     -1.94      0.00
   12   -2    1     -0.55      0.00
   12   -2    2     -2.24      0.00
   12   -2    3      0.80      0.00
   12   -2    4     -1.56      0.00
   12   -2    5      0.80      0.00
   12   -2    6     -0.37      0.00
   12   -2    7     -0.21      0.00
   12   -2    8      0.85      0.00
   12   -2    9     -0.76      0.00
   12   -2   10      0.97      0.00
   12   -2   11     -0.58      0.00
   12   -2   12      0.06      0.00
   12   -2   13     -0.59      0.00
   12   -2   14     -0.53      0.00
   12   -2   15     -0.70      0.00
   12   -2   16      0.12      0.00
   12   -2   17     -0.80      0.00
   12   -2   18      1.15      0.00
   12   -2   19     -0.85      0.00
   12   -2   20      0.79      0.00
   12   -2   21     -0.50      0.00
  -12    1   10     -0.75      0.00
  -12    1    9      0.69      0.00
  -12    1    8      0.49      0.00
  -12    1    7      0.42      0.00
  -12    1    6      1.84      0.00
  -12    1    5      0.68      0.00
  -12    1    4      2.08      0.00
  -12    1    3      0.58      0.00
  -12    1    2      1.85      0.00
  -12    1    1     -0.68      0.00
  -12    1    0      1.11      0.00
   12   -1    1     -2.20      0.00
   12   -1    2      0.02      0.00
   12   -1    3     -2.17      0.00
   12   -1    4     -0.98      0.00
   12   -1    5     -0.77      0.00
   12   -1    6     -1.12      0.00
   12   -1    7     -0.28      0.00
   12   -1    8      0.35      0.00
   12   -1    9     -0.91      0.00
   12   -1   10      2.08      0.00
   12   -1   11     -0.95      0.00
   12   -1   12      2.14      0.00
   12   -1   13     -0.42      0.00
   12   -1   14      0.48      0.00
   12   -1   15     -0.03      0.00
   12   -1   16     -0.82      0.00
   12   -1   17     -0.16      0.00
   12   -1   18      0.11      0.00
   12   -1   19     -0.78      0.00
   12   -1   20      1.53      0.00
   12   -1   21     -0.50      0.00
  -12    0   10     -0.78      0.00
  -12    0    9      0.34      0.00
  -12    0    8     -1.58      0.00
  -12    0    7      0.33      0.00
  -12    0    6     -1.72      0.00
  -12    0    5      0.69      0.00
  -12    0    4     -1.38      0.00
  -12    0    3      1.54      0.00
  -12    0    2     -0.44      0.00
  -12    0    1      2.50      0.00
   12    0    0      0.71      0.00
   12    0    1      2.32      0.00
   12    0    2      1.00      0.00
   12    0    3      1.07      0.00
   12    0    4      0.15      0.00
   12    0    5      0.84      0.00
   12    0    6     -1.22      0.00
   12    0    7      1.61      0.00
   12    0    8     -1.89      0.00
   12    0    9      1.61      0.00
   12    0   10     -1.33      0.00
   12    0   11      1.13      0.00
   12    0   12      0.05      0.00
   12    0   13      1.31      0.00
   12    0   14      0.93      0.00
   12    0   15      1.88      0.00
   12    0   16     -0.13      0.00
   12    0   17      2.08      0.00
   12    0   18     -1.55      0.00
   12    0   19      1.26      0.00
   12    0   20     -1.30      0.00
   12    0   21     -0.22      0.00
   12    0   22     -0.50      0.00
  -12   -1   10      0.69      0.00
  -12   -1    9      0.29      0.00
  -12   -1    8     -0.21      0.00
  -12   -1    7      0.25      0.00
  -12   -1    6     -1.10      0.00
  -12   -1    5     -0.43      0.00
  -12   -1    4     -1.27      0.00
  -12   -1    3     -1.15      0.00
  -12   -1    2     -1.43      0.00
  -12   -1    1     -0.61      0.00
   12    1    0     -1.49      0.00
   12    1    1      0.69      0.00
   12    1    2     -0.51      0.00
   12    1    3      0.37      0.00
   12    1    4      0.61      0.00
   12    1    5     -1.11      0.00
   12    1    6      0.08      0.00
   12    1    7     -1.46      0.00
   12    1    8     -1.33      0.00
   12    1    9     -1.14      0.00
   12    1   10     -1.84      0.00
   12    1   11     -1.64      0.00
   12    1   12     -1.17      0.00
   12    1   13     -2.57      0.00
   12    1   14      0.45      0.00
   12    1   15     -2.26      0.00
   12    1   16      1.30      0.00
   12    1   17     -0.51      0.00
   12    1   18      0.12      0.00
   12    1   19      1.09      0.00
   12    1   20     -0.92      0.00
   12    1   21      1.46      0.00
   12    1   22     -0.91      0.00
  -12   -2   10      0.13      0.00
  -12   -2    9     -1.00      0.00
  -12   -2    8      0.71      0.00
  -12   -2    7     -0.42      0.00
  -12   -2    6      0.80      0.00
  -12   -2    5      0.15      0.00
  -12   -2    4      0.93      0.00
  -12   -2    3     -0.02      0.00
  -12   -2    2      1.15      0.00
  -12   -2    1     -0.67      0.00
   12    2    0      0.52      0.00
   12    2    1     -0.04      0.00
   12    2    2     -0.25      0.00
   12    2    3      1.72      0.00
   12    2    4      0.39      0.00
   12    2    5      2.51      0.00
   12    2    6      1.35      0.00
   12    2    7      2.10      0.00
   12    2    8      0.89      0.00
   12    2    9      1.83      0.00
   12    2   10     -0.21      0.00
   12    2   11      2.01      0.00
   12    2   12     -0.93      0.00
   12    2   13      1.20      0.00
   12    2   14     -0.90      0.00
   12    2   15     -0.90      0.00
   12    2   16      0.44      0.00
   12    2   17     -2.11      0.00
   12    2   18      1.54      0.00
   12    2   19     -1.44      0.00
   12    2   20      0.99      0.00
   12    2   21     -0.25      0.00
   12    2   22      0.48      0.00
  -12   -3   10     -0.44      0.00
  -12   -3    9     -0.77      0.00
  -12   -3    8     -0.15      0.00
  -12   -3    7     -1.42      0.00
  -12   -3    6     -0.06      0.00
  -12   -3    5     -0.80      0.00
  -12   -3    4     -0.55      0.00
  -12   -3    3     -0.29      0.00
  -12   -3    2      0.14      0.00
  -12   -3    1     -1.53      0.00
   12    3    0      1.46      0.00
   12    3    1     -3.19      0.00
   12    3    2      1.25      0.00
   12    3    3     -3.31      0.00
   12    3    4      0.67      0.00
   12    3    5     -2.44      0.00
   12    3    6      1.75      0.00
   12    3    7     -1.40      0.00
   12    3    8      3.01      0.00
   12    3    9     -0.25      0.00
   12    3   10      2.33      0.00
   12    3   11      1.17      0.00
   12    3   12      0.56      0.00
   12    3   13      2.64      0.00
   12    3   14     -0.88      0.00
   12    3   15      2.43      0.00
   12    3   16     -1.33      0.00
   12    3   17      0.39      0.00
   12    3   18     -0.31      0.00
   12    3   19     -1.13      0.00
   12    3   20      0.68      0.00
   12    3   21     -1.27      0.00
   12    3   22      0.53      0.00
  -12   -4    9      1.33      0.00
  -12   -4    8      1.11      0.00
  -12   -4    7      0.68      0.00
  -12   -4    6      0.98      0.00
  -12   -4    5     -0.21      0.00
  -12   -4    4      0.41      0.00
  -12   -4    3      0.23      0.00
  -12   -4    2     -0.75      0.00
  -12   -4    1      1.27      0.00
   12    4    0     -1.04      0.00
   12    4    1      0.84      0.00
   12    4    2     -0.83      0.00
   12    4    3     -0.84      0.00
   12    4    4     -1.59      0.00
   12    4    5     -2.29      0.00
   12    4    6     -2.45      0.00
   12    4    7     -2.90      0.00
   12    4    8     -1.40      0.00
   12    4    9     -2.87      0.00
   12    4   10      0.70      0.00
   12    4   11     -2.78      0.00
   12    4   12      1.39      0.00
   12    4   13     -1.86      0.00
   12    4   14      0.64      0.00
   12    4   15      0.47      0.00
   12    4   16     -0.46      0.00
   12    4   17      1.76      0.00
   12    4   18     -0.85      0.00
   12    4   19      0.97      0.00
   12    4   20     -0.17      0.00
   12    4   21      0.47      0.00
   12    4   22      0.00      0.00
  -12   -5    9      0.72      0.00
  -12   -5    8     -0.56      0.00
  -12   -5    7      1.45      0.00
  -12   -5    6      0.20      0.00
  -12   -5    5      1.46      0.00
  -12   -5    4      0.38      0.00
  -12   -5    3      1.37      0.00
  -12   -5    2     -0.51      0.00
  -12   -5    1      2.17      0.00
   12    5    0     -1.23      0.00
   12    5    1      3.57      0.00
   12    5    2     -0.73      0.00
   12    5    3      4.63      0.00
   12    5    4     -0.01      0.00
   12    5    5      4.80      0.00
   12    5    6     -0.32      0.00
   12    5    7      3.28      0.00
   12    5    8     -1.05      0.00
   12    5    9      0.65      0.00
   12    5   10     -0.60      0.00
   12    5   11     -1.31      0.00
   12    5   12      0.71      0.00
   12    5   13     -2.48      0.00
   12    5   14      1.43      0.00
   12    5   15     -2.34      0.00
   12    5   16      1.22      0.00
   12    5   17     -0.39      0.00
   12    5   18      0.21      0.00
   12    5   19      0.62      0.00
   12    5   20     -0.21      0.00
   12    5   21     -0.51      0.00
  -12   -6    8     -1.02      0.00
  -12   -6    7     -1.62      0.00
  -12   -6    6     -0.97      0.00
  -12   -6    5     -1.21      0.00
  -12   -6    4      0.19      0.00
  -12   -6    3     -1.17      0.00
  -12   -6    2      1.11      0.00
  -12   -6    1     -1.60      0.00
   12    6    0      0.74      0.00
   12    6    1     -1.75      0.00
   12    6    2     -0.01      0.00
   12    6    3     -1.05      0.00
   12    6    4     -0.09      0.00
   12    6    5      0.67      0.00
   12    6    6     -0.10      0.00
   12    6    7      3.11      0.00
   12    6    8     -1.35      0.00
   12    6    9      4.46      0.00
   12    6   10     -3.00      0.00
   12    6   11      3.95      0.00
   12    6   12     -2.74      0.00
   12    6   13      2.41      0.00
   12    6   14     -1.00      0.00
   12    6   15      0.24      0.00
   12    6   16      0.11      0.00
   12    6   17     -0.59      0.00
   12    6   18     -0.04      0.00
   12    6   19      0.77      0.00
   12    6   20     -0.76      0.00
   12    6   21      1.39      0.00
  -12   -7    7      0.24      0.00
  -12   -7    6     -0.29      0.00
  -12   -7    5     -0.39      0.00
  -12   -7    4     -0.64      0.00
  -12   -7    3     -0.80      0.00
  -12   -7    2      0.29      0.00
  -12   -7    1     -1.12      0.00
   12    7    0      1.53      0.00
   12    7    1     -1.73      0.00
   12    7    2      1.75      0.00
   12    7    3     -2.79      0.00
   12    7    4      1.46      0.00
   12    7    5     -4.12      0.00
   12    7    6      1.68      0.00
   12    7    7     -4.39      0.00
   12    7    8      2.35      0.00
   12    7    9     -2.77      0.00
   12    7   10      1.89      0.00
   12    7   11     -0.63      0.00
   12    7   12     -0.07      0.00
   12    7   13      1.03      0.00
   12    7   14     -1.37      0.00
   12    7   15      1.29      0.00
   12    7   16     -0.99      0.00
   12    7   17     -0.33      0.00
   12    7   18     -0.20      0.00
   12    7   19     -1.09      0.00
   12    7   20      0.02      0.00
  -12   -8    5      0.91      0.00
  -12   -8    4      0.32      0.00
  -12   -8    3      0.47      0.00
  -12   -8    2     -1.08      0.00
  -12   -8    1      0.58      0.00
   12    8    0     -1.54      0.00
   12    8    1      0.95      0.00
   12    8    2     -0.60      0.00
   12    8    3      1.00      0.00
   12    8    4      0.18      0.00
   12    8    5      0.49      0.00
   12    8    6      0.11      0.00
   12    8    7     -0.77      0.00
   12    8    8      0.23      0.00
   12    8    9     -1.68      0.00
   12    8   10      1.37      0.00
   12    8   11     -1.50      0.00
   12    8   12      2.07      0.00
   12    8   13     -0.90      0.00
   12    8   14      1.47      0.00
   12    8   15      0.07      0.00
   12    8   16      0.92      0.00
   12    8   17      0.44      0.00
   12    8   18      0.85      0.00
   12    8   19     -0.47      0.00
  -12   -9    4     -0.23      0.00
  -12   -9    3      0.65      0.00
  -12   -9    2     -0.08      0.00
  -12   -9    1      0.03      0.00
   12    9    0     -0.80      0.00
   12    9    1     -0.34      0.00
   12    9    2     -1.84      0.00
   12    9    3      0.43      0.00
   12    9    4     -2.16      0.00
   12    9    5      1.65      0.00
   12    9    6     -1.57      0.00
   12    9    7      1.78      0.00
   12    9    8     -1.00      0.00
   12    9    9      0.32      0.00
   12    9   10     -0.78      0.00
   12    9   11     -1.02      0.00
   12    9   12     -0.19      0.00
   12    9   13     -1.47      0.00
   12    9   14      0.36      0.00
   12    9   15     -1.43      0.00
   12    9   16      0.59      0.00
   12    9   17     -0.57      0.00
   12    9   18      0.93      0.00
  -12  -10    2      1.06      0.00
  -12  -10    1      1.09      0.00
   12   10    0      1.35      0.00
   12   10    1      1.29      0.00
   12   10    2      1.10      0.00
   12   10    3      0.16      0.00
   12   10    4      0.61      0.00
   12   10    5     -0.50      0.00
   12   10    6      0.00      0.00
   12   10    7      0.74      0.00
   12   10    8     -0.56      0.00
   12   10    9      2.14      0.00
   12   10   10     -1.07      0.00
   12   10   11      1.92      0.00
   12   10   12     -1.40      0.00
   12   10   13      1.44      0.00
   12   10   14     -1.74      0.00
   12   10   15      1.42      0.00
   12   10   16     -2.40      0.00
   12   11    1     -0.14      0.00
   12   11    2      0.97      0.00
   12   11    3      0.15      0.00
   12   11    4      1.36      0.00
   12   11    5     -0.44      0.00
   12   11    6      1.08      0.00
   12   11    7     -1.41      0.00
   12   11    8      1.01      0.00
   12   11    9     -1.33      0.00
   12   11   10      1.28      0.00
   12   11   11     -0.50      0.00
   12   11   12      1.24      0.00
   12   11   13     -0.24      0.00
   12   11   14      1.23      0.00
   12   12    5      0.78      0.00
   12   12    6     -0.98      0.00
   12   12    7      0.80      0.00
   12   12    8     -1.28      0.00
   12   12    9      0.42      0.00
   12   12   10     -1.47      0.00
   13   -8    1      0.48      0.00
   13   -8    2      0.79      0.00
   13   -8    3     -0.16      0.00
   13   -8    4      0.37      0.00
   13   -8    5     -0.28      0.00
   13   -8    6      0.36      0.00
   13   -8    7      0.12      0.00
   13   -8    8      0.34      0.00
   13   -8    9      0.44      0.00
  -13    7    2     -0.29      0.00
  -13    7    1     -0.82      0.00
  -13    7    0      0.41      0.00
   13   -7    1     -0.49      0.00
   13   -7    2      0.83      0.00
   13   -7    3     -0.24      0.00
   13   -7    4      0.80      0.00
   13   -7    5     -0.45      0.00
   13   -7    6      0.51      0.00
   13   -7    7     -0.87      0.00
   13   -7    8      0.58      0.00
   13   -7    9     -1.11      0.00
   13   -7   10      1.41      0.00
   13   -7   11     -1.31      0.00
   13   -7   12      1.90      0.00
  -13    6    4      0.26      0.00
  -13    6    3     -0.49      0.00
  -13    6    2     -0.36      0.00
  -13    6    1     -0.28      0.00
  -13    6    0     -0.59      0.00
   13   -6    1     -0.07      0.00
   13   -6    2     -0.41      0.00
   13   -6    3      0.11      0.00
   13   -6    4     -0.15      0.00
   13   -6    5      0.08      0.00
   13   -6    6      0.29      0.00
   13   -6    7     -0.14      0.00
   13   -6    8      0.45      0.00
   13   -6    9     -0.22      0.00
   13   -6   10      0.59      0.00
   13   -6   11     -0.69      0.00
   13   -6   12      1.19      0.00
   13   -6   13     -1.23      0.00
   13   -6   14      1.21      0.00
  -13    5    5      0.91      0.00
  -13    5    4     -0.17      0.00
  -13    5    3      0.36      0.00
  -13    5    2     -0.25      0.00
  -13    5    1      0.19      0.00
  -13    5    0     -0.42      0.00
   13   -5    1      0.31      0.00
   13   -5    2     -0.42      0.00
   13   -5    3      0.61      0.00
   13   -5    4     -0.99      0.00
   13   -5    5      0.91      0.00
   13   -5    6     -1.88      0.00
   13   -5    7      1.07      0.00
   13   -5    8     -2.08      0.00
   13   -5    9      1.52      0.00
   13   -5   10     -1.73      0.00
   13   -5   11      1.94      0.00
   13   -5   12     -1.05      0.00
   13   -5   13      1.37      0.00
   13   -5   14     -0.26      0.00
   13   -5   15      0.38      0.00
   13   -5   16      0.46      0.00
  -13    4    6      0.17      0.00
  -13    4    5      0.40      0.00
  -13    4    4      0.22      0.00
  -13    4    3      0.67      0.00
  -13    4    2      0.12      0.00
  -13    4    1      0.48      0.00
  -13    4    0     -0.11      0.00
   13   -4    1     -0.18      0.00
   13   -4    2     -0.03      0.00
   13   -4    3     -0.70      0.00
   13   -4    4      0.58      0.00
   13   -4    5     -0.46      0.00
   13   -4    6      0.82      0.00
   13   -4    7     -0.33      0.00
   13   -4    8      0.12      0.00
   13   -4    9     -0.33      0.00
   13   -4   10     -1.24      0.00
   13   -4   11      0.33      0.00
   13   -4   12     -1.86      0.00
   13   -4   13      0.87      0.00
   13   -4   14     -1.47      0.00
   13   -4   15      0.90      0.00
   13   -4   16     -1.46      0.00
   13   -4   17      0.89      0.00
  -13    3    7     -0.81      0.00
  -13    3    6     -0.30      0.00
  -13    3    5     -0.52      0.00
  -13    3    4     -0.45      0.00
  -13    3    3     -0.11      0.00
  -13    3    2      0.10      0.00
  -13    3    1      0.18      0.00
  -13    3    0      0.61      0.00
   13   -3    1      0.59      0.00
   13   -3    2      0.48      0.00
   13   -3    3      0.37      0.00
   13   -3    4      0.46      0.00
   13   -3    5      0.10      0.00
   13   -3    6      1.16      0.00
   13   -3    7      0.19      0.00
   13   -3    8      2.20      0.00
   13   -3    9     -0.38      0.00
   13   -3   10      2.39      0.00
   13   -3   11     -1.08      0.00
   13   -3   12      1.28      0.00
   13   -3   13     -0.76      0.00
   13   -3   14      0.28      0.00
   13   -3   15     -0.04      0.00
   13   -3   16     -0.17      0.00
   13   -3   17      0.03      0.00
   13   -3   18     -0.50      0.00
  -13    2    7      0.34      0.00
  -13    2    6      0.61      0.00
  -13    2    5     -0.84      0.00
  -13    2    4      0.73      0.00
  -13    2    3     -0.93      0.00
  -13    2    2      0.06      0.00
  -13    2    1     -0.84      0.00
  -13    2    0     -0.46      0.00
   13   -2    1     -0.58      0.00
   13   -2    2     -0.71      0.00
   13   -2    3     -0.10      0.00
   13   -2    4     -1.26      0.00
   13   -2    5     -0.15      0.00
   13   -2    6     -2.05      0.00
   13   -2    7     -0.32      0.00
   13   -2    8     -1.83      0.00
   13   -2    9     -0.46      0.00
   13   -2   10     -0.31      0.00
   13   -2   11     -0.90      0.00
   13   -2   12      0.75      0.00
   13   -2   13     -1.43      0.00
   13   -2   14      0.78      0.00
   13   -2   15     -1.46      0.00
   13   -2   16      0.53      0.00
   13   -2   17     -0.67      0.00
   13   -2   18      0.37      0.00
   13   -2   19     -0.17      0.00
  -13    1    8     -0.18      0.00
  -13    1    7      0.02      0.00
  -13    1    6      0.37      0.00
  -13    1    5      0.35      0.00
  -13    1    4      0.82      0.00
  -13    1    3      0.60      0.00
  -13    1    2      1.06      0.00
  -13    1    1      0.42      0.00
  -13    1    0      1.33      0.00
   13   -1    1     -0.31      0.00
   13   -1    2      1.67      0.00
   13   -1    3     -0.56      0.00
   13   -1    4      1.97      0.00
   13   -1    5     -0.26      0.00
   13   -1    6      1.50      0.00
   13   -1    7      0.23      0.00
   13   -1    8      0.21      0.00
   13   -1    9      0.73      0.00
   13   -1   10     -0.29      0.00
   13   -1   11      0.77      0.00
   13   -1   12      0.27      0.00
   13   -1   13      0.32      0.00
   13   -1   14      0.62      0.00
   13   -1   15     -0.31      0.00
   13   -1   16      0.58      0.00
   13   -1   17     -0.49      0.00
   13   -1   18      0.38      0.00
   13   -1   19     -0.31      0.00
   13   -1   20      0.65      0.00
  -13    0    8     -0.96      0.00
  -13    0    7      1.13      0.00
  -13    0    6     -1.70      0.00
  -13    0    5      0.78      0.00
  -13    0    4     -1.40      0.00
  -13    0    3      0.01      0.00
  -13    0    2     -1.22      0.00
  -13    0    1      0.26      0.00
   13    0    0     -1.39      0.00
   13    0    1      0.82      0.00
   13    0    2     -1.25      0.00
   13    0    3      0.71      0.00
   13    0    4     -0.30      0.00
   13    0    5      0.29      0.00
   13    0    6      0.91      0.00
   13    0    7      0.33      0.00
   13    0    8      0.81      0.00
   13    0    9      0.71      0.00
   13    0   10     -0.33      0.00
   13    0   11      0.78      0.00
   13    0   12     -0.71      0.00
   13    0   13      0.58      0.00
   13    0   14     -0.25      0.00
   13    0   15      0.29      0.00
   13    0   16      0.00      0.00
   13    0   17      0.42      0.00
   13    0   18     -0.52      0.00
   13    0   19      1.15      0.00
   13    0   20     -1.41      0.00
  -13   -1    8      1.29      0.00
  -13   -1    7      0.70      0.00
  -13   -1    6      0.76      0.00
  -13   -1    5      0.88      0.00
  -13   -1    4      0.00      0.00
  -13   -1    3      0.52      0.00
  -13   -1    2     -0.39      0.00
  -13   -1    1     -0.02      0.00
   13    1    0     -0.71      0.00
   13    1    1     -0.19      0.00
   13    1    2     -1.70      0.00
   13    1    3     -0.09      0.00
   13    1    4     -2.93      0.00
   13    1    5     -0.27      0.00
   13    1    6     -2.67      0.00
   13    1    7     -0.74      0.00
   13    1    8     -1.12      0.00
   13    1    9     -0.88      0.00
   13    1   10     -0.35      0.00
   13    1   11     -0.65      0.00
   13    1   12     -0.61      0.00
   13    1   13     -0.11      0.00
   13    1   14     -0.58      0.00
   13    1   15      0.36      0.00
   13    1   16      0.05      0.00
   13    1   17     -0.10      0.00
   13    1   18      0.59      0.00
   13    1   19     -0.26      0.00
   13    1   20      0.39      0.00
  -13   -2    8      0.22      0.00
  -13   -2    7     -1.86      0.00
  -13   -2    6      0.72      0.00
  -13   -2    5     -0.84      0.00
  -13   -2    4      0.79      0.00
  -13   -2    3      0.24      0.00
  -13   -2    2      1.19      0.00
  -13   -2    1      0.24      0.00
   13    2    0      2.35      0.00
   13    2    1     -0.16      0.00
   13    2    2      3.27      0.00
   13    2    3      0.14      0.00
   13    2    4      2.56      0.00
   13    2    5      0.51      0.00
   13    2    6      0.79      0.00
   13    2    7      0.26      0.00
   13    2    8     -0.39      0.00
   13    2    9      0.37      0.00
   13    2   10     -0.56      0.00
   13    2   11      1.10      0.00
   13    2   12     -0.44      0.00
   13    2   13      1.20      0.00
   13    2   14     -0.51      0.00
   13    2   15      0.77      0.00
   13    2   16     -0.33      0.00
   13    2   17      0.03      0.00
   13    2   18      0.16      0.00
   13    2   19     -1.25      0.00
   13    2   20      0.41      0.00
  -13   -3    7     -0.71      0.00
  -13   -3    6     -0.82      0.00
  -13   -3    5     -1.65      0.00
  -13   -3    4     -0.43      0.00
  -13   -3    3     -1.63      0.00
  -13   -3    2     -0.88      0.00
  -13   -3    1     -0.79      0.00
   13    3    0     -1.49      0.00
   13    3    1     -0.53      0.00
   13    3    2     -0.44      0.00
   13    3    3     -0.70      0.00
   13    3    4      1.51      0.00
   13    3    5     -0.10      0.00
   13    3    6      2.05      0.00
   13    3    7      0.39      0.00
   13    3    8      1.22      0.00
   13    3    9     -0.43      0.00
   13    3   10      0.51      0.00
   13    3   11     -1.10      0.00
   13    3   12      0.36      0.00
   13    3   13     -0.46      0.00
   13    3   14     -0.07      0.00
   13    3   15      0.53      0.00
   13    3   16     -0.91      0.00
   13    3   17      1.35      0.00
   13    3   18     -1.00      0.00
   13    3   19      1.38      0.00
   13    3   20     -0.46      0.00
  -13   -4    7      1.01      0.00
  -13   -4    6      0.63      0.00
  -13   -4    5      0.52      0.00
  -13   -4    4      0.73      0.00
  -13   -4    3      0.04      0.00
  -13   -4    2      0.57      0.00
  -13   -4    1      0.22      0.00
   13    4    0     -0.53      0.00
   13    4    1      0.31      0.00
   13    4    2     -1.84      0.00
   13    4    3     -0.67      0.00
   13    4    4     -1.84      0.00
   13    4    5     -1.81      0.00
   13    4    6     -0.45      0.00
   13    4    7     -1.67      0.00
   13    4    8      1.21      0.00
   13    4    9     -1.07      0.00
   13    4   10      1.97      0.00
   13    4   11     -1.54      0.00
   13    4   12      1.72      0.00
   13    4   13     -2.38      0.00
   13    4   14      1.48      0.00
   13    4   15     -2.41      0.00
   13    4   16      1.22      0.00
   13    4   17     -1.49      0.00
   13    4   18      0.59      0.00
   13    4   19      0.18      0.00
   13    4   20      0.59      0.00
  -13   -5    6     -0.33      0.00
  -13   -5    5      1.52      0.00
  -13   -5    4     -0.36      0.00
  -13   -5    3      0.91      0.00
  -13   -5    2      0.32      0.00
  -13   -5    1      0.58      0.00
   13    5    0      0.84      0.00
   13    5    1      1.57      0.00
   13    5    2      0.10      0.00
   13    5    3      2.76      0.00
   13    5    4     -1.18      0.00
   13    5    5      2.75      0.00
   13    5    6     -1.90      0.00
   13    5    7      2.22      0.00
   13    5    8     -2.04      0.00
   13    5    9      2.47      0.00
   13    5   10     -1.44      0.00
   13    5   11      2.72      0.00
   13    5   12     -0.61      0.00
   13    5   13      1.84      0.00
   13    5   14     -0.29      0.00
   13    5   15      0.43      0.00
   13    5   16     -0.04      0.00
   13    5   17     -0.82      0.00
   13    5   18     -0.21      0.00
   13    5   19     -1.28      0.00
   13    5   20     -0.95      0.00
  -13   -6    5     -0.40      0.00
  -13   -6    4     -0.59      0.00
  -13   -6    3     -0.20      0.00
  -13   -6    2     -0.48      0.00
  -13   -6    1     -1.11      0.00
   13    6    0      0.26      0.00
   13    6    1     -1.93      0.00
   13    6    2      0.91      0.00
   13    6    3     -1.57      0.00
   13    6    4      0.65      0.00
   13    6    5     -0.64      0.00
   13    6    6     -0.06      0.00
   13    6    7     -0.10      0.00
   13    6    8     -0.96      0.00
   13    6    9      0.16      0.00
   13    6   10     -1.75      0.00
   13    6   11      0.85      0.00
   13    6   12     -1.47      0.00
   13    6   13      1.80      0.00
   13    6   14     -0.65      0.00
   13    6   15      2.14      0.00
   13    6   16      0.04      0.00
   13    6   17      1.42      0.00
   13    6   18      0.83      0.00
   13    6   19      0.23      0.00
  -13   -7    4     -0.05      0.00
  -13   -7    3      0.18      0.00
  -13   -7    2      0.08      0.00
  -13   -7    1      0.62      0.00
   13    7    0      0.06      0.00
   13    7    1     -0.03      0.00
   13    7    2      0.67      0.00
   13    7    3     -1.01      0.00
   13    7    4      1.65      0.00
   13    7    5     -1.60      0.00
   13    7    6      2.30      0.00
   13    7    7     -2.04      0.00
   13    7    8      2.48      0.00
   13    7    9     -2.42      0.00
   13    7   10      1.68      0.00
   13    7   11     -2.43      0.00
   13    7   12      0.27      0.00
   13    7   13     -1.66      0.00
   13    7   14     -0.65      0.00
   13    7   15     -0.11      0.00
   13    7   16     -1.22      0.00
   13    7   17      1.22      0.00
   13    7   18     -0.94      0.00
  -13   -8    2     -0.21      0.00
  -13   -8    1      0.63      0.00
   13    8    0     -0.29      0.00
   13    8    1      1.07      0.00
   13    8    2     -0.53      0.00
   13    8    3      1.14      0.00
   13    8    4     -0.79      0.00
   13    8    5      1.18      0.00
   13    8    6     -0.78      0.00
   13    8    7      1.04      0.00
   13    8    8     -0.14      0.00
   13    8    9      0.60      0.00
   13    8   10      1.01      0.00
   13    8   11     -0.08      0.00
   13    8   12      1.66      0.00
   13    8   13     -1.22      0.00
   13    8   14      1.71      0.00
   13    8   15     -2.23      0.00
   13    8   16      1.47      0.00
   13    8   17     -2.06      0.00
  -13   -9    1     -1.03      0.00
   13    9    0     -0.84      0.00
   13    9    1     -0.50      0.00
   13    9    2     -0.92      0.00
   13    9    3      0.07      0.00
   13    9    4     -0.70      0.00
   13    9    5      0.15      0.00
   13    9    6     -0.61      0.00
   13    9    7      0.32      0.00
   13    9    8     -1.10      0.00
   13    9    9      0.67      0.00
   13    9   10     -1.46      0.00
   13    9   11      0.83      0.00
   13    9   12     -1.01      0.00
   13    9   13      0.74      0.00
   13    9   14     -0.53      0.00
   13    9   15      0.68      0.00
   13    9   16     -0.53      0.00
   13   10    2      0.26      0.00
   13   10    3     -0.34      0.00
   13   10    4      0.08      0.00
   13   10    5     -0.14      0.00
   13   10    6      0.06      0.00
   13   10    7      0.03      0.00
   13   10    8      0.25      0.00
   13   10    9      0.17      0.00
   13   10   10     -0.05      0.00
   13   10   11      0.50      0.00
   13   10   12     -0.74      0.00
   13   10   13      0.83      0.00
   14   -6    1     -0.30      0.00
   14   -6    2      0.22      0.00
   14   -6    3     -0.15      0.00
   14   -6    4      0.16      0.00
   14   -6    5      0.30      0.00
   14   -6    6      0.17      0.00
   14   -6    7      0.17      0.00
   14   -6    8      0.16      0.00
   14   -6    9     -0.33      0.00
   14   -6   10      0.20      0.00
  -14    5    1      0.19      0.00
  -14    5    0     -0.31      0.00
   14   -5    1      0.56      0.00
   14   -5    2     -0.31      0.00
   14   -5    3      0.44      0.00
   14   -5    4     -0.64      0.00
   14   -5    5      0.22      0.00
   14   -5    6     -1.13      0.00
   14   -5    7      0.32      0.00
   14   -5    8     -1.22      0.00
   14   -5    9      0.46      0.00
   14   -5   10     -1.42      0.00
   14   -5   11      0.99      0.00
   14   -5   12     -1.75      0.00
   14   -5   13      1.44      0.00
  -14    4    3      0.74      0.00
  -14    4    2     -0.79      0.00
  -14    4    1      0.35      0.00
  -14    4    0     -0.21      0.00
   14   -4    1      0.08      0.00
   14   -4    2      0.38      0.00
   14   -4    3      0.10      0.00
   14   -4    4      0.97      0.00
   14   -4    5      0.02      0.00
   14   -4    6      1.01      0.00
   14   -4    7     -0.06      0.00
   14   -4    8      0.74      0.00
   14   -4    9     -0.19      0.00
   14   -4   10      0.93      0.00
   14   -4   11     -0.39      0.00
   14   -4   12      0.56      0.00
   14   -4   13      0.07      0.00
   14   -4   14     -0.52      0.00
  -14    3    4      0.98      0.00
  -14    3    3     -1.02      0.00
  -14    3    2      0.43      0.00
  -14    3    1     -0.70      0.00
  -14    3    0     -0.04      0.00
   14   -3    1     -0.21      0.00
   14   -3    2     -0.31      0.00
   14   -3    3      0.16      0.00
   14   -3    4     -0.28      0.00
   14   -3    5      0.51      0.00
   14   -3    6      0.35      0.00
   14   -3    7      0.47      0.00
   14   -3    8      0.77      0.00
   14   -3    9     -0.16      0.00
   14   -3   10      0.86      0.00
   14   -3   11     -0.74      0.00
   14   -3   12      1.04      0.00
   14   -3   13     -0.68      0.00
   14   -3   14      1.06      0.00
   14   -3   15     -0.60      0.00
   14   -3   16      0.92      0.00
  -14    2    4      0.07      0.00
  -14    2    3     -0.28      0.00
  -14    2    2      0.27      0.00
  -14    2    1     -0.67      0.00
  -14    2    0      0.04      0.00
   14   -2    1     -0.89      0.00
   14   -2    2     -0.12      0.00
   14   -2    3     -0.95      0.00
   14   -2    4     -0.51      0.00
   14   -2    5     -0.91      0.00
   14   -2    6     -0.89      0.00
   14   -2    7     -0.37      0.00
   14   -2    8     -0.94      0.00
   14   -2    9      0.48      0.00
   14   -2   10     -1.00      0.00
   14   -2   11      0.44      0.00
   14   -2   12     -0.68      0.00
   14   -2   13     -0.25      0.00
   14   -2   14     -0.01      0.00
   14   -2   15     -0.50      0.00
   14   -2   16      0.63      0.00
   14   -2   17     -0.58      0.00
  -14    1    5      0.91      0.00
  -14    1    4     -0.36      0.00
  -14    1    3      1.02      0.00
  -14    1    2      0.75      0.00
  -14    1    1      0.74      0.00
  -14    1    0      0.97      0.00
   14   -1    1      0.24      0.00
   14   -1    2      0.85      0.00
   14   -1    3     -0.23      0.00
   14   -1    4      1.02      0.00
   14   -1    5     -0.58      0.00
   14   -1    6      0.86      0.00
   14   -1    7     -1.05      0.00
   14   -1    8      0.78      0.00
   14   -1    9     -0.96      0.00
   14   -1   10      0.89      0.00
   14   -1   11     -0.07      0.00
   14   -1   12      0.43      0.00
   14   -1   13      0.45      0.00
   14   -1   14     -0.49      0.00
   14   -1   15      0.32      0.00
   14   -1   16     -1.11      0.00
   14   -1   17     -0.05      0.00
  -14    0    5     -0.23      0.00
  -14    0    4     -0.64      0.00
  -14    0    3      0.20      0.00
  -14    0    2     -1.00      0.00
  -14    0    1      0.78      0.00
   14    0    0     -0.76      0.00
   14    0    1      1.23      0.00
   14    0    2     -0.69      0.00
   14    0    3      1.31      0.00
   14    0    4     -0.50      0.00
   14    0    5      1.39      0.00
   14    0    6     -0.11      0.00
   14    0    7      1.13      0.00
   14    0    8      0.10      0.00
   14    0    9      0.19      0.00
   14    0   10      0.13      0.00
   14    0   11     -0.38      0.00
   14    0   12      0.06      0.00
   14    0   13     -0.33      0.00
   14    0   14     -0.12      0.00
   14    0   15     -0.17      0.00
   14    0   16     -0.26      0.00
   14    0   17      0.09      0.00
   14    0   18     -0.16      0.00
  -14   -1    5      0.26      0.00
  -14   -1    4     -0.16      0.00
  -14   -1    3     -0.03      0.00
  -14   -1    2     -0.70      0.00
  -14   -1    1     -0.66      0.00
   14    1    0     -0.40      0.00
   14    1    1     -0.74      0.00
   14    1    2     -0.33      0.00
   14    1    3     -0.54      0.00
   14    1    4     -0.84      0.00
   14    1    5     -0.26      0.00
   14    1    6     -1.19      0.00
   14    1    7      0.51      0.00
   14    1    8     -1.08      0.00
   14    1    9      1.03      0.00
   14    1   10     -0.89      0.00
   14    1   11      0.94      0.00
   14    1   12     -0.60      0.00
   14    1   13      0.94      0.00
   14    1   14     -0.04      0.00
   14    1   15      0.98      0.00
   14    1   16      0.31      0.00
   14    1   17      0.83      0.00
   14    1   18      0.58      0.00
  -14   -2    5     -0.48      0.00
  -14   -2    4      1.88      0.00
  -14   -2    3     -0.32      0.00
  -14   -2    2      1.35      0.00
  -14   -2    1     -0.06      0.00
   14    2    0      0.45      0.00
   14    2    1      0.08      0.00
   14    2    2      0.43      0.00
   14    2    3     -0.23      0.00
   14    2    4      0.89      0.00
   14    2    5     -0.87      0.00
   14    2    6      0.57      0.00
   14    2    7     -0.81      0.00
   14    2    8     -0.21      0.00
   14    2    9     -0.19      0.00
   14    2   10     -0.41      0.00
   14    2   11     -0.12      0.00
   14    2   12     -0.41      0.00
   14    2   13     -0.19      0.00
   14    2   14     -0.48      0.00
   14    2   15      0.19      0.00
   14    2   16     -0.55      0.00
   14    2   17      0.32      0.00
   14    2   18     -1.06      0.00
  -14   -3    4     -0.69      0.00
  -14   -3    3     -0.16      0.00
  -14   -3    2      0.30      0.00
  -14   -3    1     -0.12      0.00
   14    3    0      0.39      0.00
   14    3    1     -0.06      0.00
   14    3    2     -0.11      0.00
   14    3    3      0.34      0.00
   14    3    4      0.22      0.00
   14    3    5      0.16      0.00
   14    3    6      1.32      0.00
   14    3    7     -1.02      0.00
   14    3    8      1.74      0.00
   14    3    9     -1.74      0.00
   14    3   10      1.36      0.00
   14    3   11     -1.27      0.00
   14    3   12      0.91      0.00
   14    3   13     -0.74      0.00
   14    3   14      0.54      0.00
   14    3   15     -0.67      0.00
   14    3   16      0.55      0.00
   14    3   17     -0.42      0.00
   14    3   18      0.64      0.00
  -14   -4    4     -0.96      0.00
  -14   -4    3     -0.16      0.00
  -14   -4    2     -0.53      0.00
  -14   -4    1     -0.47      0.00
   14    4    0      0.42      0.00
   14    4    1     -0.42      0.00
   14    4    2      0.24      0.00
   14    4    3      0.18      0.00
   14    4    4     -0.84      0.00
   14    4    5      0.80      0.00
   14    4    6     -1.05      0.00
   14    4    7      0.78      0.00
   14    4    8     -0.32      0.00
   14    4    9      0.14      0.00
   14    4   10      0.27      0.00
   14    4   11     -0.61      0.00
   14    4   12      0.72      0.00
   14    4   13     -1.04      0.00
   14    4   14      0.92      0.00
   14    4   15     -1.11      0.00
   14    4   16      0.72      0.00
   14    4   17     -0.90      0.00
   14    4   18      0.82      0.00
  -14   -5    3      1.12      0.00
  -14   -5    2     -0.66      0.00
  -14   -5    1      0.69      0.00
   14    5    0     -0.62      0.00
   14    5    1      0.13      0.00
   14    5    2      0.26      0.00
   14    5    3      0.22      0.00
   14    5    4      0.40      0.00
   14    5    5      1.04      0.00
   14    5    6     -0.66      0.00
   14    5    7      1.85      0.00
   14    5    8     -1.51      0.00
   14    5    9      2.08      0.00
   14    5   10     -1.60      0.00
   14    5   11      1.83      0.00
   14    5   12     -1.48      0.00
   14    5   13      1.27      0.00
   14    5   14     -1.18      0.00
   14    5   15      0.56      0.00
   14    5   16     -0.93      0.00
   14    5   17     -0.13      0.00
  -14   -6    2     -0.39      0.00
  -14   -6    1      0.49      0.00
   14    6    0     -0.56      0.00
   14    6    1     -0.02      0.00
   14    6    2     -0.47      0.00
   14    6    3     -1.16      0.00
   14    6    4      0.02      0.00
   14    6    5     -1.51      0.00
   14    6    6      0.57      0.00
   14    6    7     -0.89      0.00
   14    6    8      0.79      0.00
   14    6    9     -0.26      0.00
   14    6   10      0.55      0.00
   14    6   11      0.27      0.00
   14    6   12     -0.14      0.00
   14    6   13      0.96      0.00
   14    6   14     -0.53      0.00
   14    6   15      1.34      0.00
   14    6   16     -0.37      0.00
   14    6   17      1.21      0.00
   14    7    0      0.04      0.00
   14    7    1      0.60      0.00
   14    7    2     -0.03      0.00
   14    7    3      0.37      0.00
   14    7    4      0.15      0.00
   14    7    5     -0.91      0.00
   14    7    6      0.48      0.00
   14    7    7     -1.62      0.00
   14    7    8      1.01      0.00
   14    7    9     -1.35      0.00
   14    7   10      1.70      0.00
   14    7   11     -1.08      0.00
   14    7   12      1.87      0.00
   14    7   13     -0.84      0.00
   14    7   14      1.19      0.00
   14    7   15     -0.37      0.00
   14    8    2      0.19      0.00
   14    8    3      0.37      0.00
   14    8    4     -0.38      0.00
   14    8    5      0.97      0.00
   14    8    6     -0.99      0.00
   14    8    7      0.51      0.00
   14    8    8     -1.60      0.00
   14    8    9     -0.08      0.00
   14    8   10     -1.50      0.00
   14    8   11     -0.19      0.00
   14    8   12     -0.40      0.00
   14    8   13     -0.35      0.00
   14    8   14      0.49      0.00
   14    9    5      0.88      0.00
   14    9    6      0.48      0.00
   14    9    7      1.20      0.00
   14    9    8      0.28      0.00
   14    9    9      0.80      0.00
   14    9   10     -0.56      0.00
   14    9   11      0.25      0.00
   15   -4    4      0.53      0.00
   15   -4    5      0.19      0.00
   15   -4    6      0.70      0.00
   15   -4    7      0.09      0.00
   15   -4    8      0.98      0.00
   15   -3    2      0.23      0.00
   15   -3    3      0.06      0.00
   15   -3    4      0.04      0.00
   15   -3    5      0.40      0.00
   15   -3    6      0.05      0.00
   15   -3    7      0.58      0.00
   15   -3    8      0.17      0.00
   15   -3    9      0.91      0.00
   15   -3   10      0.07      0.00
   15   -3   11      1.14      0.00
  -15    2    0     -0.68      0.00
   15   -2    1     -0.56      0.00
   15   -2    2     -0.06      0.00
   15   -2    3     -0.74      0.00
   15   -2    4      0.38      0.00
   15   -2    5     -0.72      0.00
   15   -2    6      0.23      0.00
   15   -2    7     -0.34      0.00
   15   -2    8      0.12      0.00
   15   -2    9     -0.29      0.00
   15   -2   10      0.37      0.00
   15   -2   11     -0.27      0.00
   15   -2   12      0.64      0.00
   15   -2   13      0.29      0.00
  -15    1    0      0.23      0.00
   15   -1    1      0.36      0.00
   15   -1    2     -0.32      0.00
   15   -1    3      0.18      0.00
   15   -1    4     -0.39      0.00
   15   -1    5     -0.29      0.00
   15   -1    6     -0.25      0.00
   15   -1    7     -0.88      0.00
   15   -1    8     -0.27      0.00
   15   -1    9     -0.86      0.00
   15   -1   10     -0.35      0.00
   15   -1   11     -0.56      0.00
   15   -1   12     -0.56      0.00
   15   -1   13     -0.42      0.00
   15   -1   14     -0.65      0.00
  -15    0    1      0.58      0.00
   15    0    0     -0.37      0.00
   15    0    1      0.48      0.00
   15    0    2     -0.35      0.00
   15    0    3      0.66      0.00
   15    0    4     -0.30      0.00
   15    0    5      1.12      0.00
   15    0    6     -0.05      0.00
   15    0    7      1.21      0.00
   15    0    8     -0.25      0.00
   15    0    9      1.08      0.00
   15    0   10     -0.48      0.00
   15    0   11      0.69      0.00
   15    0   12     -0.23      0.00
   15    0   13     -0.15      0.00
   15    0   14     -0.12      0.00
   15    0   15     -0.88      0.00
  -15   -1    1     -0.58      0.00
   15    1    0      0.30      0.00
   15    1    1     -0.23      0.00
   15    1    2      0.00      0.00
   15    1    3     -0.45      0.00
   15    1    4     -0.50      0.00
   15    1    5     -0.54      0.00
   15    1    6     -0.46      0.00
   15    1    7     -0.19      0.00
   15    1    8      0.00      0.00
   15    1    9      0.31      0.00
   15    1   10      0.08      0.00
   15    1   11      0.79      0.00
   15    1   12      0.07      0.00
   15    1   13      1.31      0.00
   15    1   14     -0.08      0.00
   15    1   15      1.51      0.00
   15    2    0      0.19      0.00
   15    2    1      0.18      0.00
   15    2    2      0.80      0.00
   15    2    3      0.35      0.00
   15    2    4      0.61      0.00
   15    2    5      0.01      0.00
   15    2    6      0.02      0.00
   15    2    7     -0.75      0.00
   15    2    8      0.11      0.00
   15    2    9     -1.19      0.00
   15    2   10      0.13      0.00
   15    2   11     -1.09      0.00
   15    2   12     -0.21      0.00
   15    2   13     -0.71      0.00
   15    2   14     -0.03      0.00
   15    2   15     -0.15      0.00
   15    3    0      0.14      0.00
   15    3    1     -0.94      0.00
   15    3    2      0.15      0.00
   15    3    3     -0.77      0.00
   15    3    4      0.53      0.00
   15    3    5      0.11      0.00
   15    3    6      0.66      0.00
   15    3    7      0.38      0.00
   15    3    8      0.68      0.00
   15    3    9     -0.02      0.00
   15    3   10      0.90      0.00
   15    3   11     -0.42      0.00
   15    3   12      0.99      0.00
   15    3   13     -0.96      0.00
   15    3   14      0.96      0.00
   15    3   15     -1.01      0.00
   15    4    1      0.84      0.00
   15    4    2     -0.18      0.00
   15    4    3     -0.23      0.00
   15    4    4     -0.33      0.00
   15    4    5     -0.39      0.00
   15    4    6     -0.75      0.00
   15    4    7      0.63      0.00
   15    4    8     -1.22      0.00
   15    4    9      1.03      0.00
   15    4   10     -1.03      0.00
   15    4   11      0.63      0.00
   15    4   12     -0.39      0.00
   15    4   13      0.12      0.00
   15    4   14     -0.22      0.00
   15    4   15     -0.50      0.00
   15    5    2     -0.46      0.00
   15    5    3      0.84      0.00
   15    5    4      0.28      0.00
   15    5    5      0.15      0.00
   15    5    6      0.39      0.00
   15    5    7     -0.42      0.00
   15    5    8      0.03      0.00
   15    5    9     -0.17      0.00
   15    5   10     -0.50      0.00
   15    5   11      0.44      0.00
   15    5   12     -0.88      0.00
   15    5   13      0.93      0.00
   15    5   14     -0.85      0.00
   15    6    4     -0.21      0.00
   15    6    5      0.11      0.00
   15    6    6      0.73      0.00
   15    6    7     -0.28      0.00
   15    6    8      0.72      0.00
   15    6    9     -0.48      0.00
   15    6   10     -0.01      0.00
   15    6   11     -0.37      0.00
   15    6   12     -0.39      0.00
  -15    3    0      0.24      0.00
  -15    4    0      0.44      0.00
   15    4    0     -0.15      0.00
  -15    5    0     -0.42      0.00
   15    5    0     -1.02      0.00
  -15    6    0     -0.13      0.00
  -14    6    0      0.43      0.00
   15    6    0      0.03      0.00
  -14    7    0     -0.20      0.00
   15    7    0      1.09      0.00
  -14    8    0      0.24      0.00
  -13    8    0      1.01      0.00
   14    8    0      0.64      0.00
   15    8    0     -0.27      0.00
  -13    9    0     -0.48      0.00
   14    9    0     -0.12      0.00
  -13   10    0     -0.70      0.00
  -12   10    0     -1.03      0.00
   13   10    0      0.40      0.00
   14   10    0      0.15      0.00
  -12   11    0      0.51      0.00
  -11   11    0      1.28      0.00
   12   11    0      0.09      0.00
   13   11    0      0.66      0.00
  -11   12    0     -0.79      0.00
   12   12    0     -0.72      0.00
  -10   13    0      0.08      0.00
   11   13    0      1.13      0.00
   12   13    0      0.51      0.00
   -9   14    0     -0.23      0.00
   -8   14    0     -0.22      0.00
   10   14    0     -0.43      0.00
   11   14    0     -0.84      0.00
   -8   15    0      0.91      0.00
   -7   15    0      0.28      0.00
    8   15    0      0.18      0.00
    9   15    0      0.13      0.00
   10   15    0      0.13      0.00
   -7   16    0      0.06      0.00
   -6   16    0      0.40      0.00
   -5   16    0     -0.17      0.00
   -4   16    0      0.34      0.00
    6   16    0     -0.06      0.00
    7   16    0      0.82      0.00
    8   16    0      0.18      0.00
   -8  -16    1     -0.42      0.00
   -7  -16    1     -0.68      0.00
   -6  -16    1     -0.83      0.00
   -5  -16    1      1.01      0.00
    4  -16    1     -0.05      0.00
    5  -16    1     -0.54      0.00
    6  -16    1      0.29      0.00
    7  -16    1      0.63      0.00
   -9  -15    1      0.46      0.00
   -8  -15    1     -0.61      0.00
    7  -15    1     -0.35      0.00
    8  -15    1     -0.68      0.00
  -10  -14    1     -0.53      0.00
   -9  -14    1      0.23      0.00
    8  -14    1      0.83      0.00
    9  -14    1      0.61      0.00
  -11  -13    1     -0.52      0.00
  -10  -13    1      0.48      0.00
   10  -13    1      0.64      0.00
   11  -13    1      0.57      0.00
  -12  -12    1     -0.66      0.00
  -11  -12    1      1.74      0.00
   11  -12    1     -0.35      0.00
  -13  -11    1      0.12      0.00
  -12  -11    1     -0.51      0.00
   12  -11    1     -0.45      0.00
  -14  -10    1     -0.14      0.00
  -13  -10    1      0.25      0.00
   12  -10    1     -0.33      0.00
   13  -10    1      0.33      0.00
  -14   -9    1      0.09      0.00
   13   -9    1     -0.71      0.00
   14   -9    1     -0.22      0.00
  -14   -8    1     -0.28      0.00
   14   -8    1     -0.01      0.00
  -15   -7    1     -0.47      0.00
  -14   -7    1     -0.21      0.00
   14   -7    1      0.10      0.00
   15   -7    1     -0.02      0.00
  -15   -6    1     -0.35      0.00
   15   -6    1     -0.40      0.00
  -15   -5    1     -0.17      0.00
   15   -5    1      0.25      0.00
  -15   -4    1      0.96      0.00
   15   -4    1      0.71      0.00
  -15   -3    1     -0.29      0.00
   15   -3    1     -0.64      0.00
  -15   -2    1      0.08      0.00
  -15    1    1      0.64      0.00
  -15    2    1     -0.11      0.00
  -15    3    1     -1.57      0.00
  -15    4    1      0.74      0.00
  -15    5    1      0.64      0.00
   15    5    1      0.56      0.00
  -15    6    1     -0.18      0.00
  -14    6    1     -0.02      0.00
   15    6    1     -0.21      0.00
  -14    7    1     -0.34      0.00
   15    7    1     -0.41      0.00
  -14    8    1      0.19      0.00
  -13    8    1      1.11      0.00
   14    8    1     -0.41      0.00
   15    8    1     -0.05      0.00
  -13    9    1     -0.53      0.00
   14    9    1      0.34      0.00
  -13   10    1      0.06      0.00
  -12   10    1     -0.36      0.00
   13   10    1     -0.22      0.00
   14   10    1     -0.46      0.00
  -12   11    1     -0.50      0.00
  -11   11    1     -0.93      0.00
   13   11    1      0.03      0.00
  -11   12    1      0.06      0.00
  -10   12    1      0.10      0.00
   12   12    1     -0.77      0.00
   13   12    1      0.16      0.00
  -10   13    1      0.35      0.00
   -9   13    1     -0.15      0.00
   11   13    1      0.53      0.00
   12   13    1      0.13      0.00
   -9   14    1      0.57      0.00
   -8   14    1      0.56      0.00
   10   14    1     -0.50      0.00
   11   14    1     -0.50      0.00
   -8   15    1     -0.35      0.00
   -7   15    1     -0.61      0.00
    8   15    1     -0.53      0.00
    9   15    1      0.41      0.00
   10   15    1      0.25      0.00
   -7   16    1      0.13      0.00
   -6   16    1      0.10      0.00
   -5   16    1     -0.46      0.00
   -4   16    1      0.54      0.00
    6   16    1     -0.16      0.00
    7   16    1     -0.61      0.00
    8   16    1     -1.48      0.00
   -7  -16    2      0.58      0.00
   -6  -16    2      1.08      0.00
   -5  -16    2     -0.61      0.00
    4  -16    2     -0.69      0.00
    5  -16    2      0.36      0.00
    6  -16    2      1.05      0.00
    7  -16    2     -0.08      0.00
   -9  -15    2      0.02      0.00
   -8  -15    2      0.30      0.00
   -7  -15    2      1.70      0.00
    7  -15    2      0.65      0.00
    8  -15    2      0.56      0.00
  -10  -14    2     -0.03      0.00
   -9  -14    2     -0.86      0.00
    8  -14    2      0.28      0.00
    9  -14    2      0.25      0.00
   10  -14    2     -0.05      0.00
  -11  -13    2      0.47      0.00
  -10  -13    2     -1.43      0.00
   10  -13    2      0.46      0.00
   11  -13    2      0.42      0.00
  -12  -12    2     -0.16      0.00
  -11  -12    2     -0.51      0.00
   11  -12    2     -1.12      0.00
   12  -12    2     -0.12      0.00
  -13  -11    2      0.36      0.00
  -12  -11    2     -0.45      0.00
   12  -11    2      0.70      0.00
  -13  -10    2      0.56      0.00
   12  -10    2     -0.36      0.00
   13  -10    2     -0.30      0.00
  -14   -9    2     -0.10      0.00
  -13   -9    2     -0.43      0.00
   13   -9    2     -1.09      0.00
   14   -9    2     -0.21      0.00
  -14   -8    2      0.54      0.00
   14   -8    2      0.34      0.00
  -15   -7    2      0.39      0.00
  -14   -7    2      0.39      0.00
   14   -7    2     -0.43      0.00
   15   -7    2      0.14      0.00
  -15   -6    2      0.78      0.00
   15   -6    2      0.08      0.00
  -15   -5    2     -0.60      0.00
   15   -5    2     -0.47      0.00
  -15   -4    2     -0.27      0.00
   15   -4    2      0.45      0.00
  -15   -3    2      0.33      0.00
  -15   -2    2     -0.11      0.00
  -15   -1    2      0.58      0.00
  -15    0    2     -0.71      0.00
    0    0    2    171.86      0.00
  -15    1    2      0.73      0.00
  -15    2    2     -0.75      0.00
  -15    3    2     -0.05      0.00
  -15    4    2      0.55      0.00
  -15    5    2     -0.35      0.00
  -14    5    2     -0.41      0.00
  -14    6    2      0.40      0.00
   15    6    2     -0.71      0.00
  -14    7    2      0.30      0.00
   15    7    2      0.87      0.00
  -14    8    2      0.02      0.00
  -13    8    2      0.79      0.00
   15    8    2     -0.28      0.00
  -13    9    2      0.16      0.00
   14    9    2     -0.12      0.00
   15    9    2      0.26      0.00
  -13   10    2     -0.84      0.00
  -12   10    2     -0.73      0.00
   14   10    2      0.48      0.00
  -12   11    2     -0.09      0.00
  -11   11    2      1.07      0.00
   13   11    2      0.41      0.00
   14   11    2     -0.38      0.00
  -11   12    2     -0.23      0.00
  -10   12    2     -0.54      0.00
   12   12    2     -1.40      0.00
   13   12    2      0.27      0.00
  -10   13    2      0.37      0.00
   -9   13    2      0.58      0.00
   11   13    2      1.21      0.00
   12   13    2      0.56      0.00
   -9   14    2     -0.43      0.00
   -8   14    2     -0.59      0.00
   10   14    2     -0.60      0.00
   11   14    2     -0.48      0.00
   -8   15    2      0.48      0.00
   -7   15    2      0.74      0.00
   -6   15    2      0.68      0.00
    9   15    2      0.80      0.00
   10   15    2     -0.19      0.00
   -6   16    2     -0.42      0.00
   -5   16    2     -0.16      0.00
   -4   16    2      1.03      0.00
    6   16    2     -1.12      0.00
    7   16    2      0.34      0.00
    8   16    2      0.10      0.00
    9   16    2     -0.27      0.00
   -7  -16    3     -0.53      0.00
   -6  -16    3     -1.31      0.00
   -5  -16    3      0.33      0.00
   -4  -16    3      0.79      0.00
    4  -16    3     -0.07      0.00
    5  -16    3     -0.28      0.00
    6  -16    3      0.16      0.00
    7  -16    3      0.50      0.00
   -9  -15    3      0.23      0.00
   -8  -15    3      0.48      0.00
   -7  -15    3     -0.80      0.00
    6  -15    3      0.57      0.00
    7  -15    3     -0.39      0.00
    8  -15    3     -0.45      0.00
  -10  -14    3     -0.25      0.00
   -9  -14    3      0.72      0.00
    8  -14    3      0.77      0.00
    9  -14    3     -0.07      0.00
   10  -14    3     -0.19      0.00
  -11  -13    3     -0.69      0.00
  -10  -13    3      0.50      0.00
   10  -13    3      1.04      0.00
   11  -13    3      0.85      0.00
  -12  -12    3     -0.21      0.00
  -11  -12    3      1.39      0.00
   11  -12    3     -0.57      0.00
   12  -12    3     -0.11      0.00
  -12  -11    3     -0.28      0.00
   12  -11    3     -0.38      0.00
  -13  -10    3      0.52      0.00
  -12  -10    3     -0.06      0.00
   12  -10    3     -0.30      0.00
   13  -10    3      0.61      0.00
  -14   -9    3     -0.17      0.00
  -13   -9    3     -0.68      0.00
   13   -9    3     -0.46      0.00
   14   -9    3     -0.26      0.00
  -14   -8    3      0.09      0.00
  -13   -8    3      0.08      0.00
   14   -8    3     -0.33      0.00
  -14   -7    3     -0.78      0.00
   14   -7    3      0.29      0.00
   15   -7    3      0.10      0.00
  -15   -6    3     -0.21      0.00
  -14   -6    3      0.04      0.00
   15   -6    3     -0.40      0.00
  -15   -5    3     -0.26      0.00
   15   -5    3      0.10      0.00
  -15   -4    3      0.13      0.00
   15   -4    3      0.33      0.00
  -15   -3    3      0.06      0.00
  -15   -2    3      0.40      0.00
  -15   -1    3     -0.84      0.00
  -15    0    3      0.22      0.00
  -15    1    3      0.30      0.00
  -15    2    3      0.72      0.00
  -15    3    3     -1.73      0.00
  -15    4    3      0.24      0.00
  -15    5    3      0.55      0.00
  -14    5    3     -0.26      0.00
  -14    6    3      0.48      0.00
   15    6    3      0.08      0.00
  -14    7    3     -0.62      0.00
  -13    7    3     -0.98      0.00
   15    7    3     -0.42      0.00
  -13    8    3      0.88      0.00
   15    8    3      0.11      0.00
  -13    9    3      0.08      0.00
  -12    9    3      1.70      0.00
   14    9    3      0.44      0.00
   15    9    3      0.00      0.00
  -12   10    3     -0.23      0.00
   14   10    3     -0.54      0.00
  -12   11    3     -0.38      0.00
  -11   11    3     -1.36      0.00
   13   11    3     -0.05      0.00
   14   11    3     -0.35      0.00
  -11   12    3      0.08      0.00
  -10   12    3      0.39      0.00
   12   12    3     -0.01      0.00
   13   12    3      0.15      0.00
  -10   13    3      0.59      0.00
   -9   13    3     -0.29      0.00
   11   13    3      1.23      0.00
   12   13    3     -0.44      0.00
   -9   14    3      0.18      0.00
   -8   14    3      0.38      0.00
   10   14    3     -0.68      0.00
   11   14    3     -0.52      0.00
   -8   15    3      0.03      0.00
   -7   15    3     -0.68      0.00
   -6   15    3      0.26      0.00
    9   15    3     -0.42      0.00
   10   15    3      0.38      0.00
   -6   16    3      0.07      0.00
   -5   16    3      0.32      0.00
   -4   16    3      1.16      0.00
    7   16    3     -0.16      0.00
    8   16    3     -2.16      0.00
    9   16    3      0.16      0.00
   -7  -16    4      0.10      0.00
   -6  -16    4      1.28      0.00
   -5  -16    4      0.07      0.00
   -4  -16    4     -0.12      0.00
   -3  -16    4     -0.60      0.00
    3  -16    4      0.31      0.00
    4  -16    4     -0.97      0.00
    5  -16    4      0.47      0.00
    6  -16    4      0.66      0.00
   -8  -15    4      0.11      0.00
   -7  -15    4      1.88      0.00
   -6  -15    4     -0.72      0.00
    6  -15    4     -0.59      0.00
    7  -15    4      0.73      0.00
    8  -15    4     -0.15      0.00
   -9  -14    4     -1.01      0.00
   -8  -14    4     -0.47      0.00
    8  -14    4      0.49      0.00
    9  -14    4      0.17      0.00
  -10  -13    4     -1.36      0.00
   -9  -13    4      0.21      0.00
   10  -13    4      0.89      0.00
   11  -13    4      0.59      0.00
  -11  -12    4     -0.67      0.00
  -10  -12    4      0.28      0.00
   11  -12    4     -0.53      0.00
   12  -12    4     -0.07      0.00
  -12  -11    4     -0.24      0.00
  -11  -11    4      1.41      0.00
   12  -11    4      0.34      0.00
  -13  -10    4      0.44      0.00
  -12  -10    4      0.45      0.00
   12  -10    4     -0.02      0.00
   13  -10    4     -0.01      0.00
  -13   -9    4      0.06      0.00
   13   -9    4     -1.07      0.00
   14   -9    4     -0.21      0.00
  -14   -8    4      0.05      0.00
  -13   -8    4      0.11      0.00
   14   -8    4      0.40      0.00
  -14   -7    4      0.48      0.00
   14   -7    4     -0.54      0.00
   15   -7    4     -0.36      0.00
  -14   -6    4     -0.24      0.00
   15   -6    4      0.47      0.00
  -15   -5    4      0.13      0.00
  -14   -5    4      0.21      0.00
   15   -5    4     -0.56      0.00
  -15   -4    4     -0.33      0.00
  -15   -3    4      0.01      0.00
  -15   -2    4     -0.02      0.00
  -15   -1    4      0.84      0.00
  -15    0    4     -0.81      0.00
  -15    1    4      0.67      0.00
  -15    2    4     -0.27      0.00
  -15    3    4     -0.18      0.00
  -15    4    4      0.32      0.00
  -14    4    4     -0.74      0.00
  -14    5    4     -0.62      0.00
  -14    6    4      0.01      0.00
  -14    7    4      0.47      0.00
  -13    7    4     -0.67      0.00
   15    7    4     -0.08      0.00
  -13    8    4      0.45      0.00
   15    8    4     -0.48      0.00
  -13    9    4      0.25      0.00
  -12    9    4      0.19      0.00
   14    9    4      0.15      0.00
   15    9    4      0.61      0.00
  -12   10    4      0.05      0.00
   14   10    4      0.25      0.00
  -11   11    4      0.92      0.00
   13   11    4     -0.01      0.00
   14   11    4      0.04      0.00
  -11   12    4     -0.13      0.00
  -10   12    4     -1.23      0.00
   12   12    4     -1.37      0.00
   13   12    4      0.16      0.00
  -10   13    4      0.52      0.00
   -9   13    4      0.62      0.00
   11   13    4      0.46      0.00
   12   13    4      0.49      0.00
   -9   14    4     -0.07      0.00
   -8   14    4     -0.78      0.00
   10   14    4     -0.15      0.00
   11   14    4      0.38      0.00
   -8   15    4      0.06      0.00
   -7   15    4      1.08      0.00
   -6   15    4      1.22      0.00
    9   15    4      1.61      0.00
   10   15    4     -0.32      0.00
   -6   16    4     -0.10      0.00
   -5   16    4      0.31      0.00
   -4   16    4      0.41      0.00
    7   16    4     -0.68      0.00
    8   16    4      0.44      0.00
    9   16    4     -0.05      0.00
   -6  -16    5     -1.38      0.00
   -5  -16    5     -0.35      0.00
   -4  -16    5      1.08      0.00
   -3  -16    5      0.08      0.00
   -2  -16    5     -0.34      0.00
    2  -16    5      0.86      0.00
    3  -16    5     -0.17      0.00
    4  -16    5      0.11      0.00
    5  -16    5     -0.09      0.00
    6  -16    5     -0.35      0.00
   -8  -15    5      0.79      0.00
   -7  -15    5     -0.76      0.00
   -6  -15    5      0.73      0.00
    6  -15    5      0.77      0.00
    7  -15    5     -0.43      0.00
    8  -15    5     -0.31      0.00
   -9  -14    5      0.64      0.00
   -8  -14    5     -0.60      0.00
    8  -14    5      0.41      0.00
    9  -14    5     -0.49      0.00
  -10  -13    5      0.16      0.00
   -9  -13    5     -0.25      0.00
    9  -13    5      1.19      0.00
   10  -13    5      0.85      0.00
   11  -13    5      0.75      0.00
  -11  -12    5      0.45      0.00
  -10  -12    5     -0.11      0.00
   11  -12    5     -0.37      0.00
   12  -12    5      0.01      0.00
  -12  -11    5      0.11      0.00
  -11  -11    5      0.23      0.00
   12  -11    5     -0.09      0.00
  -12  -10    5     -0.68      0.00
   12  -10    5     -0.18      0.00
   13  -10    5      0.38      0.00
  -13   -9    5     -0.12      0.00
  -12   -9    5      0.35      0.00
   13   -9    5      0.09      0.00
   14   -9    5     -0.13      0.00
  -13   -8    5      0.16      0.00
   14   -8    5     -0.46      0.00
  -14   -7    5     -0.68      0.00
  -13   -7    5     -0.53      0.00
   14   -7    5      0.00      0.00
   15   -7    5      0.04      0.00
  -14   -6    5     -0.50      0.00
   15   -6    5     -0.35      0.00
  -14   -5    5      0.96      0.00
   15   -5    5      0.00      0.00
  -15   -4    5     -0.24      0.00
  -14   -4    5      0.22      0.00
  -15   -3    5     -0.14      0.00
  -14   -3    5     -0.31      0.00
  -15   -2    5      0.56      0.00
  -15   -1    5     -0.15      0.00
  -15    0    5     -0.09      0.00
  -15    1    5     -0.51      0.00
  -15    2    5      0.96      0.00
  -14    2    5     -0.18      0.00
  -15    3    5     -0.94      0.00
  -14    3    5     -0.68      0.00
  -14    4    5      0.85      0.00
  -14    5    5     -0.52      0.00
  -14    6    5      0.61      0.00
  -13    6    5     -0.65      0.00
  -13    7    5     -0.72      0.00
   15    7    5     -0.12      0.00
  -13    8    5      0.01      0.00
  -12    8    5     -1.04      0.00
   15    8    5     -0.35      0.00
  -12    9    5      1.03      0.00
   15    9    5      0.44      0.00
  -12   10    5      0.14      0.00
  -11   10    5      0.92      0.00
   14   10    5     -0.32      0.00
   15   10    5     -0.23      0.00
  -11   11    5     -0.93      0.00
   13   11    5     -0.13      0.00
   14   11    5     -0.91      0.00
  -10   12    5     -0.04      0.00
   13   12    5      0.24      0.00
  -10   13    5      0.57      0.00
   -9   13    5     -0.36      0.00
   12   13    5     -0.80      0.00
   13   13    5     -0.27      0.00
   -9   14    5      0.07      0.00
   -8   14    5      0.44      0.00
   -7   14    5      0.97      0.00
   10   14    5     -1.20      0.00
   11   14    5     -0.54      0.00
   12   14    5      0.31      0.00
   -7   15    5     -0.42      0.00
   -6   15    5      0.70      0.00
    8   15    5      1.85      0.00
    9   15    5     -0.84      0.00
   10   15    5      0.22      0.00
   -6   16    5      0.04      0.00
   -5   16    5      0.73      0.00
   -4   16    5      0.94      0.00
    7   16    5      0.94      0.00
    8   16    5     -1.29      0.00
    9   16    5      0.13      0.00
   -5  -16    6      0.93      0.00
   -4  -16    6     -0.07      0.00
   -3  -16    6     -0.33      0.00
   -2  -16    6     -1.14      0.00
   -1  -16    6      0.69      0.00
    0  -16    6      1.32      0.00
    1  -16    6     -0.25      0.00
    2  -16    6     -0.67      0.00
    3  -16    6     -0.09      0.00
    4  -16    6     -0.44      0.00
    5  -16    6     -0.05      0.00
    6  -16    6      0.32      0.00
   -7  -15    6      0.91      0.00
   -6  -15    6      0.20      0.00
   -5  -15    6     -1.69      0.00
    6  -15    6     -0.30      0.00
    7  -15    6     -0.14      0.00
    8  -15    6     -0.13      0.00
   -9  -14    6     -0.43      0.00
   -8  -14    6     -0.09      0.00
   -7  -14    6     -0.64      0.00
    8  -14    6      0.35      0.00
    9  -14    6     -0.10      0.00
  -10  -13    6     -0.59      0.00
   -9  -13    6      0.30      0.00
   -8  -13    6     -1.02      0.00
    9  -13    6      0.78      0.00
   10  -13    6      0.80      0.00
  -11  -12    6     -0.66      0.00
  -10  -12    6     -0.63      0.00
   11  -12    6      0.03      0.00
  -11  -11    6      1.42      0.00
   12  -11    6      0.13      0.00
  -12  -10    6      0.26      0.00
  -11  -10    6     -0.62      0.00
   12  -10    6     -0.22      0.00
   13  -10    6      0.08      0.00
  -13   -9    6      0.20      0.00
  -12   -9    6     -0.49      0.00
   13   -9    6     -0.75      0.00
   14   -9    6     -0.19      0.00
  -13   -8    6      0.54      0.00
  -12   -8    6      0.90      0.00
   14   -8    6      0.80      0.00
  -13   -7    6     -0.26      0.00
   14   -7    6     -0.53      0.00
   15   -7    6     -0.67      0.00
  -14   -6    6     -0.31      0.00
  -13   -6    6     -0.55      0.00
   15   -6    6      0.41      0.00
  -14   -5    6      0.76      0.00
   15   -5    6     -0.57      0.00
  -14   -4    6     -0.37      0.00
  -14   -3    6     -1.36      0.00
  -15   -2    6     -0.13      0.00
  -14   -2    6      1.16      0.00
  -15   -1    6      0.63      0.00
  -14   -1    6      0.61      0.00
  -15    0    6     -0.48      0.00
  -14    0    6      0.22      0.00
  -15    1    6      0.09      0.00
  -14    1    6     -0.67      0.00
  -14    2    6     -0.35      0.00
  -14    3    6      0.70      0.00
  -14    4    6      0.00      0.00
  -14    5    6     -0.63      0.00
  -13    5    6     -0.06      0.00
  -14    6    6     -0.21      0.00
  -13    6    6      0.51      0.00
  -13    7    6     -0.68      0.00
   15    7    6     -0.21      0.00
  -13    8    6      0.27      0.00
  -12    8    6     -0.33      0.00
   15    8    6     -1.19      0.00
  -12    9    6      0.10      0.00
   15    9    6      0.65      0.00
  -12   10    6      0.12      0.00
  -11   10    6     -0.94      0.00
   14   10    6      0.09      0.00
   15   10    6      0.63      0.00
  -11   11    6      0.87      0.00
  -10   11    6      1.18      0.00
   13   11    6     -0.08      0.00
   14   11    6     -0.05      0.00
  -10   12    6     -0.96      0.00
   -9   12    6     -0.60      0.00
   13   12    6     -0.12      0.00
   -9   13    6      0.24      0.00
   -8   13    6      0.68      0.00
   12   13    6      0.80      0.00
   13   13    6      0.37      0.00
   -8   14    6     -0.54      0.00
   -7   14    6     -0.79      0.00
   10   14    6     -0.40      0.00
   11   14    6      0.92      0.00
   12   14    6     -0.29      0.00
   -7   15    6      0.58      0.00
   -6   15    6      0.52      0.00
    8   15    6     -1.59      0.00
    9   15    6      1.12      0.00
   10   15    6      0.14      0.00
   11   15    6     -0.88      0.00
   -6   16    6      0.39      0.00
   -5   16    6      0.17      0.00
   -4   16    6     -0.49      0.00
   -3   16    6      0.13      0.00
    7   16    6     -0.99      0.00
    8   16    6      0.49      0.00
    9   16    6      0.55      0.00
   -5  -16    7     -0.33      0.00
   -4  -16    7      0.37      0.00
   -3  -16    7     -0.05      0.00
   -2  -16    7      0.81      0.00
   -1  -16    7      1.05      0.00
    0  -16    7      0.85      0.00
    1  -16    7      0.35      0.00
    2  -16    7      0.73      0.00
    3  -16    7      0.36      0.00
    4  -16    7     -0.13      0.00
    5  -16    7      0.09      0.00
    6  -16    7     -0.57      0.00
   -7  -15    7     -0.22      0.00
   -6  -15    7      0.07      0.00
   -5  -15    7      0.66      0.00
   -4  -15    7      1.82      0.00
    5  -15    7     -0.55      0.00
    6  -15    7     -0.18      0.00
    7  -15    7     -0.25      0.00
    8  -15    7     -0.44      0.00
   -8  -14    7      0.05      0.00
   -7  -14    7      0.46      0.00
   -6  -14    7      0.53      0.00
    7  -14    7      0.22      0.00
    8  -14    7      0.14      0.00
    9  -14    7     -0.40      0.00
   -9  -13    7     -0.10      0.00
   -8  -13    7      0.35      0.00
    9  -13    7      1.21      0.00
   10  -13    7      0.66      0.00
  -10  -12    7     -0.28      0.00
   -9  -12    7      0.62      0.00
   10  -12    7      0.37      0.00
   11  -12    7      0.13      0.00
  -11  -11    7      0.35      0.00
  -10  -11    7      0.46      0.00
   11  -11    7     -0.53      0.00
   12  -11    7      0.12      0.00
  -12  -10    7     -0.50      0.00
  -11  -10    7     -0.04      0.00
   12  -10    7     -0.36      0.00
   13  -10    7     -0.01      0.00
  -12   -9    7     -0.28      0.00
   13   -9    7      0.43      0.00
   14   -9    7     -0.23      0.00
  -13   -8    7      0.47      0.00
  -12   -8    7      0.97      0.00
   14   -8    7     -0.07      0.00
  -13   -7    7     -0.42      0.00
   14   -7    7     -0.52      0.00
   15   -7    7      0.15      0.00
  -13   -6    7     -1.06      0.00
   15   -6    7     -0.24      0.00
  -14   -5    7      0.44      0.00
  -13   -5    7      1.26      0.00
   15   -5    7     -0.18      0.00
  -14   -4    7      0.42      0.00
  -14   -3    7     -0.28      0.00
  -14   -2    7     -0.28      0.00
  -14   -1    7      0.12      0.00
  -14    0    7     -0.28      0.00
  -14    1    7      0.32      0.00
  -14    2    7     -0.26      0.00
  -14    3    7     -0.24      0.00
  -14    4    7      0.57      0.00
  -13    4    7     -0.28      0.00
  -14    5    7     -0.41      0.00
  -13    5    7      1.15      0.00
  -13    6    7     -0.49      0.00
  -13    7    7     -0.26      0.00
  -12    7    7     -0.67      0.00
   15    7    7      0.40      0.00
  -12    8    7     -0.91      0.00
   15    8    7     -0.68      0.00
  -12    9    7      0.27      0.00
  -11    9    7      0.89      0.00
   15    9    7      0.50      0.00
  -11   10    7      0.52      0.00
   14   10    7      0.18      0.00
   15   10    7     -0.23      0.00
  -11   11    7     -0.23      0.00
  -10   11    7     -0.21      0.00
   13   11    7     -0.37      0.00
   14   11    7     -1.11      0.00
  -10   12    7     -0.45      0.00
   -9   12    7      0.52      0.00
   13   12    7      0.29      0.00
   -9   13    7     -0.29      0.00
   -8   13    7     -0.23      0.00
   12   13    7     -0.60      0.00
   13   13    7     -0.39      0.00
   -8   14    7      0.27      0.00
   -7   14    7      0.35      0.00
   11   14    7     -1.19      0.00
   12   14    7      0.23      0.00
   -7   15    7      0.00      0.00
   -6   15    7      0.57      0.00
   -5   15    7     -0.84      0.00
    8   15    7      1.49      0.00
    9   15    7     -0.02      0.00
   10   15    7     -0.91      0.00
   11   15    7      0.24      0.00
   -5   16    7      0.46      0.00
   -4   16    7      0.26      0.00
   -3   16    7      0.05      0.00
    7   16    7      1.55      0.00
    8   16    7      0.15      0.00
    9   16    7     -0.14      0.00
   -4  -16    8     -0.08      0.00
   -3  -16    8      0.08      0.00
   -2  -16    8     -0.63      0.00
   -1  -16    8      0.68      0.00
    0  -16    8      0.85      0.00
    1  -16    8     -0.26      0.00
    2  -16    8     -0.62      0.00
    3  -16    8     -0.81      0.00
    4  -16    8     -0.21      0.00
    5  -16    8     -0.50      0.00
   -6  -15    8     -0.12      0.00
   -5  -15    8     -0.65      0.00
   -4  -15    8     -0.47      0.00
   -3  -15    8     -1.00      0.00
    4  -15    8      0.88      0.00
    5  -15    8      0.42      0.00
    6  -15    8     -0.15      0.00
    7  -15    8     -0.49      0.00
   -7  -14    8     -0.85      0.00
   -6  -14    8     -0.18      0.00
    7  -14    8      0.10      0.00
    8  -14    8      0.02      0.00
    9  -14    8     -0.12      0.00
   -9  -13    8      0.26      0.00
   -8  -13    8     -0.45      0.00
   -7  -13    8      1.31      0.00
    9  -13    8      0.74      0.00
   10  -13    8      0.52      0.00
  -10  -12    8     -0.69      0.00
   -9  -12    8     -0.75      0.00
   10  -12    8     -0.09      0.00
   11  -12    8     -0.07      0.00
  -10  -11    8      0.87      0.00
   11  -11    8      0.47      0.00
   12  -11    8      0.30      0.00
  -11  -10    8      0.22      0.00
  -10  -10    8      0.48      0.00
   12  -10    8      0.03      0.00
   13  -10    8     -0.04      0.00
  -12   -9    8     -0.25      0.00
  -11   -9    8     -1.47      0.00
   13   -9    8     -0.58      0.00
   14   -9    8     -0.36      0.00
  -12   -8    8      0.71      0.00
   14   -8    8      0.82      0.00
  -13   -7    8     -0.11      0.00
  -12   -7    8      0.21      0.00
   14   -7    8     -0.04      0.00
   15   -7    8     -0.45      0.00
  -13   -6    8     -0.54      0.00
   15   -6    8      0.09      0.00
  -13   -5    8     -0.16      0.00
   15   -5    8     -1.07      0.00
  -14   -4    8      0.14      0.00
  -13   -4    8      0.72      0.00
  -14   -3    8     -1.06      0.00
  -13   -3    8     -1.00      0.00
  -14   -2    8      0.27      0.00
  -14   -1    8      0.57      0.00
  -14    0    8      0.16      0.00
  -14    1    8      0.07      0.00
  -14    2    8     -0.16      0.00
  -13    2    8     -0.24      0.00
  -14    3    8      0.07      0.00
  -13    3    8      0.31      0.00
  -13    4    8     -0.31      0.00
  -13    5    8      0.17      0.00
  -13    6    8      0.46      0.00
  -13    7    8     -0.55      0.00
  -12    7    8      0.13      0.00
   15    7    8      0.84      0.00
  -12    8    8     -0.64      0.00
   15    8    8     -1.62      0.00
  -12    9    8      0.18      0.00
  -11    9    8     -0.10      0.00
   15    9    8      0.15      0.00
  -11   10    8     -0.53      0.00
  -10   10    8      0.27      0.00
   14   10    8      0.62      0.00
   15   10    8      0.84      0.00
  -10   11    8      0.63      0.00
   13   11    8      0.08      0.00
   14   11    8     -0.46      0.00
  -10   12    8     -0.09      0.00
   -9   12    8     -0.42      0.00
   13   12    8      0.03      0.00
   -9   13    8     -0.19      0.00
   -8   13    8      0.50      0.00
   12   13    8      1.31      0.00
   13   13    8     -0.01      0.00
   -8   14    8     -0.06      0.00
   -7   14    8     -0.43      0.00
   -6   14    8     -0.52      0.00
   10   14    8     -1.54      0.00
   11   14    8      1.30      0.00
   12   14    8     -0.23      0.00
   -6   15    8     -0.18      0.00
   -5   15    8      0.30      0.00
    9   15    8     -0.34      0.00
   10   15    8      0.38      0.00
   11   15    8     -0.79      0.00
   -5   16    8     -0.20      0.00
   -4   16    8     -0.24      0.00
   -3   16    8      0.10      0.00
   -2   16    8      0.74      0.00
    7   16    8     -0.62      0.00
    8   16    8     -0.33      0.00
    9   16    8      0.62      0.00
   -3  -16    9     -0.08      0.00
   -2  -16    9      0.58      0.00
   -1  -16    9      1.36      0.00
    0  -16    9     -0.09      0.00
    1  -16    9     -0.26      0.00
    2  -16    9     -0.05      0.00
    3  -16    9      0.50      0.00
    4  -16    9     -0.68      0.00
   -5  -15    9      0.64      0.00
   -4  -15    9      1.52      0.00
   -3  -15    9      1.34      0.00
   -2  -15    9      0.41      0.00
   -1  -15    9      0.07      0.00
    3  -15    9      0.10      0.00
    4  -15    9      0.14      0.00
    5  -15    9     -0.29      0.00
    6  -15    9     -0.77      0.00
    7  -15    9     -0.37      0.00
   -7  -14    9      0.17      0.00
   -6  -14    9     -0.18      0.00
   -5  -14    9      0.25      0.00
    7  -14    9      0.16      0.00
    8  -14    9     -0.03      0.00
    9  -14    9     -0.54      0.00
   -8  -13    9      0.40      0.00
   -7  -13    9     -0.19      0.00
    8  -13    9      0.51      0.00
    9  -13    9      1.44      0.00
   10  -13    9      0.49      0.00
   -9  -12    9      0.47      0.00
   -8  -12    9     -0.50      0.00
   10  -12    9      0.40      0.00
   11  -12    9      0.58      0.00
  -10  -11    9     -0.18      0.00
   -9  -11    9     -0.19      0.00
   11  -11    9      0.15      0.00
   12  -11    9      0.07      0.00
  -11  -10    9     -0.24      0.00
  -10  -10    9      1.06      0.00
   12  -10    9     -0.60      0.00
   13  -10    9      0.15      0.00
  -11   -9    9     -0.30      0.00
   13   -9    9      0.09      0.00
   14   -9    9     -0.33      0.00
  -12   -8    9      0.44      0.00
  -11   -8    9      0.42      0.00
   14   -8    9      0.17      0.00
  -12   -7    9      0.61      0.00
   14   -7    9     -0.31      0.00
   15   -7    9      0.23      0.00
  -13   -6    9     -1.01      0.00
  -12   -6    9     -1.69      0.00
   15   -6    9     -0.08      0.00
  -13   -5    9      0.48      0.00
   15   -5    9     -0.12      0.00
  -13   -4    9      0.87      0.00
   15   -4    9     -0.19      0.00
  -13   -3    9      0.17      0.00
  -14   -2    9     -0.05      0.00
  -13   -2    9     -1.82      0.00
  -14   -1    9      0.09      0.00
  -13   -1    9      0.54      0.00
  -14    0    9      0.01      0.00
  -13    0    9      0.46      0.00
  -14    1    9     -0.14      0.00
  -13    1    9     -0.56      0.00
  -13    2    9      1.15      0.00
  -13    3    9     -0.19      0.00
  -13    4    9     -0.56      0.00
  -13    5    9      0.54      0.00
  -12    5    9     -0.31      0.00
  -13    6    9     -0.04      0.00
  -12    6    9      1.68      0.00
  -12    7    9     -0.28      0.00
   15    7    9      0.37      0.00
  -12    8    9     -0.67      0.00
  -11    8    9     -1.82      0.00
   15    8    9     -0.09      0.00
  -11    9    9      0.67      0.00
   15    9    9     -0.27      0.00
  -11   10    9      0.00      0.00
  -10   10    9     -0.10      0.00
   14   10    9      0.47      0.00
   15   10    9      0.21      0.00
  -10   11    9      0.31      0.00
   -9   11    9     -0.90      0.00
   13   11    9     -0.45      0.00
   14   11    9     -0.68      0.00
   -9   12    9      0.56      0.00
   -8   12    9      0.41      0.00
   13   12    9      0.11      0.00
   -8   13    9     -0.07      0.00
   -7   13    9     -0.41      0.00
   12   13    9     -0.60      0.00
   13   13    9     -0.53      0.00
   -7   14    9     -0.29      0.00
   -6   14    9     -0.93      0.00
   10   14    9      1.04      0.00
   11   14    9     -1.64      0.00
   12   14    9      0.30      0.00
   -6   15    9      0.41      0.00
   -5   15    9     -0.70      0.00
   -4   15    9     -0.28      0.00
    9   15    9      0.75      0.00
   10   15    9     -1.52      0.00
   11   15    9     -0.12      0.00
   -5   16    9      0.28      0.00
   -4   16    9     -0.08      0.00
   -3   16    9      0.36      0.00
   -2   16    9     -0.36      0.00
    6   16    9      1.46      0.00
    7   16    9      0.68      0.00
    8   16    9      0.46      0.00
    9   16    9     -0.18      0.00
   -1  -16   10     -0.22      0.00
    0  -16   10     -0.04      0.00
    1  -16   10     -0.25      0.00
    2  -16   10     -0.62      0.00
    3  -16   10     -1.04      0.00
   -4  -15   10     -0.24      0.00
   -3  -15   10     -0.97      0.00
   -2  -15   10     -0.49      0.00
   -1  -15   10      0.87      0.00
    0  -15   10      1.60      0.00
    1  -15   10     -0.26      0.00
    2  -15   10     -0.42      0.00
    3  -15   10      0.64      0.00
    4  -15   10      0.74      0.00
    5  -15   10     -0.08      0.00
    6  -15   10     -0.28      0.00
   -6  -14   10      0.35      0.00
   -5  -14   10     -1.51      0.00
   -4  -14   10     -0.85      0.00
    6  -14   10      0.20      0.00
    7  -14   10     -0.89      0.00
    8  -14   10     -0.35      0.00
   -8  -13   10      0.19      0.00
   -7  -13   10      0.45      0.00
   -6  -13   10     -0.31      0.00
    8  -13   10      0.51      0.00
    9  -13   10      0.43      0.00
   10  -13   10      0.26      0.00
   -9  -12   10     -0.27      0.00
   -8  -12   10     -0.37      0.00
   -7  -12   10      0.74      0.00
   10  -12   10      1.00      0.00
   11  -12   10     -0.36      0.00
   -9  -11   10      0.37      0.00
   -8  -11   10      1.04      0.00
   11  -11   10      0.52      0.00
   12  -11   10      0.29      0.00
  -10  -10   10     -0.16      0.00
   -9  -10   10      0.95      0.00
   12  -10   10      0.39      0.00
   13  -10   10     -0.11      0.00
  -11   -9   10     -0.76      0.00
  -10   -9   10      0.01      0.00
   13   -9   10     -0.25      0.00
  -11   -8   10     -0.06      0.00
   13   -8   10     -0.42      0.00
   14   -8   10      0.15      0.00
  -12   -7   10      0.19      0.00
  -11   -7   10      0.68      0.00
   14   -7   10      0.25      0.00
   15   -7   10     -0.05      0.00
  -12   -6   10     -0.37      0.00
   15   -6   10      0.33      0.00
  -13   -5   10     -0.20      0.00
  -12   -5   10     -1.05      0.00
   15   -5   10     -1.49      0.00
  -13   -4   10      0.60      0.00
  -12   -4   10      1.32      0.00
   15   -4   10      0.83      0.00
  -13   -3   10     -0.54      0.00
  -13   -2   10     -0.34      0.00
  -13   -1   10      0.81      0.00
  -13    0   10      0.23      0.00
  -13    1   10     -0.31      0.00
  -13    2   10     -0.66      0.00
  -13    3   10      0.66      0.00
  -13    4   10     -0.41      0.00
  -12    4   10      0.20      0.00
  -13    5   10     -0.02      0.00
  -12    5   10     -0.38      0.00
  -12    6   10      0.04      0.00
  -12    7   10      0.63      0.00
  -11    7   10      1.23      0.00
   15    7   10      1.65      0.00
  -11    8   10     -0.44      0.00
   15    8   10     -1.21      0.00
  -11    9   10     -0.22      0.00
  -10    9   10     -1.25      0.00
   15    9   10     -0.10      0.00
  -10   10   10      0.16      0.00
   14   10   10      1.01      0.00
   15   10   10      0.15      0.00
  -10   11   10     -0.08      0.00
   -9   11   10      0.74      0.00
   13   11   10      0.14      0.00
   14   11   10     -0.23      0.00
   -9   12   10     -0.08      0.00
   -8   12   10     -0.45      0.00
   13   12   10      0.55      0.00
   -8   13   10      0.02      0.00
   -7   13   10      0.08      0.00
   12   13   10      1.16      0.00
   13   13   10     -0.25      0.00
   -7   14   10     -0.13      0.00
   -6   14   10     -0.21      0.00
   10   14   10     -1.95      0.00
   11   14   10      0.96      0.00
   12   14   10      0.00      0.00
   -6   15   10     -0.41      0.00
   -5   15   10      0.01      0.00
   -4   15   10     -0.48      0.00
    9   15   10     -1.00      0.00
   10   15   10      0.07      0.00
   -4   16   10      0.28      0.00
   -3   16   10      0.19      0.00
   -2   16   10      0.41      0.00
   -1   16   10      0.27      0.00
    6   16   10      1.42      0.00
    7   16   10     -0.89      0.00
    8   16   10     -1.03      0.00
    9   16   10      0.41      0.00
   -3  -15   11      1.25      0.00
   -2  -15   11      0.81      0.00
   -1  -15   11      1.00      0.00
    0  -15   11      0.74      0.00
    1  -15   11      0.41      0.00
    2  -15   11      0.65      0.00
    3  -15   11      0.09      0.00
    4  -15   11      0.07      0.00
    5  -15   11     -0.69      0.00
    6  -15   11     -0.49      0.00
   -5  -14   11      0.19      0.00
   -4  -14   11      1.56      0.00
   -3  -14   11      0.26      0.00
   -2  -14   11     -1.00      0.00
    5  -14   11      0.41      0.00
    6  -14   11     -0.64      0.00
    7  -14   11     -0.03      0.00
    8  -14   11     -0.25      0.00
   -7  -13   11     -0.16      0.00
   -6  -13   11      0.68      0.00
   -5  -13   11     -0.09      0.00
    8  -13   11      0.45      0.00
    9  -13   11      0.82      0.00
   -8  -12   11      0.02      0.00
   -7  -12   11      0.21      0.00
    9  -12   11      0.57      0.00
   10  -12   11      0.29      0.00
   11  -12   11      0.67      0.00
   -9  -11   11      0.40      0.00
   -8  -11   11     -0.79      0.00
   11  -11   11      0.48      0.00
   12  -11   11     -0.08      0.00
  -10  -10   11      0.40      0.00
   -9  -10   11     -0.07      0.00
   12  -10   11     -0.61      0.00
   13  -10   11      0.39      0.00
  -10   -9   11     -0.07      0.00
   13   -9   11     -0.13      0.00
  -11   -8   11      0.46      0.00
  -10   -8   11     -0.08      0.00
   13   -8   11      0.49      0.00
   14   -8   11     -0.35      0.00
  -11   -7   11      0.47      0.00
   14   -7   11      0.12      0.00
   15   -7   11     -0.04      0.00
  -12   -6   11     -1.02      0.00
  -11   -6   11     -0.17      0.00
   14   -6   11     -0.18      0.00
   15   -6   11      0.02      0.00
  -12   -5   11     -0.07      0.00
   15   -5   11     -0.07      0.00
  -12   -4   11      0.92      0.00
   15   -4   11     -0.71      0.00
  -13   -3   11      0.40      0.00
  -12   -3   11      0.13      0.00
  -13   -2   11     -1.12      0.00
  -12   -2   11     -0.91      0.00
  -13   -1   11      0.43      0.00
  -12   -1   11     -0.11      0.00
  -13    0   11      0.10      0.00
  -12    0   11      0.18      0.00
  -13    1   11     -0.65      0.00
  -12    1   11      0.99      0.00
  -13    2   11      0.56      0.00
  -12    2   11     -0.34      0.00
  -13    3   11      0.25      0.00
  -12    3   11     -0.26      0.00
  -12    4   11     -0.02      0.00
  -12    5   11     -0.88      0.00
  -12    6   11      0.79      0.00
  -11    6   11      0.80      0.00
  -11    7   11      1.04      0.00
   15    7   11     -0.26      0.00
  -11    8   11     -1.27      0.00
  -10    8   11     -0.83      0.00
   15    8   11      1.01      0.00
  -11    9   11      0.14      0.00
  -10    9   11      0.20      0.00
   15    9   11     -0.85      0.00
  -10   10   11     -0.08      0.00
   -9   10   11      0.44      0.00
   14   10   11      0.21      0.00
   15   10   11      0.23      0.00
   -9   11   11     -0.78      0.00
   -8   11   11     -0.54      0.00
   13   11   11     -0.42      0.00
   14   11   11     -0.17      0.00
   -8   12   11     -0.08      0.00
   12   12   11      0.23      0.00
   13   12   11      0.04      0.00
   -8   13   11      0.27      0.00
   -7   13   11      0.06      0.00
   -6   13   11      0.31      0.00
   11   13   11      2.51      0.00
   12   13   11     -0.57      0.00
   13   13   11     -0.30      0.00
   -6   14   11     -0.73      0.00
   -5   14   11      0.79      0.00
   10   14   11      1.44      0.00
   11   14   11     -1.02      0.00
   12   14   11      0.28      0.00
   -5   15   11     -0.52      0.00
   -4   15   11     -0.27      0.00
   -3   15   11     -0.69      0.00
    8   15   11      0.82      0.00
    9   15   11      0.54      0.00
   10   15   11     -1.01      0.00
   -4   16   11     -0.34      0.00
   -3   16   11     -0.15      0.00
   -2   16   11     -0.51      0.00
   -1   16   11     -0.10      0.00
    0   16   11     -0.04      0.00
    5   16   11      1.08      0.00
    6   16   11      0.22      0.00
    7   16   11     -0.72      0.00
    8   16   11      0.20      0.00
    9   16   11     -0.15      0.00
   -2  -15   12     -0.57      0.00
   -1  -15   12      0.64      0.00
    0  -15   12      0.43      0.00
    1  -15   12      0.04      0.00
    2  -15   12     -0.68      0.00
    3  -15   12     -0.21      0.00
    4  -15   12     -0.01      0.00
    5  -15   12     -0.41      0.00
   -5  -14   12     -0.54      0.00
   -4  -14   12     -0.46      0.00
   -3  -14   12     -0.21      0.00
   -2  -14   12      0.38      0.00
   -1  -14   12     -0.21      0.00
    0  -14   12      0.91      0.00
    1  -14   12      0.21      0.00
    2  -14   12      0.32      0.00
    3  -14   12      1.82      0.00
    4  -14   12      1.32      0.00
    5  -14   12      0.49      0.00
    6  -14   12     -0.07      0.00
    7  -14   12     -0.62      0.00
   -6  -13   12      0.16      0.00
   -5  -13   12     -0.47      0.00
   -4  -13   12      0.27      0.00
    7  -13   12      0.04      0.00
    8  -13   12     -0.31      0.00
    9  -13   12     -0.23      0.00
   -7  -12   12      0.40      0.00
   -6  -12   12      1.25      0.00
    9  -12   12      1.40      0.00
   10  -12   12      0.97      0.00
   -8  -11   12     -0.17      0.00
   -7  -11   12      1.18      0.00
   10  -11   12      0.00      0.00
   11  -11   12      0.45      0.00
   -9  -10   12      0.35      0.00
   -8  -10   12      1.53      0.00
   11  -10   12      0.03      0.00
   12  -10   12      0.34      0.00
  -10   -9   12     -0.43      0.00
   -9   -9   12     -0.20      0.00
   12   -9   12      0.09      0.00
   13   -9   12      0.00      0.00
  -10   -8   12     -0.17      0.00
   13   -8   12     -1.42      0.00
   14   -8   12     -0.03      0.00
  -11   -7   12      0.31      0.00
  -10   -7   12      0.31      0.00
   14   -7   12      0.22      0.00
  -11   -6   12      0.23      0.00
   14   -6   12      0.25      0.00
   15   -6   12      0.43      0.00
  -12   -5   12     -0.97      0.00
  -11   -5   12     -1.01      0.00
   15   -5   12     -0.83      0.00
  -12   -4   12      0.92      0.00
  -11   -4   12      0.18      0.00
   15   -4   12      0.24      0.00
  -12   -3   12     -0.11      0.00
   15   -3   12      0.22      0.00
  -12   -2   12     -0.23      0.00
  -12   -1   12      0.64      0.00
  -12    0   12     -0.07      0.00
  -12    1   12     -0.49      0.00
  -12    2   12     -0.50      0.00
  -12    3   12      0.04      0.00
  -12    4   12      0.80      0.00
  -12    5   12     -0.23      0.00
  -11    5   12     -1.40      0.00
  -11    6   12     -0.22      0.00
  -11    7   12      0.71      0.00
   15    7   12      1.45      0.00
  -11    8   12     -0.06      0.00
  -10    8   12      0.40      0.00
   15    8   12     -0.52      0.00
  -10    9   12     -0.95      0.00
   -9    9   12     -0.16      0.00
   14    9   12     -1.20      0.00
   15    9   12      0.09      0.00
  -10   10   12      0.08      0.00
   -9   10   12     -0.39      0.00
   14   10   12      0.52      0.00
   15   10   12     -0.54      0.00
   -9   11   12      0.19      0.00
   -8   11   12      0.24      0.00
   13   11   12      0.22      0.00
   14   11   12      0.37      0.00
   -8   12   12      0.20      0.00
   -7   12   12     -0.09      0.00
   12   12   12     -0.74      0.00
   13   12   12      0.45      0.00
   -7   13   12     -0.18      0.00
   -6   13   12      0.81      0.00
   11   13   12     -0.12      0.00
   12   13   12      0.41      0.00
   -6   14   12      0.15      0.00
   -5   14   12     -0.51      0.00
   -4   14   12      0.82      0.00
   10   14   12     -1.38      0.00
   11   14   12      0.04      0.00
   -5   15   12     -0.23      0.00
   -4   15   12     -0.54      0.00
   -3   15   12      0.06      0.00
   -2   15   12      0.05      0.00
    8   15   12      0.80      0.00
    9   15   12     -0.86      0.00
   10   15   12     -0.16      0.00
   -3   16   12     -0.23      0.00
   -2   16   12      0.07      0.00
   -1   16   12      0.42      0.00
    0   16   12      0.26      0.00
    1   16   12      0.01      0.00
    2   16   12     -0.37      0.00
    3   16   12     -1.05      0.00
    4   16   12     -0.39      0.00
    5   16   12      0.91      0.00
    6   16   12     -0.08      0.00
    7   16   12     -1.00      0.00
    8   16   12     -0.60      0.00
    9   16   12      0.38      0.00
    0  -15   13      0.54      0.00
    1  -15   13     -0.31      0.00
    2  -15   13     -0.14      0.00
    3  -15   13      0.15      0.00
   -3  -14   13      0.61      0.00
   -2  -14   13     -0.61      0.00
   -1  -14   13      0.13      0.00
    0  -14   13      0.50      0.00
    1  -14   13      0.75      0.00
    2  -14   13      0.59      0.00
    3  -14   13     -0.83      0.00
    4  -14   13     -0.33      0.00
    5  -14   13      0.09      0.00
    6  -14   13     -0.76      0.00
    7  -14   13      0.02      0.00
   -5  -13   13     -0.23      0.00
   -4  -13   13     -0.38      0.00
   -3  -13   13     -1.15      0.00
    6  -13   13      1.16      0.00
    7  -13   13     -0.76      0.00
    8  -13   13      0.48      0.00
    9  -13   13      0.01      0.00
   -7  -12   13      0.11      0.00
   -6  -12   13     -0.60      0.00
   -5  -12   13      0.38      0.00
    8  -12   13      1.04      0.00
    9  -12   13      0.85      0.00
   10  -12   13     -0.21      0.00
   -8  -11   13      0.07      0.00
   -7  -11   13     -0.85      0.00
   -6  -11   13     -0.01      0.00
   10  -11   13      1.34      0.00
   11  -11   13      0.40      0.00
   -9  -10   13      0.37      0.00
   -8  -10   13     -0.48      0.00
   -7  -10   13     -1.04      0.00
   11  -10   13      0.05      0.00
   12  -10   13     -0.66      0.00
   -9   -9   13     -0.19      0.00
   -8   -9   13      0.88      0.00
   12   -9   13      0.07      0.00
   13   -9   13      0.24      0.00
  -10   -8   13      0.16      0.00
   -9   -8   13     -0.51      0.00
   13   -8   13      0.60      0.00
   14   -8   13     -0.79      0.00
  -10   -7   13      0.44      0.00
   13   -7   13     -0.85      0.00
   14   -7   13     -0.14      0.00
  -11   -6   13      0.18      0.00
  -10   -6   13     -0.62      0.00
   14   -6   13     -0.20      0.00
   15   -6   13      0.09      0.00
  -11   -5   13     -0.65      0.00
   15   -5   13      0.13      0.00
  -11   -4   13     -0.21      0.00
   15   -4   13     -0.96      0.00
  -12   -3   13      0.21      0.00
  -11   -3   13      1.19      0.00
   15   -3   13      0.43      0.00
  -12   -2   13     -0.29      0.00
  -11   -2   13     -1.03      0.00
  -12   -1   13     -0.17      0.00
  -11   -1   13     -0.22      0.00
  -12    0   13     -0.23      0.00
  -11    0   13      1.18      0.00
  -12    1   13      0.75      0.00
  -11    1   13      0.01      0.00
  -12    2   13     -0.07      0.00
  -11    2   13     -0.31      0.00
  -12    3   13     -0.35      0.00
  -11    3   13     -0.28      0.00
  -12    4   13      0.34      0.00
  -11    4   13     -0.23      0.00
  -11    5   13     -0.21      0.00
  -11    6   13      0.24      0.00
  -10    6   13     -0.41      0.00
   15    6   13     -0.09      0.00
  -11    7   13      0.80      0.00
  -10    7   13      0.61      0.00
   15    7   13     -1.03      0.00
  -10    8   13     -0.43      0.00
   15    8   13      1.26      0.00
  -10    9   13     -0.02      0.00
   -9    9   13     -0.18      0.00
   14    9   13      0.33      0.00
   15    9   13     -0.20      0.00
   -9   10   13      0.12      0.00
   -8   10   13      0.59      0.00
   14   10   13     -0.35      0.00
   -8   11   13     -0.11      0.00
   -7   11   13     -1.48      0.00
   13   11   13     -0.43      0.00
   14   11   13      0.13      0.00
   -8   12   13     -0.47      0.00
   -7   12   13      0.72      0.00
   -6   12   13      1.39      0.00
   12   12   13     -0.21      0.00
   13   12   13      0.19      0.00
   -7   13   13      0.29      0.00
   -6   13   13     -0.07      0.00
   -5   13   13     -0.57      0.00
   11   13   13      1.56      0.00
   12   13   13      0.01      0.00
   -5   14   13      0.96      0.00
   -4   14   13      0.97      0.00
    9   14   13     -0.24      0.00
   10   14   13      0.82      0.00
   11   14   13      0.00      0.00
   -4   15   13     -0.09      0.00
   -3   15   13     -0.39      0.00
   -2   15   13      0.53      0.00
   -1   15   13     -0.32      0.00
    7   15   13      1.22      0.00
    8   15   13      0.72      0.00
    9   15   13      0.01      0.00
   10   15   13     -0.56      0.00
   -2   16   13     -0.30      0.00
   -1   16   13     -0.28      0.00
    0   16   13     -0.27      0.00
    1   16   13      0.18      0.00
    2   16   13      0.11      0.00
    3   16   13     -0.05      0.00
    4   16   13      0.53      0.00
    5   16   13      0.57      0.00
    6   16   13     -0.64      0.00
    7   16   13     -1.46      0.00
    8   16   13      0.16      0.00
   -2  -14   14      0.30      0.00
   -1  -14   14      0.22      0.00
    0  -14   14      1.16      0.00
    1  -14   14     -0.03      0.00
    2  -14   14      0.08      0.00
    3  -14   14      0.92      0.00
    4  -14   14      0.81      0.00
    5  -14   14      0.35      0.00
    6  -14   14     -0.05      0.00
   -4  -13   14     -0.09      0.00
   -3  -13   14      0.75      0.00
   -2  -13   14     -0.15      0.00
   -1  -13   14     -0.67      0.00
    0  -13   14     -0.38      0.00
    4  -13   14      0.14      0.00
    5  -13   14     -0.25      0.00
    6  -13   14     -0.43      0.00
    7  -13   14     -0.01      0.00
    8  -13   14     -0.55      0.00
   -6  -12   14      0.59      0.00
   -5  -12   14      0.83      0.00
   -4  -12   14      1.20      0.00
    7  -12   14      0.31      0.00
    8  -12   14      0.35      0.00
    9  -12   14      0.79      0.00
   -7  -11   14      0.59      0.00
   -6  -11   14      0.65      0.00
   -5  -11   14      0.26      0.00
    9  -11   14      0.19      0.00
   10  -11   14      0.67      0.00
   11  -11   14      0.34      0.00
   -8  -10   14      0.45      0.00
   -7  -10   14      0.45      0.00
   10  -10   14      1.21      0.00
   11  -10   14     -0.37      0.00
   12  -10   14      0.15      0.00
   -9   -9   14     -0.02      0.00
   -8   -9   14      0.43      0.00
   12   -9   14      0.80      0.00
   13   -9   14     -0.03      0.00
   -9   -8   14     -0.47      0.00
   -8   -8   14     -0.96      0.00
   12   -8   14     -1.11      0.00
   13   -8   14     -1.65      0.00
  -10   -7   14     -0.09      0.00
   -9   -7   14      0.12      0.00
   13   -7   14      1.20      0.00
   14   -7   14      0.34      0.00
  -10   -6   14      0.56      0.00
   14   -6   14      0.42      0.00
  -11   -5   14     -0.27      0.00
  -10   -5   14     -0.29      0.00
   14   -5   14     -1.02      0.00
   15   -5   14     -0.27      0.00
  -11   -4   14      0.01      0.00
  -10   -4   14     -0.43      0.00
   15   -4   14     -0.28      0.00
  -11   -3   14     -0.13      0.00
   15   -3   14      0.57      0.00
  -11   -2   14      0.06      0.00
   15   -2   14      0.78      0.00
  -11   -1   14      0.40      0.00
  -11    0   14     -0.20      0.00
  -11    1   14     -0.24      0.00
  -11    2   14     -0.31      0.00
  -11    3   14      0.22      0.00
  -11    4   14      0.55      0.00
  -11    5   14     -0.21      0.00
  -10    5   14     -1.27      0.00
  -11    6   14     -0.26      0.00
  -10    6   14     -0.81      0.00
   15    6   14     -0.24      0.00
  -10    7   14      0.84      0.00
   15    7   14      1.03      0.00
  -10    8   14      0.46      0.00
   -9    8   14      0.03      0.00
   15    8   14     -0.16      0.00
   -9    9   14     -0.03      0.00
   -8    9   14      0.04      0.00
   14    9   14     -1.16      0.00
   15    9   14      0.30      0.00
   -9   10   14     -0.26      0.00
   -8   10   14     -0.59      0.00
   13   10   14     -0.89      0.00
   14   10   14     -0.05      0.00
   -8   11   14     -0.11      0.00
   -7   11   14      0.65      0.00
   13   11   14      0.57      0.00
   14   11   14      0.33      0.00
   -7   12   14      0.09      0.00
   -6   12   14     -0.99      0.00
   12   12   14      0.07      0.00
   13   12   14     -0.23      0.00
   -6   13   14      0.65      0.00
   -5   13   14      1.05      0.00
   11   13   14      0.51      0.00
   12   13   14     -0.12      0.00
   -5   14   14      0.01      0.00
   -4   14   14      0.27      0.00
   -3   14   14     -0.06      0.00
    9   14   14     -0.01      0.00
   10   14   14     -0.82      0.00
   11   14   14     -0.19      0.00
   -3   15   14      0.70      0.00
   -2   15   14     -0.04      0.00
   -1   15   14      0.08      0.00
    0   15   14      0.82      0.00
    6   15   14     -0.69      0.00
    7   15   14      1.03      0.00
    8   15   14      0.96      0.00
    9   15   14     -0.73      0.00
   10   15   14     -0.17      0.00
   -1   16   14      0.48      0.00
    0   16   14      0.00      0.00
    1   16   14      0.36      0.00
    2   16   14     -0.58      0.00
    3   16   14     -0.67      0.00
    4   16   14      0.23      0.00
    5   16   14     -0.34      0.00
    6   16   14     -1.14      0.00
    7   16   14     -0.26      0.00
    8   16   14      0.21      0.00
    0  -14   15      0.08      0.00
    1  -14   15      0.26      0.00
    2  -14   15      0.20      0.00
    3  -14   15     -0.41      0.00
    4  -14   15     -0.04      0.00
   -3  -13   15     -0.82      0.00
   -2  -13   15     -1.11      0.00
   -1  -13   15     -1.39      0.00
    0  -13   15     -0.02      0.00
    1  -13   15     -0.40      0.00
    2  -13   15     -1.11      0.00
    3  -13   15     -0.45      0.00
    4  -13   15     -0.22      0.00
    5  -13   15      1.18      0.00
    6  -13   15      0.83      0.00
    7  -13   15     -0.55      0.00
   -5  -12   15     -0.03      0.00
   -4  -12   15     -0.72      0.00
   -3  -12   15     -0.20      0.00
   -2  -12   15     -0.45      0.00
    6  -12   15      0.17      0.00
    7  -12   15      0.98      0.00
    8  -12   15      0.61      0.00
    9  -12   15      0.40      0.00
   -6  -11   15     -0.51      0.00
   -5  -11   15     -0.07      0.00
   -4  -11   15      0.53      0.00
    8  -11   15     -0.28      0.00
    9  -11   15      0.68      0.00
   10  -11   15      0.70      0.00
   -7  -10   15     -0.76      0.00
   -6  -10   15      0.16      0.00
   10  -10   15     -1.25      0.00
   11  -10   15      0.42      0.00
   -8   -9   15      0.15      0.00
   -7   -9   15      0.71      0.00
   11   -9   15      0.64      0.00
   12   -9   15     -0.07      0.00
   -9   -8   15     -0.13      0.00
   -8   -8   15      1.04      0.00
   12   -8   15     -0.54      0.00
   13   -8   15      0.35      0.00
   -9   -7   15     -0.22      0.00
   -8   -7   15     -1.20      0.00
   13   -7   15      0.05      0.00
   14   -7   15     -0.24      0.00
  -10   -6   15     -0.04      0.00
   -9   -6   15     -0.18      0.00
   13   -6   15     -0.64      0.00
   14   -6   15     -0.73      0.00
  -10   -5   15     -0.33      0.00
   -9   -5   15      0.75      0.00
   14   -5   15      0.89      0.00
   15   -5   15      0.58      0.00
  -10   -4   15      0.57      0.00
   14   -4   15      0.67      0.00
   15   -4   15     -0.51      0.00
  -11   -3   15      0.41      0.00
  -10   -3   15      0.22      0.00
   15   -3   15     -0.25      0.00
  -11   -2   15     -0.17      0.00
  -10   -2   15     -0.60      0.00
   15   -2   15      0.69      0.00
  -11   -1   15     -0.41      0.00
  -10   -1   15     -0.08      0.00
   15   -1   15     -0.35      0.00
  -11    0   15      0.56      0.00
  -10    0   15      0.26      0.00
  -11    1   15      0.16      0.00
  -10    1   15      0.88      0.00
  -11    2   15     -0.11      0.00
  -10    2   15     -0.44      0.00
  -11    3   15      0.00      0.00
  -10    3   15     -1.01      0.00
  -11    4   15     -0.20      0.00
  -10    4   15      0.61      0.00
  -10    5   15      0.14      0.00
   15    5   15      0.86      0.00
  -10    6   15     -0.23      0.00
   -9    6   15      0.11      0.00
   15    6   15      0.50      0.00
  -10    7   15      0.30      0.00
   -9    7   15     -0.38      0.00
   15    7   15     -1.12      0.00
   -9    8   15      0.26      0.00
   -8    8   15      0.21      0.00
   14    8   15     -0.71      0.00
   15    8   15      0.28      0.00
   -9    9   15     -0.10      0.00
   -8    9   15     -0.38      0.00
   14    9   15      0.77      0.00
   15    9   15      0.45      0.00
   -8   10   15      0.43      0.00
   -7   10   15      0.66      0.00
   13   10   15      0.50      0.00
   14   10   15     -0.60      0.00
   -7   11   15     -1.11      0.00
   -6   11   15     -1.45      0.00
   12   11   15     -0.29      0.00
   13   11   15     -0.39      0.00
   -6   12   15      1.15      0.00
   -5   12   15     -0.07      0.00
   11   12   15     -2.33      0.00
   12   12   15     -0.62      0.00
   13   12   15      0.36      0.00
   -5   13   15     -0.43      0.00
   -4   13   15     -0.63      0.00
   10   13   15     -0.12      0.00
   11   13   15      0.75      0.00
   12   13   15      0.30      0.00
   -4   14   15      0.78      0.00
   -3   14   15      0.24      0.00
   -2   14   15     -0.48      0.00
    8   14   15     -0.53      0.00
    9   14   15     -0.54      0.00
   10   14   15      0.66      0.00
   11   14   15      0.32      0.00
   -3   15   15     -0.12      0.00
   -2   15   15      0.26      0.00
   -1   15   15     -0.18      0.00
    0   15   15      0.40      0.00
    1   15   15     -0.56      0.00
    2   15   15     -0.92      0.00
    4   15   15      0.65      0.00
    5   15   15     -0.03      0.00
    6   15   15      1.09      0.00
    7   15   15      2.43      0.00
    8   15   15     -0.14      0.00
    9   15   15     -0.02      0.00
    0   16   15     -0.02      0.00
    1   16   15      0.00      0.00
    2   16   15     -0.08      0.00
    3   16   15      0.29      0.00
    4   16   15      0.42      0.00
    5   16   15      0.23      0.00
    6   16   15     -0.35      0.00
    7   16   15     -0.92      0.00
   -2  -13   16     -0.16      0.00
   -1  -13   16      0.24      0.00
    0  -13   16     -0.08      0.00
    1  -13   16      0.01      0.00
    2  -13   16      0.04      0.00
    3  -13   16      0.41      0.00
    4  -13   16      0.46      0.00
    5  -13   16     -0.40      0.00
    6  -13   16     -0.36      0.00
   -4  -12   16      0.85      0.00
   -3  -12   16      0.95      0.00
   -2  -12   16      0.88      0.00
   -1  -12   16     -0.94      0.00
    0  -12   16      0.11      0.00
    4  -12   16     -1.90      0.00
    5  -12   16     -1.28      0.00
    6  -12   16      0.55      0.00
    7  -12   16     -0.07      0.00
    8  -12   16      0.37      0.00
   -5  -11   16      0.38      0.00
   -4  -11   16     -0.36      0.00
   -3  -11   16     -0.22      0.00
    8  -11   16     -0.21      0.00
    9  -11   16     -0.04      0.00
   10  -11   16      0.38      0.00
   -6  -10   16      0.36      0.00
   -5  -10   16     -1.19      0.00
    9  -10   16      0.57      0.00
   10  -10   16      1.34      0.00
   11  -10   16     -0.22      0.00
   -7   -9   16     -0.80      0.00
   -6   -9   16     -2.03      0.00
   11   -9   16     -0.61      0.00
   12   -9   16      0.47      0.00
   -8   -8   16     -0.09      0.00
   -7   -8   16     -0.34      0.00
   12   -8   16     -0.47      0.00
   13   -8   16     -0.99      0.00
   -9   -7   16     -0.43      0.00
   -8   -7   16      0.08      0.00
   12   -7   16      0.44      0.00
   13   -7   16      0.40      0.00
   -9   -6   16      0.67      0.00
   -8   -6   16     -0.51      0.00
   13   -6   16      0.46      0.00
   14   -6   16      0.40      0.00
   -9   -5   16      0.06      0.00
   14   -5   16      0.00      0.00
  -10   -4   16     -0.23      0.00
   -9   -4   16     -0.79      0.00
   14   -4   16     -0.78      0.00
   15   -4   16     -0.46      0.00
  -10   -3   16     -0.44      0.00
   -9   -3   16      0.01      0.00
   15   -3   16      0.44      0.00
  -10   -2   16      0.19      0.00
   15   -2   16      0.69      0.00
  -10   -1   16      0.11      0.00
   15   -1   16     -0.63      0.00
  -10    0   16     -0.37      0.00
   15    0   16     -0.06      0.00
  -10    1   16      0.65      0.00
   15    1   16     -0.38      0.00
  -10    2   16     -0.57      0.00
   15    2   16      0.18      0.00
  -10    3   16     -0.40      0.00
   15    3   16      1.07      0.00
  -10    4   16      1.05      0.00
   -9    4   16      0.11      0.00
   15    4   16     -0.43      0.00
  -10    5   16     -0.29      0.00
   -9    5   16     -0.10      0.00
   15    5   16     -0.76      0.00
   -9    6   16     -0.22      0.00
   15    6   16     -0.13      0.00
   -9    7   16      0.06      0.00
   -8    7   16      1.39      0.00
   14    7   16      0.67      0.00
   15    7   16      0.86      0.00
   -9    8   16      0.05      0.00
   -8    8   16     -0.42      0.00
   14    8   16      0.60      0.00
   15    8   16     -0.09      0.00
   -8    9   16      0.37      0.00
   -7    9   16     -0.58      0.00
   14    9   16     -0.88      0.00
   -7   10   16     -0.49      0.00
   -6   10   16      0.20      0.00
   13   10   16     -0.42      0.00
   14   10   16     -0.09      0.00
   -7   11   16      0.31      0.00
   -6   11   16      0.37      0.00
   12   11   16      1.21      0.00
   13   11   16      0.64      0.00
   -6   12   16     -0.54      0.00
   -5   12   16     -0.51      0.00
   -4   12   16      0.20      0.00
   11   12   16      0.58      0.00
   12   12   16      0.30      0.00
   -5   13   16      0.28      0.00
   -4   13   16     -0.15      0.00
   -3   13   16     -0.45      0.00
   10   13   16      2.14      0.00
   11   13   16      0.07      0.00
   -4   14   16     -0.09      0.00
   -3   14   16     -0.65      0.00
   -2   14   16      0.08      0.00
   -1   14   16      0.27      0.00
    8   14   16     -1.61      0.00
    9   14   16      0.49      0.00
   10   14   16     -0.70      0.00
   -2   15   16     -0.31      0.00
   -1   15   16      0.18      0.00
    0   15   16      0.93      0.00
    1   15   16     -0.09      0.00
    2   15   16      0.24      0.00
    3   15   16      0.24      0.00
    4   15   16      0.42      0.00
    5   15   16      0.40      0.00
    6   15   16      0.28      0.00
    7   15   16      0.13      0.00
    8   15   16      0.57      0.00
    9   15   16     -0.48      0.00
    1   16   16      0.38      0.00
    2   16   16     -0.41      0.00
    3   16   16      0.14      0.00
    4   16   16     -0.05      0.00
    5   16   16     -0.32      0.00
    6   16   16     -0.50      0.00
    0  -13   17      0.35      0.00
    1  -13   17     -0.16      0.00
    2  -13   17     -0.44      0.00
    3  -13   17     -0.24      0.00
    4  -13   17     -0.59      0.00
    5  -13   17      0.75      0.00
   -3  -12   17     -0.37      0.00
   -2  -12   17     -0.81      0.00
   -1  -12   17     -0.26      0.00
    0  -12   17     -0.34      0.00
    1  -12   17     -0.11      0.00
    2  -12   17     -0.63      0.00
    3  -12   17     -0.14      0.00
    4  -12   17      1.30      0.00
    5  -12   17      0.82      0.00
    6  -12   17      0.55      0.00
    7  -12   17      0.72      0.00
   -4  -11   17      0.34      0.00
   -3  -11   17      0.58      0.00
   -2  -11   17      1.40      0.00
   -1  -11   17      1.03      0.00
    6  -11   17     -1.48      0.00
    7  -11   17     -0.93      0.00
    8  -11   17     -0.37      0.00
    9  -11   17      0.60      0.00
   -5  -10   17      0.69      0.00
   -4  -10   17      0.57      0.00
    8  -10   17      0.48      0.00
    9  -10   17     -0.52      0.00
   10  -10   17     -0.75      0.00
   -6   -9   17      1.05      0.00
   -5   -9   17      1.55      0.00
   10   -9   17      0.05      0.00
   11   -9   17      1.00      0.00
   -7   -8   17      0.39      0.00
   -6   -8   17      0.45      0.00
   11   -8   17     -0.35      0.00
   12   -8   17     -1.10      0.00
   -8   -7   17     -0.23      0.00
   -7   -7   17      0.36      0.00
   12   -7   17      0.63      0.00
   13   -7   17      0.17      0.00
   -8   -6   17     -0.70      0.00
   -7   -6   17     -0.56      0.00
   13   -6   17      0.04      0.00
   14   -6   17     -0.61      0.00
   -9   -5   17      0.51      0.00
   -8   -5   17      0.72      0.00
   13   -5   17     -0.13      0.00
   14   -5   17      0.49      0.00
   -9   -4   17      0.18      0.00
   -8   -4   17      1.22      0.00
   14   -4   17      0.68      0.00
   15   -4   17     -0.23      0.00
   -9   -3   17     -0.01      0.00
   14   -3   17     -0.80      0.00
   15   -3   17     -0.10      0.00
  -10   -2   17      0.07      0.00
   -9   -2   17     -1.10      0.00
   15   -2   17      0.68      0.00
  -10   -1   17      0.14      0.00
   -9   -1   17      0.27      0.00
   15   -1   17     -0.31      0.00
  -10    0   17     -0.23      0.00
   -9    0   17      0.18      0.00
   15    0   17     -0.82      0.00
  -10    1   17      0.42      0.00
   -9    1   17      0.03      0.00
   15    1   17      1.17      0.00
  -10    2   17      0.21      0.00
   -9    2   17      0.03      0.00
   15    2   17     -0.07      0.00
  -10    3   17     -0.68      0.00
   -9    3   17     -0.27      0.00
   15    3   17     -0.29      0.00
   -9    4   17     -0.32      0.00
   15    4   17     -0.66      0.00
   -9    5   17      0.14      0.00
   15    5   17      0.32      0.00
   -9    6   17      0.44      0.00
   -8    6   17      0.94      0.00
   15    6   17      0.74      0.00
   -9    7   17     -0.34      0.00
   -8    7   17     -0.36      0.00
   14    7   17      0.07      0.00
   15    7   17     -0.40      0.00
   -8    8   17      0.06      0.00
   -7    8   17     -0.02      0.00
   14    8   17     -0.91      0.00
   15    8   17     -0.31      0.00
   -8    9   17     -0.33      0.00
   -7    9   17      0.07      0.00
   13    9   17      0.83      0.00
   14    9   17      0.70      0.00
   -7   10   17      0.29      0.00
   -6   10   17     -0.19      0.00
   12   10   17      0.95      0.00
   13   10   17     -0.14      0.00
   14   10   17     -0.34      0.00
   -6   11   17     -0.93      0.00
   -5   11   17     -0.18      0.00
   12   11   17     -0.42      0.00
   13   11   17     -0.29      0.00
   -5   12   17     -0.27      0.00
   -4   12   17     -0.46      0.00
   10   12   17     -1.05      0.00
   11   12   17     -1.83      0.00
   12   12   17     -0.16      0.00
   -4   13   17     -0.61      0.00
   -3   13   17      0.14      0.00
   -2   13   17      0.58      0.00
    9   13   17      0.54      0.00
   10   13   17     -0.66      0.00
   11   13   17      0.72      0.00
   -3   14   17      0.07      0.00
   -2   14   17      0.03      0.00
   -1   14   17      0.98      0.00
    0   14   17     -0.61      0.00
    1   14   17     -0.03      0.00
    6   14   17     -1.24      0.00
    7   14   17     -1.17      0.00
    8   14   17      0.39      0.00
    9   14   17     -0.68      0.00
   10   14   17      0.55      0.00
   -1   15   17      0.08      0.00
    0   15   17      0.39      0.00
    1   15   17     -0.84      0.00
    2   15   17     -0.48      0.00
    3   15   17      0.20      0.00
    4   15   17     -0.11      0.00
    5   15   17      0.23      0.00
    6   15   17      0.66      0.00
    7   15   17      1.47      0.00
    8   15   17     -0.49      0.00
    3   16   17      0.14      0.00
    4   16   17      0.60      0.00
   -1  -12   18     -0.13      0.00
    0  -12   18      0.32      0.00
    1  -12   18      0.49      0.00
    2  -12   18     -0.41      0.00
    3  -12   18     -0.18      0.00
    4  -12   18     -1.16      0.00
    5  -12   18     -0.98      0.00
    6  -12   18     -0.46      0.00
   -3  -11   18     -0.11      0.00
   -2  -11   18      0.16      0.00
   -1  -11   18     -0.67      0.00
    0  -11   18     -1.18      0.00
    1  -11   18     -0.63      0.00
    2  -11   18     -0.71      0.00
    3  -11   18     -0.98      0.00
    4  -11   18     -0.18      0.00
    5  -11   18      0.20      0.00
    6  -11   18      0.85      0.00
    7  -11   18      0.69      0.00
    8  -11   18      0.28      0.00
   -4  -10   18     -0.89      0.00
   -3  -10   18     -0.24      0.00
   -2  -10   18     -0.55      0.00
    7  -10   18     -0.45      0.00
    8  -10   18     -0.58      0.00
    9  -10   18      0.03      0.00
   10  -10   18      0.50      0.00
   -6   -9   18     -0.57      0.00
   -5   -9   18     -1.24      0.00
   -4   -9   18      0.35      0.00
    9   -9   18      0.18      0.00
   10   -9   18     -0.02      0.00
   11   -9   18     -0.71      0.00
   -6   -8   18     -0.70      0.00
   -5   -8   18      0.40      0.00
   10   -8   18     -1.14      0.00
   11   -8   18     -0.48      0.00
   12   -8   18     -0.37      0.00
   -7   -7   18      0.50      0.00
   -6   -7   18      1.17      0.00
   11   -7   18      0.90      0.00
   12   -7   18      0.42      0.00
   13   -7   18      0.31      0.00
   -8   -6   18     -0.11      0.00
   -7   -6   18     -0.24      0.00
   12   -6   18      0.84      0.00
   13   -6   18     -0.12      0.00
   -8   -5   18     -0.55      0.00
   -7   -5   18     -1.55      0.00
   13   -5   18      0.97      0.00
   14   -5   18     -0.01      0.00
   -8   -4   18      0.50      0.00
   13   -4   18     -1.07      0.00
   14   -4   18     -0.42      0.00
   -9   -3   18     -0.62      0.00
   -8   -3   18      0.81      0.00
   14   -3   18      0.37      0.00
   15   -3   18      0.15      0.00
   -9   -2   18      0.39      0.00
   -8   -2   18     -0.49      0.00
   14   -2   18      1.12      0.00
   15   -2   18      0.56      0.00
   -9   -1   18      0.31      0.00
   -8   -1   18     -0.33      0.00
   14   -1   18     -1.03      0.00
   15   -1   18     -0.77      0.00
   -9    0   18      0.43      0.00
   -8    0   18      0.22      0.00
   15    0   18     -0.06      0.00
   -9    1   18     -0.71      0.00
   -8    1   18      0.12      0.00
   15    1   18     -0.17      0.00
   -9    2   18      0.37      0.00
   -8    2   18     -0.72      0.00
   15    2   18     -0.13      0.00
   -9    3   18      0.01      0.00
   -8    3   18     -0.32      0.00
   15    3   18      1.10      0.00
   -9    4   18      0.01      0.00
   -8    4   18      0.99      0.00
   15    4   18     -0.31      0.00
   -9    5   18     -0.01      0.00
   -8    5   18     -0.28      0.00
   14    5   18     -0.80      0.00
   15    5   18     -0.80      0.00
   -8    6   18     -1.00      0.00
   -7    6   18     -1.15      0.00
   14    6   18     -0.43      0.00
   15    6   18     -0.16      0.00
   -8    7   18      0.92      0.00
   -7    7   18      0.11      0.00
   14    7   18      0.48      0.00
   15    7   18      0.57      0.00
   -7    8   18      0.69      0.00
   -6    8   18      0.78      0.00
   13    8   18      0.77      0.00
   14    8   18      0.61      0.00
   -7    9   18     -0.35      0.00
   -6    9   18     -0.11      0.00
   13    9   18     -0.74      0.00
   14    9   18     -0.40      0.00
   -6   10   18     -0.21      0.00
   -5   10   18      0.69      0.00
   12   10   18     -2.26      0.00
   13   10   18      0.03      0.00
   -5   11   18     -0.20      0.00
   -4   11   18     -0.25      0.00
   11   11   18      0.05      0.00
   12   11   18      0.61      0.00
   13   11   18      0.08      0.00
   -4   12   18     -0.19      0.00
   -3   12   18      0.27      0.00
   10   12   18     -0.75      0.00
   11   12   18      1.06      0.00
   12   12   18      0.07      0.00
   -3   13   18      0.03      0.00
   -2   13   18      0.15      0.00
   -1   13   18     -0.96      0.00
    8   13   18      0.65      0.00
    9   13   18      0.16      0.00
   10   13   18      1.78      0.00
   11   13   18     -0.20      0.00
   -2   14   18     -0.02      0.00
   -1   14   18      0.16      0.00
    0   14   18     -0.86      0.00
    1   14   18     -0.33      0.00
    2   14   18      1.24      0.00
    3   14   18      0.76      0.00
    4   14   18     -0.42      0.00
    5   14   18      0.01      0.00
    6   14   18      0.00      0.00
    7   14   18     -0.59      0.00
    8   14   18     -0.86      0.00
    9   14   18      0.40      0.00
    1   15   18     -0.51      0.00
    2   15   18     -0.03      0.00
    3   15   18     -0.33      0.00
    4   15   18      0.49      0.00
    5   15   18      0.06      0.00
    6   15   18     -0.04      0.00
    7   15   18     -0.47      0.00
    1  -12   19     -0.11      0.00
    2  -12   19     -0.38      0.00
    3  -12   19     -0.03      0.00
    4  -12   19      0.30      0.00
   -2  -11   19     -0.17      0.00
   -1  -11   19      0.05      0.00
    0  -11   19      0.41      0.00
    1  -11   19      0.73      0.00
    2  -11   19      0.11      0.00
    3  -11   19      0.26      0.00
    4  -11   19      0.42      0.00
    5  -11   19     -0.25      0.00
    6  -11   19     -0.99      0.00
    7  -11   19     -0.78      0.00
   -3  -10   19      0.15      0.00
   -2  -10   19      0.85      0.00
   -1  -10   19      1.31      0.00
    0  -10   19      0.08      0.00
    1  -10   19      0.21      0.00
    5  -10   19     -0.81      0.00
    6  -10   19     -0.16      0.00
    7  -10   19      0.38      0.00
    8  -10   19      0.45      0.00
    9  -10   19      0.13      0.00
   -5   -9   19      1.29      0.00
   -4   -9   19      0.60      0.00
   -3   -9   19     -0.71      0.00
   -2   -9   19     -0.66      0.00
    8   -9   19     -0.41      0.00
    9   -9   19     -0.57      0.00
   10   -9   19     -0.68      0.00
   -5   -8   19     -0.33      0.00
   -4   -8   19     -1.42      0.00
   10   -8   19      1.20      0.00
   11   -8   19     -0.21      0.00
   -6   -7   19     -0.22      0.00
   -5   -7   19     -1.82      0.00
   11   -7   19      0.20      0.00
   12   -7   19     -0.32      0.00
   -7   -6   19      0.21      0.00
   -6   -6   19     -0.15      0.00
   12   -6   19      0.42      0.00
   13   -6   19     -0.07      0.00
   -7   -5   19     -0.03      0.00
   -6   -5   19     -0.75      0.00
   12   -5   19      0.77      0.00
   13   -5   19     -0.17      0.00
   -8   -4   19      0.72      0.00
   -7   -4   19     -0.41      0.00
   13   -4   19      0.78      0.00
   14   -4   19      0.62      0.00
   -8   -3   19     -0.31      0.00
   -7   -3   19      0.74      0.00
   13   -3   19     -0.68      0.00
   14   -3   19     -0.57      0.00
   -8   -2   19     -1.61      0.00
   -7   -2   19     -0.70      0.00
   14   -2   19     -0.52      0.00
   15   -2   19      0.48      0.00
   -8   -1   19      0.31      0.00
   14   -1   19     -0.27      0.00
   15   -1   19     -0.24      0.00
   -9    0   19      0.20      0.00
   -8    0   19      1.40      0.00
   14    0   19      0.16      0.00
   15    0   19     -0.34      0.00
   -9    1   19     -0.23      0.00
   -8    1   19      0.13      0.00
   14    1   19      0.66      0.00
   15    1   19      0.81      0.00
   -9    2   19     -0.06      0.00
   -8    2   19     -1.09      0.00
   14    2   19     -0.12      0.00
   15    2   19     -0.39      0.00
   -8    3   19      0.04      0.00
   14    3   19     -0.04      0.00
   15    3   19      0.00      0.00
   -8    4   19      1.04      0.00
   -7    4   19      0.41      0.00
   14    4   19     -0.26      0.00
   15    4   19     -0.23      0.00
   -8    5   19     -0.71      0.00
   -7    5   19      0.94      0.00
   14    5   19     -0.56      0.00
   15    5   19      0.02      0.00
   -8    6   19      0.36      0.00
   -7    6   19     -0.74      0.00
   14    6   19      0.70      0.00
   15    6   19      0.38      0.00
   -7    7   19     -0.25      0.00
   -6    7   19     -0.80      0.00
   13    7   19      1.11      0.00
   14    7   19      0.36      0.00
   -7    8   19      0.14      0.00
   -6    8   19     -0.26      0.00
   13    8   19     -1.05      0.00
   14    8   19     -0.58      0.00
   -6    9   19      0.49      0.00
   -5    9   19      0.70      0.00
   12    9   19      0.36      0.00
   13    9   19      0.70      0.00
   -5   10   19      0.00      0.00
   -4   10   19     -0.76      0.00
   11   10   19      0.05      0.00
   12   10   19      0.36      0.00
   13   10   19     -0.27      0.00
   -5   11   19     -0.07      0.00
   -4   11   19      0.50      0.00
   -3   11   19     -0.02      0.00
   10   11   19      2.39      0.00
   11   11   19      1.23      0.00
   12   11   19     -0.66      0.00
   -4   12   19     -0.09      0.00
   -3   12   19     -0.32      0.00
   -2   12   19     -0.62      0.00
   -1   12   19      0.49      0.00
    9   12   19      0.37      0.00
   10   12   19     -0.41      0.00
   11   12   19     -1.04      0.00
   -2   13   19      0.07      0.00
   -1   13   19     -0.67      0.00
    0   13   19     -0.10      0.00
    1   13   19      0.43      0.00
    2   13   19      1.00      0.00
    6   13   19     -0.19      0.00
    7   13   19     -0.51      0.00
    8   13   19     -0.28      0.00
    9   13   19      0.49      0.00
   10   13   19     -0.64      0.00
   -1   14   19      0.14      0.00
    0   14   19     -0.59      0.00
    1   14   19      0.90      0.00
    2   14   19     -0.06      0.00
    3   14   19     -0.53      0.00
    4   14   19     -0.14      0.00
    5   14   19     -0.80      0.00
    6   14   19     -1.07      0.00
    7   14   19     -0.72      0.00
    8   14   19      0.67      0.00
    3   15   19     -0.08      0.00
    4   15   19     -0.60      0.00
    5   15   19      0.28      0.00
    0  -11   20     -0.67      0.00
    1  -11   20     -0.27      0.00
    2  -11   20     -0.88      0.00
    3  -11   20     -0.53      0.00
    4  -11   20     -0.28      0.00
    5  -11   20     -0.38      0.00
    6  -11   20      0.10      0.00
   -2  -10   20     -0.01      0.00
   -1  -10   20     -0.06      0.00
    0  -10   20     -0.41      0.00
    1  -10   20      0.10      0.00
    2  -10   20      0.42      0.00
    3  -10   20      0.51      0.00
    4  -10   20      0.63      0.00
    5  -10   20      0.96      0.00
    6  -10   20      0.19      0.00
    7  -10   20     -0.08      0.00
    8  -10   20     -0.01      0.00
   -3   -9   20      0.10      0.00
   -2   -9   20      0.15      0.00
   -1   -9   20      0.04      0.00
    0   -9   20      0.82      0.00
    6   -9   20      0.16      0.00
    7   -9   20      0.11      0.00
    8   -9   20      0.40      0.00
    9   -9   20     -0.19      0.00
   -4   -8   20      1.27      0.00
   -3   -8   20      1.08      0.00
   -2   -8   20     -0.81      0.00
    8   -8   20     -0.23      0.00
    9   -8   20      0.39      0.00
   10   -8   20     -0.40      0.00
   11   -8   20     -0.56      0.00
   -5   -7   20      0.90      0.00
   -4   -7   20      1.55      0.00
   10   -7   20     -0.29      0.00
   11   -7   20      0.08      0.00
   -6   -6   20      0.19      0.00
   -5   -6   20      0.45      0.00
   11   -6   20      1.65      0.00
   12   -6   20      0.69      0.00
   -7   -5   20     -0.78      0.00
   -6   -5   20     -0.40      0.00
   -5   -5   20     -0.74      0.00
   12   -5   20     -1.03      0.00
   13   -5   20      0.37      0.00
   -7   -4   20      0.25      0.00
   -6   -4   20      0.78      0.00
   12   -4   20     -0.18      0.00
   13   -4   20      0.03      0.00
   -7   -3   20      1.31      0.00
   -6   -3   20      0.13      0.00
   13   -3   20     -0.44      0.00
   14   -3   20     -0.32      0.00
   -8   -2   20     -0.02      0.00
   -7   -2   20     -0.17      0.00
   13   -2   20      0.59      0.00
   14   -2   20      0.97      0.00
   -8   -1   20      0.04      0.00
   -7   -1   20     -2.39      0.00
   14   -1   20     -0.62      0.00
   -8    0   20      0.08      0.00
   -7    0   20      0.02      0.00
   14    0   20     -0.39      0.00
   15    0   20     -0.26      0.00
   -8    1   20      0.36      0.00
   -7    1   20      2.46      0.00
   14    1   20      1.12      0.00
   15    1   20      0.19      0.00
   -8    2   20     -0.28      0.00
   -7    2   20     -0.84      0.00
   14    2   20     -1.22      0.00
   15    2   20     -0.36      0.00
   -8    3   20     -0.83      0.00
   -7    3   20     -1.29      0.00
   14    3   20      0.11      0.00
   15    3   20      0.80      0.00
   -8    4   20      0.66      0.00
   -7    4   20      0.65      0.00
   14    4   20      0.92      0.00
   15    4   20      0.10      0.00
   -7    5   20      0.76      0.00
   -6    5   20      0.73      0.00
   14    5   20     -0.38      0.00
   15    5   20     -0.68      0.00
   -7    6   20     -0.10      0.00
   -6    6   20     -0.21      0.00
   13    6   20      0.62      0.00
   14    6   20     -0.48      0.00
   -7    7   20     -0.34      0.00
   -6    7   20     -0.34      0.00
   -5    7   20      1.23      0.00
   13    7   20      0.25      0.00
   14    7   20      0.04      0.00
   -6    8   20     -0.16      0.00
   -5    8   20      0.12      0.00
   12    8   20      0.39      0.00
   13    8   20      0.43      0.00
   14    8   20      0.41      0.00
   -5    9   20     -0.35      0.00
   -4    9   20     -0.83      0.00
   12    9   20      0.95      0.00
   13    9   20     -0.57      0.00
   -5   10   20     -0.24      0.00
   -4   10   20      0.59      0.00
   -3   10   20      0.55      0.00
   11   10   20     -2.15      0.00
   12   10   20     -1.06      0.00
   -4   11   20     -0.19      0.00
   -3   11   20     -0.37      0.00
   -2   11   20      0.40      0.00
   10   11   20     -0.63      0.00
   11   11   20     -0.22      0.00
   12   11   20     -0.12      0.00
   -3   12   20      0.14      0.00
   -2   12   20     -0.22      0.00
   -1   12   20      0.58      0.00
    0   12   20      0.19      0.00
    8   12   20      0.65      0.00
    9   12   20     -0.33      0.00
   10   12   20     -0.83      0.00
   11   12   20      0.83      0.00
   -1   13   20     -0.80      0.00
    0   13   20      0.55      0.00
    1   13   20      0.69      0.00
    2   13   20     -1.80      0.00
    3   13   20     -0.30      0.00
    4   13   20      0.64      0.00
    5   13   20     -0.27      0.00
    6   13   20     -0.49      0.00
    7   13   20      0.85      0.00
    8   13   20      0.40      0.00
    9   13   20      0.07      0.00
    1   14   20      0.43      0.00
    2   14   20      0.89      0.00
    3   14   20      0.25      0.00
    4   14   20     -0.03      0.00
    5   14   20      0.49      0.00
    6   14   20      0.02      0.00
    7   14   20     -0.06      0.00
    0  -10   21      0.25      0.00
    1  -10   21      0.49      0.00
    2  -10   21     -0.01      0.00
    3  -10   21     -0.94      0.00
    4  -10   21      0.18      0.00
    5  -10   21     -0.41      0.00
    6  -10   21     -0.06      0.00
   -2   -9   21     -0.43      0.00
   -1   -9   21      0.23      0.00
    0   -9   21      0.32      0.00
    1   -9   21     -0.73      0.00
    2   -9   21     -0.09      0.00
    3   -9   21     -0.88      0.00
    4   -9   21     -0.03      0.00
    5   -9   21      0.74      0.00
    6   -9   21      0.54      0.00
    7   -9   21      0.47      0.00
    8   -9   21     -0.13      0.00
   -3   -8   21     -1.39      0.00
   -2   -8   21     -0.84      0.00
   -1   -8   21     -0.73      0.00
    0   -8   21     -0.64      0.00
    7   -8   21     -0.77      0.00
    8   -8   21     -0.50      0.00
    9   -8   21      0.06      0.00
   10   -8   21      0.48      0.00
   -4   -7   21     -1.40      0.00
   -3   -7   21      0.50      0.00
   -2   -7   21      1.25      0.00
    9   -7   21      0.69      0.00
   10   -7   21      0.26      0.00
   11   -7   21      0.36      0.00
   -5   -6   21     -0.27      0.00
   -4   -6   21      0.98      0.00
   -3   -6   21      2.44      0.00
   10   -6   21      0.13      0.00
   11   -6   21     -0.51      0.00
   12   -6   21     -0.31      0.00
   -6   -5   21     -0.20      0.00
   -5   -5   21     -0.21      0.00
   -4   -5   21      0.81      0.00
   11   -5   21     -0.59      0.00
   12   -5   21      0.41      0.00
   -6   -4   21     -0.65      0.00
   -5   -4   21      0.18      0.00
   12   -4   21      0.75      0.00
   13   -4   21      0.86      0.00
   -6   -3   21      0.06      0.00
   -5   -3   21      0.66      0.00
   12   -3   21      0.43      0.00
   13   -3   21     -0.87      0.00
   -7   -2   21     -0.38      0.00
   -6   -2   21      0.98      0.00
   13   -2   21     -0.45      0.00
   14   -2   21     -0.30      0.00
   -7   -1   21      0.33      0.00
   -6   -1   21      0.65      0.00
   13   -1   21     -0.53      0.00
   14   -1   21      0.05      0.00
   -7    0   21      0.46      0.00
   -6    0   21     -2.61      0.00
   13    0   21      0.98      0.00
   14    0   21      0.21      0.00
   -7    1   21     -0.07      0.00
   -6    1   21      0.72      0.00
   13    1   21      0.64      0.00
   14    1   21      0.41      0.00
   -7    2   21      0.77      0.00
   -6    2   21      1.21      0.00
   13    2   21     -1.57      0.00
   14    2   21     -0.45      0.00
   -7    3   21     -1.00      0.00
   -6    3   21     -0.84      0.00
   13    3   21      0.40      0.00
   14    3   21     -0.18      0.00
   -7    4   21     -0.22      0.00
   -6    4   21     -0.28      0.00
   13    4   21      0.92      0.00
   14    4   21      0.35      0.00
   -7    5   21      0.60      0.00
   -6    5   21     -0.17      0.00
   -5    5   21     -0.51      0.00
   13    5   21     -0.55      0.00
   14    5   21     -0.28      0.00
   -6    6   21      0.73      0.00
   -5    6   21      0.78      0.00
   13    6   21     -0.12      0.00
   14    6   21      0.07      0.00
   -6    7   21      0.04      0.00
   -5    7   21     -0.16      0.00
   -4    7   21     -0.85      0.00
   12    7   21     -0.12      0.00
   13    7   21      0.26      0.00
   14    7   21      0.25      0.00
   -5    8   21     -0.46      0.00
   -4    8   21      0.58      0.00
   12    8   21     -0.74      0.00
   13    8   21     -0.36      0.00
   -5    9   21      0.25      0.00
   -4    9   21      1.10      0.00
   -3    9   21      0.36      0.00
   11    9   21     -0.93      0.00
   12    9   21      0.22      0.00
   13    9   21      0.26      0.00
   -4   10   21     -0.79      0.00
   -3   10   21     -0.12      0.00
   -2   10   21      0.46      0.00
   10   10   21     -1.67      0.00
   11   10   21     -0.25      0.00
   12   10   21      0.34      0.00
   -3   11   21      0.09      0.00
   -2   11   21      0.49      0.00
   -1   11   21      0.23      0.00
    0   11   21     -1.74      0.00
    8   11   21      0.63      0.00
    9   11   21     -0.40      0.00
   10   11   21      1.32      0.00
   11   11   21      0.55      0.00
   -2   12   21     -0.23      0.00
   -1   12   21      0.57      0.00
    0   12   21      1.39      0.00
    1   12   21     -0.34      0.00
    2   12   21     -0.77      0.00
    3   12   21      1.86      0.00
    4   12   21      0.00      0.00
    5   12   21      0.80      0.00
    6   12   21      0.70      0.00
    7   12   21      1.18      0.00
    8   12   21      0.47      0.00
    9   12   21     -0.02      0.00
   10   12   21      0.11      0.00
    0   13   21      0.21      0.00
    1   13   21     -0.43      0.00
    2   13   21      0.00      0.00
    3   13   21     -0.16      0.00
    4   13   21      0.41      0.00
    5   13   21     -0.26      0.00
    6   13   21     -0.15      0.00
    7   13   21     -0.43      0.00
    8   13   21     -0.47      0.00
    3   14   21     -0.24      0.00
    4   14   21      0.19      0.00
    5   14   21     -0.37      0.00
    0   -9   22     -0.06      0.00
    1   -9   22      0.46      0.00
    2   -9   22      1.07      0.00
    3   -9   22      0.38      0.00
    4   -9   22      0.16      0.00
    5   -9   22      0.22      0.00
    6   -9   22      0.55      0.00
    7   -9   22      0.33      0.00
   -2   -8   22      0.40      0.00
   -1   -8   22     -0.56      0.00
    0   -8   22      0.14      0.00
    1   -8   22      0.62      0.00
    2   -8   22      1.18      0.00
    3   -8   22      0.18      0.00
    4   -8   22     -1.68      0.00
    5   -8   22      0.04      0.00
    6   -8   22     -0.18      0.00
    7   -8   22     -0.56      0.00
    8   -8   22      0.14      0.00
    9   -8   22      0.33      0.00
   -3   -7   22      0.80      0.00
   -2   -7   22     -1.20      0.00
   -1   -7   22     -0.44      0.00
    0   -7   22      0.47      0.00
    7   -7   22      0.05      0.00
    8   -7   22     -0.07      0.00
    9   -7   22     -0.49      0.00
   10   -7   22      0.07      0.00
   -4   -6   22     -0.75      0.00
   -3   -6   22     -1.26      0.00
   -2   -6   22      0.55      0.00
    9   -6   22     -0.25      0.00
   10   -6   22      0.04      0.00
   11   -6   22      0.70      0.00
   -5   -5   22      0.18      0.00
   -4   -5   22     -0.38      0.00
   -3   -5   22     -0.31      0.00
   10   -5   22      0.11      0.00
   11   -5   22     -0.24      0.00
   12   -5   22     -0.39      0.00
   -5   -4   22     -0.16      0.00
   -4   -4   22     -0.34      0.00
   11   -4   22      0.70      0.00
   12   -4   22      0.31      0.00
   -6   -3   22      0.49      0.00
   -5   -3   22      0.01      0.00
   -4   -3   22      0.94      0.00
   11   -3   22     -0.89      0.00
   12   -3   22     -1.11      0.00
   13   -3   22     -0.37      0.00
   -6   -2   22     -0.28      0.00
   -5   -2   22     -0.47      0.00
   12   -2   22     -0.39      0.00
   13   -2   22      0.43      0.00
   -6   -1   22     -0.79      0.00
   -5   -1   22      0.44      0.00
   12   -1   22      1.34      0.00
   13   -1   22      1.41      0.00
   -6    0   22      0.16      0.00
   -5    0   22      0.17      0.00
   13    0   22     -1.36      0.00
   14    0   22     -0.85      0.00
   -6    1   22      0.28      0.00
   -5    1   22     -0.47      0.00
   13    1   22     -0.19      0.00
   14    1   22      0.86      0.00
   -6    2   22      1.05      0.00
   -5    2   22     -0.21      0.00
   13    2   22      0.40      0.00
   14    2   22     -0.49      0.00
   -6    3   22     -0.63      0.00
   -5    3   22      0.25      0.00
   13    3   22     -0.40      0.00
   14    3   22     -0.10      0.00
   -6    4   22     -0.39      0.00
   -5    4   22     -0.02      0.00
   13    4   22      1.07      0.00
   14    4   22      0.33      0.00
   -6    5   22      0.39      0.00
   -5    5   22      0.23      0.00
   -4    5   22     -0.69      0.00
   12    5   22      0.38      0.00
   13    5   22     -0.83      0.00
   14    5   22     -0.04      0.00
   -5    6   22     -0.89      0.00
   -4    6   22     -0.79      0.00
   12    6   22     -0.78      0.00
   13    6   22     -0.34      0.00
   -5    7   22      0.43      0.00
   -4    7   22      0.70      0.00
   -3    7   22      0.27      0.00
   12    7   22      0.10      0.00
   13    7   22      0.38      0.00
   -4    8   22      0.13      0.00
   -3    8   22     -1.41      0.00
   11    8   22     -0.18      0.00
   12    8   22     -0.27      0.00
   13    8   22      0.55      0.00
   -4    9   22     -0.27      0.00
   -3    9   22      0.40      0.00
   -2    9   22     -0.74      0.00
   10    9   22     -0.93      0.00
   11    9   22      1.62      0.00
   12    9   22      0.52      0.00
   -3   10   22      0.57      0.00
   -2   10   22      0.46      0.00
   -1   10   22     -1.03      0.00
    0   10   22     -0.70      0.00
    9   10   22     -0.42      0.00
   10   10   22      0.39      0.00
   11   10   22     -0.97      0.00
   -2   11   22      0.30      0.00
   -1   11   22      0.40      0.00
    0   11   22     -0.17      0.00
    1   11   22      0.50      0.00
    2   11   22      1.10      0.00
    3   11   22      0.71      0.00
    6   11   22     -0.72      0.00
    7   11   22      0.01      0.00
    8   11   22     -0.78      0.00
    9   11   22     -0.03      0.00
   10   11   22      0.08      0.00
    0   12   22     -0.37      0.00
    1   12   22     -1.21      0.00
    2   12   22      0.51      0.00
    3   12   22     -0.09      0.00
    4   12   22     -0.29      0.00
    5   12   22     -0.88      0.00
    6   12   22      0.37      0.00
    7   12   22      0.01      0.00
    8   12   22      0.25      0.00
    9   12   22     -0.03      0.00
    2   13   22     -1.08      0.00
    3   13   22      0.28      0.00
    4   13   22      0.32      0.00
    5   13   22     -0.37      0.00
    6   13   22     -0.46      0.00
    7   13   22      0.36      0.00
    3   -9   23     -1.05      0.00
    4   -9   23     -0.09      0.00
    0   -8   23      0.11      0.00
    1   -8   23     -0.70      0.00
    2   -8   23     -0.51      0.00
    3   -8   23      0.29      0.00
    4   -8   23      0.68      0.00
    5   -8   23     -0.01      0.00
    6   -8   23     -0.31      0.00
    7   -8   23     -0.10      0.00
   -2   -7   23      0.44      0.00
   -1   -7   23      0.10      0.00
    0   -7   23     -0.66      0.00
    1   -7   23      0.13      0.00
    2   -7   23      0.92      0.00
    3   -7   23      2.13      0.00
    4   -7   23      0.74      0.00
    5   -7   23     -0.67      0.00
    6   -7   23      0.26      0.00
    7   -7   23      0.35      0.00
    8   -7   23     -0.21      0.00
    9   -7   23      0.43      0.00
   -3   -6   23      1.40      0.00
   -2   -6   23      0.97      0.00
   -1   -6   23      0.26      0.00
    0   -6   23      1.26      0.00
    1   -6   23      0.50      0.00
    7   -6   23      0.38      0.00
    8   -6   23     -0.03      0.00
    9   -6   23      0.09      0.00
   10   -6   23      0.08      0.00
   -3   -5   23     -0.28      0.00
   -2   -5   23     -1.01      0.00
   -1   -5   23      0.20      0.00
    8   -5   23     -0.10      0.00
    9   -5   23     -0.64      0.00
   10   -5   23     -0.60      0.00
   11   -5   23     -0.26      0.00
   -4   -4   23      0.11      0.00
   -3   -4   23     -1.31      0.00
   -2   -4   23     -0.62      0.00
   10   -4   23      0.32      0.00
   11   -4   23      0.14      0.00
   12   -4   23      0.40      0.00
   -5   -3   23      0.38      0.00
   -4   -3   23     -0.30      0.00
   -3   -3   23      0.68      0.00
   10   -3   23     -0.10      0.00
   11   -3   23     -0.07      0.00
   12   -3   23      0.34      0.00
   -5   -2   23      0.38      0.00
   -4   -2   23      0.19      0.00
   -3   -2   23     -0.13      0.00
   11   -2   23     -0.57      0.00
   12   -2   23     -0.34      0.00
   13   -2   23     -0.31      0.00
   -5   -1   23     -0.03      0.00
   -4   -1   23      0.01      0.00
   11   -1   23      0.97      0.00
   12   -1   23      0.33      0.00
   13   -1   23     -0.52      0.00
   -5    0   23     -0.57      0.00
   -4    0   23     -0.53      0.00
   12    0   23     -0.77      0.00
   13    0   23      0.02      0.00
   -5    1   23     -0.50      0.00
   -4    1   23      0.32      0.00
   12    1   23      1.10      0.00
   13    1   23      0.62      0.00
   -5    2   23      0.82      0.00
   -4    2   23      0.66      0.00
   12    2   23      0.17      0.00
   13    2   23     -0.64      0.00
   -5    3   23      0.29      0.00
   -4    3   23     -0.97      0.00
   12    3   23     -0.89      0.00
   13    3   23      0.09      0.00
   -5    4   23     -0.01      0.00
   -4    4   23      0.03      0.00
   12    4   23      0.82      0.00
   13    4   23      0.26      0.00
   -5    5   23     -0.50      0.00
   -4    5   23      0.67      0.00
   -3    5   23      0.63      0.00
   12    5   23     -1.03      0.00
   13    5   23     -0.04      0.00
   -4    6   23     -0.16      0.00
   -3    6   23      0.18      0.00
   11    6   23     -0.40      0.00
   12    6   23      0.46      0.00
   13    6   23      0.10      0.00
   -4    7   23     -0.70      0.00
   -3    7   23     -0.89      0.00
   -2    7   23      0.86      0.00
   11    7   23     -0.42      0.00
   12    7   23      0.24      0.00
   -3    8   23      0.07      0.00
   -2    8   23      0.28      0.00
   -1    8   23      2.14      0.00
   10    8   23      0.05      0.00
   11    8   23      0.71      0.00
   12    8   23     -0.05      0.00
   -3    9   23      0.31      0.00
   -2    9   23     -0.64      0.00
   -1    9   23     -0.28      0.00
    0    9   23      0.02      0.00
    9    9   23     -0.80      0.00
   10    9   23      0.20      0.00
   11    9   23     -0.22      0.00
   -2   10   23     -0.05      0.00
   -1   10   23     -0.80      0.00
    0   10   23      0.17      0.00
    1   10   23      0.49      0.00
    2   10   23     -1.25      0.00
    3   10   23     -0.86      0.00
    6   10   23     -1.13      0.00
    7   10   23     -0.18      0.00
    8   10   23     -0.45      0.00
    9   10   23      0.30      0.00
   10   10   23     -1.14      0.00
    0   11   23     -1.11      0.00
    1   11   23     -0.07      0.00
    2   11   23      0.93      0.00
    3   11   23     -0.71      0.00
    4   11   23     -0.15      0.00
    5   11   23     -1.35      0.00
    6   11   23      0.43      0.00
    7   11   23     -0.07      0.00
    8   11   23     -0.12      0.00
    9   11   23      0.17      0.00
    1   12   23      0.25      0.00
    2   12   23      0.32      0.00
    3   12   23      1.21      0.00
    4   12   23     -0.09      0.00
    5   12   23      0.67      0.00
    6   12   23      0.55      0.00
    7   12   23      0.69      0.00
    8   12   23      0.45      0.00
    3   -8   24      0.15      0.00
    4   -8   24     -0.58      0.00
    0   -7   24     -0.05      0.00
    1   -7   24     -0.20      0.00
    2   -7   24     -0.64      0.00
    3   -7   24     -0.23      0.00
    4   -7   24     -0.36      0.00
    5   -7   24      0.40      0.00
    6   -7   24      0.29      0.00
    7   -7   24     -0.11      0.00
   -1   -6   24      0.39      0.00
    0   -6   24     -0.37      0.00
    1   -6   24      0.07      0.00
    2   -6   24     -0.79      0.00
    3   -6   24     -0.77      0.00
    4   -6   24      1.00      0.00
    5   -6   24     -0.04      0.00
    6   -6   24     -0.68      0.00
    7   -6   24     -0.51      0.00
    8   -6   24     -0.30      0.00
    9   -6   24     -0.56      0.00
   -2   -5   24      1.06      0.00
   -1   -5   24      0.11      0.00
    0   -5   24      0.48      0.00
    1   -5   24      0.20      0.00
    2   -5   24      0.31      0.00
    6   -5   24     -0.68      0.00
    7   -5   24      0.54      0.00
    8   -5   24      0.98      0.00
    9   -5   24      0.20      0.00
   10   -5   24      0.03      0.00
   -3   -4   24      0.66      0.00
   -2   -4   24     -0.35      0.00
   -1   -4   24     -0.62      0.00
    0   -4   24     -0.24      0.00
    8   -4   24      0.57      0.00
    9   -4   24     -0.11      0.00
   10   -4   24     -0.32      0.00
   11   -4   24      0.46      0.00
   -3   -3   24      0.14      0.00
   -2   -3   24     -0.44      0.00
   -1   -3   24     -0.34      0.00
    9   -3   24     -0.35      0.00
   10   -3   24      0.39      0.00
   11   -3   24     -0.36      0.00
   -4   -2   24      0.21      0.00
   -3   -2   24     -0.66      0.00
   -2   -2   24     -0.31      0.00
   10   -2   24      0.25      0.00
   11   -2   24     -0.70      0.00
   12   -2   24     -0.58      0.00
   -4   -1   24      0.20      0.00
   -3   -1   24      0.03      0.00
   -2   -1   24      0.25      0.00
   10   -1   24      0.79      0.00
   11   -1   24      0.89      0.00
   12   -1   24      0.73      0.00
   -4    0   24     -0.22      0.00
   -3    0   24      0.30      0.00
   11    0   24      0.22      0.00
   12    0   24     -0.16      0.00
   -4    1   24     -0.26      0.00
   -3    1   24     -0.82      0.00
   11    1   24     -0.02      0.00
   12    1   24     -0.83      0.00
   13    1   24     -0.22      0.00
   -4    2   24     -0.06      0.00
   -3    2   24      0.56      0.00
   11    2   24     -0.05      0.00
   12    2   24      0.43      0.00
   13    2   24      0.24      0.00
   -4    3   24     -0.22      0.00
   -3    3   24      0.46      0.00
   11    3   24     -0.72      0.00
   12    3   24      0.41      0.00
   13    3   24     -0.36      0.00
   -4    4   24      0.76      0.00
   -3    4   24     -0.25      0.00
   -2    4   24      0.36      0.00
   11    4   24      0.92      0.00
   12    4   24     -0.30      0.00
   13    4   24      0.62      0.00
   -4    5   24      0.05      0.00
   -3    5   24     -0.22      0.00
   -2    5   24     -0.79      0.00
   11    5   24     -0.05      0.00
   12    5   24      0.27      0.00
   -3    6   24      0.04      0.00
   -2    6   24      0.04      0.00
   -1    6   24     -0.43      0.00
   10    6   24     -0.27      0.00
   11    6   24     -0.85      0.00
   12    6   24     -0.29      0.00
   -3    7   24      0.46      0.00
   -2    7   24      0.81      0.00
   -1    7   24      0.14      0.00
    0    7   24     -1.27      0.00
    9    7   24      1.29      0.00
   10    7   24     -0.43      0.00
   11    7   24      0.51      0.00
   12    7   24      0.33      0.00
   -2    8   24     -0.11      0.00
   -1    8   24     -0.14      0.00
    0    8   24     -0.28      0.00
    1    8   24      0.63      0.00
    8    8   24     -1.15      0.00
    9    8   24     -0.60      0.00
   10    8   24      0.83      0.00
   11    8   24     -0.29      0.00
   -1    9   24      0.23      0.00
    0    9   24      1.20      0.00
    1    9   24      0.15      0.00
    2    9   24     -0.75      0.00
    3    9   24      0.67      0.00
    4    9   24      1.18      0.00
    5    9   24      0.05      0.00
    6    9   24     -1.31      0.00
    7    9   24      1.09      0.00
    8    9   24      0.40      0.00
    9    9   24     -0.20      0.00
   10    9   24     -0.28      0.00
    0   10   24     -0.24      0.00
    1   10   24     -0.40      0.00
    2   10   24     -0.22      0.00
    3   10   24     -0.36      0.00
    4   10   24     -0.57      0.00
    5   10   24     -0.56      0.00
    6   10   24      1.53      0.00
    7   10   24     -0.23      0.00
    8   10   24      0.40      0.00
    9   10   24      0.00      0.00
    1   11   24      0.91      0.00
    2   11   24      0.20      0.00
    3   11   24     -0.10      0.00
    4   11   24     -0.33      0.00
    5   11   24      0.75      0.00
    6   11   24     -0.30      0.00
    7   11   24     -0.23      0.00
    8   11   24     -0.03      0.00
    1   -6   25     -0.09      0.00
    2   -6   25     -0.15      0.00
    3   -6   25      0.31      0.00
    4   -6   25     -0.38      0.00
    5   -6   25     -0.58      0.00
    6   -6   25     -0.26      0.00
    7   -6   25      0.25      0.00
    0   -5   25      0.34      0.00
    1   -5   25      0.32      0.00
    2   -5   25      0.13      0.00
    3   -5   25     -1.43      0.00
    4   -5   25     -0.96      0.00
    5   -5   25     -0.23      0.00
    6   -5   25      0.11      0.00
    7   -5   25      0.19      0.00
    8   -5   25     -0.21      0.00
    9   -5   25     -0.58      0.00
   -1   -4   25      0.51      0.00
    0   -4   25      0.02      0.00
    1   -4   25     -0.25      0.00
    2   -4   25      0.15      0.00
    3   -4   25      0.27      0.00
    4   -4   25      0.41      0.00
    5   -4   25      1.56      0.00
    6   -4   25      0.13      0.00
    7   -4   25     -0.73      0.00
    8   -4   25     -0.34      0.00
    9   -4   25      0.43      0.00
   10   -4   25      0.02      0.00
   -2   -3   25      0.65      0.00
   -1   -3   25      0.18      0.00
    0   -3   25     -0.54      0.00
    1   -3   25     -0.41      0.00
    2   -3   25     -0.70      0.00
    7   -3   25     -0.67      0.00
    8   -3   25      0.06      0.00
    9   -3   25      1.21      0.00
   10   -3   25      0.09      0.00
   -3   -2   25     -0.34      0.00
   -2   -2   25     -0.05      0.00
   -1   -2   25     -0.47      0.00
    0   -2   25     -0.52      0.00
    8   -2   25      1.04      0.00
    9   -2   25      0.03      0.00
   10   -2   25     -0.74      0.00
   11   -2   25     -0.61      0.00
   -3   -1   25      0.71      0.00
   -2   -1   25      0.17      0.00
   -1   -1   25     -0.01      0.00
    0   -1   25      0.27      0.00
    9   -1   25     -1.74      0.00
   10   -1   25      0.01      0.00
   11   -1   25      1.07      0.00
   -3    0   25     -0.20      0.00
   -2    0   25     -0.67      0.00
   -1    0   25     -0.30      0.00
    9    0   25      0.48      0.00
   10    0   25      1.00      0.00
   11    0   25     -0.22      0.00
   12    0   25     -0.35      0.00
   -3    1   25     -0.05      0.00
   -2    1   25      0.26      0.00
   -1    1   25      0.04      0.00
   10    1   25     -0.44      0.00
   11    1   25     -0.62      0.00
   12    1   25      0.74      0.00
   -3    2   25     -0.07      0.00
   -2    2   25     -0.19      0.00
   -1    2   25      0.19      0.00
   10    2   25     -0.57      0.00
   11    2   25      0.45      0.00
   12    2   25      0.07      0.00
   -3    3   25     -0.05      0.00
   -2    3   25     -0.22      0.00
   -1    3   25     -0.44      0.00
   10    3   25      0.09      0.00
   11    3   25      0.14      0.00
   12    3   25     -0.63      0.00
   -3    4   25     -0.16      0.00
   -2    4   25      0.45      0.00
   -1    4   25      0.71      0.00
   10    4   25      0.51      0.00
   11    4   25     -0.36      0.00
   12    4   25      0.67      0.00
   -3    5   25      0.19      0.00
   -2    5   25      0.59      0.00
   -1    5   25      0.41      0.00
    0    5   25      0.52      0.00
    9    5   25      0.35      0.00
   10    5   25     -0.14      0.00
   11    5   25      0.16      0.00
   12    5   25     -0.36      0.00
   -2    6   25     -0.72      0.00
   -1    6   25     -0.74      0.00
    0    6   25     -1.45      0.00
    1    6   25     -0.16      0.00
    8    6   25      1.10      0.00
    9    6   25     -0.28      0.00
   10    6   25     -1.13      0.00
   11    6   25     -0.05      0.00
   -2    7   25      0.00      0.00
   -1    7   25     -0.99      0.00
    0    7   25      0.50      0.00
    1    7   25      0.48      0.00
    2    7   25      0.04      0.00
    7    7   25     -0.75      0.00
    8    7   25      0.92      0.00
    9    7   25      0.36      0.00
   10    7   25      1.19      0.00
   11    7   25     -0.06      0.00
   -1    8   25      1.38      0.00
    0    8   25      0.64      0.00
    1    8   25     -0.13      0.00
    2    8   25     -0.31      0.00
    3    8   25      1.10      0.00
    4    8   25      0.12      0.00
    5    8   25     -1.80      0.00
    6    8   25     -0.05      0.00
    7    8   25      0.61      0.00
    8    8   25     -1.01      0.00
    9    8   25     -0.01      0.00
   10    8   25      0.20      0.00
    0    9   25     -0.30      0.00
    1    9   25     -0.14      0.00
    2    9   25      0.92      0.00
    3    9   25      0.10      0.00
    4    9   25     -0.21      0.00
    5    9   25      0.39      0.00
    6    9   25      0.61      0.00
    7    9   25     -0.43      0.00
    8    9   25     -0.10      0.00
    9    9   25     -0.45      0.00
    2   10   25     -1.14      0.00
    3   10   25     -0.66      0.00
    4   10   25     -0.01      0.00
    5   10   25      0.74      0.00
    6   10   25     -0.90      0.00
    7   10   25     -0.04      0.00
    8   10   25      0.22      0.00
    2   -5   26      0.15      0.00
    3   -5   26      0.01      0.00
    4   -5   26      0.26      0.00
    5   -5   26     -0.12      0.00
    6   -5   26     -0.45      0.00
    0   -4   26      0.07      0.00
    1   -4   26      0.33      0.00
    2   -4   26     -0.04      0.00
    3   -4   26      0.00      0.00
    4   -4   26     -0.35      0.00
    5   -4   26     -0.40      0.00
    6   -4   26      0.14      0.00
    7   -4   26      0.23      0.00
    8   -4   26      0.84      0.00
    0   -3   26     -0.12      0.00
    1   -3   26     -0.21      0.00
    2   -3   26      0.28      0.00
    3   -3   26      0.62      0.00
    4   -3   26     -0.04      0.00
    5   -3   26      0.46      0.00
    6   -3   26      1.08      0.00
    7   -3   26      0.26      0.00
    8   -3   26     -0.01      0.00
    9   -3   26     -0.08      0.00
   -1   -2   26     -0.30      0.00
    0   -2   26      0.56      0.00
    1   -2   26      0.14      0.00
    2   -2   26     -0.26      0.00
    3   -2   26     -0.72      0.00
    4   -2   26      0.01      0.00
    5   -2   26      0.18      0.00
    6   -2   26     -0.56      0.00
    7   -2   26     -0.85      0.00
    8   -2   26     -1.54      0.00
    9   -2   26     -1.03      0.00
   10   -2   26      0.16      0.00
   -1   -1   26      0.35      0.00
    0   -1   26      0.06      0.00
    1   -1   26     -0.32      0.00
    2   -1   26     -0.27      0.00
    3   -1   26     -0.65      0.00
    4   -1   26     -0.33      0.00
    5   -1   26      0.11      0.00
    6   -1   26     -1.06      0.00
    7   -1   26      0.18      0.00
    8   -1   26      0.80      0.00
    9   -1   26      1.25      0.00
   10   -1   26      1.18      0.00
   -2    0   26      0.32      0.00
   -1    0   26      0.24      0.00
    0    0   26     -0.50      0.00
    1    0   26     -0.34      0.00
    2    0   26      0.52      0.00
    7    0   26      1.07      0.00
    8    0   26      0.70      0.00
    9    0   26      0.18      0.00
   10    0   26     -0.82      0.00
   11    0   26      0.22      0.00
   -2    1   26     -0.10      0.00
   -1    1   26     -0.31      0.00
    0    1   26      0.19      0.00
    1    1   26      0.23      0.00
    8    1   26     -0.19      0.00
    9    1   26     -0.98      0.00
   10    1   26     -0.62      0.00
   11    1   26     -0.01      0.00
   -2    2   26      0.17      0.00
   -1    2   26      0.11      0.00
    0    2   26      0.17      0.00
    1    2   26      0.60      0.00
    8    2   26     -0.35      0.00
    9    2   26     -0.31      0.00
   10    2   26      0.59      0.00
   11    2   26      0.03      0.00
   -2    3   26     -0.20      0.00
   -1    3   26     -0.13      0.00
    0    3   26     -0.71      0.00
    1    3   26     -0.26      0.00
    8    3   26      0.08      0.00
    9    3   26      0.37      0.00
   10    3   26      0.05      0.00
   11    3   26     -0.52      0.00
   -2    4   26      0.49      0.00
   -1    4   26     -0.16      0.00
    0    4   26     -0.04      0.00
    1    4   26     -0.58      0.00
    2    4   26     -0.33      0.00
    7    4   26     -0.02      0.00
    8    4   26      0.07      0.00
    9    4   26      0.38      0.00
   10    4   26      0.03      0.00
   11    4   26      0.50      0.00
   -1    5   26      0.41      0.00
    0    5   26      0.50      0.00
    1    5   26      1.04      0.00
    2    5   26      0.18      0.00
    3    5   26      0.70      0.00
    6    5   26      0.31      0.00
    7    5   26     -0.31      0.00
    8    5   26      0.36      0.00
    9    5   26     -0.65      0.00
   10    5   26     -0.09      0.00
   11    5   26      0.20      0.00
   -1    6   26     -0.14      0.00
    0    6   26      0.47      0.00
    1    6   26     -0.01      0.00
    2    6   26     -0.35      0.00
    3    6   26     -0.81      0.00
    4    6   26      0.34      0.00
    5    6   26      0.13      0.00
    6    6   26     -1.03      0.00
    7    6   26      0.34      0.00
    8    6   26      0.05      0.00
    9    6   26     -0.09      0.00
   10    6   26      0.12      0.00
    0    7   26     -0.73      0.00
    1    7   26     -0.96      0.00
    2    7   26      0.10      0.00
    3    7   26     -0.01      0.00
    4    7   26     -1.30      0.00
    5    7   26     -0.25      0.00
    6    7   26      0.77      0.00
    7    7   26      0.37      0.00
    8    7   26      0.08      0.00
    9    7   26      0.63      0.00
   10    7   26     -0.07      0.00
    1    8   26      0.27      0.00
    2    8   26      0.50      0.00
    3    8   26     -0.09      0.00
    4    8   26     -0.10      0.00
    5    8   26      0.39      0.00
    6    8   26      0.51      0.00
    7    8   26     -1.10      0.00
    8    8   26     -0.56      0.00
    9    8   26      0.10      0.00
    2    9   26     -0.19      0.00
    3    9   26      0.27      0.00
    4    9   26      0.89      0.00
    5    9   26     -0.23      0.00
    6    9   26     -1.19      0.00
    7    9   26      0.84      0.00
    0    0    0      0.00      0.00
# SQUEEZE RESULTS (Version = 280317)
# Note: Data are Listed for all Voids in the P1 Unit Cell
# i.e. Centre of Gravity, Solvent Accessible Volume,
# Recovered number of Electrons in the Void and
# Details about the Squeezed Material
loop_
  _platon_squeeze_void_nr
  _platon_squeeze_void_average_x
  _platon_squeeze_void_average_y
  _platon_squeeze_void_average_z
  _platon_squeeze_void_volume
  _platon_squeeze_void_count_electrons
  _platon_squeeze_void_content
   1  0.000  0.500  1.000       453        92 ' '
   2 -0.008  0.500  0.500       618       123 ' '
# Missing Reflections Below sin(th)/lambda = 0.25
loop_
  _platon_missing_refln_index_h
  _platon_missing_refln_index_k
  _platon_missing_refln_index_l
  _platon_missing_refln_theta
    0    0    2     4.234
_platon_squeeze_void_probe_radius                  1.20
_platon_squeeze_details
)
TITL tx2379_a.res in P-1
CELL   13.2040   14.0442   21.9436     82.84     73.13     85.13
SPGR P-1
# Solvent Accessible Volume =      1070
# Electrons Found in S.A.V. =       215
# Note: Atoms in Void are Labelled as Cxxx and Qxxx for all Others
C101 0.040 0.215 0.490 !       6.46 eA-3
C102 0.188 0.276 0.457 !       6.22 eA-3
C103 0.091 0.280 0.477 !       5.19 eA-3
C104 0.246 0.209 0.422 !       5.07 eA-3
C105 0.164 0.715 0.069 !       4.53 eA-3
C106 0.341 0.706 0.081 !       4.49 eA-3
C107 0.267 0.746 0.057 !       4.09 eA-3
C108 0.082 0.764 0.038 !       3.86 eA-3
C109 0.360 0.221 0.404 !       3.74 eA-3
C110 0.984 0.620 0.029 !       3.61 eA-3
C111 0.037 0.397 0.489 !       3.46 eA-3
C112 0.983 0.720 0.053 !       3.46 eA-3
Q113 0.228 0.376 0.009 !       2.50 eA-3
C114 0.185 0.768 0.047 !       2.50 eA-3
Q115 0.576 0.639 0.008 !       2.28 eA-3
C116 0.543 0.528 0.480 !       2.23 eA-3
C117 0.646 0.513 0.476 !       2.05 eA-3
Q118 0.300 0.396 0.099 !       1.87 eA-3
C119 0.999 0.706 0.107 !       1.80 eA-3
C120 0.720 0.566 0.433 !       1.71 eA-3
C121 0.122 0.372 0.465 !       1.70 eA-3
Q122 0.685 0.644 0.013 !       1.57 eA-3
C123 0.310 0.504 0.483 !       1.40 eA-3
Q124 0.343 0.347 0.258 !       1.24 eA-3
Q125 0.269 0.106 0.253 !       1.12 eA-3
Q126 0.534 0.333 0.227 !       1.11 eA-3
C127 0.164 0.641 0.117 !       1.10 eA-3
Q128 0.313 0.281 0.249 !       1.10 eA-3
Q129 0.438 0.191 0.224 !       1.10 eA-3
Q130 0.296 0.030 0.111 !       1.09 eA-3
Q131 0.345 0.688 0.306 !       1.08 eA-3
Q132 0.092 0.958 0.167 !       1.07 eA-3
Q133 0.282 0.186 0.241 !       1.06 eA-3
Q134 0.519 0.225 0.223 !       1.06 eA-3
Q135 0.301 0.219 0.065 !       1.06 eA-3
Q136 0.355 0.639 0.252 !       1.05 eA-3
Q137 0.084 0.221 0.298 !       1.04 eA-3
Q138 0.694 0.376 0.168 !       1.03 eA-3
Q139 0.172 0.918 0.198 !       1.02 eA-3
Q140 0.906 0.092 0.289 !       1.02 eA-3
Q141 0.279 0.933 0.140 !       1.02 eA-3
C142 0.160 0.700 0.135 !       0.99 eA-3
Q143 0.435 0.703 0.325 !       0.98 eA-3
Q144 0.449 0.090 0.223 !       0.98 eA-3
Q145 0.872 0.955 0.392 !       0.97 eA-3
Q146 0.158 0.362 0.295 !       0.96 eA-3
Q147 0.360 0.049 0.237 !       0.95 eA-3
Q148 0.675 0.377 0.277 !       0.94 eA-3
Q149 0.777 0.408 0.255 !       0.94 eA-3
Q150 0.206 0.188 0.084 !       0.94 eA-3
Q151 0.325 0.780 0.418 !       0.92 eA-3
Q152 0.200 0.953 0.249 !       0.92 eA-3
Q153 0.170 0.265 0.280 !       0.91 eA-3
Q154 0.561 0.854 0.131 !       0.90 eA-3
Q155 0.425 0.375 0.259 !       0.90 eA-3
Q156 0.688 0.919 0.390 !       0.90 eA-3
Q157 0.396 0.061 0.099 !       0.89 eA-3
Q158 0.843 0.424 0.196 !       0.89 eA-3
Q159 0.172 0.059 0.277 !       0.89 eA-3
Q160 0.245 0.714 0.352 !       0.88 eA-3
Q161 0.981 0.080 0.301 !       0.88 eA-3
Q162 0.631 0.613 0.185 !       0.87 eA-3
Q163 0.492 0.022 0.085 !       0.86 eA-3
Q164 0.604 0.154 0.216 !       0.86 eA-3
Q165 0.629 0.722 0.275 !       0.85 eA-3
Q166 0.467 0.941 0.123 !       0.85 eA-3
Q167 0.158 0.643 0.279 !       0.85 eA-3
Q168 0.200 0.097 0.100 !       0.85 eA-3
Q169 0.064 0.734 0.349 !       0.84 eA-3
Q170 0.813 0.030 0.316 !       0.84 eA-3
Q171 0.260 0.388 0.293 !       0.83 eA-3
Q172 0.640 0.362 0.222 !       0.83 eA-3
Q173 0.108 0.045 0.114 !       0.82 eA-3
Q174 0.961 0.718 0.338 !       0.82 eA-3
Q175 0.322 0.938 0.245 !       0.82 eA-3
Q176 0.589 0.030 0.046 !       0.82 eA-3
Q177 0.263 0.580 0.260 !       0.82 eA-3
Q178 0.537 0.629 0.233 !       0.81 eA-3
Q179 0.237 0.769 0.399 !       0.81 eA-3
Q180 0.081 0.106 0.296 !       0.81 eA-3
Q181 0.282 0.506 0.298 !       0.79 eA-3
Q182 0.399 0.170 0.072 !       0.79 eA-3
Q183 1.003 0.278 0.340 !       0.79 eA-3
Q184 0.028 0.067 0.088 !       0.78 eA-3
Q185 0.968 0.020 0.363 !       0.78 eA-3
Q186 0.060 0.598 0.279 !       0.78 eA-3
Q187 0.954 0.455 0.177 !       0.78 eA-3
Q188 0.408 0.482 0.283 !       0.78 eA-3
Q189 0.565 0.064 0.213 !       0.78 eA-3
Q190 0.896 0.952 0.170 !       0.78 eA-3
Q191 0.438 0.574 0.236 !       0.76 eA-3
Q192 0.677 0.952 0.058 !       0.76 eA-3
C193 0.041 0.521 0.480 !       0.76 eA-3
Q194 0.423 0.761 0.380 !       0.76 eA-3
Q195 0.791 0.984 0.363 !       0.75 eA-3
Q196 1.004 0.924 0.177 !       0.75 eA-3
Q197 0.306 0.954 0.446 !       0.74 eA-3
Q198 0.909 0.170 0.229 !       0.73 eA-3
Q199 0.364 0.278 0.374 !       0.72 eA-3
)
;
_shelx_fab_checksum              17014
_olex2_submission_special_instructions 'No special instructions were received'
_oxdiff_exptl_absorpt_empirical_details
;
Empirical correction (ABSPACK) includes:
- Absorption correction using spherical harmonics
- Frame scaling
;
_oxdiff_exptl_absorpt_empirical_full_max 1.254
_oxdiff_exptl_absorpt_empirical_full_min 0.811
loop_
_space_group_symop_operation_xyz
'x, y, z'
'-x, -y, -z'
loop_
_atom_site_label
_atom_site_type_symbol
_atom_site_fract_x
_atom_site_fract_y
_atom_site_fract_z
_atom_site_U_iso_or_equiv
_atom_site_adp_type
_atom_site_occupancy
_atom_site_site_symmetry_order
_atom_site_calc_flag
_atom_site_refinement_flags_posn
_atom_site_refinement_flags_adp
_atom_site_refinement_flags_occupancy
_atom_site_disorder_assembly
_atom_site_disorder_group
Ni1 Ni 0.69539(2) 0.76985(2) 0.75339(2) 0.02918(9) Uani 1 1 d . . . . .
N1 N 0.56104(12) 0.81430(10) 0.77221(8) 0.0310(3) Uani 1 1 d . . . . .
N2 N 0.72552(12) 0.89197(10) 0.75522(7) 0.0300(3) Uani 1 1 d . . . . .
N3 N 0.83079(12) 0.72983(10) 0.72403(8) 0.0317(3) Uani 1 1 d . . . . .
N4 N 0.66421(12) 0.65188(10) 0.74143(8) 0.0312(3) Uani 1 1 d . . . . .
N5 N 0.65111(13) 0.35520(10) 0.75050(8) 0.0326(3) Uani 1 1 d . . . . .
N6 N 0.71917(13) 1.06235(11) 0.86080(8) 0.0336(3) Uani 1 1 d . . . . .
C1 C 0.54368(15) 0.91195(12) 0.77546(9) 0.0303(4) Uani 1 1 d . . . . .
C2 C 0.64289(15) 0.95458(12) 0.76547(8) 0.0293(4) Uani 1 1 d . . . . .
C3 C 0.82376(15) 0.93348(12) 0.73829(9) 0.0302(4) Uani 1 1 d . . . . .
C4 C 0.91575(15) 0.88276(12) 0.71144(9) 0.0313(4) Uani 1 1 d . . . . .
C5 C 0.91803(14) 0.78036(12) 0.70132(9) 0.0314(4) Uani 1 1 d . . . . .
C6 C 0.99890(15) 0.71902(13) 0.66492(10) 0.0367(4) Uani 1 1 d . . . . .
H6 H 1.068668 0.734301 0.644593 0.044 Uiso 1 1 calc R . . . .
C7 C 0.95473(15) 0.63226(13) 0.66526(10) 0.0362(4) Uani 1 1 d . . . . .
H7 H 0.989395 0.579074 0.645393 0.043 Uiso 1 1 calc R . . . .
C8 C 0.84735(15) 0.64029(12) 0.70149(9) 0.0319(4) Uani 1 1 d . . . . .
C9 C 0.74828(15) 0.59777(12) 0.71274(9) 0.0305(4) Uani 1 1 d . . . . .
C10 C 0.56586(14) 0.61572(12) 0.74645(9) 0.0299(4) Uani 1 1 d . . . . .
C11 C 0.47400(14) 0.67059(12) 0.76468(9) 0.0299(4) Uani 1 1 d . . . . .
C12 C 0.47241(14) 0.77297(12) 0.77511(9) 0.0302(4) Uani 1 1 d . . . . .
C13 C 0.38988(15) 0.84671(13) 0.78370(10) 0.0371(4) Uani 1 1 d . . . . .
H13 H 0.318668 0.838656 0.788586 0.044 Uiso 1 1 calc R . . . .
C14 C 0.43477(15) 0.93271(13) 0.78348(10) 0.0363(4) Uani 1 1 d . . . . .
H14 H 0.399467 0.992748 0.787821 0.044 Uiso 1 1 calc R . . . .
C15 C 0.67681(15) 1.05473(12) 0.76272(9) 0.0305(4) Uani 1 1 d . . . . .
H15 H 0.657133 1.097650 0.728751 0.037 Uiso 1 1 calc R . . . .
C16 C 0.80066(15) 1.04010(12) 0.74880(9) 0.0321(4) Uani 1 1 d . . . . .
H16 H 0.836133 1.080585 0.710009 0.039 Uiso 1 1 calc R . . . .
C17 C 0.81956(16) 1.07647(13) 0.80957(10) 0.0358(4) Uani 1 1 d . . . . .
H17 H 0.826076 1.146098 0.799976 0.043 Uiso 1 1 calc R . . . .
C18 C 0.91213(17) 1.03862(15) 0.83398(11) 0.0416(5) Uani 1 1 d . . . . .
C19 C 0.89841(17) 0.95865(15) 0.87978(11) 0.0424(5) Uani 1 1 d . . . . .
C20 C 0.79790(16) 0.91061(14) 0.89655(9) 0.0360(4) Uani 1 1 d . . . . .
C21 C 0.70805(15) 0.96599(13) 0.88908(9) 0.0320(4) Uani 1 1 d . . . . .
C22 C 0.60824(15) 0.92695(13) 0.91176(9) 0.0324(4) Uani 1 1 d . . . . .
C23 C 0.60251(16) 0.82900(14) 0.93309(9) 0.0363(4) Uani 1 1 d . . . . .
H23 H 0.536460 0.802472 0.946925 0.044 Uiso 1 1 calc R . . . .
C24 C 0.69186(17) 0.76979(14) 0.93437(10) 0.0391(4) Uani 1 1 d . . . . .
C25 C 0.78825(17) 0.81344(14) 0.91823(10) 0.0400(4) Uani 1 1 d . . . . .
H25 H 0.848318 0.776372 0.922062 0.048 Uiso 1 1 calc R . . . .
C26 C 0.9780(2) 0.93043(18) 0.90956(13) 0.0553(6) Uani 1 1 d . . . . .
H26 H 0.968422 0.878925 0.941371 0.066 Uiso 1 1 calc R . . . .
C27 C 1.0709(2) 0.9787(2) 0.89202(16) 0.0684(8) Uani 1 1 d . . . . .
H27 H 1.123396 0.959597 0.912187 0.082 Uiso 1 1 calc R . . . .
C28 C 1.0860(2) 1.0550(2) 0.84464(16) 0.0681(8) Uani 1 1 d . . . . .
H28 H 1.149561 1.085836 0.831926 0.082 Uiso 1 1 calc R . . . .
C29 C 1.00631(19) 1.08580(17) 0.81604(14) 0.0545(6) Uani 1 1 d . . . . .
H29 H 1.015957 1.138086 0.784809 0.065 Uiso 1 1 calc R . . . .
C30 C 0.63800(15) 1.09809(12) 0.82880(9) 0.0326(4) Uani 1 1 d . . . . .
H30 H 0.641620 1.168066 0.820172 0.039 Uiso 1 1 calc R . . . .
C31 C 0.52832(16) 1.07657(13) 0.87038(9) 0.0329(4) Uani 1 1 d . . . . .
C32 C 0.51425(15) 0.99029(13) 0.91076(9) 0.0324(4) Uani 1 1 d . . . . .
C33 C 0.41236(16) 0.96981(14) 0.94938(9) 0.0378(4) Uani 1 1 d . . . . .
H33 H 0.402218 0.913638 0.977261 0.045 Uiso 1 1 calc R . . . .
C34 C 0.32645(17) 1.03204(16) 0.94663(10) 0.0417(5) Uani 1 1 d . . . . .
H34 H 0.258864 1.016860 0.971886 0.050 Uiso 1 1 calc R . . . .
C35 C 0.34090(17) 1.11686(15) 0.90638(11) 0.0432(5) Uani 1 1 d . . . . .
H35 H 0.283087 1.158646 0.904530 0.052 Uiso 1 1 calc R . . . .
C36 C 0.44195(17) 1.13949(14) 0.86873(10) 0.0397(4) Uani 1 1 d . . . . .
H36 H 0.451772 1.197082 0.842292 0.048 Uiso 1 1 calc R . . . .
C37 C 0.68460(18) 0.66063(15) 0.95248(11) 0.0481(5) Uani 1 1 d D . . . .
C38 C 0.6713(5) 0.6372(3) 1.0206(2) 0.0642(14) Uani 0.582(5) 1 d D U P A 1
H38A H 0.732450 0.655035 1.030919 0.096 Uiso 0.582(5) 1 calc GR . P A 1
H38B H 0.663299 0.569339 1.031546 0.096 Uiso 0.582(5) 1 calc GR . P A 1
H38C H 0.609367 0.671579 1.044265 0.096 Uiso 0.582(5) 1 calc GR . P A 1
C39 C 0.5907(4) 0.6231(3) 0.9326(2) 0.0528(11) Uani 0.582(5) 1 d D U P A 1
H39A H 0.524425 0.649149 0.957911 0.079 Uiso 0.582(5) 1 calc GR . P A 1
H39B H 0.592046 0.554252 0.939633 0.079 Uiso 0.582(5) 1 calc GR . P A 1
H39C H 0.598368 0.643198 0.888089 0.079 Uiso 0.582(5) 1 calc GR . P A 1
C40 C 0.7830(4) 0.6076(3) 0.9099(3) 0.0598(13) Uani 0.582(5) 1 d D U P A 1
H40A H 0.790170 0.629038 0.865597 0.090 Uiso 0.582(5) 1 calc GR . P A 1
H40B H 0.774145 0.539641 0.917260 0.090 Uiso 0.582(5) 1 calc GR . P A 1
H40C H 0.845461 0.621570 0.920438 0.090 Uiso 0.582(5) 1 calc GR . P A 1
C41 C 1.01876(14) 0.93069(12) 0.68504(9) 0.0314(4) Uani 1 1 d . . . . .
C42 C 1.10134(16) 0.90813(14) 0.71355(10) 0.0371(4) Uani 1 1 d . . . . .
C43 C 1.19493(17) 0.95634(16) 0.68844(11) 0.0439(5) Uani 1 1 d . . . . .
H43 H 1.249401 0.942051 0.707627 0.053 Uiso 1 1 calc R . . . .
C44 C 1.20951(17) 1.02477(15) 0.63591(11) 0.0426(5) Uani 1 1 d . . . . .
C45 C 1.12920(16) 1.04216(13) 0.60636(10) 0.0386(4) Uani 1 1 d . . . . .
H45 H 1.138589 1.086618 0.570288 0.046 Uiso 1 1 calc R . . . .
C46 C 1.03483(15) 0.99495(12) 0.62917(9) 0.0326(4) Uani 1 1 d . . . . .
C47 C 0.95511(17) 1.00882(14) 0.59106(10) 0.0397(4) Uani 1 1 d . . . . .
H47A H 0.942701 0.947797 0.579854 0.060 Uiso 1 1 calc GR . . . .
H47B H 0.982138 1.050964 0.552773 0.060 Uiso 1 1 calc GR . . . .
H47C H 0.889813 1.036521 0.616340 0.060 Uiso 1 1 calc GR . . . .
C48 C 1.09202(18) 0.83158(16) 0.76923(11) 0.0471(5) Uani 1 1 d . . . . .
H48A H 1.018795 0.826080 0.792875 0.071 Uiso 1 1 calc GR . . . .
H48B H 1.130892 0.848686 0.796718 0.071 Uiso 1 1 calc GR . . . .
H48C H 1.120449 0.771204 0.753569 0.071 Uiso 1 1 calc GR . . . .
C49 C 1.3110(2) 1.0775(2) 0.61067(14) 0.0616(7) Uani 1 1 d . . . . .
H49A H 1.344606 1.065145 0.567143 0.092 Uiso 1 1 calc GR . . . .
H49B H 1.357748 1.055606 0.636423 0.092 Uiso 1 1 calc GR . . . .
H49C H 1.295118 1.145272 0.612426 0.092 Uiso 1 1 calc GR . . . .
C50 C 0.71392(14) 0.50614(12) 0.69922(9) 0.0308(4) Uani 1 1 d . . . . .
H50 H 0.740797 0.496881 0.653670 0.037 Uiso 1 1 calc R . . . .
C51 C 0.58995(14) 0.51645(12) 0.72127(9) 0.0300(4) Uani 1 1 d . . . . .
H51 H 0.562245 0.515778 0.684458 0.036 Uiso 1 1 calc R . . . .
C52 C 0.55803(15) 0.42340(12) 0.76915(9) 0.0324(4) Uani 1 1 d . . . . .
H52 H 0.551508 0.439113 0.812450 0.039 Uiso 1 1 calc R . . . .
C53 C 0.45819(15) 0.37831(12) 0.77047(9) 0.0333(4) Uani 1 1 d . . . . .
C54 C 0.36407(17) 0.39592(13) 0.81688(10) 0.0393(4) Uani 1 1 d . . . . .
H54 H 0.362435 0.436828 0.847412 0.047 Uiso 1 1 calc R . . . .
C55 C 0.27238(17) 0.35339(15) 0.81840(11) 0.0435(5) Uani 1 1 d . . . . .
H55 H 0.209320 0.366692 0.849271 0.052 Uiso 1 1 calc R . . . .
C56 C 0.27497(17) 0.29113(15) 0.77387(11) 0.0436(5) Uani 1 1 d . . . . .
H56 H 0.213490 0.262632 0.774643 0.052 Uiso 1 1 calc R . . . .
C57 C 0.36903(16) 0.27112(14) 0.72807(10) 0.0398(4) Uani 1 1 d . . . . .
H57 H 0.370436 0.228384 0.698658 0.048 Uiso 1 1 calc R . . . .
C58 C 0.46193(15) 0.31442(13) 0.72554(9) 0.0336(4) Uani 1 1 d . . . . .
C59 C 0.56541(15) 0.28982(12) 0.68065(9) 0.0323(4) Uani 1 1 d . . . . .
C60 C 0.65802(15) 0.31015(12) 0.69487(9) 0.0308(4) Uani 1 1 d . . . . .
C61 C 0.75755(15) 0.28091(12) 0.65520(10) 0.0328(4) Uani 1 1 d . . . . .
C62 C 0.85401(15) 0.29919(12) 0.67229(10) 0.0361(4) Uani 1 1 d . . . . .
C63 C 0.84529(16) 0.36529(13) 0.71631(11) 0.0377(4) Uani 1 1 d . . . . .
C64 C 0.74043(15) 0.41597(12) 0.74236(10) 0.0337(4) Uani 1 1 d . . . . .
H64 H 0.737508 0.435661 0.784162 0.040 Uiso 1 1 calc R . . . .
C65 C 0.93360(18) 0.38621(15) 0.73345(13) 0.0481(5) Uani 1 1 d . . . . .
H65 H 0.926889 0.430175 0.762940 0.058 Uiso 1 1 calc R . . . .
C66 C 1.03115(19) 0.34216(16) 0.70699(15) 0.0578(7) Uani 1 1 d . . . . .
H66 H 1.090492 0.357535 0.717730 0.069 Uiso 1 1 calc R . . . .
C67 C 1.04036(18) 0.27534(16) 0.66459(14) 0.0534(6) Uani 1 1 d . . . . .
H67 H 1.105950 0.244732 0.647370 0.064 Uiso 1 1 calc R . . . .
C68 C 0.95297(17) 0.25325(14) 0.64736(12) 0.0445(5) Uani 1 1 d . . . . .
H68 H 0.960135 0.207495 0.618973 0.053 Uiso 1 1 calc R . . . .
C69 C 0.76182(15) 0.23554(13) 0.60142(10) 0.0349(4) Uani 1 1 d . . . . .
H69 H 0.827773 0.217240 0.575112 0.042 Uiso 1 1 calc R . . . .
C70 C 0.67122(15) 0.21648(13) 0.58548(10) 0.0351(4) Uani 1 1 d . . . . .
C71 C 0.57438(15) 0.24430(13) 0.62641(10) 0.0357(4) Uani 1 1 d . . . . .
H71 H 0.512693 0.231900 0.617106 0.043 Uiso 1 1 calc R . . . .
C72 C 0.67876(17) 0.16330(16) 0.52726(10) 0.0419(5) Uani 1 1 d . . . . .
C73 C 0.58149(19) 0.1851(2) 0.50252(12) 0.0582(6) Uani 1 1 d . . . . .
H73A H 0.519415 0.164632 0.535488 0.087 Uiso 1 1 calc GR . . . .
H73B H 0.589928 0.151324 0.465765 0.087 Uiso 1 1 calc GR . . . .
H73C H 0.574016 0.252902 0.490771 0.087 Uiso 1 1 calc GR . . . .
C74 C 0.6849(3) 0.05526(19) 0.54838(15) 0.0761(9) Uani 1 1 d . . . . .
H74A H 0.746310 0.039453 0.563368 0.114 Uiso 1 1 calc GR . . . .
H74B H 0.689732 0.020072 0.512745 0.114 Uiso 1 1 calc GR . . . .
H74C H 0.622394 0.038585 0.582262 0.114 Uiso 1 1 calc GR . . . .
C75 C 0.7759(2) 0.1900(2) 0.47208(14) 0.0694(8) Uani 1 1 d . . . . .
H75A H 0.773486 0.258164 0.460579 0.104 Uiso 1 1 calc GR . . . .
H75B H 0.776709 0.157577 0.435905 0.104 Uiso 1 1 calc GR . . . .
H75C H 0.838842 0.170935 0.484988 0.104 Uiso 1 1 calc GR . . . .
C76 C 0.36608(14) 0.63452(12) 0.77584(9) 0.0299(4) Uani 1 1 d . . . . .
C77 C 0.32582(16) 0.62061(13) 0.72514(10) 0.0359(4) Uani 1 1 d . . . . .
C78 C 0.22274(17) 0.59095(14) 0.73929(11) 0.0420(5) Uani 1 1 d . . . . .
H78 H 0.197093 0.579105 0.705848 0.050 Uiso 1 1 calc R . . . .
C79 C 0.15740(17) 0.57852(15) 0.80105(12) 0.0443(5) Uani 1 1 d . . . . .
C80 C 0.19739(16) 0.59513(14) 0.85033(11) 0.0414(5) Uani 1 1 d . . . . .
H80 H 0.153903 0.587826 0.892200 0.050 Uiso 1 1 calc R . . . .
C81 C 0.30038(16) 0.62234(13) 0.83916(10) 0.0348(4) Uani 1 1 d . . . . .
C82 C 0.34016(19) 0.63666(17) 0.89482(10) 0.0473(5) Uani 1 1 d . . . . .
H82A H 0.405567 0.599583 0.892010 0.071 Uiso 1 1 calc GR . . . .
H82B H 0.288592 0.616081 0.934128 0.071 Uiso 1 1 calc GR . . . .
H82C H 0.351719 0.703466 0.893869 0.071 Uiso 1 1 calc GR . . . .
C83 C 0.3889(2) 0.6413(2) 0.65681(11) 0.0554(6) Uani 1 1 d . . . . .
H83A H 0.438189 0.689445 0.653634 0.083 Uiso 1 1 calc GR . . . .
H83B H 0.342107 0.664117 0.631288 0.083 Uiso 1 1 calc GR . . . .
H83C H 0.427078 0.583597 0.641639 0.083 Uiso 1 1 calc GR . . . .
C84 C 0.0452(2) 0.5489(2) 0.81471(16) 0.0694(8) Uani 1 1 d . . . . .
H84A H 0.015492 0.578769 0.781530 0.104 Uiso 1 1 calc GR . . . .
H84B H 0.003644 0.568872 0.855193 0.104 Uiso 1 1 calc GR . . . .
H84C H 0.045075 0.480363 0.816114 0.104 Uiso 1 1 calc GR . . . .
C38A C 0.5802(5) 0.6387(5) 1.0056(4) 0.076(2) Uani 0.418(5) 1 d D U P A 2
H38D H 0.574528 0.675450 1.040674 0.113 Uiso 0.418(5) 1 calc GR . P A 2
H38E H 0.580540 0.571467 1.020437 0.113 Uiso 0.418(5) 1 calc GR . P A 2
H38F H 0.521007 0.655709 0.988687 0.113 Uiso 0.418(5) 1 calc GR . P A 2
C39A C 0.7009(9) 0.6120(4) 0.8950(3) 0.088(3) Uani 0.418(5) 1 d D U P A 2
H39D H 0.641713 0.627595 0.877783 0.132 Uiso 0.418(5) 1 calc GR . P A 2
H39E H 0.706952 0.543778 0.905707 0.132 Uiso 0.418(5) 1 calc GR . P A 2
H39F H 0.764633 0.632689 0.863645 0.132 Uiso 0.418(5) 1 calc GR . P A 2
C40A C 0.7699(5) 0.6208(5) 0.9883(3) 0.0620(19) Uani 0.418(5) 1 d D U P A 2
H40D H 0.838891 0.618952 0.957933 0.093 Uiso 0.418(5) 1 calc GR . P A 2
H40E H 0.753433 0.557213 1.008549 0.093 Uiso 0.418(5) 1 calc GR . P A 2
H40F H 0.769321 0.662173 1.020099 0.093 Uiso 0.418(5) 1 calc GR . P A 2
loop_
_atom_site_aniso_label
_atom_site_aniso_U_11
_atom_site_aniso_U_22
_atom_site_aniso_U_33
_atom_site_aniso_U_23
_atom_site_aniso_U_13
_atom_site_aniso_U_12
Ni1 0.02901(17) 0.01608(15) 0.04425(19) -0.00542(12) -0.01164(13) -0.00322(11)
N1 0.0325(8) 0.0192(7) 0.0439(9) -0.0058(6) -0.0135(7) -0.0028(6)
N2 0.0317(8) 0.0203(7) 0.0392(8) -0.0046(6) -0.0104(6) -0.0042(6)
N3 0.0332(8) 0.0176(7) 0.0456(9) -0.0036(6) -0.0124(7) -0.0040(6)
N4 0.0310(8) 0.0191(7) 0.0466(9) -0.0044(6) -0.0150(7) -0.0023(6)
N5 0.0385(8) 0.0180(7) 0.0468(9) -0.0035(6) -0.0206(7) -0.0023(6)
N6 0.0421(9) 0.0222(7) 0.0398(8) -0.0051(6) -0.0149(7) -0.0057(6)
C1 0.0359(9) 0.0186(8) 0.0386(10) -0.0055(7) -0.0131(8) -0.0018(7)
C2 0.0367(9) 0.0192(8) 0.0334(9) -0.0033(7) -0.0118(7) -0.0025(7)
C3 0.0350(9) 0.0207(8) 0.0367(9) -0.0013(7) -0.0123(8) -0.0074(7)
C4 0.0351(9) 0.0217(8) 0.0386(10) -0.0002(7) -0.0129(8) -0.0058(7)
C5 0.0321(9) 0.0224(8) 0.0411(10) -0.0010(7) -0.0125(8) -0.0051(7)
C6 0.0323(9) 0.0274(9) 0.0478(11) -0.0031(8) -0.0066(8) -0.0042(7)
C7 0.0364(10) 0.0241(9) 0.0476(11) -0.0067(8) -0.0101(8) -0.0006(7)
C8 0.0348(9) 0.0184(8) 0.0445(10) -0.0034(7) -0.0138(8) -0.0022(7)
C9 0.0349(9) 0.0182(8) 0.0409(10) -0.0028(7) -0.0147(8) -0.0010(7)
C10 0.0347(9) 0.0189(8) 0.0404(10) -0.0022(7) -0.0164(8) -0.0053(7)
C11 0.0342(9) 0.0213(8) 0.0385(9) -0.0026(7) -0.0168(8) -0.0035(7)
C12 0.0326(9) 0.0218(8) 0.0397(10) -0.0040(7) -0.0151(8) -0.0029(7)
C13 0.0325(9) 0.0263(9) 0.0575(12) -0.0072(8) -0.0202(9) 0.0000(7)
C14 0.0379(10) 0.0223(9) 0.0527(11) -0.0072(8) -0.0193(9) 0.0036(7)
C15 0.0381(10) 0.0178(8) 0.0368(9) -0.0009(7) -0.0124(8) -0.0046(7)
C16 0.0368(10) 0.0199(8) 0.0402(10) -0.0016(7) -0.0108(8) -0.0070(7)
C17 0.0421(10) 0.0212(8) 0.0471(11) -0.0061(7) -0.0141(9) -0.0092(7)
C18 0.0438(11) 0.0340(10) 0.0535(12) -0.0116(9) -0.0192(9) -0.0088(8)
C19 0.0437(11) 0.0368(11) 0.0546(12) -0.0127(9) -0.0229(10) -0.0031(9)
C20 0.0417(10) 0.0324(10) 0.0388(10) -0.0053(8) -0.0179(8) -0.0035(8)
C21 0.0423(10) 0.0239(8) 0.0342(9) -0.0062(7) -0.0161(8) -0.0031(7)
C22 0.0413(10) 0.0267(9) 0.0318(9) -0.0026(7) -0.0140(8) -0.0025(7)
C23 0.0430(11) 0.0292(9) 0.0368(10) 0.0006(7) -0.0121(8) -0.0045(8)
C24 0.0484(11) 0.0275(10) 0.0419(11) 0.0014(8) -0.0156(9) -0.0022(8)
C25 0.0464(11) 0.0335(10) 0.0440(11) -0.0031(8) -0.0210(9) 0.0039(8)
C26 0.0539(14) 0.0517(14) 0.0722(16) -0.0076(12) -0.0353(12) -0.0053(11)
C27 0.0588(16) 0.0642(17) 0.102(2) -0.0152(16) -0.0493(16) -0.0081(13)
C28 0.0515(14) 0.0602(16) 0.106(2) -0.0172(15) -0.0351(15) -0.0179(12)
C29 0.0490(13) 0.0435(12) 0.0782(17) -0.0109(11) -0.0234(12) -0.0159(10)
C30 0.0428(10) 0.0170(8) 0.0404(10) -0.0034(7) -0.0149(8) -0.0031(7)
C31 0.0427(10) 0.0224(8) 0.0362(9) -0.0070(7) -0.0137(8) -0.0010(7)
C32 0.0403(10) 0.0267(9) 0.0329(9) -0.0056(7) -0.0135(8) -0.0023(7)
C33 0.0439(11) 0.0348(10) 0.0355(10) -0.0020(8) -0.0127(8) -0.0044(8)
C34 0.0394(11) 0.0451(11) 0.0414(11) -0.0099(9) -0.0107(9) -0.0013(9)
C35 0.0439(11) 0.0384(11) 0.0493(12) -0.0118(9) -0.0165(9) 0.0089(9)
C36 0.0482(12) 0.0268(9) 0.0456(11) -0.0065(8) -0.0157(9) 0.0028(8)
C37 0.0577(13) 0.0275(10) 0.0594(14) 0.0059(9) -0.0217(11) -0.0011(9)
C38 0.095(4) 0.041(2) 0.059(3) 0.0119(19) -0.030(3) -0.010(2)
C39 0.063(3) 0.0286(18) 0.073(3) -0.0010(17) -0.029(2) -0.0075(17)
C40 0.060(3) 0.033(2) 0.083(3) -0.007(2) -0.016(2) 0.0006(18)
C41 0.0327(9) 0.0207(8) 0.0420(10) -0.0042(7) -0.0113(8) -0.0045(7)
C42 0.0368(10) 0.0291(9) 0.0469(11) -0.0031(8) -0.0140(8) -0.0033(8)
C43 0.0358(10) 0.0420(11) 0.0590(13) -0.0083(10) -0.0192(9) -0.0063(9)
C44 0.0390(11) 0.0350(10) 0.0536(12) -0.0107(9) -0.0071(9) -0.0134(8)
C45 0.0450(11) 0.0255(9) 0.0422(11) -0.0041(8) -0.0051(9) -0.0102(8)
C46 0.0380(10) 0.0218(8) 0.0393(10) -0.0066(7) -0.0109(8) -0.0037(7)
C47 0.0491(12) 0.0331(10) 0.0395(10) -0.0035(8) -0.0156(9) -0.0052(8)
C48 0.0446(12) 0.0408(11) 0.0572(13) 0.0049(10) -0.0214(10) 0.0004(9)
C49 0.0493(14) 0.0619(16) 0.0736(17) -0.0136(13) -0.0070(12) -0.0292(12)
C50 0.0353(9) 0.0184(8) 0.0432(10) -0.0051(7) -0.0172(8) -0.0015(7)
C51 0.0356(9) 0.0186(8) 0.0398(10) -0.0036(7) -0.0160(8) -0.0036(7)
C52 0.0397(10) 0.0195(8) 0.0414(10) -0.0025(7) -0.0168(8) -0.0019(7)
C53 0.0395(10) 0.0187(8) 0.0426(10) 0.0018(7) -0.0151(8) -0.0020(7)
C54 0.0465(11) 0.0225(9) 0.0474(11) -0.0006(8) -0.0121(9) -0.0026(8)
C55 0.0395(11) 0.0322(10) 0.0531(12) 0.0033(9) -0.0075(9) -0.0007(8)
C56 0.0370(11) 0.0364(11) 0.0582(13) 0.0033(9) -0.0159(9) -0.0090(8)
C57 0.0386(10) 0.0333(10) 0.0512(12) -0.0044(8) -0.0174(9) -0.0063(8)
C58 0.0372(10) 0.0227(8) 0.0435(10) 0.0000(7) -0.0165(8) -0.0039(7)
C59 0.0348(9) 0.0199(8) 0.0449(10) 0.0002(7) -0.0160(8) -0.0052(7)
C60 0.0381(10) 0.0146(7) 0.0443(10) -0.0002(7) -0.0191(8) -0.0038(7)
C61 0.0353(10) 0.0173(8) 0.0498(11) 0.0000(7) -0.0190(8) -0.0043(7)
C62 0.0375(10) 0.0187(8) 0.0577(12) -0.0002(8) -0.0233(9) -0.0029(7)
C63 0.0416(11) 0.0184(8) 0.0611(13) -0.0006(8) -0.0285(10) -0.0019(7)
C64 0.0412(10) 0.0194(8) 0.0475(11) -0.0035(7) -0.0227(9) -0.0044(7)
C65 0.0507(13) 0.0281(10) 0.0802(16) -0.0097(10) -0.0404(12) -0.0002(9)
C66 0.0484(13) 0.0360(11) 0.106(2) -0.0120(12) -0.0484(14) 0.0016(10)
C67 0.0404(12) 0.0338(11) 0.0948(19) -0.0122(11) -0.0327(12) 0.0044(9)
C68 0.0405(11) 0.0277(10) 0.0713(15) -0.0097(9) -0.0240(10) 0.0000(8)
C69 0.0348(10) 0.0247(9) 0.0463(11) -0.0021(8) -0.0131(8) -0.0041(7)
C70 0.0384(10) 0.0272(9) 0.0425(10) -0.0017(8) -0.0156(8) -0.0057(7)
C71 0.0357(10) 0.0299(9) 0.0463(11) -0.0033(8) -0.0177(8) -0.0084(7)
C72 0.0423(11) 0.0444(11) 0.0432(11) -0.0091(9) -0.0153(9) -0.0081(9)
C73 0.0488(13) 0.0884(19) 0.0430(12) -0.0162(12) -0.0175(10) -0.0038(12)
C74 0.131(3) 0.0429(14) 0.0755(19) -0.0194(13) -0.0568(19) -0.0037(15)
C75 0.0495(14) 0.098(2) 0.0613(16) -0.0362(15) -0.0015(12) -0.0185(14)
C76 0.0334(9) 0.0178(8) 0.0429(10) -0.0052(7) -0.0168(8) -0.0019(7)
C77 0.0411(10) 0.0268(9) 0.0465(11) -0.0059(8) -0.0226(9) -0.0002(8)
C78 0.0461(11) 0.0319(10) 0.0598(13) -0.0078(9) -0.0315(10) -0.0041(8)
C79 0.0376(11) 0.0309(10) 0.0705(15) -0.0050(9) -0.0237(10) -0.0058(8)
C80 0.0377(10) 0.0323(10) 0.0525(12) -0.0063(9) -0.0083(9) -0.0052(8)
C81 0.0394(10) 0.0237(9) 0.0450(11) -0.0079(7) -0.0157(8) -0.0026(7)
C82 0.0579(13) 0.0461(12) 0.0423(11) -0.0074(9) -0.0168(10) -0.0131(10)
C83 0.0572(14) 0.0707(16) 0.0456(12) -0.0033(11) -0.0261(11) -0.0071(12)
C84 0.0445(14) 0.0740(18) 0.096(2) -0.0033(16) -0.0262(14) -0.0219(13)
C38A 0.075(4) 0.042(3) 0.108(6) 0.035(3) -0.038(4) -0.015(3)
C39A 0.167(9) 0.029(3) 0.077(5) 0.000(3) -0.051(5) -0.008(4)
C40A 0.056(4) 0.051(3) 0.076(4) 0.020(3) -0.026(3) 0.006(3)
loop_
_atom_type_symbol
_atom_type_description
_atom_type_scat_dispersion_real
_atom_type_scat_dispersion_imag
_atom_type_scat_source
C C 0.0181 0.0091 'International Tables Vol C Tables 4.2.6.8 and 6.1.1.4'
H H 0.0000 0.0000 'International Tables Vol C Tables 4.2.6.8 and 6.1.1.4'
N N 0.0311 0.0180 'International Tables Vol C Tables 4.2.6.8 and 6.1.1.4'
Ni Ni -3.0029 0.5091 'International Tables Vol C Tables 4.2.6.8 and 6.1.1.4'
loop_
_geom_angle_atom_site_label_1
_geom_angle_atom_site_label_2
_geom_angle_atom_site_label_3
_geom_angle
_geom_angle_site_symmetry_1
_geom_angle_site_symmetry_3
_geom_angle_publ_flag
N1 Ni1 N2 85.30(7) . . ?
N1 Ni1 N3 172.64(7) . . ?
N1 Ni1 N4 93.64(7) . . ?
N2 Ni1 N4 172.79(7) . . ?
N3 Ni1 N2 94.13(7) . . ?
N3 Ni1 N4 86.00(7) . . ?
C1 N1 Ni1 116.30(12) . . ?
C12 N1 Ni1 131.48(12) . . ?
C12 N1 C1 111.44(15) . . ?
C2 N2 Ni1 115.27(12) . . ?
C2 N2 C3 114.39(15) . . ?
C3 N2 Ni1 129.60(12) . . ?
C5 N3 Ni1 130.08(12) . . ?
C5 N3 C8 111.04(16) . . ?
C8 N3 Ni1 115.24(12) . . ?
C9 N4 Ni1 114.07(12) . . ?
C9 N4 C10 114.86(15) . . ?
C10 N4 Ni1 129.85(12) . . ?
C60 N5 C52 114.58(14) . . ?
C60 N5 C64 112.80(15) . . ?
C64 N5 C52 102.50(13) . . ?
C21 N6 C17 113.16(15) . . ?
C21 N6 C30 114.03(14) . . ?
C30 N6 C17 103.37(15) . . ?
N1 C1 C2 109.37(15) . . ?
N1 C1 C14 106.79(15) . . ?
C14 C1 C2 143.67(16) . . ?
N2 C2 C1 113.63(15) . . ?
N2 C2 C15 111.17(15) . . ?
C1 C2 C15 135.19(16) . . ?
N2 C3 C16 106.47(15) . . ?
C4 C3 N2 121.45(15) . . ?
C4 C3 C16 131.70(16) . . ?
C3 C4 C5 122.38(16) . . ?
C3 C4 C41 121.39(15) . . ?
C5 C4 C41 116.01(16) . . ?
N3 C5 C4 121.08(16) . . ?
N3 C5 C6 106.96(15) . . ?
C6 C5 C4 131.76(17) . . ?
C7 C6 C5 107.88(17) . . ?
C6 C7 C8 107.09(16) . . ?
N3 C8 C7 106.90(15) . . ?
N3 C8 C9 109.90(16) . . ?
C7 C8 C9 141.77(17) . . ?
N4 C9 C8 114.32(15) . . ?
N4 C9 C50 110.18(15) . . ?
C8 C9 C50 135.49(17) . . ?
N4 C10 C51 106.36(15) . . ?
C11 C10 N4 121.14(15) . . ?
C11 C10 C51 132.15(16) . . ?
C10 C11 C12 122.52(16) . . ?
C10 C11 C76 124.02(15) . . ?
C12 C11 C76 113.47(15) . . ?
N1 C12 C11 121.15(16) . . ?
N1 C12 C13 106.75(15) . . ?
C13 C12 C11 131.88(16) . . ?
C14 C13 C12 107.82(16) . . ?
C13 C14 C1 107.13(16) . . ?
C2 C15 C16 102.94(14) . . ?
C2 C15 C30 113.70(15) . . ?
C30 C15 C16 104.97(14) . . ?
C3 C16 C15 104.13(13) . . ?
C3 C16 C17 119.10(15) . . ?
C15 C16 C17 102.08(14) . . ?
N6 C17 C16 105.24(14) . . ?
N6 C17 C18 110.22(17) . . ?
C18 C17 C16 121.73(17) . . ?
C19 C18 C17 118.19(18) . . ?
C29 C18 C17 121.5(2) . . ?
C29 C18 C19 120.1(2) . . ?
C18 C19 C20 117.97(18) . . ?
C26 C19 C18 119.1(2) . . ?
C26 C19 C20 122.9(2) . . ?
C21 C20 C19 117.65(18) . . ?
C25 C20 C19 123.43(19) . . ?
C25 C20 C21 118.91(18) . . ?
C20 C21 N6 119.31(17) . . ?
C22 C21 N6 120.86(17) . . ?
C22 C21 C20 119.79(17) . . ?
C21 C22 C32 118.51(16) . . ?
C23 C22 C21 118.62(18) . . ?
C23 C22 C32 122.85(18) . . ?
C24 C23 C22 122.43(19) . . ?
C23 C24 C25 117.11(18) . . ?
C23 C24 C37 121.42(19) . . ?
C25 C24 C37 121.48(18) . . ?
C20 C25 C24 122.32(19) . . ?
C27 C26 C19 120.4(3) . . ?
C28 C27 C26 120.2(2) . . ?
C27 C28 C29 120.0(2) . . ?
C28 C29 C18 120.1(3) . . ?
N6 C30 C15 103.80(14) . . ?
N6 C30 C31 111.84(16) . . ?
C31 C30 C15 117.44(15) . . ?
C32 C31 C30 118.49(17) . . ?
C36 C31 C30 121.40(17) . . ?
C36 C31 C32 120.11(19) . . ?
C31 C32 C22 118.13(17) . . ?
C33 C32 C22 123.14(17) . . ?
C33 C32 C31 118.71(18) . . ?
C34 C33 C32 120.83(19) . . ?
C33 C34 C35 120.1(2) . . ?
C34 C35 C36 119.88(19) . . ?
C31 C36 C35 120.34(19) . . ?
C24 C37 C39 110.4(2) . . ?
C24 C37 C40 109.5(2) . . ?
C24 C37 C38A 110.1(3) . . ?
C24 C37 C40A 110.4(3) . . ?
C38 C37 C24 110.4(2) . . ?
C38 C37 C39 110.8(3) . . ?
C38 C37 C40 113.3(3) . . ?
C40 C37 C39 102.2(3) . . ?
C38A C37 C40A 101.1(4) . . ?
C39A C37 C24 110.0(3) . . ?
C39A C37 C38A 115.0(5) . . ?
C39A C37 C40A 109.9(5) . . ?
C42 C41 C4 120.71(17) . . ?
C46 C41 C4 119.54(17) . . ?
C46 C41 C42 119.67(17) . . ?
C41 C42 C48 121.56(18) . . ?
C43 C42 C41 118.81(19) . . ?
C43 C42 C48 119.61(19) . . ?
C44 C43 C42 122.2(2) . . ?
C43 C44 C45 118.03(18) . . ?
C43 C44 C49 121.0(2) . . ?
C45 C44 C49 121.0(2) . . ?
C44 C45 C46 121.85(19) . . ?
C41 C46 C47 121.27(17) . . ?
C45 C46 C41 119.17(18) . . ?
C45 C46 C47 119.43(18) . . ?
C9 C50 C51 104.39(14) . . ?
C9 C50 C64 113.83(15) . . ?
C64 C50 C51 103.65(14) . . ?
C10 C51 C50 103.92(13) . . ?
C10 C51 C52 119.52(15) . . ?
C50 C51 C52 103.30(14) . . ?
N5 C52 C51 104.05(15) . . ?
N5 C52 C53 110.73(14) . . ?
C53 C52 C51 117.42(15) . . ?
C54 C53 C52 120.99(17) . . ?
C54 C53 C58 119.82(18) . . ?
C58 C53 C52 119.13(17) . . ?
C55 C54 C53 120.86(19) . . ?
C56 C55 C54 119.7(2) . . ?
C55 C56 C57 120.06(19) . . ?
C56 C57 C58 120.79(19) . . ?
C53 C58 C59 118.59(17) . . ?
C57 C58 C53 118.70(18) . . ?
C57 C58 C59 122.53(17) . . ?
C60 C59 C58 118.42(17) . . ?
C71 C59 C58 122.43(17) . . ?
C71 C59 C60 119.11(18) . . ?
C59 C60 N5 120.26(17) . . ?
C59 C60 C61 119.33(17) . . ?
C61 C60 N5 120.34(16) . . ?
C60 C61 C62 118.70(17) . . ?
C69 C61 C60 119.07(17) . . ?
C69 C61 C62 122.23(18) . . ?
C63 C62 C61 118.05(18) . . ?
C63 C62 C68 118.30(18) . . ?
C68 C62 C61 123.64(18) . . ?
C62 C63 C64 118.71(17) . . ?
C65 C63 C62 120.5(2) . . ?
C65 C63 C64 120.73(18) . . ?
N5 C64 C50 102.67(14) . . ?
N5 C64 C63 112.65(14) . . ?
C63 C64 C50 115.50(17) . . ?
C66 C65 C63 120.3(2) . . ?
C67 C66 C65 119.7(2) . . ?
C66 C67 C68 120.6(2) . . ?
C67 C68 C62 120.5(2) . . ?
C61 C69 C70 122.69(18) . . ?
C69 C70 C72 121.26(18) . . ?
C71 C70 C69 116.71(18) . . ?
C71 C70 C72 121.97(17) . . ?
C70 C71 C59 123.05(17) . . ?
C73 C72 C70 112.16(18) . . ?
C73 C72 C74 107.8(2) . . ?
C74 C72 C70 107.66(18) . . ?
C75 C72 C70 111.59(18) . . ?
C75 C72 C73 107.7(2) . . ?
C75 C72 C74 109.9(2) . . ?
C77 C76 C11 122.12(17) . . ?
C77 C76 C81 119.51(17) . . ?
C81 C76 C11 118.13(16) . . ?
C76 C77 C83 121.58(18) . . ?
C78 C77 C76 118.79(19) . . ?
C78 C77 C83 119.57(18) . . ?
C79 C78 C77 122.37(19) . . ?
C78 C79 C80 118.04(19) . . ?
C78 C79 C84 121.2(2) . . ?
C80 C79 C84 120.8(2) . . ?
C79 C80 C81 122.0(2) . . ?
C76 C81 C82 121.27(18) . . ?
C80 C81 C76 119.18(18) . . ?
C80 C81 C82 119.54(19) . . ?
loop_
_geom_bond_atom_site_label_1
_geom_bond_atom_site_label_2
_geom_bond_distance
_geom_bond_site_symmetry_2
_geom_bond_publ_flag
Ni1 N1 1.7772(15) . ?
Ni1 N2 1.8009(14) . ?
Ni1 N3 1.7828(16) . ?
Ni1 N4 1.8085(14) . ?
N1 C1 1.378(2) . ?
N1 C12 1.332(2) . ?
N2 C2 1.326(2) . ?
N2 C3 1.398(2) . ?
N3 C5 1.340(2) . ?
N3 C8 1.385(2) . ?
N4 C9 1.333(2) . ?
N4 C10 1.404(2) . ?
N5 C52 1.484(2) . ?
N5 C60 1.420(2) . ?
N5 C64 1.470(2) . ?
N6 C17 1.478(3) . ?
N6 C21 1.418(2) . ?
N6 C30 1.467(2) . ?
C1 C2 1.434(3) . ?
C1 C14 1.407(3) . ?
C2 C15 1.501(2) . ?
C3 C4 1.368(3) . ?
C3 C16 1.535(2) . ?
C4 C5 1.479(2) . ?
C4 C41 1.497(2) . ?
C5 C6 1.428(3) . ?
C6 C7 1.393(3) . ?
C7 C8 1.413(3) . ?
C8 C9 1.427(3) . ?
C9 C50 1.491(2) . ?
C10 C11 1.364(3) . ?
C10 C51 1.538(2) . ?
C11 C12 1.481(2) . ?
C11 C76 1.496(2) . ?
C12 C13 1.426(3) . ?
C13 C14 1.389(3) . ?
C15 C16 1.574(3) . ?
C15 C30 1.572(3) . ?
C16 C17 1.577(3) . ?
C17 C18 1.504(3) . ?
C18 C19 1.397(3) . ?
C18 C29 1.390(3) . ?
C19 C20 1.469(3) . ?
C19 C26 1.397(3) . ?
C20 C21 1.401(3) . ?
C20 C25 1.392(3) . ?
C21 C22 1.400(3) . ?
C22 C23 1.398(3) . ?
C22 C32 1.468(3) . ?
C23 C24 1.390(3) . ?
C24 C25 1.392(3) . ?
C24 C37 1.539(3) . ?
C26 C27 1.384(4) . ?
C27 C28 1.382(4) . ?
C28 C29 1.388(4) . ?
C30 C31 1.503(3) . ?
C31 C32 1.401(3) . ?
C31 C36 1.388(3) . ?
C32 C33 1.398(3) . ?
C33 C34 1.383(3) . ?
C34 C35 1.383(3) . ?
C35 C36 1.389(3) . ?
C37 C38 1.451(5) . ?
C37 C39 1.578(4) . ?
C37 C40 1.556(5) . ?
C37 C38A 1.550(6) . ?
C37 C39A 1.462(6) . ?
C37 C40A 1.580(5) . ?
C41 C42 1.403(3) . ?
C41 C46 1.403(3) . ?
C42 C43 1.394(3) . ?
C42 C48 1.507(3) . ?
C43 C44 1.384(3) . ?
C44 C45 1.386(3) . ?
C44 C49 1.512(3) . ?
C45 C46 1.392(3) . ?
C46 C47 1.510(3) . ?
C50 C51 1.566(3) . ?
C50 C64 1.562(2) . ?
C51 C52 1.576(2) . ?
C52 C53 1.502(3) . ?
C53 C54 1.385(3) . ?
C53 C58 1.402(3) . ?
C54 C55 1.385(3) . ?
C55 C56 1.382(3) . ?
C56 C57 1.385(3) . ?
C57 C58 1.399(3) . ?
C58 C59 1.477(3) . ?
C59 C60 1.406(3) . ?
C59 C71 1.391(3) . ?
C60 C61 1.409(3) . ?
C61 C62 1.478(3) . ?
C61 C69 1.394(3) . ?
C62 C63 1.396(3) . ?
C62 C68 1.398(3) . ?
C63 C64 1.492(3) . ?
C63 C65 1.388(3) . ?
C65 C66 1.378(3) . ?
C66 C67 1.376(4) . ?
C67 C68 1.384(3) . ?
C69 C70 1.395(3) . ?
C70 C71 1.389(3) . ?
C70 C72 1.533(3) . ?
C72 C73 1.528(3) . ?
C72 C74 1.533(3) . ?
C72 C75 1.523(3) . ?
C76 C77 1.405(3) . ?
C76 C81 1.407(3) . ?
C77 C78 1.393(3) . ?
C77 C83 1.495(3) . ?
C78 C79 1.378(3) . ?
C79 C80 1.385(3) . ?
C79 C84 1.507(3) . ?
C80 C81 1.388(3) . ?
C81 C82 1.503(3) . ?
