#------------------------------------------------------------------------------
#$Date: 2023-11-21 00:59:09 +0200 (Tue, 21 Nov 2023) $
#$Revision: 287694 $
#$URL: file:///home/coder/svn-repositories/cod/cif/7/13/23/7132378.cif $
#------------------------------------------------------------------------------
#
# This file is available in the Crystallography Open Database (COD),
# http://www.crystallography.net/
#
# All data on this site have been placed in the public domain by the
# contributors.
#
data_7132378
loop_
_publ_author_name
'Di Zazzo, Lorena'
'Nardis, Sara'
'Caroleo, Fabrizio'
'Pizzoli, Francesco'
'Fronczek, Frank R.'
'Smith, Kevin M.'
'Berionni Berna, Beatrice'
'Paolesse, Roberto'
_publ_section_title
;
 5- and 10-Oxocorroles from \b-octaalkylcorroles
;
_journal_name_full               'Chemical Communications'
_journal_paper_doi               10.1039/D3CC05204D
_journal_year                    2023
_chemical_formula_moiety         'C37 H44 N4 O6 Zn'
_chemical_formula_sum            'C37 H44 N4 O6 Zn'
_chemical_formula_weight         706.13
_space_group_crystal_system      triclinic
_space_group_IT_number           2
_space_group_name_Hall           '-P 1'
_space_group_name_H-M_alt        'P -1'
_atom_sites_solution_hydrogens   mixed
_audit_creation_method           SHELXL-2014/7
_audit_update_record
;
2023-10-19 deposited with the CCDC.	2023-11-17 downloaded from the CCDC.
;
_cell_angle_alpha                91.070(8)
_cell_angle_beta                 101.638(7)
_cell_angle_gamma                105.968(7)
_cell_formula_units_Z            2
_cell_length_a                   10.2436(10)
_cell_length_b                   11.0056(10)
_cell_length_c                   15.7208(16)
_cell_measurement_reflns_used    2129
_cell_measurement_temperature    90.0(5)
_cell_measurement_theta_max      67.78
_cell_measurement_theta_min      2.88
_cell_volume                     1663.7(3)
_computing_cell_refinement       'Bruker SAINT'
_computing_data_collection       'Bruker APEX3'
_computing_data_reduction        'Bruker SAINT'
_computing_structure_refinement  'SHELXL-2014/7 (Sheldrick, 2014)'
_computing_structure_solution    'SHELXS-97 (Sheldrick, 2008)'
_diffrn_ambient_temperature      90.0(5)
_diffrn_measured_fraction_theta_full 0.984
_diffrn_measured_fraction_theta_max 0.962
_diffrn_measurement_device_type  'Bruker Kappa APEX-II DUO'
_diffrn_measurement_method       '\f and \w scans'
_diffrn_radiation_monochromator  'QUAZAR multilayer optics'
_diffrn_radiation_source         'I\mS microfocus'
_diffrn_radiation_type           CuK\a
_diffrn_radiation_wavelength     1.54184
_diffrn_reflns_av_R_equivalents  0.0695
_diffrn_reflns_av_unetI/netI     0.1010
_diffrn_reflns_Laue_measured_fraction_full 0.984
_diffrn_reflns_Laue_measured_fraction_max 0.962
_diffrn_reflns_limit_h_max       12
_diffrn_reflns_limit_h_min       -9
_diffrn_reflns_limit_k_max       13
_diffrn_reflns_limit_k_min       -11
_diffrn_reflns_limit_l_max       18
_diffrn_reflns_limit_l_min       -18
_diffrn_reflns_number            11312
_diffrn_reflns_point_group_measured_fraction_full 0.984
_diffrn_reflns_point_group_measured_fraction_max 0.962
_diffrn_reflns_theta_full        66.500
_diffrn_reflns_theta_max         68.274
_diffrn_reflns_theta_min         2.879
_exptl_absorpt_coefficient_mu    1.462
_exptl_absorpt_correction_T_max  0.986
_exptl_absorpt_correction_T_min  0.744
_exptl_absorpt_correction_type   multi-scan
_exptl_absorpt_process_details   'SADABS (Sheldrick, 2004)'
_exptl_crystal_colour            orange
_exptl_crystal_density_diffrn    1.410
_exptl_crystal_description       plate
_exptl_crystal_F_000             744
_exptl_crystal_size_max          0.070
_exptl_crystal_size_mid          0.060
_exptl_crystal_size_min          0.010
_refine_diff_density_max         0.760
_refine_diff_density_min         -0.769
_refine_diff_density_rms         0.117
_refine_ls_extinction_method     none
_refine_ls_goodness_of_fit_ref   0.994
_refine_ls_hydrogen_treatment    mixed
_refine_ls_matrix_type           full
_refine_ls_number_parameters     486
_refine_ls_number_reflns         5877
_refine_ls_number_restraints     3
_refine_ls_restrained_S_all      0.994
_refine_ls_R_factor_all          0.0887
_refine_ls_R_factor_gt           0.0489
_refine_ls_shift/su_max          0.000
_refine_ls_shift/su_mean         0.000
_refine_ls_structure_factor_coef Fsqd
_refine_ls_weighting_details
'w=1/[\s^2^(Fo^2^)+(0.0664P)^2^] where P=(Fo^2^+2Fc^2^)/3'
_refine_ls_weighting_scheme      calc
_refine_ls_wR_factor_gt          0.1136
_refine_ls_wR_factor_ref         0.1292
_reflns_Friedel_coverage         0.000
_reflns_number_gt                4345
_reflns_number_total             5877
_reflns_threshold_expression     'I > 2\s(I)'
_cod_data_source_file            d3cc05204d2.cif
_cod_data_source_block           Compound5
_cod_database_code               7132378
_shelx_shelxl_version_number     2014/7
_shelx_space_group_comment
;
The symmetry employed for this shelxl refinement is uniquely defined
by the following loop, which should always be used as a source of
symmetry information in preference to the above space-group names.
They are only intended as comments.
;
_shelx_estimated_absorpt_t_min   0.905
_shelx_estimated_absorpt_t_max   0.986
_shelx_res_file
;

    shelxl.res created by SHELXL-2014/7


TITL Roberto97.res in P-1
CELL  1.54184  10.2436  11.0056  15.7208   91.070  101.638  105.968
ZERR     2.00   0.0010   0.0010   0.0016    0.008    0.007    0.007
LATT   1
SFAC  C    H    N    O    ZN
UNIT  74   88  8    12   2
MERG   2
FMAP   2
PLAN   10
DFIX 0.88 O2 H21W O2 H22W
EQIV $1 -x+1, -y+1, -z+1
HTAB O2 O3_$1
HTAB O2 O6_$1
SIZE     0.01   0.06   0.07
ACTA 133
BOND   $H
CONF
L.S.   15
TEMP  -183.00
SUMP 1.0 0.002 1.0 3 1.0 4 1.0 5
WGHT    0.066400
FVAR       0.28700   0.51700   0.19899   0.30379   0.49711
ZN1   5    0.193713    0.558067    0.312083    11.00000    0.01516    0.01555 =
         0.01754    0.00449    0.00146    0.00077
PART 2
O1    4    0.451809    0.604585    0.587985    41.00000    0.02249    0.03355 =
         0.01149    0.00725   -0.00530   -0.00175
PART 0
O2    4    0.312483    0.447560    0.280160    11.00000    0.03677    0.01564 =
         0.06673    0.00658    0.03408    0.00486
H21W  2    0.367697    0.479505    0.245290    11.00000   -1.50000
H22W  2    0.281773    0.365970    0.271536    11.00000   -1.50000
O3    4    0.491477    0.408548    0.800734    11.00000    0.02593    0.02149 =
         0.02028    0.00467    0.00357   -0.00002
O4    4    0.356865    0.208182    0.782539    11.00000    0.02420    0.02324 =
         0.02357    0.00651    0.00245   -0.00015
O5    4    0.960121    0.944347    0.660323    11.00000    0.02528    0.02904 =
         0.03027    0.00217    0.00629   -0.00762
O6    4    0.826140    0.803932    0.729918    11.00000    0.02956    0.02334 =
         0.02463    0.00361    0.00301   -0.00255
PART 2
O7    4   -0.163627    0.223173    0.363059    31.00000    0.03221    0.02038 =
         0.03963    0.02076    0.00675    0.00977
PART 2
O8    4    0.428105    0.959039    0.242057    51.00000    0.02679    0.02015 =
         0.02582    0.00929   -0.00149    0.00017
PART 0
N1    3   -0.006621    0.479304    0.255080    11.00000    0.01771    0.02296 =
         0.01743    0.00561    0.00106    0.00370
N2    3    0.146869    0.477489    0.420532    11.00000    0.01492    0.01789 =
         0.01889    0.00504    0.00221    0.00113
N3    3    0.336411    0.707846    0.379854    11.00000    0.01137    0.01609 =
         0.01960    0.00413   -0.00038    0.00015
N4    3    0.162727    0.668446    0.212621    11.00000    0.02892    0.01923 =
         0.02073    0.00792   -0.00205    0.00210
C1    1   -0.055173    0.516041    0.176937    11.00000    0.02407    0.01944 =
         0.02163    0.00050   -0.00029    0.00491
C2    1   -0.187481    0.425238    0.137845    11.00000    0.03532    0.02436 =
         0.02664   -0.00003   -0.00899    0.00075
C3    1   -0.216012    0.335619    0.196285    11.00000    0.02334    0.02062 =
         0.02647    0.00142   -0.00377    0.00159
C4    1   -0.101375    0.371890    0.271797    11.00000    0.01486    0.01613 =
         0.02451    0.00075    0.00140    0.00049
C5    1   -0.080036    0.324851    0.353378    11.00000    0.01315    0.01536 =
         0.02452    0.00446    0.00405   -0.00127
PART 1
AFIX  43
H5    2   -0.147476    0.250199    0.362241   -31.00000   -1.20000
AFIX   0
PART 0
C6    1    0.035720    0.379072    0.426436    11.00000    0.01295    0.01533 =
         0.02188    0.00359    0.00043    0.00064
C7    1    0.051954    0.341130    0.514042    11.00000    0.01376    0.01706 =
         0.02303    0.00561    0.00573    0.00444
C8    1    0.175437    0.420334    0.560522    11.00000    0.02117    0.01808 =
         0.01829    0.00502    0.00682    0.00793
C9    1    0.234387    0.506182    0.501044    11.00000    0.01820    0.01428 =
         0.01900    0.00218    0.00311    0.00340
C10   1    0.357644    0.609614    0.519347    11.00000    0.02109    0.01924 =
         0.01986    0.00216    0.00383    0.00182
PART 1
AFIX  43
H10   2    0.415841    0.615221    0.575442   -41.00000   -1.20000
AFIX   0
PART 0
C11   1    0.405044    0.706261    0.463960    11.00000    0.01499    0.01589 =
         0.02072    0.00173    0.00325    0.00323
C12   1    0.521734    0.817184    0.486330    11.00000    0.01533    0.01773 =
         0.02187    0.00094    0.00406    0.00384
C13   1    0.523187    0.884602    0.412518    11.00000    0.01548    0.01548 =
         0.02507    0.00196    0.00649    0.00145
C14   1    0.405293    0.815515    0.347691    11.00000    0.01461    0.01615 =
         0.01952    0.00459    0.00384    0.00148
C15   1    0.354213    0.857585    0.262641    11.00000    0.02294    0.01982 =
         0.01983    0.00713    0.00817    0.00505
PART 1
AFIX  43
H15   2    0.407269    0.935812    0.246909   -51.00000   -1.20000
AFIX   0
PART 0
C16   1    0.231563    0.790313    0.202068    11.00000    0.02384    0.01804 =
         0.02390    0.00742    0.00283    0.00336
C17   1    0.146994    0.835120    0.132047    11.00000    0.02557    0.02400 =
         0.01971    0.00521    0.00192    0.00703
C18   1    0.024742    0.738229    0.104065    11.00000    0.03003    0.02457 =
         0.01859    0.00666   -0.00026    0.00797
C19   1    0.037172    0.634677    0.157282    11.00000    0.02923    0.02200 =
         0.01915    0.00354   -0.00218    0.00160
PART    1
C20A  1   -0.252854    0.419545    0.038835    21.00000    0.01765    0.02993 =
         0.02371   -0.00390    0.00029    0.00692
AFIX  23
H20A  2   -0.188243    0.479205    0.009347    21.00000   -1.20000
H20B  2   -0.271957    0.332924    0.011483    21.00000   -1.20000
AFIX   0
C21A  1   -0.386285    0.455622    0.030716    21.00000    0.03182    0.04182 =
         0.02283    0.00017   -0.00202    0.00929
AFIX  33
H21A  2   -0.430150    0.452958   -0.031018    21.00000   -1.50000
H21B  2   -0.449410    0.395842    0.060008    21.00000   -1.50000
H21C  2   -0.366042    0.541519    0.057881    21.00000   -1.50000
AFIX   0
PART    2
C20B  1   -0.296302    0.430607    0.057856   -21.00000    0.00895    0.02283 =
         0.01921    0.00340    0.00351    0.00646
AFIX  23
H20C  2   -0.320562    0.511534    0.059958   -21.00000   -1.20000
H20D  2   -0.381742    0.359576    0.053734   -21.00000   -1.20000
AFIX   0
C21B  1   -0.228699    0.419981   -0.020314   -21.00000    0.01777    0.03018 =
         0.01741    0.00106    0.00116    0.00428
AFIX  33
H21D  2   -0.294159    0.422860   -0.074584   -21.00000   -1.50000
H21E  2   -0.144115    0.490699   -0.014884   -21.00000   -1.50000
H21F  2   -0.204932    0.339642   -0.021071   -21.00000   -1.50000
AFIX   0
PART    0
C22   1   -0.342611    0.223290    0.186128    11.00000    0.02914    0.01941 =
         0.04099    0.00333   -0.01043   -0.00130
AFIX  23
H22A  2   -0.317165    0.155448    0.220332    11.00000   -1.20000
H22B  2   -0.372801    0.190468    0.124121    11.00000   -1.20000
AFIX   0
C23   1   -0.463340    0.253004    0.215341    11.00000    0.04081    0.03010 =
         0.03649   -0.00787    0.01627   -0.01736
AFIX 137
H23A  2   -0.436344    0.280481    0.277627    11.00000   -1.50000
H23B  2   -0.543158    0.176941    0.204986    11.00000   -1.50000
H23C  2   -0.488645    0.320819    0.182315    11.00000   -1.50000
AFIX   0
C24   1   -0.046955    0.234232    0.546804    11.00000    0.01942    0.02421 =
         0.02237    0.00771    0.00465    0.00229
AFIX 137
H24A  2   -0.044733    0.153246    0.521038    11.00000   -1.50000
H24B  2   -0.141338    0.242766    0.530372    11.00000   -1.50000
H24C  2   -0.019367    0.236893    0.610392    11.00000   -1.50000
AFIX   0
C25   1    0.241315    0.414584    0.653997    11.00000    0.02036    0.01917 =
         0.01851    0.00438    0.00434    0.00456
AFIX  23
H25A  2    0.167999    0.380605    0.686864    11.00000   -1.20000
H25B  2    0.294558    0.501113    0.679877    11.00000   -1.20000
AFIX   0
C26   1    0.338906    0.329788    0.661484    11.00000    0.02556    0.02439 =
         0.01930    0.00172    0.00284    0.00792
AFIX  23
H26A  2    0.285546    0.243482    0.635219    11.00000   -1.20000
H26B  2    0.412165    0.364016    0.628622    11.00000   -1.20000
AFIX   0
C27   1    0.405706    0.322522    0.755141    11.00000    0.02094    0.01935 =
         0.01946    0.00523    0.00743    0.00703
C28   1    0.418492    0.192755    0.872208    11.00000    0.04011    0.03042 =
         0.02283    0.01216    0.00874    0.00786
AFIX 137
H28A  2    0.519995    0.217554    0.880505    11.00000   -1.50000
H28B  2    0.385300    0.103866    0.884485    11.00000   -1.50000
H28C  2    0.391629    0.246470    0.911940    11.00000   -1.50000
AFIX   0
C29   1    0.622602    0.854238    0.571917    11.00000    0.01588    0.02029 =
         0.02393   -0.00189    0.00309    0.00142
AFIX  23
H29A  2    0.576310    0.817275    0.618817    11.00000   -1.20000
H29B  2    0.650846    0.947652    0.582928    11.00000   -1.20000
AFIX   0
C30   1    0.752457    0.809650    0.574967    11.00000    0.01920    0.02406 =
         0.02181    0.00032    0.00319    0.00653
AFIX  23
H30A  2    0.725396    0.716212    0.564411    11.00000   -1.20000
H30B  2    0.800373    0.847168    0.528856    11.00000   -1.20000
AFIX   0
C31   1    0.848719    0.849604    0.662807    11.00000    0.01402    0.01734 =
         0.02720    0.00382    0.00112    0.00167
C32   1    1.053008    0.990003    0.743906    11.00000    0.02617    0.04414 =
         0.04441   -0.01358    0.00490   -0.01374
AFIX 137
H32A  2    1.006515    1.029407    0.780486    11.00000   -1.50000
H32B  2    1.137173    1.052714    0.735370    11.00000   -1.50000
H32C  2    1.078269    0.918820    0.772492    11.00000   -1.50000
AFIX   0
C33   1    0.631037    1.004216    0.402515    11.00000    0.02155    0.01785 =
         0.02810    0.00104    0.00636   -0.00257
AFIX 137
H33A  2    0.672985    1.050865    0.459639    11.00000   -1.50000
H33B  2    0.587247    1.056988    0.363498    11.00000   -1.50000
H33C  2    0.703249    0.982840    0.377882    11.00000   -1.50000
AFIX   0
C34   1    0.183125    0.965514    0.099859    11.00000    0.02839    0.02389 =
         0.02446    0.00567    0.00251    0.00596
AFIX  23
H34A  2    0.217911    1.028937    0.150686    11.00000   -1.20000
H34B  2    0.097510    0.980159    0.065215    11.00000   -1.20000
AFIX   0
C35   1    0.292478    0.986627    0.044005    11.00000    0.05309    0.03228 =
         0.03291    0.01836    0.02021    0.01472
AFIX 137
H35A  2    0.377250    0.971019    0.077373    11.00000   -1.50000
H35B  2    0.313777    1.074194    0.027479    11.00000   -1.50000
H35C  2    0.256448    0.928191   -0.008611    11.00000   -1.50000
AFIX   0
C36   1   -0.097530    0.746697    0.035496    11.00000    0.02698    0.02635 =
         0.02198    0.00407   -0.00368    0.00496
AFIX  23
H36A  2   -0.116028    0.828816    0.045804    11.00000   -1.20000
H36B  2   -0.180585    0.678452    0.041473    11.00000   -1.20000
AFIX   0
C37   1   -0.076400    0.735472   -0.057167    11.00000    0.04182    0.04698 =
         0.02187    0.00961   -0.00011    0.01359
AFIX 137
H37A  2    0.003229    0.804871   -0.064495    11.00000   -1.50000
H37B  2   -0.160102    0.740202   -0.098451    11.00000   -1.50000
H37C  2   -0.058730    0.654118   -0.068182    11.00000   -1.50000
AFIX   0
HKLF    4

REM  Roberto97.res in P-1
REM R1 =  0.0489 for    4345 Fo > 4sig(Fo)  and  0.0887 for all    5877 data
REM    486 parameters refined using      3 restraints

END

WGHT      0.0666      0.0000

REM Highest difference peak  0.760,  deepest hole -0.769,  1-sigma level  0.117
Q1    1   0.2583  0.6351  0.3427  11.00000  0.05    0.76
Q2    1   0.1446  0.4848  0.2768  11.00000  0.05    0.57
Q3    1   0.1807  0.6134  0.2474  11.00000  0.05    0.54
Q4    1   0.1947  0.5131  0.4533  11.00000  0.05    0.52
Q5    1  -0.1630  0.3508  0.2422  11.00000  0.05    0.50
Q6    1   0.3010  0.5508  0.5030  11.00000  0.05    0.47
Q7    1   0.0696  0.4332  0.4254  11.00000  0.05    0.47
Q8    1   1.0651  0.9799  0.6433  11.00000  0.05    0.45
Q9    1   0.4548  0.7604  0.4783  11.00000  0.05    0.45
Q10   1   0.2047  0.4171  0.6049  11.00000  0.05    0.44
;
_shelx_res_checksum              94701
_shelx_hkl_file
;
   1   0   0  136.29    6.90
   2   0   0   38.40    2.70
  -3   0   0   12.60    2.00
   3   0   0   14.40    1.80
   3   0   0   14.00    2.00
  -4   0   0   10.50    1.90
   4   0   0   11.80    1.80
   4   0   0    9.40    2.10
   5   0   0  395.76   20.30
   5   0   0  393.46   20.50
   6   0   0  135.89    8.00
   6   0   0   69.69   36.20
   7   0   0  137.29    8.10
   7   0   0  143.39    8.30
   7   0   0  126.69    8.40
   7   0   0   52.79   44.80
   7   0   0  145.59    8.70
   8   0   0   43.10    4.10
   8   0   0    3.00   43.30
   8   0   0   46.90    4.60
   8   0   0   43.80    4.10
   9   0   0   32.90    4.20
   9   0   0   25.40    3.50
  10   0   0    1.00    2.80
  10  -1   0   79.39    6.40
   9  -1   0   -0.80    3.00
   9  -1   0    1.30    2.50
   8  -1   0   66.39    5.40
   8  -1   0   75.49    6.00
   8  -1   0   15.20   45.90
   7  -1   0    6.60    2.60
   7  -1   0    9.80    2.40
   7  -1   0    0.30   33.80
   6  -1   0  135.39    7.90
   6  -1   0   42.30   33.50
   6  -1   0  130.49    7.70
   5  -1   0   53.29    4.30
   5  -1   0   54.59    4.10
   4  -1   0   31.10    3.00
   3  -1   0  243.88   13.00
   2  -1   0  159.18    8.80
  -2   1   0  161.08    8.80
   1  -1   0  668.43   33.60
  -1   1   0  665.53   33.60
   0  -1   0  978.70   49.90
   0   1   0 1018.50   49.90
   1   1   0   50.69    2.80
   2   1   0  274.07   14.20
   3   1   0   91.49    5.60
   4   1   0  163.28    9.10
  -5  -1   0   85.89    5.40
   5   1   0   78.29    5.40
   5   1   0   97.89   41.00
   6   1   0   24.60   39.70
   7   1   0   51.69    4.70
   7   1   0   22.80   40.80
   7   1   0   49.10    4.40
   7   1   0   58.19    4.70
   8   1   0   30.30    4.00
   8   1   0   20.10    3.20
   8   1   0   22.10    3.20
   8   1   0  -22.50   37.50
   9   1   0   26.90    3.50
   9   1   0   26.90    4.20
  10   1   0   12.20    3.00
  10  -2   0    0.70    1.40
   9  -2   0   18.70    2.10
   9  -2   0   13.10    3.20
   8  -2   0  113.49    6.90
   8  -2   0  100.69    7.20
   8  -2   0   95.59    5.90
   7  -2   0   11.90    2.80
   7  -2   0   -3.30   33.50
   6  -2   0  130.09    8.10
   6  -2   0  129.49    7.80
   4  -2   0    6.30    2.50
   3  -2   0   43.10    4.60
  -3   2   0   47.00    4.80
   2  -2   0   39.90    3.50
  -2   2   0   31.80    3.40
   1  -2   0  837.62   42.60
   1  -2   0  850.71   42.20
  -1   2   0  839.42   42.60
   0  -2   0    1.00    1.60
   0   2   0   -0.70    1.80
   1   2   0   34.70    3.00
   2   2   0  453.75   23.60
   2   2   0  471.65   23.40
   3   2   0   17.00    2.10
   4   2   0  537.25   27.60
   5   2   0   98.19   40.40
   5   2   0   56.39    4.60
   6   2   0    4.50    2.10
   6   2   0    1.80    2.30
   6   2   0    9.30   36.90
   7   2   0    7.10   37.10
   7   2   0   20.80    3.10
   7   2   0   19.20    2.90
   7   2   0   13.40    3.30
   8   2   0    3.70    3.20
   8   2   0  -16.70   35.60
   8   2   0    3.00    2.50
   8   2   0    2.60    2.40
   9   2   0   -0.40    3.10
   9   2   0    1.30    2.40
   9   2   0    1.30    2.40
  10   2   0   51.39    4.60
  11  -3   0   11.60    1.60
  10  -3   0   18.40    2.20
   9  -3   0   89.79    5.50
   8  -3   0   -1.20    2.50
   8  -3   0    3.30    1.40
   7  -3   0   -0.80    2.50
   7  -3   0   -0.30    1.70
   6  -3   0  200.28   11.70
   5  -3   0    4.10    2.50
   4  -3   0  165.18    9.90
  -4   3   0  160.68   10.20
   3  -3   0  416.96   22.20
  -3   3   0  424.96   22.40
   2  -3   0   11.10    2.90
  -2   3   0   14.30    3.20
   1  -3   0   46.10    4.60
   1  -3   0   46.20    3.40
  -1   3   0   40.00    4.10
   0  -3   0   70.49    5.20
   0   3   0   76.79    5.60
   1   3   0  299.57   15.80
   2   3   0  316.67   16.50
  -3  -3   0   31.80    2.70
   3   3   0   30.20    3.10
  -4  -3   0  155.08    8.70
   5   3   0  278.67   56.69
   6   3   0   -5.00    2.30
   6   3   0   -3.00    2.00
   6   3   0   -1.40    2.00
   6   3   0  -16.70   39.20
   7   3   0    6.80    3.10
   7   3   0    5.00    2.40
   7   3   0  -12.60   37.10
   7   3   0    0.90    2.40
   8   3   0   43.60   38.00
   8   3   0   58.79    5.30
   8   3   0   39.90    4.30
   8   3   0   49.70    4.50
   9   3   0   65.89    5.20
   9   3   0   71.09    5.90
   9   3   0   72.09    5.30
  11  -4   0   25.80    2.30
  10  -4   0    0.80    1.70
   9  -4   0   15.50    2.20
   8  -4   0   15.90    2.50
   8  -4   0   15.30    2.00
   7  -4   0   39.90    4.50
   7  -4   0   32.10    3.40
   6  -4   0  103.99    7.50
   5  -4   0   20.60    3.40
   4  -4   0   11.50    3.30
  -4   4   0   11.80    3.60
   3  -4   0   11.10    3.50
  -3   4   0   14.80    3.60
   2  -4   0   21.20    3.40
  -2   4   0   15.40    3.50
   1  -4   0   61.79    4.60
   1  -4   0   61.59    5.20
  -1   4   0   55.19    5.90
   0  -4   0   82.19    6.00
   0   4   0   96.69    6.70
   1   4   0   41.40    3.90
   2   4   0   50.99    4.60
   3   4   0  274.47   38.50
   4   4   0   45.00   34.30
  -5  -4   0    1.10    3.40
   5   4   0   16.30   34.50
   5   4   0    1.00    2.10
   5   4   0   -0.70    1.80
   6   4   0   60.89   39.40
   6   4   0   95.99    7.20
   6   4   0  105.29    6.70
   6   4   0  111.99    6.90
   7   4   0    6.20    2.50
   7   4   0    6.80    2.60
   7   4   0    8.20    3.20
   8   4   0    1.00    2.50
   8   4   0    3.60    2.20
   8   4   0   -1.40    2.90
   9   4   0   29.40    3.20
   9   4   0   32.60    3.90
  12  -5   0   14.20    1.50
  11  -5   0    7.30    1.70
  10  -5   0    1.30    1.70
   9  -5   0    0.60    1.70
   9  -5   0    0.90    1.70
   8  -5   0    1.50    2.30
   8  -5   0    2.00    1.70
   7  -5   0  133.09    8.40
   7  -5   0  143.39    9.70
   7  -5   0  138.29    7.80
   6  -5   0   68.79    6.70
   5  -5   0    7.60    3.20
   4  -5   0  396.66   21.90
  -4   5   0  408.76   22.40
   3  -5   0    6.70    3.20
  -3   5   0   -0.30    3.40
   2  -5   0   27.90    3.90
  -2   5   0   32.80    4.40
   1  -5   0  230.48   13.10
   1  -5   0  237.28   13.50
  -1   5   0  252.57   13.90
   0   5   0  345.67   18.90
   1   5   0   19.90    3.40
   2   5   0   58.39    5.30
  -4  -5   0  110.79    9.00
   4   5   0  130.19    7.40
   4   5   0  123.39    7.80
   5   5   0   25.70    3.30
   5   5   0   20.80    2.90
   6   5   0   82.49    6.00
   6   5   0   79.69    6.50
   7   5   0   15.90    3.00
   7   5   0   11.70    3.10
   8   5   0    4.20    2.40
   8   5   0    3.10    2.90
  11  -6   0    0.40    1.40
  10  -6   0   27.50    2.80
   9  -6   0   24.80    2.80
   9  -6   0   28.40    3.30
   8  -6   0   12.50    2.10
   8  -6   0   10.30    2.90
   7  -6   0  103.99    6.20
   7  -6   0   96.39    7.00
   6  -6   0   39.50    4.00
   6  -6   0   45.10    5.40
   5  -6   0    2.50    3.40
   4  -6   0  249.18   14.80
  -4   6   0  244.28   15.30
   3  -6   0    4.50    3.50
  -3   6   0   -0.80    3.40
   2  -6   0   23.40    3.90
  -2   6   0   26.30    4.50
   1  -6   0   26.20    3.60
  -1   6   0   37.80    4.70
   0  -6   0   12.40    3.10
   0   6   0   13.00    3.50
  -1  -6   0   27.40    3.90
   1   6   0   17.60    3.70
  -2  -6   0    4.60    3.40
   2   6   0    1.80    2.70
  -3  -6   0   91.69    7.60
   3   6   0   90.09    5.80
   4   6   0    2.60    2.10
   5   6   0    1.70    2.20
   5   6   0    0.30    2.40
   6   6   0   92.19    6.50
   6   6   0   86.79    6.30
   7   6   0    1.40    2.60
   7   6   0    3.30    2.30
   8   6   0   12.30    2.30
  11  -7   0    0.10    1.30
  10  -7   0   80.59    5.10
   9  -7   0   20.00    3.40
   9  -7   0   20.80    2.60
   8  -7   0    5.10    2.90
   8  -7   0    7.30    2.10
   7  -7   0    7.30    2.70
   7  -7   0    2.90    1.90
   6  -7   0    6.00    2.60
   6  -7   0    4.90    1.90
   6  -7   0   13.90    4.50
   5  -7   0    6.50    3.90
   4  -7   0   46.30    5.90
  -4   7   0   53.09    6.70
   3  -7   0    8.70    3.80
  -3   7   0   14.50    4.50
  -2   7   0  300.07   17.80
  -1   7   0   91.19    8.00
   0  -7   0   28.40    4.10
   0   7   0   35.70    4.90
  -1  -7   0    0.60    3.20
   1   7   0    2.00    1.60
   1   7   0   -0.90    3.20
   2   7   0    7.70    2.40
   2   7   0   15.10    4.00
   3   7   0   93.99    6.30
   3   7   0   94.09    6.10
   4   7   0   58.29    4.80
   5   7   0   13.30    2.80
   6   7   0   54.79    4.80
   7   7   0    0.90    2.00
  11  -8   0    2.80    1.30
  10  -8   0   41.70    3.50
  10  -8   0   48.70    3.40
   9  -8   0    1.30    1.70
   9  -8   0    3.20    2.70
   8  -8   0   47.70    4.60
   8  -8   0   34.40    3.30
   7  -8   0    1.00    2.00
   7  -8   0    1.20    2.70
   6  -8   0    0.00    2.60
   5  -8   0   55.29    6.80
  -5   8   0   48.00    6.60
  -4   8   0   10.00    2.70
  -4   8   0   12.00    4.80
  -3   8   0   32.50    3.80
  -3   8   0   32.20    5.50
  -2   8   0  433.56   24.40
  -2   8   0  416.56   22.50
  -1   8   0    3.60    1.90
  -1   8   0    2.60    2.90
  -1   8   0    2.00    2.00
  -1   8   0    2.70    3.80
   0   8   0  108.99    7.40
   0   8   0   98.09    6.20
   0   8   0   97.59    8.90
   0   8   0  110.99    6.60
   1   8   0   15.20    2.00
   1   8   0   16.20    3.10
   2   8   0   26.60    3.40
   3   8   0  147.59    9.00
   3   8   0  146.79    8.70
   4   8   0    7.90    2.50
   4   8   0    2.50    2.10
   5   8   0  113.59    7.20
   6   8   0   17.50    2.60
   7   8   0    1.90    2.30
  10  -9   0   21.20    2.30
  10  -9   0   14.10    1.90
   9  -9   0    8.30    1.90
   9  -9   0   11.90    3.00
   8  -9   0   62.49    5.90
   7  -9   0   66.59    6.20
   6  -9   0   13.50    3.20
  -6   9   0   14.90    3.40
  -5   9   0   11.00    2.90
  -4   9   0    6.00    2.40
  -4   9   0    2.30    2.40
  -3   9   0   14.50    2.60
  -3   9   0   24.80    4.20
  -3   9   0   15.00    3.00
  -2   9   0   77.59    6.90
  -2   9   0   69.59    5.30
  -2   9   0   73.39    5.70
  -1   9   0    5.30    2.20
  -1   9   0    0.50    3.00
  -1   9   0    3.00    1.80
   0   9   0   47.10    4.10
   0   9   0   53.69    5.00
   1   9   0   -0.50    2.70
   1   9   0    3.60    1.30
   2   9   0  111.69    7.70
   2   9   0  116.79    7.10
   3   9   0   11.30    2.70
   3   9   0   14.70    2.60
   4   9   0    1.40    2.10
   4   9   0   -1.70    1.90
   4   9   0    2.40    2.10
   5   9   0   23.20    2.80
   9 -10   0   11.80    2.70
   8 -10   0   54.59    5.30
   7 -10   0    9.30    3.20
  -7  10   0   17.30    3.10
  -6  10   0   33.70    4.00
  -5  10   0   14.00    3.10
  -5  10   0   21.80    3.20
  -4  10   0   11.50    2.90
  -4  10   0   10.10    2.70
  -3  10   0   43.40    3.90
  -3  10   0   34.70    3.80
  -3  10   0   33.10    4.40
  -2  10   0   23.50    3.20
  -2  10   0   23.00    2.80
  -2  10   0   23.50    4.00
  -1  10   0  180.98   10.00
  -1  10   0  157.88   10.80
  -1  10   0  167.78    9.30
   0  10   0   10.80    3.30
   0  10   0   13.10    2.10
   1  10   0    7.80    3.00
   1  10   0    4.70    2.00
   2  10   0   68.89    4.60
   2  10   0   51.19    5.00
   3  10   0    5.70    2.30
   3  10   0   -0.50    1.80
   3  10   0    2.50    2.10
   4  10   0    0.40    1.80
   4  10   0    2.90    1.80
   9 -11   0   -0.10    2.00
   8 -11   0    3.80    2.60
  -8  11   0    5.60    2.20
   7 -11   0   30.30    4.00
  -7  11   0   35.70    3.50
  -6  11   0    7.80    2.50
  -5  11   0    1.50    2.40
  -5  11   0    1.70    2.20
  -4  11   0   41.20    4.10
  -4  11   0   41.90    4.30
  -3  11   0   14.10    2.50
  -3  11   0   13.50    2.70
  -3  11   0    9.40    3.20
  -2  11   0   24.40    3.00
  -2  11   0   24.30    2.50
  -2  11   0   26.20    3.80
  -1  11   0   15.30    3.40
  -1  11   0   19.40    2.50
   0  11   0    6.80    2.70
   0  11   0    0.00    1.80
   1  11   0    4.30    1.80
   1  11   0    2.30    2.40
   2  11   0   23.10    3.10
   2  11   0   29.10    2.70
   2  11   0   31.40    3.10
   3  11   0    1.80    1.70
   3  11   0    0.20    1.80
  -7  12   0    4.60    1.80
  -6  12   0   38.00    3.60
  -6  12   0   34.10    3.40
  -5  12   0   -0.20    1.80
  -5  12   0    1.30    1.80
  -4  12   0   39.00    3.80
  -4  12   0   46.70    3.50
  -3  12   0    1.00    1.40
  -3  12   0    2.50    1.90
  -2  12   0   14.30    2.00
  -2  12   0   14.50    3.00
  -2  12   0   13.00    3.10
  -1  12   0    2.30    2.50
  -1  12   0    5.60    2.40
   0  12   0    0.40    2.10
   0  12   0    6.00    2.40
   1  12   0   21.90    2.70
  -4  13   0   68.29    4.20
  -2  13   0   11.40    2.40
  -2  13  -1   11.10    3.10
  -4  13  -1   33.30    2.70
  -5  13  -1   26.90    2.80
   1  12  -1   46.60    4.00
   0  12  -1    6.40    2.50
  -1  12  -1    6.90    2.70
  -2  12  -1    4.30    1.70
  -2  12  -1    8.90    2.80
  -3  12  -1    4.40    1.90
  -3  12  -1    1.10    1.50
  -4  12  -1   13.70    2.20
  -4  12  -1   17.20    2.60
  -5  12  -1   45.40    4.10
  -5  12  -1   50.59    3.80
  -6  12  -1    5.40    2.10
  -6  12  -1    6.40    1.90
  -7  12  -1    3.30    1.60
   2  11  -1   14.30    2.70
   1  11  -1   87.59    6.20
   0  11  -1    4.00    2.80
  -1  11  -1   10.00    3.10
  -1  11  -1    8.20    2.10
  -2  11  -1   31.90    4.20
  -2  11  -1   30.70    3.00
  -2  11  -1   28.10    4.00
  -2  11  -1   29.80    3.30
  -3  11  -1    6.70    4.80
  -3  11  -1    5.60    2.40
  -3  11  -1    7.60    2.20
  -3  11  -1    5.80    4.10
  -4  11  -1    0.40    2.20
  -4  11  -1    0.70    2.30
  -5  11  -1    4.30    2.70
  -5  11  -1   -0.20    2.20
  -6  11  -1    0.50    2.20
  -7  11  -1    5.70    2.40
   7 -11   1    7.20    2.90
  -8  11  -1   -1.00    2.00
   8 -11   1    0.60    2.40
   9 -11   1   11.40    3.40
   4  10  -1    1.20    1.80
   4  10  -1   -1.60    1.80
   3  10  -1    1.90    2.10
   3  10  -1    1.20    2.30
   3  10  -1    1.80    1.90
   2  10  -1    7.50    2.70
   2  10  -1   12.90    2.30
   1  10  -1    5.80    2.00
   1  10  -1    6.40    2.80
   0  10  -1   59.89    5.40
   0  10  -1   58.69    4.30
  -1  10  -1   32.70    3.50
  -1  10  -1   37.10    3.20
  -1  10  -1   39.30    4.50
  -2  10  -1   41.70    4.00
  -2  10  -1   40.70    4.10
  -2  10  -1   42.40    4.90
  -3  10  -1   27.10    3.80
  -3  10  -1   33.50    3.40
  -3  10  -1   24.00    4.10
  -4  10  -1    5.60    2.50
  -4  10  -1    7.40    2.90
  -5  10  -1   11.30    2.90
  -6  10  -1   11.00    2.90
   7 -10   1   60.29    5.60
   8 -10   1    1.20    2.70
   9 -10   1    0.90    2.30
   6   9  -1    0.30    1.70
   5   9  -1    3.20    2.00
   4   9  -1   45.40    4.00
   4   9  -1   43.60    3.80
   3   9  -1   -0.10    2.20
   3   9  -1    2.60    2.10
   2   9  -1    8.90    2.20
   2   9  -1    8.10    2.80
   1   9  -1   17.60    3.40
   1   9  -1   15.00    1.90
   0   9  -1   32.20    4.20
   0   9  -1   25.60    2.40
   0   9  -1   27.90    3.00
  -1   9  -1  105.39    7.90
  -1   9  -1   95.39    6.60
  -1   9  -1   97.79    6.30
  -2   9  -1   14.80    3.50
  -2   9  -1   16.70    2.90
  -2   9  -1   18.30    2.70
  -3   9  -1   27.10    3.30
  -3   9  -1   29.90    3.70
  -3   9  -1   24.10    4.30
  -4   9  -1   23.90    3.60
  -4   9  -1   31.40    3.50
  -5   9  -1   12.00    2.80
   6  -9   1    7.40    3.10
   7  -9   1    5.70    3.20
   8  -9   1   15.70    3.60
   9  -9   1   77.99    5.00
   9  -9   1   77.69    5.80
  10  -9   1    5.70    1.50
   7   8  -1   31.70    2.90
   6   8  -1    1.70    2.10
   5   8  -1   13.60    2.60
   4   8  -1   14.10    2.60
   4   8  -1   13.60    2.60
   3   8  -1    4.30    2.10
   3   8  -1   -1.50    2.10
   2   8  -1   10.70    2.80
   2   8  -1    6.10    2.00
   1   8  -1   12.30    3.00
   1   8  -1    6.20    4.30
   1   8  -1    9.60    1.90
   0   8  -1    3.40    1.70
   0   8  -1    5.80    2.80
   0   8  -1    1.50    1.90
   0   8  -1    1.30    3.50
  -1   8  -1  139.19   10.30
  -1   8  -1  119.29    7.50
  -1   8  -1  130.09    7.80
  -1   8  -1  123.09    8.70
  -2   8  -1    1.00    2.10
  -2   8  -1    1.60    3.70
  -3   8  -1   -2.00    2.80
  -3   8  -1    1.70    2.30
  -3   8  -1    1.70    4.00
  -4   8  -1   28.00    3.40
  -4   8  -1   19.30    5.50
   5  -8   1    0.60    5.30
   6  -8   1    2.90    2.60
   7  -8   1    3.30    3.00
   7  -8   1    4.80    1.80
   8  -8   1   95.99    7.00
   8  -8   1   79.99    5.50
   9  -8   1   41.00    4.10
   9  -8   1   40.10    3.50
  10  -8   1    2.70    1.60
  11  -8   1    7.90    1.40
   8   7  -1    2.40    2.30
   7   7  -1   14.30    2.60
   6   7  -1    1.10    2.40
   5   7  -1  284.87   15.50
   4   7  -1   86.79    6.00
   3   7  -1   31.60    3.40
   3   7  -1   29.40    3.10
   2   7  -1   34.10    2.40
   2   7  -1   33.00    3.60
   2   7  -1   28.00    4.60
   1   7  -1  348.27   18.60
   1   7  -1  355.86   20.30
  -1  -7   1  375.06   20.10
   0   7  -1   32.70    4.70
   0  -7   1   28.70    4.20
  -1   7  -1   14.90    4.00
   1  -7   1   17.10    3.30
  -2   7  -1   47.80    5.90
  -3   7  -1    3.50    3.80
   3  -7   1   11.30    4.00
  -4   7  -1  105.69    9.80
   4  -7   1  110.19    9.00
   5  -7   1    3.70    2.70
   5  -7   1    3.70    3.80
   6  -7   1   18.00    4.40
   6  -7   1   11.40    2.20
   6  -7   1   15.30    3.20
   7  -7   1    1.70    1.80
   7  -7   1    1.70    2.70
   8  -7   1  109.59    7.10
   8  -7   1  125.19    8.10
   9  -7   1    3.80    1.80
   9  -7   1    3.40    2.50
  10  -7   1    1.20    1.50
  11  -7   1    8.40    1.60
   8   6  -1   42.70    3.70
   7   6  -1    5.90    2.80
   7   6  -1    7.90    2.60
   6   6  -1   12.90    2.80
   6   6  -1    3.60    2.60
   6   6  -1    6.00    2.30
   5   6  -1   38.40    3.70
   5   6  -1   39.10    3.80
   4   6  -1    8.30    2.20
   4   6  -1   11.40    2.30
   3   6  -1   88.19    5.60
   2   6  -1   18.80    3.60
   1   6  -1  105.49    8.00
   0   6  -1   -4.40    2.90
  -1   6  -1   17.20    3.80
   1  -6   1   11.30    2.90
  -2   6  -1  122.89    8.90
   2  -6   1  113.19    7.30
   2  -6   1  114.89    8.30
  -3   6  -1   30.00    4.90
   3  -6   1   39.30    4.70
  -4   6  -1   14.40    4.30
   4  -6   1   11.40    3.70
   5  -6   1   94.59    7.90
   6  -6   1  124.79    9.20
   6  -6   1  116.99    7.80
   7  -6   1   18.00    2.40
   7  -6   1   24.30    3.50
   8  -6   1  123.19    7.40
   8  -6   1  124.19    8.30
   9  -6   1   14.30    2.30
   9  -6   1   15.50    2.70
  10  -6   1    8.70    1.90
  11  -6   1   43.60    3.20
   9   5  -1    7.90    2.20
   8   5  -1   45.60    4.00
   8   5  -1   52.19    4.60
   8   5  -1   36.90    4.00
   7   5  -1   26.30    3.60
   7   5  -1   32.50    3.90
   7   5  -1   29.70    3.40
   6   5  -1    0.70    2.60
   6   5  -1    1.60    2.10
   6   5  -1    1.10    2.40
   5   5  -1   33.10    3.80
   5   5  -1   31.70    3.20
   5   5  -1   31.00    3.30
   4   5  -1   35.20    3.20
   2   5  -1   54.09    5.20
   1   5  -1  119.39    8.10
   0   5  -1    3.50    3.00
  -1   5  -1   35.80    4.50
   1  -5   1   48.20    4.80
  -2   5  -1   22.50    4.00
   2  -5   1   14.70    3.70
   2  -5   1   21.20    2.70
  -3   5  -1  488.55   26.90
   3  -5   1  514.25   26.80
  -4   5  -1   -2.50    3.30
   4  -5   1   -1.40    3.10
   5  -5   1  285.37   16.20
   6  -5   1    8.40    3.20
   7  -5   1  104.99    6.60
   7  -5   1   95.99    5.90
   7  -5   1   84.59    7.90
   8  -5   1   -0.10    2.30
   8  -5   1    1.60    1.70
   9  -5   1   20.80    2.50
  10  -5   1   35.30    3.20
  11  -5   1   44.10    3.30
   9   4  -1   44.90    4.10
   9   4  -1   45.70    4.00
   8   4  -1   25.30    3.50
   8   4  -1   24.20    3.20
   8   4  -1   24.40    3.80
   7   4  -1   77.89    6.20
   7   4  -1   72.99    5.70
   7   4  -1   64.99    5.40
   6   4  -1   11.40   35.60
   6   4  -1   -2.70    2.50
   6   4  -1    0.60    2.10
   6   4  -1    0.30    2.20
   5   4  -1   50.99    4.30
   5   4  -1   91.39   37.50
   5   4  -1   57.79    4.80
   4   4  -1  -22.30   28.40
   3   4  -1  323.37   40.90
   2   4  -1  123.29    7.60
   1   4  -1    2.30    2.40
   0   4  -1  258.97   14.40
   0  -4   1  260.27   14.00
  -1   4  -1   59.89    5.80
   1  -4   1   59.09    5.70
  -2   4  -1   -2.20    3.20
   2  -4   1    1.60    3.10
   2  -4   1    0.80    1.80
  -3   4  -1   12.20    3.60
   3  -4   1    4.40    3.10
  -4   4  -1  123.69    8.70
   4  -4   1  117.29    8.40
   5  -4   1    1.80    2.80
   6  -4   1   39.20    4.40
   7  -4   1  285.47   15.70
   7  -4   1  290.87   16.70
   7  -4   1  295.87   15.70
   8  -4   1    1.30    1.50
   8  -4   1    1.80    1.90
   9  -4   1   34.20    3.10
  10  -4   1    9.90    1.90
  11  -4   1   -0.50    1.30
  10   3  -1    0.00    2.10
   9   3  -1   20.00    3.00
   9   3  -1   22.40    3.20
   9   3  -1   23.80    3.90
   8   3  -1  131.09    8.90
   8   3  -1  133.29    8.30
   8   3  -1  131.19    8.60
   7   3  -1   49.20    4.40
   7   3  -1   44.60    4.30
   7   3  -1   49.20    4.80
   7   3  -1   14.60   36.00
   6   3  -1   26.30    3.00
   6   3  -1   25.30    3.40
   6   3  -1   33.90   35.70
   6   3  -1   20.50    2.90
   5   3  -1  -11.80   32.60
  -5  -3   1   10.00    3.60
   4   3  -1  195.88   10.80
  -4  -3   1  190.18   10.60
   3   3  -1  262.47   13.70
   3   3  -1  244.58   13.50
  -3  -3   1  271.97   13.60
   2   3  -1    3.70    1.90
   1   3  -1   -1.50    2.10
  -1  -3   1    0.70    1.70
   0   3  -1    1.40    2.30
   0  -3   1    1.10    2.30
  -1   3  -1   98.79    6.90
   1  -3   1  107.29    7.10
  -2   3  -1   17.40    3.30
   2  -3   1   15.00    3.20
   2  -3   1   17.90    1.90
  -3   3  -1    3.80    2.90
   3  -3   1    4.60    2.80
   4  -3   1  102.59    7.30
   5  -3   1  127.29    8.40
   7  -3   1   26.00    3.90
   7  -3   1   31.10    3.10
   7  -3   1   35.80    3.60
   8  -3   1  -21.60   37.00
   8  -3   1    1.20    2.70
   8  -3   1    1.20    1.40
   9  -3   1    5.50    1.70
  10  -3   1    7.10    1.60
  11  -3   1    1.10    1.20
  10   2  -1   10.30    2.50
   9   2  -1  129.79    8.70
   9   2  -1  144.29    8.80
   9   2  -1  157.68    9.50
   8   2  -1  162.28    9.80
   8   2  -1  158.88    9.40
   8   2  -1  135.99    9.10
   7   2  -1   12.00    3.10
   7   2  -1   16.10    2.80
   7   2  -1    4.30   37.90
   7   2  -1    6.60    2.40
   6   2  -1   24.00    3.20
   6   2  -1    6.10   31.70
   6   2  -1   24.20    3.20
   6   2  -1   23.30    2.90
  -6  -2   1   26.20    3.50
   5   2  -1    5.50    2.10
   5   2  -1   14.20   31.50
   4   2  -1   35.50    3.20
   3   2  -1    8.10    1.80
   3   2  -1    9.60    1.30
   2   2  -1  196.08   10.40
   2   2  -1  199.68   10.60
  -2  -2   1  205.28   10.50
   1   2  -1   54.49    3.90
   1   2  -1   55.99    3.60
   0   2  -1   21.10    2.40
   0  -2   1   28.00    2.60
  -1   2  -1  178.38    9.90
   1  -2   1  180.78   10.10
  -2   2  -1   40.00    3.60
   2  -2   1   36.90    3.80
  -3   2  -1   22.20    3.10
   3  -2   1   28.60    3.30
   4  -2   1  335.37   17.90
   5  -2   1  166.88    9.30
   5  -2   1  173.28   10.10
   7  -2   1   -4.40   36.00
   8  -2   1   26.90    3.40
   8  -2   1   32.10    4.30
   8  -2   1   19.20    2.20
   8  -2   1   -0.20   40.50
   9  -2   1    3.70   47.70
   9  -2   1    1.80    1.50
   9  -2   1    4.30    2.90
  10  -2   1   20.70    2.10
  10   1  -1    0.50    2.40
   9   1  -1  166.88   11.00
   9   1  -1  181.58   10.50
   8   1  -1    2.90    2.40
   8   1  -1    1.10    3.00
   8   1  -1    2.50    2.50
   7   1  -1    0.10    2.60
   7   1  -1   -1.70    2.30
   7   1  -1  -12.60   33.20
   7   1  -1    1.60    2.10
   7   1  -1    2.00    2.30
   6   1  -1   19.40    2.80
   6   1  -1   31.00   34.70
   5   1  -1   29.10    2.90
  -5  -1   1   27.20    2.60
   4   1  -1    2.20    1.10
   4   1  -1    1.00    1.80
  -4  -1   1    1.90    1.40
   3   1  -1  163.78    8.40
   3   1  -1  161.48    9.00
   2   1  -1  127.99    6.40
   2   1  -1  113.59    6.90
   1   1  -1  537.05   27.50
   1   1  -1  563.74   27.50
  -1  -1   1  541.35   27.50
   0   1  -1   19.30    1.90
   0   1  -1   18.80    1.30
   0  -1   1   19.70    1.90
  -1   1  -1  184.58    9.60
   1  -1   1  175.68    9.70
  -2   1  -1  181.68    9.70
  -2   1  -1  174.08    9.40
   2  -1   1  177.58    9.80
  -3   1  -1   27.60    2.60
   3  -1   1   27.20    2.90
   4  -1   1    1.70    1.70
   4  -1   1    0.00    2.10
   5  -1   1  193.58   10.20
   5  -1   1  179.68   10.50
   6  -1   1   14.20   33.50
   6  -1   1   14.00    2.30
   7  -1   1   27.40    3.40
   7  -1   1   -4.20   36.30
   7  -1   1   29.20    3.20
   7  -1   1   29.70    3.10
   8  -1   1   69.09    5.90
   8  -1   1   22.60   42.40
   8  -1   1   80.09    5.70
   9  -1   1   66.79    5.80
   9  -1   1   74.79    5.90
   9  -1   1  -15.10   41.70
  10   0  -1   17.90    3.20
   9   0  -1    7.90    2.70
   9   0  -1   15.80    3.60
   8   0  -1   58.19    5.10
   8   0  -1   56.69    5.20
   8   0  -1   53.59    4.80
   7   0  -1  214.48   12.10
   7   0  -1  208.98   11.90
   7   0  -1   31.90   40.20
   7   0  -1  226.88   11.80
   7   0  -1  211.68   12.10
   6   0  -1   14.30    2.60
   6   0  -1    9.90   28.20
   5   0  -1  221.38   11.70
   5   0  -1  205.48   11.20
   4   0  -1  128.29    7.00
   4   0  -1  122.99    7.30
   3   0  -1  175.68    9.40
  -3   0   1  178.18    9.40
   2   0  -1  304.17   15.30
  -2   0   1  294.17   15.20
   1   0  -1  563.34   28.30
   0   0  -1  588.34   29.50
  -1   0  -1  103.99    5.40
   1   0   1  100.99    5.40
   1   0   1  110.59    5.80
   2   0   1  384.66   19.60
   2   0   1  388.66   19.60
   3   0   1  153.88    8.20
   3   0   1  150.08    8.30
  -4   0  -1  230.38   12.20
   4   0   1  219.48   11.90
   4   0   1  225.08   11.90
  -5   0  -1    0.20    1.90
   5   0   1   -0.50    1.70
   5   0   1   -3.40   29.50
   6   0   1  124.09    7.40
   6   0   1   47.40   37.70
   7   0   1   30.20    3.20
   7   0   1   28.50    3.10
   7   0   1   -7.00   38.30
   7   0   1   28.10    3.50
   8   0   1   42.10    4.40
   8   0   1   33.30    3.60
   8   0   1   -4.40   45.70
   8   0   1   31.60    3.50
   9   0   1   44.50    4.80
   9   0   1   10.10   42.30
   9   0   1   45.80    4.30
  10  -1  -1    8.30    3.00
   9  -1  -1   -0.80    2.40
   9  -1  -1    1.70    3.20
   8  -1  -1   13.00    3.20
   8  -1  -1   15.20    2.80
   7  -1  -1  168.38    9.80
   7  -1  -1  169.28   10.00
   6  -1  -1    5.90    2.10
   6  -1  -1   -1.30    2.10
   6  -1  -1    2.40   28.60
   5  -1  -1  208.88   11.40
   4  -1  -1    0.70    1.90
   3  -1  -1  374.56   18.90
  -3   1   1  356.46   18.90
   2  -1  -1  369.26   19.20
  -2   1   1  379.16   19.30
   1  -1  -1   53.19    4.10
  -1   1   1   42.10    4.20
   0  -1  -1  465.65   23.30
   0  -1  -1  464.55   23.30
   0   1   1  455.55   23.40
   1   1   1   19.20    2.00
   2   1   1   53.79    3.60
   3   1   1  350.96   18.10
   4   1   1  100.79    6.10
  -5  -1  -1   53.49    4.70
   5   1   1   37.40   33.40
   5   1   1   63.49    4.50
  -6  -1  -1   66.99    5.30
   6   1   1   45.10   43.50
   7   1   1   51.79    4.80
   7   1   1   32.90   45.00
   7   1   1   64.49    5.40
   7   1   1   70.29    4.90
   8   1   1   16.50    3.40
   8   1   1   -2.20   43.70
   8   1   1   10.40    2.70
   8   1   1   12.40    2.80
   9   1   1    7.40    2.60
   9   1   1    4.70    3.20
   9   1   1  -20.40   41.10
  10   1   1   -2.10    2.70
  10   1   1   -1.40    2.80
  10  -2  -1    3.00    1.50
  10  -2  -1    9.30    3.20
   9  -2  -1   32.20    3.90
   9  -2  -1   31.50    2.80
   8  -2  -1   26.30    3.50
   8  -2  -1   13.20    2.70
   8  -2  -1   14.10    1.80
   7  -2  -1   70.09    5.70
   7  -2  -1   69.79    5.70
   6  -2  -1   56.69    5.00
   5  -2  -1  176.68   10.20
   4  -2  -1   10.80    2.50
   3  -2  -1  134.69    8.10
  -3   2   1  141.89    8.50
   2  -2  -1    5.40    2.40
  -2   2   1    1.40    2.60
   1  -2  -1   66.39    4.80
  -1   2   1   67.29    5.10
   0  -2  -1  103.49    6.20
   0  -2  -1  109.19    6.40
   0   2   1  111.39    6.60
  -1  -2  -1  348.47   17.80
   1   2   1  360.66   18.20
   2   2   1   82.49    4.80
   4   2   1   -1.50   33.50
   5   2   1  106.29   43.40
   6   2   1  118.69    7.20
   6   2   1  106.09    6.90
   6   2   1   61.19   44.60
   7   2   1   -0.40    2.00
   7   2   1   -1.10    2.80
   7   2   1   -2.90   38.10
   7   2   1    3.70    2.20
   8   2   1   12.50    3.40
   8   2   1   12.90   43.50
   8   2   1    8.60    2.70
   8   2   1   10.50    2.70
   9   2   1   39.50    4.60
   9   2   1    8.10   35.20
   9   2   1   46.40    4.30
   9   2   1   51.99    4.30
  11  -3  -1   19.90    2.10
  10  -3  -1   52.09    3.80
   9  -3  -1    2.60    3.00
   9  -3  -1    1.00    1.40
   8  -3  -1   26.50    3.40
   8  -3  -1   31.30    2.80
   8  -3  -1   21.80    4.00
   7  -3  -1    1.50    2.60
   6  -3  -1   23.90    3.40
   5  -3  -1  109.49    7.50
   4  -3  -1  392.66   20.60
  -4   3   1  382.26   20.90
   3  -3  -1 2207.38  112.19
  -3   3   1 2261.37  112.39
   2  -3  -1  784.12   40.00
  -2   3   1  783.42   40.20
   1  -3  -1 1065.59   53.29
   1  -3  -1 1063.99   53.09
  -1   3   1 1034.10   53.49
   0  -3  -1  132.09    7.90
   0  -3  -1  137.89    8.00
   0   3   1  141.49    8.40
   1   3   1  500.75   25.70
  -2  -3  -1    5.30    1.30
   2   3   1    4.80    1.90
   4   3   1  150.38   44.40
   5   3   1   48.30   38.50
   6   3   1   73.99    5.40
   6   3   1   80.19    5.60
   6   3   1   86.19    6.00
   6   3   1   39.00   47.00
   7   3   1   31.40    3.40
   7   3   1   31.90    3.40
   7   3   1   23.30   41.30
   7   3   1   31.50    4.10
   8   3   1  -38.60   33.30
   8   3   1    3.80    3.20
   8   3   1   10.50    2.70
   8   3   1   -0.10    2.50
   9   3   1   23.80    3.00
   9   3   1   24.10    3.80
  12  -4  -1    0.10    1.00
  11  -4  -1   -1.30    1.40
  10  -4  -1   10.20    1.90
   9  -4  -1    4.50    1.70
   8  -4  -1    3.00    2.00
   8  -4  -1    1.70    1.60
   7  -4  -1    6.30    2.10
   7  -4  -1    7.20    2.90
   6  -4  -1   31.70    4.10
   5  -4  -1   80.79    6.80
   4  -4  -1  249.38   14.00
  -4   4   1  240.98   14.50
   3  -4  -1   38.30    4.10
  -3   4   1   31.60    4.60
   2  -4  -1  114.49    7.70
   1  -4  -1    9.40    2.80
   1  -4  -1   12.20    2.60
  -1   4   1   11.80    3.30
   0  -4  -1   -0.40    2.20
   0   4   1    2.00    2.80
   1   4   1  108.39    7.20
   2   4   1   29.90    3.20
   3   4   1  591.74   54.09
  -4  -4  -1    8.90    3.30
   4   4   1   15.90   36.40
   5   4   1   86.29   43.50
   5   4   1   73.19    5.20
   5   4   1   71.89    5.40
   6   4   1   69.99    5.80
   6   4   1   40.20   42.20
   6   4   1   69.19    5.30
   7   4   1   93.29   45.00
   7   4   1  178.18   10.10
   7   4   1  164.58   10.50
   8   4   1   24.70    3.20
   8   4   1   22.30    3.70
   9   4   1    2.10    2.70
   9   4   1    1.80    2.00
  12  -5  -1    3.70    1.20
  11  -5  -1   18.30    2.20
  10  -5  -1   28.90    2.90
   9  -5  -1    2.10    1.70
   9  -5  -1    3.30    1.90
   8  -5  -1   16.50    2.90
   8  -5  -1   19.80    2.30
   7  -5  -1    2.80    1.50
   7  -5  -1    0.30    2.00
   7  -5  -1    3.70    3.00
   6  -5  -1   20.60    3.90
   5  -5  -1  162.88   10.50
   4  -5  -1    1.60    3.20
  -4   5   1   11.40    4.00
   3  -5  -1  169.68   10.70
  -3   5   1  163.28   11.00
   2  -5  -1   -1.20    2.90
  -2   5   1    0.70    3.20
   1  -5  -1   44.80    4.40
   1  -5  -1   48.10    4.30
  -1   5   1   38.00    4.50
   0  -5  -1   35.80    3.80
   0   5   1   39.40    4.30
  -1  -5  -1    2.70    2.70
   1   5   1    2.30    2.80
  -2  -5  -1  363.96   19.60
   2   5   1  355.86   19.40
   3   5   1  423.36   48.20
  -4  -5  -1   46.40    5.20
   4   5   1   60.99   37.10
   4   5   1   45.50    3.90
   4   5   1   49.70    4.00
   5   5   1   -0.40    2.20
   5   5   1    2.00    2.10
   5   5   1   -9.40   33.70
   6   5   1   29.90    3.90
   6   5   1   28.80    3.40
   7   5   1   41.10    4.50
   7   5   1   46.90    4.10
   8   5   1   17.60    2.80
   8   5   1   14.20    3.20
  11  -6  -1   25.10    2.40
  10  -6  -1   14.60    2.30
   9  -6  -1   71.79    4.70
   9  -6  -1   61.39    5.30
   8  -6  -1   19.70    3.30
   8  -6  -1   14.50    2.30
   7  -6  -1   10.40    1.90
   7  -6  -1    9.40    3.80
   7  -6  -1    8.60    2.70
   6  -6  -1  157.58   10.60
   6  -6  -1  147.09    9.00
   6  -6  -1  145.89    9.00
   5  -6  -1  113.49    8.60
   4  -6  -1   32.20    4.70
  -4   6   1   29.40    5.00
   3  -6  -1   35.00    4.80
  -3   6   1   40.30    5.20
   2  -6  -1   12.00    3.50
  -2   6   1    7.40    3.60
  -1   6   1   72.59    6.70
   0  -6  -1   92.99    6.90
   0   6   1  100.19    7.60
  -1  -6  -1    0.90    2.90
   1   6   1    0.40    2.90
  -2  -6  -1   53.49    5.60
   2   6   1   48.80    5.10
  -3  -6  -1   -1.60    3.40
   4   6   1   21.30    2.90
   4   6   1   18.60    2.70
   5   6   1   26.80    3.10
   5   6   1   18.00    3.20
   6   6   1   95.49    6.80
   6   6   1   93.39    6.50
   7   6   1  101.79    6.60
   7   6   1   99.49    6.90
   8   6   1    0.60    1.90
   8   6   1    0.00    2.40
  11  -7  -1   -0.40    1.30
  10  -7  -1    0.40    1.60
  10  -7  -1    1.20    1.70
   9  -7  -1   59.39    5.20
   9  -7  -1   50.49    4.20
   8  -7  -1   55.69    4.40
   8  -7  -1   56.49    5.50
   7  -7  -1   25.00    3.60
   7  -7  -1   32.80    3.00
   6  -7  -1    7.80    2.60
   6  -7  -1    3.50    3.60
   6  -7  -1    5.40    1.90
   6  -7  -1    7.90    2.70
   5  -7  -1   17.10    4.30
   4  -7  -1   27.30    4.80
  -4   7   1   36.70    5.70
  -3   7   1   32.20    5.20
  -2   7   1   25.70    4.70
  -1   7   1   62.89    6.40
   0   7   1    1.30    3.40
  -1  -7  -1   19.60    4.10
   1   7   1   22.20    4.30
   1   7   1   18.30    2.20
   2   7   1    3.90    2.20
   3   7   1    0.90    2.00
   3   7   1    0.00    1.90
   4   7   1    7.30    2.40
   5   7   1   25.70    3.20
   6   7   1   42.80    4.00
   7   7   1    0.70    1.90
  11  -8  -1    5.10    1.40
  10  -8  -1   49.60    3.70
  10  -8  -1   53.09    4.00
   9  -8  -1   59.49    4.50
   9  -8  -1   62.49    5.40
   8  -8  -1    2.50    2.90
   8  -8  -1    1.20    1.80
   7  -8  -1   33.50    4.20
   6  -8  -1    4.40    2.70
   5  -8  -1   12.30    4.80
  -5   8   1    7.40    2.80
  -4   8   1  107.79    7.40
  -4   8   1  116.29   10.40
  -3   8   1   25.70    3.70
  -3   8   1   30.00    3.70
  -3   8   1   19.80    4.90
  -2   8   1   67.89    5.70
  -2   8   1   73.19    5.90
  -2   8   1   94.89    8.40
  -1   8   1   92.29    8.50
  -1   8   1   78.99    6.70
  -1   8   1   93.89    6.00
  -1   8   1   84.89    5.60
   0   8   1   19.80    4.40
   0   8   1   14.00    2.30
   0   8   1   14.50    2.00
   0   8   1   12.70    2.90
   1   8   1  124.29    8.00
   1   8   1  119.89    6.90
   2   8   1   65.29    5.40
   3   8   1   28.80    3.40
   3   8   1   30.10    3.30
   4   8   1   29.40    3.30
   4   8   1   32.60    3.50
   5   8   1    3.80    2.20
   6   8   1   14.40    2.40
  10  -9  -1   23.60    2.30
  10  -9  -1   27.10    2.70
   9  -9  -1   25.90    3.50
   8  -9  -1   15.80    3.40
   7  -9  -1   18.00    3.50
  -6   9   1    2.80    2.70
  -5   9   1    2.90    2.60
  -4   9   1   24.40    3.30
  -4   9   1   21.20    3.70
  -3   9   1   49.70    4.40
  -3   9   1   47.80    4.70
  -3   9   1   43.90    5.20
  -2   9   1   60.29    5.60
  -2   9   1   54.29    4.40
  -2   9   1   49.10    4.90
  -1   9   1    0.60    1.70
  -1   9   1    1.00    3.00
  -1   9   1    2.30    2.10
   0   9   1   21.80    2.80
   0   9   1   30.00    4.00
   1   9   1   10.00    3.10
   2   9   1  100.89    6.50
   2   9   1   97.79    7.10
   3   9   1  182.08   10.30
   3   9   1  175.78   10.40
   4   9   1   21.80    2.70
   4   9   1   29.50    3.00
   5   9   1    7.90    2.10
   9 -10  -1   11.90    2.90
   8 -10  -1   -2.60    2.50
   7 -10  -1   16.90    3.50
  -7  10   1   19.00    3.10
  -6  10   1   -1.60    2.20
  -5  10   1   32.10    3.60
  -5  10   1   30.50    4.00
  -4  10   1   12.70    2.70
  -4  10   1   13.90    3.10
  -3  10   1   12.80    2.80
  -3  10   1   14.50    2.70
  -3  10   1   19.20    3.80
  -2  10   1   -3.10    2.90
  -2  10   1    3.60    2.30
  -2  10   1    0.30    1.90
  -1  10   1   43.70    4.90
  -1  10   1   46.40    3.40
  -1  10   1   53.19    4.50
   0  10   1   13.80    3.40
   0  10   1   14.20    2.00
   1  10   1  116.09    7.20
   1  10   1  117.49    8.00
   2  10   1   10.50    2.40
   2  10   1   11.00    2.80
   3  10   1   15.10    2.50
   3  10   1   19.30    2.70
   4  10   1    0.90    1.70
   9 -11  -1    2.40    2.00
   8 -11  -1    0.40    2.30
  -8  11   1    1.60    2.00
   7 -11  -1   15.30    3.20
  -7  11   1    7.80    2.50
  -6  11   1   -2.10    2.20
  -6  11   1   -2.30    3.30
  -5  11   1   35.50    3.90
  -5  11   1   29.40    3.60
  -4  11   1    2.40    2.40
  -4  11   1    3.10    2.20
  -3  11   1   23.60    3.20
  -3  11   1   16.10    3.50
  -3  11   1   21.80    2.80
  -2  11   1    2.10    2.10
  -2  11   1   -1.30    2.60
  -2  11   1    0.80    1.50
  -1  11   1   18.00    2.30
  -1  11   1   17.80    3.40
   0  11   1    8.40    2.10
   0  11   1    3.20    2.60
   1  11   1   61.99    4.40
   1  11   1   57.99    5.00
   2  11   1   37.70    3.40
   2  11   1   30.80    3.30
   2  11   1   33.20    2.90
   3  11   1   29.90    2.90
   3  11   1   27.50    2.70
  -8  12   1   -0.30    1.50
  -7  12   1    2.80    1.80
  -6  12   1   -1.10    1.80
  -6  12   1    1.70    2.00
  -5  12   1    0.60    2.00
  -5  12   1   -0.60    1.80
  -4  12   1    0.00    1.90
  -4  12   1    1.50    1.60
  -3  12   1    2.10    2.60
  -3  12   1   -1.30    2.60
  -3  12   1    1.20    1.80
  -2  12   1   -2.50    1.50
  -2  12   1   -0.60    2.40
  -2  12   1   -4.40    2.40
  -1  12   1    2.20    2.40
  -1  12   1    2.20    2.40
   0  12   1   30.70    3.30
   0  12   1   30.70    3.30
   0  12   1   29.10    2.60
   1  12   1   42.20    3.60
   1  12   1   43.20    3.70
  -4  13   1   18.50    2.00
  -2  13   1   -3.20    2.40
  -4  13  -2    7.80    1.60
   1  12  -2   19.60    2.70
   0  12  -2   59.29    4.80
  -1  12  -2    7.80    2.80
  -2  12  -2    2.30    2.70
  -2  12  -2    2.20    1.60
  -3  12  -2   25.40    2.40
  -3  12  -2   22.40    2.80
  -4  12  -2   30.20    3.10
  -4  12  -2   27.60    2.70
  -5  12  -2   55.49    4.00
  -5  12  -2   52.29    4.30
  -6  12  -2    7.90    1.90
  -6  12  -2   12.20    2.40
  -7  12  -2    7.40    1.80
   1  11  -2    4.80    2.70
   1  11  -2   16.30    2.80
   0  11  -2   23.60    3.50
   0  11  -2   20.80    3.60
  -1  11  -2   41.10    4.70
  -1  11  -2   54.99    4.90
  -1  11  -2   48.80    3.90
  -2  11  -2   61.29    5.60
  -2  11  -2   60.69    5.50
  -2  11  -2   62.49    5.00
  -2  11  -2   61.39    4.30
  -3  11  -2    2.60    2.20
  -3  11  -2    6.30    2.10
  -4  11  -2   11.30    2.70
  -4  11  -2   13.20    2.70
  -5  11  -2   15.80    2.80
  -5  11  -2   16.30    3.00
  -6  11  -2   21.30    3.10
  -7  11  -2   -1.90    2.00
   7 -11   2   -2.00    2.50
  -8  11  -2   37.70    3.60
   8 -11   2   42.50    4.00
   4  10  -2    5.10    1.90
   4  10  -2    5.50    2.00
   3  10  -2   19.60    3.10
   3  10  -2   25.50    2.70
   2  10  -2   36.50    3.70
   2  10  -2   24.10    3.50
   1  10  -2   16.10    3.30
   0  10  -2  146.39    9.40
   0  10  -2  135.49    8.00
  -1  10  -2   -1.30    1.90
  -1  10  -2   -0.80    1.60
  -1  10  -2   -1.30    2.90
  -2  10  -2   60.09    4.60
  -2  10  -2   51.69    4.90
  -2  10  -2   54.59    5.40
  -3  10  -2   12.90    2.90
  -3  10  -2   10.40    2.60
  -4  10  -2    7.90    2.60
  -4  10  -2    8.20    2.50
  -5  10  -2   23.90    3.40
  -6  10  -2   45.80    4.50
   7 -10   2    3.10    2.90
   8 -10   2    6.60    2.80
   9 -10   2    2.60    2.30
   6   9  -2   32.20    3.10
   5   9  -2   32.10    3.10
   4   9  -2   42.80    3.70
   4   9  -2   43.70    3.90
   3   9  -2   10.10    2.40
   3   9  -2   10.40    2.80
   3   9  -2   14.90    2.80
   2   9  -2   62.99    5.50
   2   9  -2   56.89    4.40
   1   9  -2   72.19    5.80
   1   9  -2   58.39    4.30
   1   9  -2   63.69    4.80
   0   9  -2  236.58   12.80
   0   9  -2  225.28   12.30
   0   9  -2  237.08   13.60
  -1   9  -2    0.60    2.90
  -1   9  -2    2.40    2.20
  -1   9  -2    4.50    2.00
  -2   9  -2  151.48   10.00
  -2   9  -2  146.99    8.80
  -2   9  -2  148.69    9.20
  -3   9  -2    9.10    2.60
  -3   9  -2   12.00    3.00
  -4   9  -2    1.90    2.60
  -4   9  -2    2.10    2.40
  -5   9  -2  118.29    8.00
   6  -9   2    5.80    3.00
   7  -9   2   18.30    3.70
   8  -9   2    6.00    2.90
   9  -9   2   18.40    3.10
   9  -9   2   16.40    2.10
  10  -9   2    4.00    1.30
   7   8  -2    2.80    1.80
   6   8  -2   23.40    2.90
   5   8  -2   37.60    3.70
   4   8  -2   62.29    5.20
   4   8  -2   67.49    5.30
   4   8  -2   76.29    5.20
   4   8  -2   67.89    5.00
   3   8  -2   34.90    3.40
   3   8  -2   40.30    3.60
   3   8  -2   35.20    3.70
   2   8  -2   25.80    3.00
   2   8  -2   21.80    2.70
   2   8  -2   26.50    3.50
   1   8  -2  179.18   10.60
   1   8  -2  171.98    9.70
   0   8  -2   80.19    8.30
   0   8  -2   93.79    7.10
   0   8  -2   99.19    6.10
   0   8  -2   87.29    5.60
  -1   8  -2   72.99    7.00
  -1   8  -2   49.60    5.00
  -1   8  -2   49.00    4.10
  -1   8  -2   47.70    4.50
  -2   8  -2  126.69    8.00
  -2   8  -2  135.89   10.40
  -2   8  -2  118.99    7.60
  -3   8  -2    2.70    2.50
  -3   8  -2    7.70    4.40
  -3   8  -2    3.30    2.20
  -4   8  -2   26.80    3.30
  -4   8  -2   27.50    6.00
   6  -8   2   37.10    4.60
   7  -8   2   43.80    4.70
   7  -8   2   43.70    3.80
   8  -8   2   24.70    2.70
   8  -8   2   27.40    3.90
   9  -8   2   10.70    2.90
   9  -8   2    7.10    1.90
  10  -8   2   -1.80    1.30
   8   7  -2   17.60    2.30
   7   7  -2   15.00    2.60
   6   7  -2   22.30    2.90
   6   7  -2   23.70    3.20
   5   7  -2   18.10    2.80
   5   7  -2   13.30    2.70
   4   7  -2   45.20    4.10
   4   7  -2   49.30    4.10
   4   7  -2   45.60    4.00
   3   7  -2  142.49    8.20
   3   7  -2  134.19    8.10
   3   7  -2  136.59    8.40
   2   7  -2    9.20    1.50
   2   7  -2    1.70    3.20
   2   7  -2    4.40    2.60
   2   7  -2    7.60    2.10
   1   7  -2   84.69    7.60
   1   7  -2   90.99    5.60
   0   7  -2    1.80    3.20
  -1   7  -2    6.40    3.60
   1  -7   2    2.60    3.00
  -2   7  -2   55.59    6.10
  -3   7  -2   -2.30    3.70
   3  -7   2    3.80    3.70
  -4   7  -2  170.78   12.80
   4  -7   2  187.48   12.20
   5  -7   2   -0.20    2.50
   5  -7   2    5.30    3.90
   6  -7   2   16.60    2.30
   6  -7   2    9.00    2.90
   7  -7   2   39.60    3.40
   7  -7   2   42.20    4.70
   8  -7   2   -1.30    1.60
   8  -7   2   -4.00    2.60
   9  -7   2    1.60    1.70
   9  -7   2   -1.40    2.40
  10  -7   2    6.10    1.70
  11  -7   2    8.20    1.50
   8   6  -2    2.50    2.20
   7   6  -2  115.99    7.40
   7   6  -2  112.59    7.10
   7   6  -2  111.59    7.50
   6   6  -2   22.30    3.40
   6   6  -2   26.70    3.20
   5   6  -2  168.88    9.70
   5   6  -2  160.58    9.50
   4   6  -2    7.00    2.20
   4   6  -2    2.50    1.90
   3   6  -2   22.80    2.60
   2   6  -2   41.20    4.70
   1   6  -2    5.30    3.00
   0   6  -2  271.37   15.80
  -1   6  -2  262.17   15.40
  -2   6  -2   63.19    6.60
   2  -6   2   59.59    5.90
  -3   6  -2    4.10    3.80
   3  -6   2    6.00    3.80
  -4   6  -2   40.10    5.60
   4  -6   2   44.00    5.50
   5  -6   2    8.80    4.00
   6  -6   2   89.39    7.70
   6  -6   2   80.99    6.20
   6  -6   2   79.79    5.30
   7  -6   2   74.99    6.30
   7  -6   2   80.39    5.20
   8  -6   2   95.09    6.70
   8  -6   2   86.89    5.80
   9  -6   2    8.00    1.90
   9  -6   2   11.90    2.50
  10  -6   2   33.50    3.10
  11  -6   2   27.00    2.40
   9   5  -2   27.60    2.90
   8   5  -2    2.50    2.50
   8   5  -2    0.00    2.20
   7   5  -2    7.00    2.50
   7   5  -2    4.00    2.90
   7   5  -2    8.20    2.70
   6   5  -2    1.80    2.10
   6   5  -2   -1.90    2.30
   6   5  -2    1.30    2.60
   5   5  -2   22.40    2.80
   5   5  -2   26.60    3.30
   5   5  -2   19.40    2.80
   4   5  -2  164.58    9.30
   3   5  -2    5.10    2.40
   2   5  -2   69.69    5.90
   1   5  -2   65.29    5.70
   0   5  -2   11.80    3.30
  -1   5  -2   19.20    3.60
   1  -5   2   18.50    3.60
  -2   5  -2    5.90    3.40
   2  -5   2    1.70    2.10
   2  -5   2    3.50    3.30
  -3   5  -2    7.10    3.60
   3  -5   2   13.30    3.70
  -4   5  -2  205.38   13.10
   4  -5   2  210.38   13.00
   5  -5   2   13.80    3.80
   6  -5   2   16.20    2.90
   6  -5   2   17.30    4.20
   7  -5   2   17.70    3.00
   7  -5   2   13.30    3.80
   7  -5   2   18.50    2.30
   8  -5   2   32.70    3.70
   8  -5   2   43.10    3.60
   9  -5   2   -2.20   39.60
  10  -5   2   -1.60    1.50
  11  -5   2   28.10    2.50
   9   4  -2    1.10    2.20
   9   4  -2    1.00    2.30
   8   4  -2   88.39    6.50
   8   4  -2   83.79    6.70
   8   4  -2   82.89    6.10
   7   4  -2    6.90    2.50
   7   4  -2   11.00    3.00
   7   4  -2    1.70    2.70
   6   4  -2   13.40    2.60
   6   4  -2   11.80    3.00
   6   4  -2    8.20    2.60
   5   4  -2  183.28   10.80
   5   4  -2  193.58   10.60
   3   4  -2   52.49    4.50
   2   4  -2    4.20    2.40
   1   4  -2   71.99    5.90
   0   4  -2   16.90    3.20
   0  -4   2   21.20    3.10
  -1   4  -2   86.79    6.40
   1  -4   2   77.69    6.70
  -2   4  -2   -3.30    3.00
   2  -4   2    3.10    3.20
  -3   4  -2   71.49    6.30
   3  -4   2   48.40    5.10
   4  -4   2    9.00    3.30
   5  -4   2  201.78   12.40
   6  -4   2  138.89    9.50
   7  -4   2   25.30    3.10
   7  -4   2   27.40    2.50
   7  -4   2   20.00    3.80
   8  -4   2   60.79    4.30
   8  -4   2   60.59    4.50
   9  -4   2  -15.40   37.10
  10  -4   2   12.90    1.90
  11  -4   2  114.39    6.40
  10   3  -2   10.60    2.30
   9   3  -2    4.50    2.70
   9   3  -2    4.70    2.40
   8   3  -2   46.60    4.80
   8   3  -2   43.20    4.30
   8   3  -2   45.80    4.50
   7   3  -2   49.20    4.40
   7   3  -2   35.10   34.70
   7   3  -2   44.60    4.70
   7   3  -2   52.59    4.60
   6   3  -2   24.90   32.80
   6   3  -2   11.80    2.50
   6   3  -2   12.20    2.40
   6   3  -2    8.60    2.80
   5   3  -2  339.27   40.70
   5   3  -2  192.08   11.10
  -5  -3   2  182.98   10.90
   4   3  -2  334.07   46.70
   3   3  -2    0.90    1.80
   3   3  -2   -1.00    1.80
   2   3  -2  911.41   46.60
   2   3  -2  932.21   46.50
   1   3  -2  546.95   27.40
  -1  -3   2  520.85   27.30
   0   3  -2   47.20    4.60
   0  -3   2   37.30    3.90
  -1   3  -2  225.48   12.60
   1  -3   2  220.78   12.80
  -2   3  -2  191.98   11.10
   2  -3   2  185.38   11.30
  -3   3  -2  115.99    7.90
   3  -3   2  111.39    8.00
   4  -3   2   33.60    4.10
   5  -3   2  164.98   10.30
   6  -3   2  106.99    7.90
   7  -3   2    2.00    2.80
   7  -3   2    4.20    1.90
   8  -3   2   -0.90   41.70
   9  -3   2  -27.70   38.80
   9  -3   2    1.10    1.60
  10  -3   2   45.70    3.40
  11  -3   2   91.29    5.10
  10   2  -2   24.30    3.10
   9   2  -2   -2.50    2.30
   9   2  -2    0.00    3.40
   8   2  -2   90.99    7.20
   8   2  -2   95.09    6.80
   8   2  -2   87.09    6.40
   7   2  -2   15.80    3.20
   7   2  -2   16.10    2.90
   7   2  -2   22.30    3.00
   6   2  -2    2.00    2.00
   6   2  -2  -26.80   32.70
   6   2  -2    3.50    2.30
   6   2  -2   -2.50    2.80
  -6  -2   2    6.20    2.70
   5   2  -2  271.47   14.40
  -5  -2   2  258.77   14.40
   4   2  -2   50.69    3.50
   4   2  -2   55.39    4.20
  -4  -2   2   47.80    4.10
   3   2  -2   28.60    2.70
   3   2  -2   23.50    2.50
  -3  -2   2   29.10    2.50
   2   2  -2  168.18    9.10
   2   2  -2  162.48    9.10
  -2  -2   2  175.38    9.00
   1   2  -2  285.07   14.80
   1   2  -2  282.27   14.50
  -1  -2   2  285.67   14.90
   0   2  -2  474.65   24.20
   0  -2   2  468.45   24.30
  -1   2  -2  598.84   29.60
   1  -2   2  555.84   29.70
  -2   2  -2   18.50    2.90
   2  -2   2   22.90    3.40
  -3   2  -2   22.00    3.00
   3  -2   2   10.90    3.10
   4  -2   2    3.20    1.40
   4  -2   2   -3.80    2.60
   5  -2   2   71.79    5.90
   6  -2   2   22.70    3.40
   7  -2   2   -9.50   39.80
   7  -2   2    8.50    2.50
   8  -2   2   52.39    3.70
   8  -2   2   49.20    4.60
   8  -2   2    4.30   41.40
   9  -2   2   10.90   49.99
   9  -2   2    7.50    1.60
  10  -2   2   23.90    2.20
  11   1  -2   28.40    3.20
  10   1  -2   77.29    5.80
   9   1  -2    1.20    3.30
   9   1  -2    0.20    2.50
   8   1  -2   16.30    3.50
   8   1  -2   13.90    2.80
   8   1  -2    6.80    2.90
   7   1  -2    4.60    2.20
   7   1  -2    2.10    2.50
   7   1  -2    4.40    2.50
   7   1  -2   -0.60    2.20
   6   1  -2  140.89    8.60
   5   1  -2   95.39    6.20
   4   1  -2    0.80    2.00
   4   1  -2    1.50    1.30
   3   1  -2  175.78    9.60
   3   1  -2  181.78    9.40
  -3  -1   2  171.48    9.20
   2   1  -2  327.07   16.70
  -2  -1   2  325.17   16.70
   1   1  -2   40.60    3.10
  -1  -1   2   36.40    3.50
   0   1  -2    8.50    1.70
   0  -1   2   10.60    2.20
  -1   1  -2  401.46   20.20
  -1   1  -2  402.76   20.00
   1  -1   2  374.96   20.40
  -2   1  -2   14.80    2.30
  -2   1  -2   10.10    1.90
   2  -1   2    8.40    2.80
   2  -1   2   14.50    1.20
  -3   1  -2   27.30    2.80
   3  -1   2   28.60    3.30
   3  -1   2   26.00    2.40
  -4   1  -2  271.97   13.80
   4  -1   2  249.08   13.30
   4  -1   2  250.97   13.90
   5  -1   2  102.39    6.90
   5  -1   2  108.49    6.20
   6  -1   2   40.40   40.40
   7  -1   2  115.29    7.30
   7  -1   2   -7.80   40.00
   8  -1   2  106.29    7.70
   8  -1   2  115.79    7.40
   8  -1   2   54.39   46.70
   9  -1   2  -11.60   45.20
  11   0  -2   21.90    3.20
  10   0  -2   26.80    3.40
   9   0  -2    4.70    2.60
   8   0  -2   28.70    3.40
   8   0  -2   32.80    4.00
   8   0  -2   26.30    3.50
   7   0  -2    1.70    2.40
   7   0  -2    1.70    2.50
   7   0  -2    1.70    1.90
   7   0  -2    5.10    2.50
   6   0  -2  483.25   25.30
   5   0  -2   39.60    3.40
   5   0  -2   34.80    3.40
   4   0  -2   61.89    4.30
   3   0  -2   35.10    3.30
   2   0  -2   84.69    5.00
  -2   0   2   78.99    5.50
   1   0  -2  261.87   13.60
  -1   0   2  274.17   13.40
  -1   0   2  254.97   13.90
   0   0  -2  412.06   20.50
   0   0   2  396.26   20.80
  -1   0  -2  182.38    9.50
   1   0   2  179.98    9.90
   2   0   2    0.70    2.00
   2   0   2    1.30    1.20
   3   0   2   76.19    4.50
   3   0   2   72.69    5.10
   4   0   2   23.40    2.60
   4   0   2   22.90    2.30
  -5   0  -2  172.78    9.50
   5   0   2  155.88    9.00
   5   0   2  176.48   47.90
   6   0   2  -19.40   35.30
   7   0   2   53.59    4.30
   7   0   2   42.50    4.30
   7   0   2   48.60    4.20
   7   0   2  -14.70   40.10
   8   0   2   63.19    5.20
   8   0   2    1.70   46.00
   8   0   2   69.49    6.00
   8   0   2   65.09    5.10
   9   0   2   41.70    4.50
   9   0   2   46.80    4.40
   9   0   2   13.80   44.70
  10   0   2   14.70    3.20
  10  -1  -2    2.40    2.70
   9  -1  -2   52.99    5.00
   8  -1  -2   54.89    5.10
   8  -1  -2   51.89    4.70
   7  -1  -2  116.39    7.90
   6  -1  -2   64.79    5.20
   6  -1  -2   61.29    4.90
   5  -1  -2    1.00    2.00
   4  -1  -2   55.99    4.50
   3  -1  -2  234.68   12.60
  -3   1   2  230.08   12.60
   2  -1  -2  620.54   30.80
  -2   1   2  590.24   30.90
   1  -1  -2 1160.68   58.89
  -1   1   2 1183.98   58.99
   0  -1  -2  169.38    8.80
   0   1   2  161.08    9.00
   1   1   2   81.89    5.00
  -2  -1  -2  265.97   13.20
   2   1   2  242.18   13.10
  -3  -1  -2    9.50    1.90
   3   1   2    7.80    1.70
  -4  -1  -2  256.17   13.70
  -5  -1  -2    0.20    2.20
   5   1   2    0.80   32.80
  -6  -1  -2    1.50    2.40
   6   1   2    5.40    2.30
   6   1   2    0.70   44.50
   7   1   2   -8.60   46.90
   7   1   2   32.70    3.40
   7   1   2   33.00    3.90
   7   1   2   31.80    3.30
   8   1   2   50.79    5.00
   8   1   2   49.60   50.39
   8   1   2   56.09    4.70
   8   1   2   46.40    4.20
   9   1   2   13.00    3.10
   9   1   2  -27.50   43.60
   9   1   2   15.70    3.40
  10   1   2   83.89    6.20
  11  -2  -2    4.20    1.30
  10  -2  -2    6.50    3.10
  10  -2  -2    6.20    1.60
   9  -2  -2   80.79    5.90
   9  -2  -2   71.59    4.70
   8  -2  -2    0.30    2.20
   8  -2  -2    2.70    1.30
   7  -2  -2  254.77   13.50
   7  -2  -2  223.58   13.50
   6  -2  -2   27.90    3.50
   5  -2  -2  128.49    8.00
   4  -2  -2   73.29    5.60
   3  -2  -2   72.29    5.60
  -3   2   2   77.29    5.90
   2  -2  -2 9695.83  491.05
  -2   2   2 9999.00  491.25
   1  -2  -2  217.68   11.70
  -1   2   2  204.98   11.80
   0  -2  -2  129.89    7.50
   0   2   2  132.09    7.80
  -1  -2  -2  182.48    9.60
   1   2   2  169.08    9.60
  -2  -2  -2  127.79    7.60
   2   2   2  127.29    7.20
  -3  -2  -2  124.29    7.40
   3   2   2  120.29    6.80
  -4  -2  -2  225.68   12.60
   4   2   2  340.27   57.09
   5   2   2   44.10   40.90
   6   2   2  106.19    7.10
   6   2   2   43.20   45.50
   6   2   2  113.59    6.80
   7   2   2  159.58    9.70
   7   2   2   19.70   47.20
   7   2   2  155.38    9.00
   8   2   2   33.50    4.30
   8   2   2   11.80   49.70
   8   2   2   28.10    3.30
   9   2   2   22.90   37.70
   9   2   2   18.40    3.50
  10   2   2   25.60    3.40
  11  -3  -2   -2.50    1.40
  10  -3  -2   61.99    4.30
   9  -3  -2   76.39    5.00
   9  -3  -2   82.89    6.40
   8  -3  -2   13.50    3.50
   8  -3  -2   10.30    1.80
   8  -3  -2   10.60    1.80
   8  -3  -2   15.90    2.90
   7  -3  -2   65.79    6.00
   6  -3  -2  529.25   27.90
   5  -3  -2  237.28   13.50
   4  -3  -2  411.36   22.00
  -4   3   2  418.26   22.30
   3  -3  -2 1590.64   82.19
  -3   3   2 1668.23   82.39
   2  -3  -2  398.46   20.70
  -2   3   2  382.86   21.00
   1  -3  -2  449.26   23.00
  -1   3   2  431.06   23.20
   0  -3  -2   11.80    2.60
   0  -3  -2   14.80    2.50
   0   3   2   15.50    2.90
  -1  -3  -2  436.46   23.20
   1   3   2  457.95   23.20
  -2  -3  -2   -1.50    2.40
   2   3   2    3.50    2.00
  -3  -3  -2  160.18    9.50
  -4  -3  -2   19.80    3.20
   4   3   2   58.19   38.50
   5   3   2   18.40    2.40
   5   3   2   26.90   40.60
   5   3   2   18.10    2.70
   6   3   2   48.10    4.20
   6   3   2   35.70   44.50
   6   3   2   49.20    4.40
   7   3   2   25.60    3.10
   7   3   2   20.80    3.70
   7   3   2    3.40   45.00
   8   3   2   15.70    2.80
   8   3   2   16.40    3.70
   8   3   2   40.20   40.70
   9   3   2   29.30    3.70
   9   3   2   21.90    2.80
  12  -4  -2    2.80    1.10
  11  -4  -2   -0.50    1.50
  10  -4  -2   62.29    4.50
   9  -4  -2   -0.40    1.60
   8  -4  -2    7.10    2.10
   8  -4  -2    7.90    1.80
   8  -4  -2   -1.00    2.90
   7  -4  -2   42.60    3.70
   7  -4  -2   39.90    4.60
   7  -4  -2   37.20    3.50
   6  -4  -2   58.19    5.90
   5  -4  -2   41.70    4.60
   4  -4  -2   81.09    6.70
  -4   4   2   80.49    7.30
   3  -4  -2  197.08   11.70
  -3   4   2  199.98   12.30
   2  -4  -2  161.68    9.60
  -2   4   2  148.19   10.10
   1  -4  -2  106.59    7.20
  -1   4   2  105.59    7.70
   0  -4  -2   32.80    3.40
   0   4   2   26.90    3.70
  -1  -4  -2  288.67   15.90
   1   4   2  301.67   16.10
  -2  -4  -2   31.40    3.60
   2   4   2   62.09   31.30
   2   4   2   25.90    3.20
   3   4   2  286.37   51.19
  -4  -4  -2   53.69    5.40
   4   4   2   89.79   44.70
   5   4   2   44.90   44.10
   5   4   2   18.30    2.50
   5   4   2   18.60    2.90
   6   4   2    2.20    2.10
   6   4   2    0.00    2.50
   6   4   2    9.10   41.90
   7   4   2   -0.50    2.90
   7   4   2    2.80    2.30
   7   4   2   15.30   38.50
   8   4   2   38.00    4.40
   8   4   2   42.50    3.90
   9   4   2   18.50    3.10
  12  -5  -2    6.00    1.30
  11  -5  -2    8.00    1.80
  10  -5  -2   11.50    2.10
   9  -5  -2    7.90    2.30
   9  -5  -2    1.10    1.70
   8  -5  -2   14.70    2.20
   8  -5  -2   10.30    2.60
   7  -5  -2   38.30    3.50
   7  -5  -2   50.59    4.10
   7  -5  -2   42.30    4.10
   7  -5  -2   39.40    5.10
   6  -5  -2    5.80    3.10
   5  -5  -2  202.28   12.40
   4  -5  -2   61.79    6.10
  -4   5   2   57.89    6.00
   3  -5  -2  160.28   10.30
  -3   5   2  153.08   10.80
   2  -5  -2  286.97   16.40
  -2   5   2  302.37   16.90
  -1   5   2    4.10    3.20
   0  -5  -2  181.88   10.70
   0   5   2  190.38   11.40
  -1  -5  -2   33.10    3.80
   1   5   2   25.30    3.80
  -2  -5  -2   26.70    3.90
   2   5   2   74.59   32.10
   2   5   2   21.80    3.40
  -3  -5  -2  240.58   14.50
   3   5   2  318.27   43.40
   4   5   2  169.98   49.60
   4   5   2  123.19    7.90
   4   5   2  140.89    7.90
   5   5   2   32.40   39.90
   6   5   2    9.90    2.90
   6   5   2    1.50    2.20
   7   5   2   14.60    2.70
   7   5   2    8.10    3.10
   8   5   2   35.20    3.40
   8   5   2   32.70    3.90
  11  -6  -2    7.50    1.80
  10  -6  -2   44.90    3.70
   9  -6  -2    3.80    2.40
   9  -6  -2    3.20    1.90
   8  -6  -2   25.00    3.50
   8  -6  -2   29.80    2.90
   7  -6  -2   81.39    5.20
   7  -6  -2   80.89    6.10
   7  -6  -2   78.09    7.40
   7  -6  -2   80.99    6.00
   6  -6  -2    3.50    3.50
   6  -6  -2    0.40    2.30
   5  -6  -2  102.99    8.40
   4  -6  -2  362.86   20.70
  -4   6   2  374.76   21.40
   3  -6  -2   49.60    5.40
  -3   6   2   53.99    6.10
  -2   6   2   73.09    7.30
  -1   6   2   44.20    5.20
   0   6   2  168.58   11.00
   1   6   2   15.60    3.70
   2   6   2    6.20    3.00
   4   6   2    0.70    1.90
   4   6   2   -3.10    2.20
   5   6   2    2.00    2.20
   5   6   2    0.90    2.40
   6   6   2   36.30    3.70
   6   6   2   44.50    4.40
   7   6   2   26.80    3.00
   7   6   2   24.30    3.50
   8   6   2   10.80    2.60
   8   6   2    9.60    2.10
  11  -7  -2    4.40    1.50
  10  -7  -2   11.90    2.20
  10  -7  -2   12.30    2.10
   9  -7  -2   18.90    3.30
   9  -7  -2   20.50    2.60
   8  -7  -2   44.30    4.40
   8  -7  -2   32.60    3.20
   7  -7  -2   24.50    2.80
   7  -7  -2   28.40    3.60
   7  -7  -2   29.90    3.60
   6  -7  -2    5.40    3.80
   6  -7  -2    8.80    2.50
   6  -7  -2    9.20    2.70
   5  -7  -2    2.50    3.80
  -5   7   2    2.40    6.60
   4  -7  -2   43.80    5.50
  -4   7   2   40.20    6.00
  -3   7   2   23.20    4.80
  -2   7   2   13.20    4.10
  -1   7   2    5.10    3.60
   0   7   2    8.20    2.10
   0   7   2    8.80    3.70
   1   7   2   12.90    1.90
   1   7   2    8.00    3.60
   2   7   2    2.80    2.10
   3   7   2   10.20    2.30
   3   7   2    7.00    2.30
   4   7   2   24.50    3.10
   5   7   2   56.89    4.80
   6   7   2   17.80    2.80
   6   7   2   21.70    3.20
   7   7   2   15.20    2.30
  11  -8  -2   15.60    1.80
  10  -8  -2    5.70    2.10
  10  -8  -2    4.30    1.70
   9  -8  -2   30.30    2.90
   9  -8  -2   27.00    3.70
   8  -8  -2   31.90    3.90
   8  -8  -2   25.20    3.00
   7  -8  -2   -0.20    2.60
   6  -8  -2  100.19    7.10
   6  -8  -2   92.59    7.00
   5  -8  -2   38.70    6.00
  -5   8   2   32.30    4.20
  -4   8   2    4.90    3.60
  -4   8   2   14.60    3.00
  -4   8   2   18.50    5.10
  -3   8   2   17.10    4.60
  -3   8   2   15.70    2.90
  -3   8   2   14.60    3.30
  -2   8   2   94.59    7.10
  -2   8   2   97.09    6.50
  -2   8   2  111.29    9.40
  -2   8   2  106.09    7.50
  -1   8   2   41.50    4.40
  -1   8   2   36.40    5.70
  -1   8   2   44.40    4.30
  -1   8   2   43.50    3.70
   0   8   2  111.39    6.50
   0   8   2  113.79    7.80
   0   8   2  114.69    9.40
   0   8   2  114.69    7.00
   1   8   2   18.80    3.20
   1   8   2   21.00    2.20
   2   8   2    0.40    2.30
   3   8   2   27.90    3.20
   3   8   2   24.90    3.20
   4   8   2    3.90    2.30
   4   8   2   -1.60    2.10
   5   8   2   38.60    3.60
   6   8   2    0.50    1.80
  10  -9  -2    2.50    1.50
  10  -9  -2    1.70    1.90
   9  -9  -2    1.50    2.70
   8  -9  -2    6.30    3.00
   7  -9  -2   -2.40    2.60
  -6   9   2    4.50    2.80
  -5   9   2    4.60    2.60
  -4   9   2   27.20    3.50
  -4   9   2   24.70    3.70
  -3   9   2  182.88   10.40
  -3   9   2  167.38   11.30
  -2   9   2    2.20    2.00
  -2   9   2    5.40    3.20
  -2   9   2    0.60    2.30
  -1   9   2    9.60    3.20
  -1   9   2    6.50    2.00
  -1   9   2   11.80    2.50
   0   9   2    4.20    2.00
   0   9   2   11.50    3.10
   1   9   2   16.80    3.20
   2   9   2   93.79    7.20
   2   9   2  115.19    6.90
   3   9   2   30.80    3.30
   3   9   2   30.80    3.50
   4   9   2   37.60    3.40
   4   9   2   37.30    3.30
   5   9   2   12.60    2.20
  10 -10  -2   -1.40    1.70
   9 -10  -2    2.80    2.40
   8 -10  -2   22.60    3.50
   7 -10  -2   22.40    3.70
  -7  10   2   22.00    3.30
  -6  10   2   30.40    3.70
  -5  10   2    3.30    2.80
  -5  10   2    6.40    2.60
  -4  10   2   66.09    5.30
  -4  10   2   66.99    5.80
  -3  10   2   36.20    3.50
  -3  10   2   28.00    4.40
  -3  10   2   35.90    4.00
  -2  10   2    0.60    2.30
  -2  10   2   -1.20    3.00
  -2  10   2    1.30    1.90
  -1  10   2   -5.30    2.80
  -1  10   2    0.20    2.00
   0  10   2    1.10    1.40
   0  10   2   -4.90    2.80
   1  10   2  118.69    8.10
   2  10   2   46.10    4.40
   2  10   2   49.70    4.10
   3  10   2    7.40    2.20
   3  10   2    7.50    2.10
   4  10   2   16.20    2.20
   9 -11  -2   37.10    3.50
   8 -11  -2    7.80    2.70
  -8  11   2    4.50    2.20
  -7  11   2   16.50    2.80
  -6  11   2   26.40    3.30
  -6  11   2   24.80    3.40
  -5  11   2   24.60    3.50
  -5  11   2   20.30    3.00
  -4  11   2   88.49    6.10
  -4  11   2   92.59    6.50
  -3  11   2    0.80    3.00
  -3  11   2    4.30    2.40
  -3  11   2    1.70    1.90
  -2  11   2    7.70    2.00
  -2  11   2    7.10    3.10
  -2  11   2    7.90    2.30
  -1  11   2   96.79    7.20
  -1  11   2   99.09    5.80
   0  11   2   16.00    3.20
   1  11   2   28.40    2.90
   1  11   2   34.30    3.60
   2  11   2    3.60    1.70
   2  11   2    5.20    2.10
  -8  12   2    1.70    1.60
  -7  12   2    5.10    2.30
  -7  12   2    6.00    1.80
  -6  12   2   10.20    2.40
  -6  12   2    7.90    2.10
  -5  12   2    4.50    2.10
  -5  12   2    6.50    2.00
  -4  12   2    0.70    1.70
  -4  12   2    0.60    2.00
  -3  12   2   43.50    4.20
  -3  12   2   43.20    3.60
  -2  12   2   -0.20    1.40
  -2  12   2    0.20    2.40
  -1  12   2   41.50    3.80
  -1  12   2   35.90    3.10
   0  12   2    6.30    2.30
   0  12   2    4.10    1.60
   1  12   2   23.70    2.60
   1  12   2   16.00    2.40
   1  12  -3   26.60    2.90
   0  12  -3   21.50    3.00
  -1  12  -3   12.80    2.90
  -2  12  -3    1.00    1.60
  -2  12  -3    0.90    2.60
  -3  12  -3   35.00    2.80
  -3  12  -3   36.30    3.40
  -4  12  -3   55.09    4.00
  -4  12  -3   52.99    4.20
  -5  12  -3   -0.20    1.60
  -5  12  -3    1.40    1.90
  -6  12  -3   34.40    3.30
  -6  12  -3   31.10    3.00
  -7  12  -3    7.40    1.70
   3  11  -3    6.50    1.90
   2  11  -3    3.90    2.30
   1  11  -3    4.30    2.70
   0  11  -3    4.40    3.00
   0  11  -3    7.40    1.50
  -1  11  -3    4.90    3.10
  -1  11  -3    4.40    1.90
  -1  11  -3   10.20    2.30
  -2  11  -3   13.50    2.60
  -2  11  -3   13.00    2.10
  -2  11  -3   15.90    3.60
  -3  11  -3   24.40    3.20
  -3  11  -3   27.10    3.00
  -4  11  -3   43.40    4.00
  -4  11  -3   46.20    4.60
  -5  11  -3    3.80    2.40
  -5  11  -3   -0.30    2.00
  -6  11  -3   37.00    3.70
  -7  11  -3    1.90    2.00
   7 -11   3    1.10    2.60
   8 -11   3    7.60    2.50
   4  10  -3    0.00    1.80
   3  10  -3    4.70    2.50
   2  10  -3   24.00    3.10
   2  10  -3   23.30    3.50
   1  10  -3    5.80    2.20
   1  10  -3    3.50    3.10
   1  10  -3    9.20    3.00
   0  10  -3   29.10    2.90
   0  10  -3   30.70    4.30
   0  10  -3   27.90    3.20
   0  10  -3   28.60    4.00
  -1  10  -3   23.00    4.10
  -1  10  -3   30.50    2.90
  -1  10  -3   30.00    3.30
  -1  10  -3   24.30    3.90
  -2  10  -3   -1.20    3.30
  -2  10  -3    4.90    2.40
  -2  10  -3    3.50    2.00
  -2  10  -3   -0.80    2.90
  -3  10  -3   44.60    4.40
  -3  10  -3   43.90    4.30
  -4  10  -3    8.30    2.60
  -4  10  -3    5.70    2.70
  -5  10  -3    1.20    2.40
  -6  10  -3   13.60    3.10
   6 -10   3   10.60    3.50
   7 -10   3   13.40    3.50
   8 -10   3    2.60    2.80
   9 -10   3   19.50    2.80
   5   9  -3   32.80    2.90
   5   9  -3   34.50    3.10
   4   9  -3   -0.90    1.80
   4   9  -3    0.10    2.30
   4   9  -3   -1.60    1.90
   3   9  -3   44.00    4.10
   3   9  -3   44.60    4.20
   3   9  -3   38.90    3.80
   2   9  -3   93.39    6.90
   2   9  -3   94.49    6.20
   2   9  -3   94.89    7.00
   1   9  -3  113.59    7.10
   1   9  -3  110.49    6.60
   1   9  -3  109.99    7.90
   0   9  -3   28.30    2.60
   0   9  -3   18.10    3.70
   0   9  -3   26.30    3.10
  -1   9  -3   35.60    3.60
  -1   9  -3   36.30    3.30
  -1   9  -3   28.50    4.30
  -2   9  -3   -1.60    3.30
  -2   9  -3   -1.00    3.10
  -2   9  -3    1.30    2.10
  -2   9  -3    2.00    2.20
  -3   9  -3   21.90    3.10
  -3   9  -3   16.30    3.00
  -4   9  -3   44.90    4.30
  -5   9  -3   20.50    3.30
   6  -9   3   16.10    3.60
   7  -9   3    9.40    3.20
   8  -9   3   12.10    3.20
   9  -9   3    5.30    1.50
   9  -9   3    1.90    2.40
  10  -9   3    0.90    1.20
   7   8  -3   63.69    4.30
   6   8  -3    3.20    2.10
   6   8  -3    5.30    2.20
   5   8  -3   35.90    3.50
   5   8  -3   29.30    3.20
   5   8  -3   34.00    3.50
   4   8  -3    2.10    2.10
   4   8  -3    2.60    2.40
   4   8  -3   -0.80    2.00
   3   8  -3    1.50    1.90
   3   8  -3   -1.30    1.80
   3   8  -3   -0.50    2.20
   2   8  -3  142.59    7.70
   2   8  -3  140.39    8.50
   2   8  -3  141.99    9.00
   1   8  -3    5.90    2.80
   1   8  -3    4.70    1.90
   0   8  -3   96.69    6.20
   0   8  -3   99.39    8.90
   0   8  -3  105.99    7.50
   0   8  -3  107.79    6.50
  -1   8  -3  138.89    8.10
  -1   8  -3  138.79    9.10
  -1   8  -3  131.69    8.30
  -1   8  -3  130.49   10.50
  -2   8  -3   18.00    4.90
  -2   8  -3   36.60    3.50
  -2   8  -3   26.80    4.80
  -2   8  -3   27.80    3.60
  -3   8  -3   52.89    4.60
  -3   8  -3   51.99    6.60
  -3   8  -3   42.60    4.40
  -4   8  -3    9.00    4.90
  -4   8  -3    0.40    2.40
   5  -8   3   98.09    7.60
   6  -8   3   10.60    3.40
   7  -8   3   10.00    3.40
   7  -8   3   12.40    2.20
   8  -8   3   40.90    4.40
   8  -8   3   37.20    3.30
   9  -8   3   10.90    1.90
   9  -8   3   12.20    2.80
  10  -8   3    1.60    1.30
   8   7  -3    7.50    2.00
   7   7  -3   37.20    3.70
   7   7  -3   43.10    3.80
   6   7  -3   -0.80    2.10
   6   7  -3   -0.40    2.30
   5   7  -3   97.89    6.50
   5   7  -3   93.19    6.30
   4   7  -3    3.60    2.10
   4   7  -3   -2.80    2.10
   4   7  -3    0.90    2.10
   4   7  -3    2.20    2.00
   3   7  -3    2.60    1.80
   3   7  -3    2.80    2.00
   3   7  -3    0.20    2.20
   2   7  -3   90.19    6.80
   2   7  -3  100.39    5.80
   2   7  -3  103.09    8.30
   2   7  -3  100.29    6.30
   1   7  -3   11.20    2.10
   1   7  -3    4.10    3.20
   0   7  -3  284.47   17.00
  -1   7  -3   13.00    4.10
  -2   7  -3   69.49    7.10
  -3   7  -3   99.49    8.80
   3  -7   3   99.09    8.80
  -4   7  -3    1.80    4.30
   4  -7   3   -2.80    4.10
   5  -7   3    1.30    3.80
   5  -7   3   -2.80    2.50
   6  -7   3   10.60    3.10
   6  -7   3   13.10    2.20
   7  -7   3   29.20    4.10
   7  -7   3   34.00    3.20
   8  -7   3    8.50    2.00
   8  -7   3   11.70    3.20
   9  -7   3   24.60    3.20
   9  -7   3   21.70    2.50
  10  -7   3    1.40    1.50
  11  -7   3   -0.70    1.20
   8   6  -3   65.79    5.00
   8   6  -3   64.79    4.70
   7   6  -3    7.70    2.70
   7   6  -3   13.50    2.70
   6   6  -3   30.90    3.40
   6   6  -3   26.30    3.50
   5   6  -3   53.79    4.60
   5   6  -3   48.70    4.40
   4   6  -3   -3.70    1.70
   4   6  -3   -1.70    1.80
   4   6  -3    1.30    2.00
   3   6  -3  150.68    8.70
   3   6  -3  151.88    9.20
   3   6  -3  169.38   10.70
   2   6  -3   37.00    4.50
   1   6  -3  198.58   12.20
   0   6  -3   60.59    6.20
  -1   6  -3  179.48   11.60
  -2   6  -3  270.57   15.80
   2  -6   3  257.37   15.70
  -3   6  -3  231.28   14.80
   3  -6   3  245.28   14.90
  -4   6  -3    3.60    4.00
   4  -6   3    1.90    3.70
   5  -6   3   75.69    7.60
   5  -6   3   58.29    6.20
   6  -6   3  180.48    9.80
   6  -6   3  170.48   10.60
   6  -6   3  181.18   12.60
   7  -6   3  132.89    8.60
   7  -6   3  128.39    7.60
   8  -6   3    8.80    2.90
   8  -6   3    4.20    1.80
   9  -6   3    6.80    1.90
   9  -6   3   12.60    2.20
  10  -6   3   12.60    1.90
  11  -6   3   -1.40    1.20
   9   5  -3    5.90    2.10
   8   5  -3   23.20    3.10
   8   5  -3   18.10    3.10
   7   5  -3   29.40    3.50
   7   5  -3   36.00    4.20
   7   5  -3   32.00    3.70
   6   5  -3    6.10    2.90
   6   5  -3    6.70    2.60
   6   5  -3    7.60    2.40
   5   5  -3   -0.10    2.00
   5   5  -3    2.70    2.10
   4   5  -3   15.70    2.30
   3   5  -3  435.46   23.10
   2   5  -3    5.10    2.80
   1   5  -3   99.69    7.30
   0   5  -3   29.60    4.00
  -1   5  -3    2.90    3.20
   1  -5   3    6.10    3.30
  -2   5  -3  383.16   21.00
   2  -5   3  376.36   21.10
  -3   5  -3   43.50    5.40
   3  -5   3   47.80    5.50
   4  -5   3   85.69    7.70
   5  -5   3  140.69   10.20
   6  -5   3  129.19    8.30
   6  -5   3  131.49    9.80
   7  -5   3   13.10    2.00
   7  -5   3   10.50    2.80
   8  -5   3    2.70    1.60
   8  -5   3   -1.00    2.30
   9  -5   3    0.80    1.60
   9  -5   3  -15.20   36.50
  10  -5   3   36.60    3.10
  11  -5   3   11.50    1.60
  10   4  -3    5.00    1.80
   9   4  -3   15.60    2.70
   8   4  -3    5.50    2.80
   8   4  -3    5.90    2.60
   7   4  -3   35.00    3.90
   7   4  -3   36.60    4.20
   7   4  -3   35.70    3.70
   6   4  -3   61.59    4.90
   6   4  -3   47.50    4.40
   6   4  -3   44.30    4.30
   5   4  -3    3.20    2.00
   5   4  -3    1.20    2.00
   5   4  -3    2.20    2.40
   3   4  -3    6.00    2.40
   2   4  -3   62.59    5.10
   1   4  -3    1.30    2.50
   0   4  -3   12.00    3.20
   0  -4   3   10.50    3.00
  -1   4  -3   82.79    6.80
   1  -4   3   87.29    7.10
  -2   4  -3   95.09    7.70
   2  -4   3  105.19    7.90
  -3   4  -3   -0.80    3.20
   3  -4   3    3.60    3.50
   4  -4   3  420.96   23.00
   5  -4   3    8.20    3.40
   6  -4   3  118.39    7.90
   6  -4   3  147.59    9.60
   7  -4   3   51.49    3.60
   7  -4   3   38.70    3.90
   7  -4   3   47.90    5.60
   8  -4   3    6.30    2.00
   8  -4   3   11.50    1.90
   9  -4   3   37.80   43.90
   9  -4   3  105.39    6.20
  10  -4   3    0.10    1.50
  11  -4   3   54.29    3.40
  10   3  -3   26.00    3.00
   9   3  -3   62.79    5.10
   8   3  -3   11.50    3.10
   8   3  -3    7.00    2.70
   8   3  -3    7.50    3.40
   7   3  -3   13.10    2.90
   7   3  -3   18.80    3.50
   7   3  -3   19.00    2.90
   6   3  -3   31.20    3.60
   6   3  -3   26.70    3.00
   6   3  -3   20.90    3.00
   6   3  -3   19.60    3.30
   5   3  -3  -13.30   27.30
   5   3  -3    0.70    2.10
   4   3  -3   78.39    5.30
   4   3  -3   75.49    5.10
   3   3  -3    6.10    1.90
   3   3  -3    2.70    1.80
   2   3  -3  343.47   18.20
   2   3  -3  352.46   18.00
   1   3  -3   60.69    3.80
   1   3  -3   60.29    4.90
  -1  -3   3   58.19    4.90
   0   3  -3  199.28   11.50
   0  -3   3  206.78   11.70
  -1   3  -3  507.45   27.00
   1  -3   3  528.35   27.20
  -2   3  -3    0.80    2.80
   2  -3   3    3.20    3.40
  -3   3  -3  129.09    8.70
   3  -3   3  127.59    9.00
   4  -3   3   94.99    7.50
   5  -3   3  104.19    7.70
   6  -3   3   52.39    5.40
   7  -3   3   91.89    7.80
   7  -3   3   94.49    5.60
   7  -3   3   94.29    5.90
   8  -3   3   22.50   44.50
   8  -3   3   33.60    3.00
   9  -3   3    1.30   41.40
  10  -3   3    3.20    1.50
  10  -3   3   -3.10   42.00
  11  -3   3   42.90    2.80
  11   2  -3   -2.20    1.90
  10   2  -3    4.50    2.40
   9   2  -3   51.69    4.70
   8   2  -3    9.00    3.40
   8   2  -3    5.30    2.70
   8   2  -3    8.70    3.00
   7   2  -3   81.09    5.70
   7   2  -3   73.49    6.40
   7   2  -3   81.29    6.10
   6   2  -3   45.30    4.00
   6   2  -3   52.39    4.80
   6   2  -3   52.79    4.90
  -6  -2   3   45.30    4.40
   5   2  -3   30.60    3.30
  -5  -2   3   36.50    3.50
   4   2  -3   15.40    2.20
   4   2  -3   15.60    2.50
  -4  -2   3   15.90    2.40
   3   2  -3  170.68    9.60
   3   2  -3  178.98    9.60
  -3  -2   3  168.28    9.50
   2   2  -3  181.18   10.00
   2   2  -3  183.58    9.90
   1   2  -3  341.97   17.10
   1   2  -3  331.57   17.50
  -1  -2   3  331.57   17.70
   0   2  -3  176.68    9.70
   0   2  -3  173.98    8.90
   0  -2   3  171.28   10.40
   1  -2   3   62.99    5.90
  -2   2  -3  114.99    7.60
   2  -2   3  120.89    8.30
  -3   2  -3  251.17   14.20
   3  -2   3  265.47   14.60
   4  -2   3    1.40    2.90
   5  -2   3   86.79    6.80
   6  -2   3   53.39    5.20
   7  -2   3  -20.00   40.40
   7  -2   3    1.40    2.50
   7  -2   3    8.00    1.60
   8  -2   3   13.20   44.90
   9  -2   3  -13.40   39.90
   9  -2   3   -3.00    1.30
  10  -2   3  -28.10   39.30
  10  -2   3    2.00    1.20
  11   1  -3    0.10    2.20
  10   1  -3  141.39    8.70
   9   1  -3  203.18   11.80
   8   1  -3   39.70    4.00
   8   1  -3   32.00    4.40
   8   1  -3   42.80    4.40
   7   1  -3    8.90    2.80
   7   1  -3    5.30    2.20
   7   1  -3    6.40    2.50
   7   1  -3   14.10    3.00
   6   1  -3   -0.20    2.30
   5   1  -3    2.90    2.30
   5   1  -3    5.80    1.80
   4   1  -3   21.10    2.30
   4   1  -3   19.30    2.60
   3   1  -3    0.70    1.70
  -3  -1   3    2.70    1.70
   2   1  -3   47.00    3.90
  -2  -1   3   51.39    3.50
  -2  -1   3   47.00    4.10
   1   1  -3   46.60    3.90
  -1  -1   3   45.70    4.60
   0   1  -3   39.80    2.60
   0  -1   3   35.30    3.80
  -1   1  -3   20.00    2.60
   1  -1   3   28.60    3.40
  -2   1  -3  141.09    8.20
   2  -1   3  141.19    8.80
   3  -1   3  438.76   23.10
  -4   1  -3   13.20    2.40
   4  -1   3    8.70    2.80
  -5   1  -3    2.00    2.30
   5  -1   3    4.70    2.60
   6  -1   3   59.29   44.20
   7  -1   3  -23.90   39.70
   7  -1   3   11.90    2.70
   7  -1   3    9.70    2.70
   8  -1   3  -16.20   43.30
   9  -1   3   11.30    3.10
   9  -1   3    5.50   49.50
  10  -1   3   -7.10   38.20
  11   0  -3   16.10    3.00
  10   0  -3  136.09    8.60
   9   0  -3   53.59    5.00
   8   0  -3    9.70    2.60
   8   0  -3   18.80    3.60
   7   0  -3    8.60    2.50
   7   0  -3    8.40    2.20
   7   0  -3    8.00    2.80
   7   0  -3   10.40    2.90
   6   0  -3   12.30    2.70
   6   0  -3   13.40    2.20
   5   0  -3   74.49    5.00
   4   0  -3   87.09    5.50
   3   0  -3  155.08    8.10
  -3   0   3  130.99    8.30
   2   0  -3  271.37   14.20
  -2   0   3  263.47   14.60
  -2   0   3  273.17   13.90
   1   0  -3   65.79    4.90
  -1   0   3   79.19    5.60
   0   0  -3   12.50    2.00
   0   0   3   12.80    2.70
  -1   0  -3  135.39    7.30
   1   0   3  127.09    7.90
   2   0   3  415.26   21.50
   3   0   3  144.29    8.50
   4   0   3  378.66   19.90
  -5   0  -3    9.90    2.50
   5   0   3   22.90   35.40
  -6   0  -3    5.90    2.50
   6   0   3    0.60   38.50
   7   0   3  -31.50   39.30
   7   0   3   10.30    2.60
   7   0   3    4.30    2.20
   8   0   3   87.59    6.40
   8   0   3   10.70   50.09
   8   0   3   92.19    6.80
   9   0   3   10.50   44.90
   9   0   3   14.20    3.30
  10   0   3    2.20    2.50
  11  -1  -3   58.19    5.20
  10  -1  -3   25.10    2.30
  10  -1  -3   19.10    3.20
   9  -1  -3   19.40    2.00
   9  -1  -3   14.20    3.00
   8  -1  -3   17.90    2.90
   8  -1  -3   22.30    2.20
   7  -1  -3  122.19    8.20
   7  -1  -3  113.19    7.80
   6  -1  -3   13.50    2.50
   5  -1  -3  192.58   10.90
   4  -1  -3   48.80    4.50
   3  -1  -3   57.59    4.90
  -3   1   3   49.80    5.00
   2  -1  -3 1335.97   68.49
  -2   1   3 1386.56   68.59
   1  -1  -3  750.72   37.00
  -1   1   3  707.43   37.10
   0  -1  -3    3.40    2.10
   0   1   3    0.70    2.20
  -1  -1  -3  133.09    7.40
   1   1   3  136.49    7.80
   2   1   3  154.78    8.80
   3   1   3  174.68    9.60
   4   1   3    2.50   28.70
   5   1   3    7.10   35.90
  -6  -1  -3    0.70    2.50
   6   1   3    0.70    2.10
   6   1   3    2.40    1.80
   6   1   3   -1.70   46.40
   7   1   3    1.60    2.00
   7   1   3   18.80   49.90
   7   1   3    0.20    2.40
   8   1   3   -3.50    2.00
   8   1   3  -31.30   42.50
   8   1   3   -1.20    2.80
   9   1   3   50.79   49.80
  10   1   3   14.60    2.70
  11  -2  -3    0.80    1.20
  10  -2  -3    6.50    3.10
  10  -2  -3    3.80    1.60
   9  -2  -3   58.19    4.00
   9  -2  -3   59.69    5.30
   8  -2  -3   19.90    3.00
   8  -2  -3   20.10    2.20
   7  -2  -3   26.70    3.70
   6  -2  -3   22.00    3.30
   5  -2  -3  115.99    7.60
   4  -2  -3   50.49    5.10
  -4   2   3   60.29    5.80
   3  -2  -3  381.26   20.20
  -3   2   3  381.86   20.40
   2  -2  -3 1613.64   81.09
  -2   2   3 1607.74   81.19
   1  -2  -3   64.79    5.30
  -1   2   3   66.59    5.50
   0  -2  -3  580.34   30.00
   0   2   3  596.84   30.20
   1   2   3    9.10    2.30
   2   2   3  895.21   45.30
   3   2   3  110.59    6.60
   4   2   3  169.78   49.40
   5   2   3   76.49   46.00
   6   2   3   61.59    4.50
   6   2   3   19.90   48.70
   6   2   3   59.89    5.10
   7   2   3    0.10   41.20
   7   2   3   31.80    3.30
   7   2   3   20.80    3.50
   8   2   3   29.60   53.49
   8   2   3   73.59    5.10
   8   2   3   55.99    5.50
   9   2   3    0.30    2.70
   9   2   3   -9.70   36.70
  10   2   3   16.60    2.80
  12  -3  -3    3.40    1.00
  11  -3  -3    0.00    1.40
  10  -3  -3    1.70    1.60
  10  -3  -3    5.70    3.20
   9  -3  -3   21.30    2.30
   9  -3  -3   20.70    3.50
   8  -3  -3   47.00    3.70
   8  -3  -3   47.90    3.60
   8  -3  -3   50.39    4.70
   8  -3  -3   50.39    5.20
   7  -3  -3    1.80    1.70
   7  -3  -3    3.30    2.80
   6  -3  -3   86.09    6.70
   5  -3  -3  239.98   13.80
   4  -3  -3  121.19    8.30
  -4   3   3  125.39    8.60
   3  -3  -3  166.98   10.20
  -3   3   3  172.28   10.60
   2  -3  -3  152.48    9.30
  -2   3   3  141.99    9.40
   1  -3  -3    9.20    3.20
  -1   3   3   12.00    3.20
   0  -3  -3  116.69    7.40
   0   3   3  123.09    7.80
   1   3   3    8.00    2.50
   2   3   3   30.40    3.20
   3   3   3   99.49   40.90
   4   3   3   49.70   40.60
   5   3   3  193.98   10.90
   5   3   3  161.28   53.39
   5   3   3  194.38   10.60
   6   3   3   13.00    2.40
   6   3   3    6.80   41.70
   6   3   3   14.90    3.00
   7   3   3  -17.60   41.50
   7   3   3    0.30    2.90
   7   3   3    5.60    2.20
   8   3   3   16.90    3.50
   8   3   3   14.40    2.70
   8   3   3   -2.70   39.90
   9   3   3    3.50    2.70
  12  -4  -3    1.80    1.10
  11  -4  -3   37.80    3.10
  10  -4  -3    3.70    1.70
   9  -4  -3   17.20    2.30
   9  -4  -3   16.20    2.10
   8  -4  -3    1.40    2.00
   8  -4  -3    0.90    1.50
   8  -4  -3   -2.60    2.80
   7  -4  -3   15.20    2.40
   7  -4  -3   20.40    3.80
   6  -4  -3  224.88   13.40
   5  -4  -3   14.30    3.60
   4  -4  -3  124.99    8.40
  -4   4   3  114.79    8.90
   3  -4  -3   13.70    3.40
  -3   4   3    7.40    3.60
   2  -4  -3    9.70    3.30
  -2   4   3    9.20    3.60
   1  -4  -3  205.38   12.20
  -1   4   3  217.68   12.50
   0   4   3   44.00    4.40
   1   4   3  187.68   11.00
   2   4   3   98.19   36.20
   2   4   3   34.80    3.70
   3   4   3   14.60   36.30
   4   4   3   99.19   49.00
   4   4   3   94.49    6.00
   4   4   3  101.39    6.30
   5   4   3   -0.40    2.20
   5   4   3    3.10    1.90
   5   4   3  -12.50   42.60
   6   4   3    4.20    2.20
   6   4   3    6.60    2.80
   6   4   3   -2.90   41.60
   7   4   3  237.58   13.00
   7   4   3   96.79   48.00
   7   4   3  241.88   13.60
   8   4   3    0.70    2.80
   8   4   3    3.70    2.30
   9   4   3    4.00    2.40
  12  -5  -3   10.30    1.40
  11  -5  -3    5.30    1.70
  10  -5  -3    4.00    1.90
   9  -5  -3   16.30    2.60
   9  -5  -3   23.10    2.60
   8  -5  -3    1.60    2.20
   8  -5  -3    1.50    1.70
   8  -5  -3    4.70    2.30
   7  -5  -3    3.00    3.10
   7  -5  -3    0.70    1.50
   7  -5  -3    2.30    2.10
   6  -5  -3  132.89    9.40
   5  -5  -3  361.96   20.20
   4  -5  -3  657.23   34.30
  -4   5   3  644.24   34.80
   3  -5  -3  322.87   18.10
  -3   5   3  320.47   18.40
   2  -5  -3   57.69    6.10
  -2   5   3   56.89    5.80
  -1   5   3  110.39    8.30
   0   5   3   -3.30    2.80
   1   5   3  305.07   17.00
   2   5   3   32.20   29.20
   3   5   3   -1.10   32.60
   4   5   3  281.67   55.19
   4   5   3  214.58   12.20
   4   5   3  230.48   12.40
   5   5   3   27.60   39.70
   5   5   3   23.70    3.30
   5   5   3   24.30    3.00
   6   5   3    1.70    2.70
   6   5   3    4.70    2.30
   7   5   3   45.50    4.60
   7   5   3   49.30    4.30
   8   5   3    4.90    2.60
   8   5   3    5.00    2.00
  12  -6  -3   19.40    1.80
  11  -6  -3   39.20    3.30
  10  -6  -3    0.40    1.80
   9  -6  -3   95.99    6.50
   9  -6  -3   91.79    6.00
   8  -6  -3    3.20    2.40
   8  -6  -3    3.00    1.70
   8  -6  -3    2.70    2.40
   7  -6  -3   49.50    8.10
   7  -6  -3   53.99    4.20
   7  -6  -3   50.29    4.90
   6  -6  -3  147.79    9.00
   6  -6  -3  147.49   10.50
   5  -6  -3   23.20    4.40
  -5   6   3   16.20    5.60
   4  -6  -3  383.06   21.50
  -4   6   3  380.76   22.00
   3  -6  -3  120.49    9.20
  -3   6   3  132.69    9.80
  -2   6   3   93.19    7.90
  -1   6   3  200.48   12.70
   0   6   3   55.79    5.70
   1   6   3  216.58   13.20
   3   6   3   17.50    2.60
   4   6   3   11.80    2.60
   4   6   3    6.80    2.20
   5   6   3    1.80    2.50
   5   6   3    5.60    2.30
   6   6   3   39.00    4.00
   6   6   3   24.00    3.20
   7   6   3   12.10    3.00
   7   6   3   11.90    2.40
  11  -7  -3   14.40    2.00
  10  -7  -3    8.80    2.10
  10  -7  -3   10.00    2.20
   9  -7  -3   16.00    2.40
   9  -7  -3   20.40    3.30
   8  -7  -3    2.20    1.80
   8  -7  -3   -3.40    2.40
   8  -7  -3    1.80    2.40
   7  -7  -3   70.19    5.20
   7  -7  -3   80.39    6.00
   6  -7  -3   11.00    4.30
   6  -7  -3    6.10    2.70
   5  -7  -3    6.40    4.20
  -5   7   3    4.30    4.60
   4  -7  -3   37.10    5.50
  -4   7   3   28.30    5.70
  -3   7   3    0.80    3.80
  -2   7   3  140.89   10.60
  -1   7   3   34.80    5.10
   0   7   3   98.49    6.40
   0   7   3   98.59    8.40
   1   7   3  115.19    6.40
   1   7   3   98.19    7.00
   1   7   3  112.59    8.90
   2   7   3   41.20    3.70
   3   7   3    9.60    2.30
   3   7   3    5.90    2.20
   4   7   3    2.80    2.20
   5   7   3   19.70    3.20
   5   7   3   21.60    2.90
   6   7   3   55.69    5.10
   6   7   3   66.39    4.70
   7   7   3    5.80    1.90
  11  -8  -3   -2.20    1.20
  10  -8  -3   17.30    2.20
  10  -8  -3   17.10    2.60
   9  -8  -3   35.20    4.00
   9  -8  -3   30.80    3.10
   8  -8  -3   95.59    6.90
   8  -8  -3   89.39    6.00
   7  -8  -3  148.59    9.00
   7  -8  -3  128.89    8.90
   6  -8  -3    1.30    2.70
  -5   8   3   15.00    8.50
  -5   8   3   15.80    3.40
  -4   8   3   63.39    7.40
  -4   8   3   61.69    5.90
  -4   8   3   55.09    5.30
  -3   8   3    1.00    2.30
  -3   8   3    0.20    2.80
  -3   8   3   -0.70    3.80
  -3   8   3   -4.20    2.80
  -2   8   3  156.08   11.50
  -2   8   3  148.09    9.00
  -2   8   3  154.88    9.70
  -2   8   3  142.29    9.60
  -1   8   3   16.40    3.00
  -1   8   3   19.70    3.30
  -1   8   3   18.70    2.50
  -1   8   3   12.30    4.50
   0   8   3   82.19    5.50
   0   8   3   71.79    6.00
   1   8   3   55.09    4.80
   1   8   3   52.09    3.50
   2   8   3  100.19    6.90
   3   8   3   36.00    3.40
   3   8   3   31.80    3.50
   4   8   3    3.40    2.10
   4   8   3    5.70    2.30
   5   8   3   30.50    3.10
   6   8   3   13.10    2.20
  10  -9  -3   46.40    3.90
   9  -9  -3    7.00    2.80
   8  -9  -3   12.60    3.20
   7  -9  -3   23.90    3.60
  -6   9   3   -2.50    2.50
  -5   9   3   11.80    3.00
  -4   9   3   55.99    4.80
  -4   9   3   39.30    4.80
  -3   9   3    3.10    3.20
  -3   9   3    0.50    2.30
  -3   9   3   -1.50    2.80
  -2   9   3   51.89    5.20
  -2   9   3   51.09    5.00
  -2   9   3   49.90    4.40
  -1   9   3    9.40    2.00
  -1   9   3   16.10    3.40
  -1   9   3    5.80    2.50
   0   9   3   65.59    5.90
   0   9   3   61.99    4.50
   1   9   3   24.80    3.50
   2   9   3    4.90    2.60
   2   9   3    2.60    2.20
   3   9   3   34.60    3.40
   3   9   3   37.60    3.70
   4   9   3   21.80    3.30
   4   9   3   17.20    2.50
   5   9   3    1.20    1.70
  10 -10  -3   10.30    2.00
   9 -10  -3    6.30    2.60
   8 -10  -3   -1.30    2.50
   7 -10  -3    9.00    2.90
  -7  10   3    6.90    2.90
  -6  10   3    9.80    2.90
  -5  10   3   33.40    4.30
  -5  10   3   38.00    4.00
  -4  10   3   23.40    3.40
  -4  10   3   17.60    3.10
  -3  10   3    5.90    2.30
  -3  10   3    3.00    2.70
  -3  10   3    2.60    3.00
  -2  10   3    2.10    1.90
  -2  10   3    1.70    3.00
  -2  10   3    3.60    2.40
  -1  10   3    2.90    2.00
  -1  10   3    3.60    3.10
   0  10   3   79.79    6.60
   1  10   3   -0.60    2.70
   2  10   3   37.20    3.90
   2  10   3   41.90    3.60
   3  10   3   13.50    2.20
   3  10   3    8.60    2.20
   4  10   3   -2.00    1.50
   9 -11  -3    6.60    2.30
  -9  11   3    7.30    3.10
   8 -11  -3   23.70    3.20
  -8  11   3   27.60    3.00
  -7  11   3    7.50    2.30
  -6  11   3   24.90    3.10
  -6  11   3   25.50    3.50
  -5  11   3   56.09    4.90
  -5  11   3   41.00    4.20
  -4  11   3    8.30    2.70
  -4  11   3   21.30    2.80
  -3  11   3   33.70    3.80
  -3  11   3   46.20    3.60
  -3  11   3   46.90    4.70
  -2  11   3    2.50    2.90
  -2  11   3    4.50    2.10
  -1  11   3   -0.40    1.30
  -1  11   3   -1.80    2.70
   0  11   3   32.90    3.80
   1  11   3   -0.10    2.30
   1  11   3    5.40    1.90
   2  11   3   44.50    3.60
   2  11   3   36.10    3.20
  -8  12   3   11.50    1.90
  -7  12   3   -0.10    1.60
  -7  12   3    2.30    2.70
  -6  12   3   36.20    3.30
  -6  12   3   40.80    3.80
  -5  12   3   -2.20    1.70
  -5  12   3   -0.40    2.00
  -4  12   3    0.10    2.00
  -4  12   3    1.30    1.60
  -3  12   3   17.60    2.30
  -3  12   3   20.70    3.10
  -2  12   3   -1.80    2.20
  -1  12   3   91.09    5.90
  -1  12   3   77.19    5.00
   0  12   3    0.50    2.00
   0  12   3    0.90    1.50
   1  12  -4   33.80    3.10
   0  12  -4   18.90    2.80
  -1  12  -4    2.40    2.40
  -1  12  -4    0.50    1.30
  -2  12  -4   24.10    2.50
  -2  12  -4   23.20    2.60
  -2  12  -4   26.30    3.80
  -3  12  -4    5.40    1.90
  -3  12  -4    9.40    1.70
  -4  12  -4   -2.00    1.60
  -4  12  -4    0.50    1.70
  -5  12  -4   65.79    4.80
  -5  12  -4   71.99    4.60
  -6  12  -4    2.20    1.60
   3  11  -4   22.80    2.50
   2  11  -4    5.00    2.30
   1  11  -4   18.70    3.20
   1  11  -4   26.10    2.70
   0  11  -4    8.10    3.00
   0  11  -4    9.50    1.60
   0  11  -4   10.90    2.30
  -1  11  -4    9.10    2.10
  -1  11  -4    8.90    3.30
  -2  11  -4   29.00    4.20
  -2  11  -4   30.90    3.30
  -2  11  -4   25.10    2.70
  -3  11  -4   35.50    3.40
  -3  11  -4   30.50    3.50
  -4  11  -4   10.10    2.70
  -4  11  -4   13.00    2.50
  -5  11  -4   -1.40    2.20
  -5  11  -4    1.60    2.10
  -6  11  -4    1.00    2.10
  -7  11  -4   21.10    2.80
   7 -11   4   30.20    3.70
   8 -11   4   12.70    2.60
   4  10  -4   27.60    2.70
   3  10  -4    4.90    2.50
   3  10  -4    8.70    2.10
   2  10  -4    8.70    2.20
   2  10  -4    9.20    2.90
   1  10  -4    7.80    3.20
   1  10  -4    6.90    2.40
   1  10  -4   10.40    1.50
   0  10  -4    3.10    2.00
   0  10  -4    0.20    3.10
  -1  10  -4   62.59    5.80
  -1  10  -4   52.79    4.20
  -1  10  -4   58.79    4.80
  -2  10  -4   79.39    7.90
  -2  10  -4  109.19    7.10
  -2  10  -4  110.79    6.70
  -3  10  -4   33.90    3.50
  -3  10  -4   27.70    3.60
  -4  10  -4    9.20    2.70
  -4  10  -4   10.90    2.70
  -5  10  -4   -1.20    2.30
  -6  10  -4   49.60    4.60
   6 -10   4   46.00    5.10
   7 -10   4   29.10    4.00
   8 -10   4   13.70    3.00
   9 -10   4   77.59    5.00
   5   9  -4   12.90    2.30
   5   9  -4   11.80    2.10
   4   9  -4   31.60    3.40
   4   9  -4   29.80    3.20
   3   9  -4   -0.30    1.90
   3   9  -4   -0.80    2.50
   2   9  -4    1.40    2.20
   2   9  -4    0.30    2.80
   1   9  -4  260.77   15.10
   1   9  -4  262.77   14.10
   1   9  -4  260.37   14.70
   1   9  -4  278.27   15.30
   0   9  -4    0.00    3.00
   0   9  -4    1.80    2.90
   0   9  -4    1.40    1.60
   0   9  -4    2.60    2.00
  -1   9  -4   17.50    3.70
  -1   9  -4   28.00    4.30
  -1   9  -4   21.20    2.70
  -1   9  -4   20.00    3.00
  -2   9  -4    3.30    2.10
  -2   9  -4    2.70    3.10
  -2   9  -4    1.10    2.30
  -2   9  -4    3.80    3.50
  -3   9  -4   18.00    3.00
  -3   9  -4   15.10    2.80
  -4   9  -4   74.29    6.00
  -5   9  -4   58.89    5.50
   6  -9   4   40.40    5.10
   7  -9   4    7.60    3.30
   8  -9   4   -2.90    2.50
   9  -9   4    6.10    1.60
   9  -9   4    4.50    2.40
   6   8  -4   27.60    3.10
   6   8  -4   31.80    3.10
   5   8  -4    4.40    2.20
   5   8  -4    5.40    2.20
   5   8  -4    3.80    2.10
   4   8  -4   54.69    5.00
   4   8  -4   52.49    4.50
   3   8  -4   -3.20    2.20
   3   8  -4    0.90    2.10
   3   8  -4    0.10    2.50
   2   8  -4  119.99    7.00
   2   8  -4  129.49    7.80
   2   8  -4  117.79    8.20
   2   8  -4  137.39    8.40
   1   8  -4   17.90    2.40
   1   8  -4   21.90    3.50
   1   8  -4   16.70    2.00
   0   8  -4   -1.10    2.80
   0   8  -4    1.30    2.00
   0   8  -4   -2.00    1.60
  -1   8  -4   65.39    4.50
  -1   8  -4   49.90    5.30
  -1   8  -4   44.30    6.40
  -1   8  -4   59.89    5.50
  -1   8  -4   58.99    4.80
  -2   8  -4   92.49    7.00
  -2   8  -4   77.39    5.80
  -2   8  -4   74.39    6.10
  -2   8  -4   82.79    7.10
  -2   8  -4   89.59    8.70
  -3   8  -4   38.20    3.90
  -3   8  -4   39.30    6.20
  -3   8  -4   42.80    4.60
  -4   8  -4  105.89    7.20
   5  -8   4   14.60    3.30
   6  -8   4   29.80    4.10
   7  -8   4   49.60    4.00
   7  -8   4   49.80    5.10
   8  -8   4   -3.20    2.70
   8  -8   4   -0.50    1.60
   9  -8   4    3.30    1.50
   9  -8   4    2.10    2.40
  10  -8   4    1.50    1.30
   7   7  -4   75.89    5.40
   7   7  -4   80.79    5.40
   6   7  -4    1.40    2.30
   6   7  -4    1.30    2.20
   5   7  -4   18.60    2.90
   5   7  -4   17.10    2.70
   5   7  -4   16.40    2.80
   4   7  -4   53.09    4.30
   4   7  -4   49.80    4.30
   4   7  -4   51.39    4.50
   3   7  -4    9.50    2.30
   3   7  -4    7.40    2.60
   3   7  -4   10.50    2.70
   2   7  -4  327.77   18.20
   2   7  -4  345.57   17.50
   2   7  -4  313.77   19.30
   2   7  -4  346.07   17.90
   1   7  -4   23.60    4.30
   1   7  -4   24.60    2.70
   0   7  -4   73.09    7.40
   0   7  -4   65.39    4.90
  -1   7  -4   53.59    6.30
  -2   7  -4    5.30    3.90
  -3   7  -4  241.58   16.20
   3  -7   4  266.17   16.20
   4  -7   4   38.50    5.90
   5  -7   4   24.90    3.90
   5  -7   4   21.30    5.30
   6  -7   4   59.69    5.50
   6  -7   4   48.40    4.10
   7  -7   4    2.30    2.90
   7  -7   4    5.50    1.90
   8  -7   4    5.00    2.90
   8  -7   4    0.50    1.70
   9  -7   4    7.20    2.20
   9  -7   4    3.10    1.70
  10  -7   4   10.40    1.70
   8   6  -4    3.00    2.30
   8   6  -4    2.30    2.10
   7   6  -4  109.19    7.30
   7   6  -4  111.99    7.10
   6   6  -4    0.10    2.20
   6   6  -4    3.60    2.40
   5   6  -4  244.18   13.60
   5   6  -4  251.07   13.60
   5   6  -4  247.88   13.70
   4   6  -4  276.47   14.50
   4   6  -4  263.77   14.60
   4   6  -4  273.77   14.50
   4   6  -4  256.57   14.40
   3   6  -4   44.00    3.90
   3   6  -4   39.70    4.80
   3   6  -4   44.20    2.90
   2   6  -4   74.69    6.60
   1   6  -4    9.50    3.30
   0   6  -4   87.39    7.40
  -1   6  -4  315.97   18.30
  -2   6  -4    3.90    3.60
   2  -6   4    4.30    3.80
  -3   6  -4   66.89    6.90
   3  -6   4   68.99    7.00
   4  -6   4   20.30    4.70
   5  -6   4   18.80    4.60
   5  -6   4   24.50    3.60
   6  -6   4   88.39    5.60
   6  -6   4   85.69    6.70
   7  -6   4   14.90    3.30
   7  -6   4    9.00    2.00
   8  -6   4   12.20    2.20
   8  -6   4   19.00    3.30
   9  -6   4   -0.20    1.60
  10  -6   4    4.70    1.60
  11  -6   4   13.60    1.60
   9   5  -4    5.30    2.00
   8   5  -4   30.70    3.40
   8   5  -4   27.20    3.50
   7   5  -4    1.40    2.60
   7   5  -4    1.70    2.40
   6   5  -4    0.00    2.10
   6   5  -4    3.30    2.30
   6   5  -4    1.50    2.80
   5   5  -4  207.28   11.80
   5   5  -4  215.08   11.80
   4   5  -4   45.80    3.90
   4   5  -4   47.80    3.90
   3   5  -4  453.05   24.30
   2   5  -4   20.60    3.60
   1   5  -4    1.00    2.90
   0   5  -4   67.39    6.40
  -1   5  -4  141.79    9.60
   1  -5   4  144.39    9.80
  -2   5  -4  158.28   10.80
   2  -5   4  164.08   11.00
  -3   5  -4  135.89   10.10
   3  -5   4  141.79   10.20
   4  -5   4   64.79    6.50
   5  -5   4  129.89   10.00
   6  -5   4    3.20    3.60
   6  -5   4    3.60    1.50
   6  -5   4    2.70    2.30
   7  -5   4   34.70    3.90
   7  -5   4   28.20    2.80
   8  -5   4    1.80    1.60
   8  -5   4    2.20    2.40
   9  -5   4   27.60   40.50
  10  -5   4   15.10    2.00
  11  -5   4    5.70    1.30
  10   4  -4   -0.70    1.80
   9   4  -4    0.90    2.10
   8   4  -4   14.70    3.00
   8   4  -4   19.60    3.30
   7   4  -4   19.50    3.10
   7   4  -4   27.30    3.40
   7   4  -4   25.00    3.80
   6   4  -4    5.00    2.80
   6   4  -4    9.20    2.40
   6   4  -4    5.30    2.40
   5   4  -4   80.79    5.50
   5   4  -4   74.09    5.90
   5   4  -4   84.19    5.50
   4   4  -4   32.90    3.40
   4   4  -4   35.60    3.60
   3   4  -4   32.20    3.70
   3   4  -4   42.40    3.80
   2   4  -4    2.80    2.60
   1   4  -4  189.28   11.10
   0   4  -4  152.68    9.80
   0  -4   4  163.98   10.10
  -1   4  -4    7.00    3.20
   1  -4   4    5.00    3.50
  -2   4  -4   -1.30    3.10
   2  -4   4   -3.10    3.40
  -3   4  -4  142.69    9.50
   3  -4   4  132.09    9.80
   4  -4   4    4.10    3.60
   5  -4   4  265.27   15.80
   6  -4   4   29.40    4.60
   6  -4   4   28.10    3.40
   7  -4   4   41.30    3.30
   7  -4   4   36.70    3.90
   8  -4   4   40.90    3.40
   9  -4   4  -23.80   36.20
   9  -4   4   -0.90    1.50
  10  -4   4    2.10   42.80
  11  -4   4    0.50    1.10
  10   3  -4    1.00    2.00
   9   3  -4   10.60    2.70
   8   3  -4   12.80    3.20
   8   3  -4   13.10    2.90
   7   3  -4   12.20    2.90
   7   3  -4    7.40    3.20
   7   3  -4   13.00    2.70
   6   3  -4   49.90    4.70
   6   3  -4   44.90    4.10
   6   3  -4   50.19    4.20
   6   3  -4   48.90    4.50
   5   3  -4  110.39    7.20
   4   3  -4   26.80    3.00
   4   3  -4   24.00    2.90
   3   3  -4    3.20    2.20
   3   3  -4    0.20    1.70
   2   3  -4  205.88   11.70
   2   3  -4  214.78   11.20
   1   3  -4   23.30    3.10
   1   3  -4   29.40    2.50
  -1  -3   4   27.40    3.50
   0   3  -4  117.29    8.10
   0  -3   4  132.29    8.80
  -1   3  -4  155.58    9.70
   1  -3   4  157.48   10.40
  -2   3  -4  443.36   23.90
   2  -3   4  458.05   24.30
  -3   3  -4    3.60    3.10
   3  -3   4    6.10    3.60
   4  -3   4  111.09    8.50
   5  -3   4  313.07   17.90
   6  -3   4   52.29    5.50
   6  -3   4   52.89    4.50
   7  -3   4  347.77   19.90
   7  -3   4  364.56   18.20
   7  -3   4  336.47   18.20
   8  -3   4  -16.30   40.70
   9  -3   4  -19.40   36.80
  10  -3   4   11.00    1.70
  10  -3   4  -17.10   40.30
  11   2  -4   -1.60    1.80
  10   2  -4   -1.80    2.10
   9   2  -4    2.50    2.60
   8   2  -4    8.90    3.00
   8   2  -4   10.90    2.80
   7   2  -4   68.09    6.00
   7   2  -4   71.99    5.60
   7   2  -4   71.39    5.30
   6   2  -4  177.78   10.80
   6   2  -4  193.18   10.90
   6   2  -4  188.08   10.50
  -6  -2   4  179.38   10.80
   5   2  -4  288.37   15.40
   5   2  -4  281.67   15.50
  -5  -2   4  280.07   15.30
   4   2  -4  137.99    8.40
   4   2  -4  149.19    8.60
  -4  -2   4  142.39    8.20
   3   2  -4    4.20    1.90
   3   2  -4    4.60    2.30
   2   2  -4    0.30    1.60
   2   2  -4    2.00    2.10
  -2  -2   4   -0.30    2.50
   1   2  -4  408.96   20.40
   1   2  -4  406.46   21.00
  -1  -2   4  388.66   21.30
   0   2  -4   74.59    4.10
   0   2  -4   79.19    5.50
   0  -2   4   81.89    6.70
  -1   2  -4   24.80    3.40
   1  -2   4   33.60    4.30
  -2   2  -4  135.49    8.80
   2  -2   4  151.58    9.50
   3  -2   4    3.00    3.20
   4  -2   4   60.99    6.10
   5  -2   4    2.80    3.00
   6  -2   4   19.60    3.70
   7  -2   4   56.59    3.80
   7  -2   4   48.00   48.60
   8  -2   4  -16.00   41.10
   8  -2   4   12.00    1.80
   9  -2   4   26.90   52.29
  10  -2   4    2.90    1.30
  11   1  -4   19.00    2.70
  10   1  -4    0.00    2.30
   9   1  -4   35.00    4.00
   8   1  -4    7.20    2.80
   8   1  -4    3.90    2.50
   7   1  -4   59.19    5.30
   7   1  -4   65.09    5.60
   7   1  -4   55.89    4.70
   7   1  -4   75.09    5.80
   6   1  -4  101.59    7.10
  -6  -1   4   89.59    6.40
   5   1  -4   45.70    4.30
   5   1  -4   58.79    4.70
  -5  -1   4   50.79    4.20
   4   1  -4   83.29    5.70
  -4  -1   4   86.09    5.40
   3   1  -4    0.90    2.10
  -3  -1   4   -0.10    1.70
   2   1  -4    3.70    2.20
  -2  -1   4    3.80    2.60
   1   1  -4   11.90    2.60
  -1  -1   4   15.20    3.30
   0   1  -4   74.69    5.40
   0  -1   4   79.69    6.40
  -1   1  -4  211.78   11.20
   1  -1   4  190.78   11.80
  -2   1  -4  507.15   26.20
   2  -1   4  507.35   26.60
  -3   1  -4   62.69    4.80
   3  -1   4   61.59    5.80
  -4   1  -4  128.99    8.00
   4  -1   4  132.59    8.70
  -5   1  -4  120.69    7.70
   5  -1   4  115.49    8.00
   6  -1   4   43.60   43.60
   7  -1   4   91.59    6.50
   7  -1   4   98.49    5.50
   7  -1   4   89.89    6.50
   7  -1   4   23.90   45.10
   8  -1   4   45.50    4.50
   8  -1   4   47.20    3.30
   8  -1   4   15.20   44.60
   9  -1   4   27.50   48.90
  11   0  -4   23.70    3.20
  10   0  -4    8.60    2.70
   9   0  -4   32.40    3.70
   8   0  -4   15.80    2.90
   7   0  -4  189.98   10.20
   7   0  -4  175.78   10.00
   7   0  -4  164.88   10.60
   7   0  -4  167.18   10.80
  -7   0   4  174.48   10.60
   6   0  -4   43.90    4.30
   6   0  -4   46.60    4.20
   5   0  -4   42.50    4.00
   4   0  -4   87.39    5.80
   3   0  -4   -0.10    2.10
  -3   0   4    1.70    1.60
  -3   0   4    0.60    2.60
   2   0  -4    3.50    2.30
  -2   0   4    2.80    1.70
  -2   0   4    2.30    3.00
   1   0  -4  151.28    8.70
  -1   0   4  141.09    9.20
   0   0  -4  128.69    7.50
   0   0   4  119.79    8.20
  -1   0  -4  306.47   15.70
   1   0   4  287.87   16.10
   2   0   4    3.80    2.50
   3   0   4   21.80    3.00
   4   0   4  196.88   11.40
  -5   0  -4    3.50    2.40
   5   0   4  -15.90   31.20
  -6   0  -4   77.69    6.50
   6   0   4   82.89    5.60
   6   0   4   18.60   42.80
   7   0   4   13.10   45.10
   8   0   4   -8.00   50.79
   9   0   4    5.20   43.90
  10   0   4   37.60    3.60
  11  -1  -4    4.50    2.70
  10  -1  -4   -1.50    2.40
  10  -1  -4   -0.40    1.30
   9  -1  -4  132.59    7.80
   9  -1  -4  149.29    8.80
   8  -1  -4    6.90    2.50
   8  -1  -4    8.50    1.70
   7  -1  -4   19.20    3.40
   7  -1  -4   19.10    3.00
   6  -1  -4   69.99    5.30
   5  -1  -4    4.40    2.30
   4  -1  -4  303.07   16.20
   3  -1  -4  196.28   11.40
  -3   1   4  209.28   11.80
   2  -1  -4  117.99    7.60
  -2   1   4  124.79    6.60
  -2   1   4  118.79    8.00
   1  -1  -4   68.29    5.30
  -1   1   4   58.29    5.50
   0  -1  -4  158.58    9.30
   0   1   4  163.98    9.50
  -1  -1  -4    8.10    2.00
   1   1   4    3.40    2.50
   2   1   4   52.69    4.80
   3   1   4  122.99    7.50
   4   1   4  166.28    9.40
   4   1   4   76.49   37.70
   5   1   4    4.40   34.40
   6   1   4  -28.40   47.90
   7   1   4    1.20    2.50
   7   1   4   -2.00   50.49
   8   1   4  -19.20   46.40
   9   1   4    8.90   43.90
   9   1   4    1.70    2.70
  10   1   4    4.30    2.20
  11  -2  -4    5.40    2.90
  11  -2  -4   -1.70    1.30
  10  -2  -4    3.40    2.70
  10  -2  -4    2.50    1.60
   9  -2  -4   16.90    2.10
   9  -2  -4   14.80    3.00
   8  -2  -4   11.60    1.90
   8  -2  -4   11.90    2.70
   7  -2  -4   99.19    7.10
   6  -2  -4    1.60    2.50
   5  -2  -4  213.88   12.40
   4  -2  -4  145.99    9.30
  -4   2   4  146.49    9.40
   3  -2  -4  123.19    8.40
  -3   2   4  131.69    8.60
   2  -2  -4  455.95   23.10
  -2   2   4  430.06   22.30
  -2   2   4  439.26   23.40
   1  -2  -4  156.18    9.30
   0  -2  -4    3.30    2.50
   0   2   4    3.00    2.70
   1   2   4  407.16   21.40
   2   2   4   20.00    2.90
   3   2   4  539.05   27.40
   3   2   4  478.25   54.79
   4   2   4   72.39   43.90
   5   2   4    2.40   44.70
   6   2   4  101.99    6.60
   6   2   4  114.19    7.10
   6   2   4   11.80   52.49
   7   2   4   -4.60   44.80
   7   2   4    8.00    2.90
   7   2   4   14.00    2.50
   8   2   4  -35.60   44.30
   9   2   4   16.90    3.10
   9   2   4   12.30   36.70
  12  -3  -4   34.60    2.40
  11  -3  -4   -0.20    1.40
  10  -3  -4   10.10    2.00
  10  -3  -4   15.10    3.40
   9  -3  -4   14.50    2.10
   9  -3  -4   14.20    3.20
   8  -3  -4   19.10    3.10
   8  -3  -4   19.60    2.30
   8  -3  -4   16.60    2.20
   8  -3  -4   13.00    3.40
   8  -3  -4   15.70    2.10
   7  -3  -4   26.50    2.70
   7  -3  -4   15.50    3.50
   6  -3  -4  195.88   11.90
   5  -3  -4  546.95   29.00
   4  -3  -4  163.78   10.20
  -4   3   4  161.78   10.60
   3  -3  -4  733.13   38.40
  -3   3   4  752.12   38.60
   2  -3  -4  181.88   10.80
  -2   3   4  182.38    9.30
  -2   3   4  172.78   11.10
   1  -3  -4   16.40    3.40
  -1   3   4   17.30    3.20
   0  -3  -4   21.20    3.20
   0   3   4   22.40    3.40
   1   3   4  292.47   15.90
   2   3   4   48.50    4.70
   3   3   4   17.10   35.70
   4   3   4    2.20   36.90
   5   3   4   56.59   47.30
   5   3   4   65.79    4.60
   5   3   4   60.89    5.00
   6   3   4   -2.80   42.20
   6   3   4    2.30    2.40
   6   3   4    0.20    1.90
   7   3   4   18.70    3.40
   7   3   4   19.20    2.80
   7   3   4  -19.60   45.80
   8   3   4   19.20   39.30
   8   3   4   55.69    4.50
   8   3   4   63.69    5.60
   9   3   4   17.30    2.90
  12  -4  -4   15.90    1.70
  11  -4  -4   22.50    2.40
  10  -4  -4    4.50    1.90
   9  -4  -4    1.30    1.70
   9  -4  -4    0.90    1.60
   9  -4  -4    0.10    3.20
   8  -4  -4   11.10    3.50
   8  -4  -4   19.80    2.60
   8  -4  -4   19.00    2.30
   7  -4  -4    2.20    1.90
   7  -4  -4    4.00    3.20
   6  -4  -4   83.09    7.30
   5  -4  -4   42.30    4.90
   4  -4  -4  413.56   22.10
  -4   4   4  392.16   22.30
   3  -4  -4   60.09    5.40
  -3   4   4   38.20    5.10
   2  -4  -4   21.70    3.80
  -2   4   4   21.60    4.00
   1  -4  -4    9.20    3.00
  -1   4   4    5.60    3.40
   0   4   4   23.90    3.70
   1   4   4   33.00    3.90
   2   4   4   65.79    5.70
   2   4   4   81.29   36.00
   3   4   4  -16.80   38.10
   4   4   4    9.30    2.30
   4   4   4   -1.80   44.10
   4   4   4    5.10    1.90
   5   4   4  123.99    7.70
   5   4   4  116.09   55.49
   5   4   4  116.79    7.20
   6   4   4  -26.50   39.60
   7   4   4   39.90    4.40
   7   4   4   -1.50   37.70
   7   4   4   38.20    3.60
   8   4   4    9.60    3.00
   8   4   4   17.10    2.40
   9   4   4    0.70    2.20
  12  -5  -4   15.80    1.70
  11  -5  -4   49.10    3.70
  10  -5  -4    0.40    1.60
   9  -5  -4   10.90    2.10
   9  -5  -4    8.70    2.40
   8  -5  -4   94.29    6.10
   8  -5  -4  102.39    6.60
   7  -5  -4    7.40    2.50
   7  -5  -4    2.20    1.70
   7  -5  -4    7.70    3.60
   6  -5  -4  102.89    8.30
   5  -5  -4  727.43   38.40
   4  -5  -4   46.80    5.40
  -4   5   4   61.99    6.30
   3  -5  -4  322.87   17.70
  -3   5   4  300.47   18.10
   2  -5  -4  180.78   11.10
  -2   5   4  179.98   11.70
  -1   5   4  259.27   15.20
   0   5   4   68.59    6.30
   1   5   4   22.90   28.50
   2   5   4   -1.80    2.80
   2   5   4   -2.30   29.90
   3   5   4  115.59    7.20
   3   5   4  222.28   47.20
   4   5   4   28.50   41.10
   4   5   4   12.50    2.30
   4   5   4   15.10    2.70
   5   5   4  164.78    9.40
   5   5   4  165.28    9.80
   5   5   4  109.49   46.80
   6   5   4   69.69    5.80
   6   5   4   64.29    5.10
   7   5   4   44.70    4.00
   7   5   4   44.60    4.60
   8   5   4    2.40    2.40
   8   5   4    3.70    1.90
  12  -6  -4   -0.80    1.10
  11  -6  -4   12.40    2.00
  10  -6  -4   12.70    2.20
  10  -6  -4   13.20    2.00
   9  -6  -4   16.90    2.40
   9  -6  -4   23.50    3.10
   8  -6  -4   31.10    3.20
   8  -6  -4   35.20    3.80
   7  -6  -4   -0.10    1.80
   7  -6  -4   -1.60    2.30
   6  -6  -4   20.10    4.30
   6  -6  -4   16.20    3.00
   5  -6  -4    1.70    3.70
  -5   6   4    5.40    4.40
   4  -6  -4   39.10    5.20
  -4   6   4   45.20    6.00
   3  -6  -4   76.99    7.40
  -3   6   4   84.29    8.10
  -2   6   4    9.10    3.90
  -1   6   4   72.19    7.30
   0   6   4   11.70    3.60
   1   6   4   10.70    3.60
   2   6   4   37.90    3.30
   3   6   4   38.00    3.40
   3   6   4   36.60    3.60
   4   6   4    7.60    2.20
   4   6   4    4.30    2.40
   5   6   4    8.50    2.30
   5   6   4    7.70    2.70
   6   6   4    7.20    2.90
   6   6   4   -1.30    2.00
   7   6   4   46.50    3.70
   7   6   4   38.80    4.00
  11  -7  -4    5.60    1.60
  10  -7  -4   -1.50    2.00
  10  -7  -4    1.70    1.70
   9  -7  -4   33.20    3.20
   9  -7  -4   33.20    3.80
   8  -7  -4   44.60    4.40
   8  -7  -4   38.70    4.30
   8  -7  -4   46.00    4.00
   7  -7  -4   27.30    3.70
   7  -7  -4   29.70    3.10
   6  -7  -4    2.80    4.00
   6  -7  -4    2.00    2.40
   5  -7  -4    5.10    4.10
  -5   7   4    0.30    4.70
   4  -7  -4   44.20    7.50
  -4   7   4   36.70    6.00
  -3   7   4   60.29    6.80
  -2   7   4   35.60    5.60
  -2   7   4   31.10    4.50
  -1   7   4   59.59    5.10
  -1   7   4   62.59    6.60
   0   7   4   -1.00    3.10
   0   7   4    2.10    2.10
   0   7   4   -2.40    2.90
   1   7   4  126.79    7.80
   1   7   4  127.49    7.30
   1   7   4  125.59    9.70
   2   7   4   76.09    5.60
   3   7   4    4.00    2.10
   3   7   4    3.10    2.20
   4   7   4   80.59    5.50
   4   7   4   68.69    5.70
   5   7   4   11.40    2.80
   5   7   4    8.10    2.30
   6   7   4    2.10    2.00
   6   7   4    1.70    2.50
  11  -8  -4    6.00    1.50
  10  -8  -4    2.00    1.70
  10  -8  -4   -0.10    2.10
   9  -8  -4   75.89    5.40
   9  -8  -4   85.99    6.30
   8  -8  -4    3.40    2.60
   8  -8  -4   -0.60    2.30
   7  -8  -4   45.20    4.40
  -5   8   4   -1.20    2.80
  -4   8   4    7.80    2.90
  -4   8   4    7.70    3.30
  -3   8   4   27.80    5.70
  -3   8   4   36.80    4.60
  -3   8   4   43.20    4.50
  -3   8   4   35.10    4.00
  -2   8   4   22.90    3.50
  -2   8   4   15.80    4.80
  -2   8   4   21.80    3.10
  -2   8   4   16.00    3.30
  -1   8   4   11.50    3.00
  -1   8   4   10.50    2.20
  -1   8   4   12.00    2.90
   0   8   4    0.60    2.00
   0   8   4    4.00    2.50
   1   8   4   92.69    6.60
   2   8   4   31.90    3.60
   3   8   4   28.20    3.40
   3   8   4   32.80    3.40
   4   8   4   12.20    2.40
   4   8   4    8.50    2.30
   5   8   4    1.00    1.80
   6   8   4    5.70    1.90
  10  -9  -4    0.80    2.00
   9  -9  -4   59.49    5.10
   8  -9  -4    8.00    2.80
   7  -9  -4   22.30    3.40
   7  -9  -4   19.40    3.40
  -6   9   4   70.99    6.10
  -5   9   4   -2.10    2.80
  -5   9   4    3.10    2.70
  -4   9   4   59.69    5.00
  -4   9   4   40.40    4.80
  -3   9   4   43.50    4.80
  -3   9   4   43.80    4.70
  -3   9   4   33.10    3.90
  -2   9   4    4.30    2.20
  -2   9   4    2.50    2.70
  -2   9   4    6.60    3.00
  -1   9   4   19.90    2.40
  -1   9   4   25.40    3.70
  -1   9   4   23.10    3.20
   0   9   4   25.00    2.60
   0   9   4   26.20    3.80
   1   9   4   19.50    3.30
   2   9   4    3.20    2.30
   2   9   4    3.50    2.60
   3   9   4   38.30    3.50
   3   9   4   42.50    3.80
   4   9   4    7.40    2.10
   5   9   4    0.20    1.80
  10 -10  -4   -2.20    1.70
   9 -10  -4    5.50    2.40
   8 -10  -4   -1.90    2.40
  -8  10   4    2.40    2.40
   7 -10  -4   42.80    4.40
  -7  10   4   45.40    4.50
  -6  10   4    1.50    2.40
  -5  10   4    7.50    2.90
  -5  10   4    5.70    2.70
  -4  10   4   35.70    3.90
  -4  10   4   40.30    4.50
  -3  10   4   22.60    3.00
  -3  10   4   24.20    3.90
  -3  10   4   24.50    3.60
  -2  10   4   55.19    5.00
  -2  10   4   59.09    4.30
  -2  10   4   57.89    5.40
  -1  10   4    1.40    1.90
  -1  10   4    1.10    2.90
   0  10   4    2.80    2.90
   1  10   4   53.09    4.80
   2  10   4   -3.70    2.30
   2  10   4   -0.40    1.80
   3  10   4   45.90    3.70
   3  10   4   45.20    3.90
   9 -11  -4   21.00    2.90
   8 -11  -4    7.10    2.50
  -8  11   4    5.20    2.00
  -7  11   4   37.40    3.60
  -6  11   4    8.60    2.40
  -6  11   4   10.00    2.70
  -5  11   4  119.09    8.10
  -5  11   4  130.19    7.70
  -4  11   4   14.40    2.50
  -4  11   4   11.30    2.70
  -3  11   4    8.40    1.90
  -3  11   4    3.40    3.00
  -3  11   4    8.30    2.50
  -2  11   4    1.40    3.00
  -2  11   4    0.70    1.90
  -1  11   4   38.10    4.20
   0  11   4   21.70    3.40
   1  11   4   -0.40    1.70
   1  11   4    2.70    2.30
   2  11   4    8.00    1.80
   2  11   4    9.80    2.00
  -7  12   4   -1.80    1.50
  -6  12   4    4.20    2.00
  -6  12   4    6.50    1.90
  -5  12   4   26.10    3.00
  -5  12   4   30.10    2.80
  -4  12   4   37.60    2.80
  -4  12   4   37.70    3.50
  -3  12   4    5.10    2.50
  -3  12   4   11.00    1.90
  -2  12   4   -2.50    2.20
  -1  12   4   20.30    2.20
  -1  12   4   21.10    2.90
   0  12   4   10.20    2.20
   0  12   4   11.90    1.90
   1  12  -5    3.60    1.80
   0  12  -5   28.80    3.00
   0  12  -5   28.20    2.60
  -1  12  -5   10.90    1.40
  -1  12  -5   10.00    1.90
  -1  12  -5    7.60    2.40
  -2  12  -5   -3.00    1.60
  -2  12  -5   -1.40    1.40
  -3  12  -5   39.80    3.30
  -3  12  -5   39.00    3.00
  -4  12  -5   77.39    4.90
  -4  12  -5   69.99    4.60
  -5  12  -5    1.90    1.50
  -5  12  -5    5.30    1.90
  -6  12  -5   -0.10    1.40
   3  11  -5    0.10    1.70
   2  11  -5   13.00    2.40
   2  11  -5    9.70    2.10
   1  11  -5   18.80    3.00
   1  11  -5   17.70    2.50
   0  11  -5    9.40    1.80
   0  11  -5   12.60    3.10
   0  11  -5   14.30    2.50
  -1  11  -5   28.30    2.90
  -1  11  -5   31.40    4.00
  -2  11  -5    7.40    2.20
  -2  11  -5    9.60    2.00
  -3  11  -5  102.89    6.60
  -3  11  -5   96.29    6.20
  -4  11  -5    5.20    2.30
  -4  11  -5    2.70    2.10
  -5  11  -5   -1.50    1.90
  -5  11  -5    2.00    2.30
  -6  11  -5    3.20    2.10
   6 -11   5    2.10    2.80
  -7  11  -5    2.30    1.90
   7 -11   5    1.20    2.40
   4  10  -5   20.80    2.50
   4  10  -5   20.70    2.50
   3  10  -5    6.60    2.40
   3  10  -5    2.20    2.00
   2  10  -5   -2.10    1.90
   2  10  -5    4.10    2.70
   1  10  -5    5.90    1.50
   1  10  -5    2.70    3.10
   1  10  -5    2.10    2.20
   0  10  -5    0.90    1.90
   0  10  -5    1.80    3.10
  -1  10  -5   15.90    2.70
  -1  10  -5   15.00    3.80
  -1  10  -5   16.90    2.30
  -2  10  -5  168.78    9.60
  -2  10  -5  159.48   10.80
  -2  10  -5  168.18   10.00
  -3  10  -5    8.10    2.50
  -3  10  -5    8.50    2.80
  -4  10  -5    6.90    2.80
  -4  10  -5    7.40    2.50
  -5  10  -5    5.30    2.50
  -6  10  -5   17.40    3.00
   6 -10   5   23.20    3.90
   7 -10   5    4.10    2.90
   8 -10   5   44.40    4.40
   5   9  -5    8.20    2.10
   5   9  -5    5.00    1.90
   4   9  -5    4.00    2.20
   4   9  -5    0.80    2.20
   3   9  -5   12.30    2.50
   3   9  -5   10.70    3.00
   2   9  -5   23.20    3.80
   2   9  -5   26.50    3.20
   1   9  -5    1.10    3.00
   1   9  -5    1.30    1.80
   0   9  -5    4.30    3.30
   0   9  -5    1.00    1.60
   0   9  -5    1.60    2.00
  -1   9  -5    0.70    1.90
  -1   9  -5    2.00    3.40
  -1   9  -5    0.60    2.20
  -2   9  -5   59.79    6.00
  -2   9  -5   67.89    5.00
  -2   9  -5   57.29    5.30
  -3   9  -5   16.70    2.80
  -3   9  -5   12.50    2.90
  -4   9  -5   38.10    4.10
  -5   9  -5    0.20    2.50
   6  -9   5    4.50    3.20
   7  -9   5   -0.10    2.80
   8  -9   5   57.89    5.40
   9  -9   5    3.40    2.10
   9  -9   5    2.50    1.80
   7   8  -5    7.90    1.90
   6   8  -5    9.60    2.30
   5   8  -5    2.60    2.10
   5   8  -5    2.90    2.10
   4   8  -5    0.10    2.20
   4   8  -5    0.20    2.30
   3   8  -5   34.30    3.60
   3   8  -5   36.80    4.10
   2   8  -5    0.60    1.60
   2   8  -5    0.60    2.70
   2   8  -5    0.90    2.20
   1   8  -5   -1.50    2.80
   1   8  -5    2.50    2.80
   1   8  -5    3.60    2.00
   1   8  -5    1.30    1.60
   0   8  -5   50.39    4.80
   0   8  -5   46.80    5.00
   0   8  -5   47.10    4.40
   0   8  -5   49.20    4.00
  -1   8  -5    1.00    1.80
  -1   8  -5    0.40    2.20
  -1   8  -5   -0.10    3.10
  -2   8  -5    3.40    4.20
  -2   8  -5    0.90    2.30
  -2   8  -5    0.50    2.00
  -3   8  -5   17.70    3.00
  -4   8  -5    2.40    2.60
   5  -8   5    3.90    3.20
   6  -8   5   -3.30    2.70
   7  -8   5   49.40    3.80
   7  -8   5   43.70    4.90
   8  -8   5   42.50    4.50
   8  -8   5   43.60    3.50
   9  -8   5    3.60    1.90
   9  -8   5    5.60    1.70
  10  -8   5   11.00    1.60
   8   7  -5    7.10    2.10
   7   7  -5    3.00    2.10
   7   7  -5    6.00    2.20
   6   7  -5    0.70    2.20
   6   7  -5   -2.90    2.10
   6   7  -5    4.70    2.40
   5   7  -5    2.40    3.10
   5   7  -5    0.80    2.10
   5   7  -5   -1.30    2.10
   4   7  -5   75.49    5.40
   4   7  -5   75.29    5.80
   3   7  -5   55.89    4.80
   3   7  -5   50.19    4.50
   2   7  -5   16.60    4.10
   2   7  -5   21.00    3.40
   2   7  -5   26.70    2.70
   2   7  -5   24.60    3.70
   1   7  -5   58.29    5.40
   1   7  -5   79.49    7.50
   1   7  -5   54.59    5.30
   1   7  -5   79.59    4.90
   1   7  -5   66.99    4.60
   0   7  -5   25.60    4.70
   0   7  -5   30.10    3.20
  -1   7  -5    2.00    3.80
  -1   7  -5    1.50    2.10
  -2   7  -5  183.48   12.90
  -3   7  -5   12.80    4.90
   3  -7   5   10.90    4.60
   4  -7   5  133.89   11.40
   5  -7   5   79.59    6.70
   6  -7   5    6.70    3.00
   6  -7   5    9.30    2.10
   7  -7   5   39.80    3.60
   7  -7   5   42.00    4.70
   8  -7   5   37.80    4.30
   8  -7   5   38.40    3.50
   9  -7   5   18.80    2.20
  10  -7   5    5.80    1.50
   8   6  -5    9.20    2.30
   7   6  -5   24.50    3.20
   7   6  -5   29.20    3.30
   6   6  -5    3.60    2.40
   6   6  -5    2.90    2.30
   5   6  -5   49.90    4.40
   5   6  -5   45.90    4.10
   5   6  -5   46.30    4.30
   4   6  -5  202.38   11.40
   4   6  -5  195.58   11.20
   3   6  -5   32.20    3.50
   3   6  -5   25.40    4.10
   3   6  -5   28.10    2.50
   3   6  -5   26.50    3.00
   2   6  -5    3.70    2.90
   2   6  -5    5.10    1.80
   1   6  -5  185.58   12.00
   0   6  -5    0.20    3.20
  -1   6  -5   32.20    5.00
  -2   6  -5  147.79   10.70
   2  -6   5  143.89   10.80
  -3   6  -5   -0.20    4.00
   3  -6   5   -2.10    4.00
   4  -6   5   39.50    5.90
   5  -6   5   48.20    6.40
   5  -6   5   54.39    5.30
   5  -6   5   52.59    4.10
   6  -6   5   37.70    3.30
   6  -6   5   34.70    4.20
   7  -6   5   20.90    2.60
   7  -6   5   24.00    3.80
   8  -6   5    2.60    1.70
   8  -6   5    2.30    2.80
   9  -6   5   -0.30   36.40
   9  -6   5    7.70    1.80
  10  -6   5   34.30    2.90
   9   5  -5   47.20    3.80
   8   5  -5   12.90    2.70
   8   5  -5   10.50    2.80
   7   5  -5   60.19    5.30
   7   5  -5   59.89    5.10
   6   5  -5   74.09    5.60
   6   5  -5   77.09    5.70
   5   5  -5   11.40    2.50
   5   5  -5    8.30    2.30
   5   5  -5    9.80    2.40
   4   5  -5  190.88   10.70
   3   5  -5   11.60    3.20
   2   5  -5  295.37   16.70
   1   5  -5  223.38   13.40
   0   5  -5    1.90    3.20
  -1   5  -5   41.90    5.00
   1  -5   5   38.10    5.20
  -2   5  -5  148.99   10.20
   2  -5   5  136.59   10.70
  -3   5  -5   37.40    5.10
   3  -5   5   28.90    5.00
   4  -5   5    8.20    4.00
   5  -5   5   16.90    4.40
   5  -5   5   19.20    3.20
   6  -5   5   37.00    3.30
   6  -5   5   31.40    3.90
   7  -5   5   25.50    3.60
   7  -5   5   15.90    2.30
   8  -5   5   13.10    2.50
   8  -5   5    8.90    2.00
   9  -5   5   -6.10   36.40
  10  -5   5   21.50    2.20
  10   4  -5   62.39    4.30
   9   4  -5   -0.90    2.20
   8   4  -5   21.40    3.30
   8   4  -5   16.00    3.10
   7   4  -5    8.70    2.80
   7   4  -5    6.00    2.60
   6   4  -5   87.89    6.30
   6   4  -5   92.59    6.10
   5   4  -5  175.68    9.80
   5   4  -5  175.28   10.40
   5   4  -5  170.18    9.90
   4   4  -5  264.37   15.30
   4   4  -5  279.37   14.90
   3   4  -5   78.59    5.30
   3   4  -5   69.69    6.20
   2   4  -5  111.69    7.50
   2   4  -5   99.99    6.20
   1   4  -5  190.28   11.50
   0   4  -5  338.67   18.80
   0  -4   5  345.27   19.10
  -1   4  -5  387.16   20.50
   1  -4   5  360.16   20.90
  -2   4  -5  272.57   15.90
   2  -4   5  278.27   16.40
  -3   4  -5   63.69    6.70
   3  -4   5   87.19    7.90
   4  -4   5   40.70    5.50
   5  -4   5   84.89    7.90
   6  -4   5    0.20    3.30
   6  -4   5    1.30    1.40
   6  -4   5   -0.20    2.40
   7  -4   5  105.99    7.30
   7  -4   5  113.39    6.60
   8  -4   5   -1.20    1.60
   9  -4   5   13.80   40.10
  10  -4   5   15.50    2.00
  10   3  -5   54.49    4.40
   9   3  -5    2.20    2.40
   8   3  -5    2.10    2.60
   8   3  -5    5.80    2.90
   7   3  -5  106.99    7.10
   7   3  -5  107.39    7.20
   6   3  -5   22.60    2.80
   6   3  -5   19.70    4.10
   6   3  -5   25.40    3.00
   5   3  -5   53.89    4.70
   4   3  -5   89.99    6.20
   4   3  -5   94.69    6.40
   3   3  -5    6.60    2.50
   3   3  -5    6.40    2.00
   2   3  -5  286.87   16.10
   2   3  -5  305.17   15.50
   1   3  -5  148.79    9.00
   1   3  -5  151.78    8.00
  -1  -3   5  144.79    9.70
   0   3  -5  276.17   15.80
   0  -3   5  298.97   16.50
  -1   3  -5  187.88   11.20
   1  -3   5  185.68   11.90
  -2   3  -5    1.20    3.00
   2  -3   5    2.30    3.90
   3  -3   5   38.30    5.00
   4  -3   5   24.50    4.30
   5  -3   5    9.30    3.60
   6  -3   5  148.59    8.50
   6  -3   5  164.48   10.70
   6  -3   5  152.68    9.20
   7  -3   5   36.20    3.20
   7  -3   5   32.50    2.90
   8  -3   5  -10.20   44.00
   9  -3   5   11.30   39.30
   9  -3   5    0.20    1.40
  10  -3   5    1.70    1.40
  11   2  -5   -5.10    1.70
  10   2  -5   -1.20    2.20
   9   2  -5  103.39    7.00
   8   2  -5   14.00    3.00
   8   2  -5   18.00    3.30
   7   2  -5   71.89    5.50
   7   2  -5   75.49    5.80
   6   2  -5  157.58    9.40
   6   2  -5  141.69    8.90
   6   2  -5  168.08    9.50
   6   2  -5  135.59    9.20
   5   2  -5   27.80    3.30
   5   2  -5   24.60    3.30
   4   2  -5  239.38   13.40
   4   2  -5  242.18   13.20
   3   2  -5   46.50    4.50
   3   2  -5   47.00    4.10
   2   2  -5  279.07   14.50
   2   2  -5  289.57   15.00
  -2  -2   5  258.67   15.30
   1   2  -5   25.60    3.20
   1   2  -5   19.90    1.90
  -1  -2   5   16.80    3.90
   0   2  -5  526.35   28.10
   0   2  -5  568.94   28.90
   0  -2   5  597.24   29.60
  -1   2  -5    3.70    2.80
   1  -2   5    0.70    3.50
  -2   2  -5  337.67   17.80
  -2   2  -5  340.07   18.40
   2  -2   5  342.57   19.00
  -3   2  -5   14.40    2.50
   3  -2   5   16.50    3.90
   4  -2   5   -1.00    3.00
   5  -2   5   -0.20    3.00
   6  -2   5    9.80    2.00
   6  -2   5   10.30    3.40
   7  -2   5   15.00   45.50
   8  -2   5   -4.10   41.80
   9  -2   5   -3.60   46.60
  10  -2   5    0.20    1.20
  11   1  -5   11.40    2.30
  10   1  -5   22.20    3.20
   9   1  -5    4.80    2.60
   8   1  -5   40.00    4.10
   7   1  -5   11.70    2.50
   7   1  -5   13.70    2.80
   6   1  -5    1.00    2.70
   6   1  -5    1.60    2.30
  -6  -1   5   -0.80    2.30
   5   1  -5   42.00    4.00
   5   1  -5   43.90    4.50
  -5  -1   5   41.30    3.80
   4   1  -5    2.20    2.30
  -4  -1   5    4.00    2.00
   3   1  -5    1.60    2.30
   2   1  -5  753.12   37.60
  -2  -1   5  716.23   37.90
   1   1  -5   -0.20    0.90
   1   1  -5    1.70    2.60
  -1  -1   5   -0.10    3.20
   0   1  -5  199.68   10.90
   0  -1   5  174.28   11.40
  -1   1  -5   97.89    5.90
   1  -1   5   65.19    6.70
  -2   1  -5  110.19    6.80
   2  -1   5   93.59    7.30
  -3   1  -5  122.69    7.50
   3  -1   5  115.19    8.30
  -4   1  -5   95.39    6.50
   4  -1   5   86.59    7.20
  -5   1  -5   79.59    6.30
   5  -1   5   81.59    6.60
   6  -1   5    5.10    2.20
   6  -1   5   -7.10   38.60
   7  -1   5   35.30    3.70
   7  -1   5   32.80    2.90
   7  -1   5    3.00   45.50
   8  -1   5   21.90   45.50
   9  -1   5    8.50   44.70
  11   0  -5   35.10    3.50
  10   0  -5   32.10    3.60
   9   0  -5   -0.50    2.40
   9   0  -5   -1.90    1.40
   8   0  -5  109.59    7.00
   8   0  -5   98.99    6.10
   7   0  -5   12.00    3.40
   7   0  -5   13.30    2.50
  -7   0   5    8.90    3.00
   6   0  -5   26.50    3.70
   6   0  -5   29.40    3.40
  -6   0   5   32.80    3.50
   5   0  -5  111.69    7.50
  -5   0   5  124.19    7.20
   4   0  -5   15.80    2.90
  -4   0   5   23.60    2.50
   3   0  -5   -0.10    2.40
  -3   0   5    4.30    3.10
  -3   0   5    0.20    1.70
   2   0  -5   11.70    2.90
  -2   0   5    8.70    3.40
   1   0  -5  128.79    8.40
  -1   0   5  146.59    9.10
   0   0  -5    0.70    2.50
   0   0   5   -1.40    2.90
  -1   0  -5  396.36   20.50
   1   0   5  385.96   20.90
   2   0   5  124.59    8.00
   3   0   5  103.09    7.10
   4   0   5   11.40    3.00
  -5   0  -5   80.59    6.30
   5   0   5   50.59   41.30
   6   0   5   24.20   40.90
   7   0   5   -9.30   40.60
   7   0   5   12.60    2.80
   8   0   5   22.60   54.39
   9   0   5   -4.00    2.30
   9   0   5  -14.80   39.50
  11  -1  -5   70.49    5.80
  11  -1  -5   81.69    4.50
  10  -1  -5   -0.10    2.40
  10  -1  -5    2.10    1.40
   9  -1  -5   12.00    1.90
   9  -1  -5    8.70    2.80
   8  -1  -5   23.10    2.50
   8  -1  -5   26.90    3.30
   7  -1  -5   92.19    6.80
   7  -1  -5   91.19    5.50
  -7   1   5  106.09    6.80
   6  -1  -5   32.40    3.70
   5  -1  -5   -1.50    2.20
   4  -1  -5   85.69    6.50
  -4   1   5   98.29    5.70
   3  -1  -5    5.50    2.80
  -3   1   5   -0.70    1.50
  -3   1   5    2.70    3.40
   2  -1  -5  329.67   18.70
  -2   1   5  371.96   19.10
   1  -1  -5    3.90    3.00
  -1   1   5    1.40    2.90
   0  -1  -5    5.60    2.60
   0   1   5    5.70    2.80
  -1  -1  -5    4.80    2.20
   1   1   5    0.90    2.70
   2   1   5    0.60    2.60
   3   1   5    5.60   30.30
   3   1   5   -0.20    2.30
   4   1   5   20.80   34.00
   4   1   5    9.60    2.60
   5   1   5   71.99    5.10
   5   1   5   30.00   40.50
   6   1   5    9.90    2.40
   6   1   5   -7.80   49.50
   7   1   5   -3.00   47.90
   7   1   5   12.70    2.90
   8   1   5    4.60   47.20
   8   1   5    9.20    3.10
   9   1   5   -6.50   41.70
   9   1   5   15.10    2.90
  11  -2  -5   34.40    2.70
  11  -2  -5   30.30    3.80
  10  -2  -5    6.90    2.80
  10  -2  -5    7.80    1.70
   9  -2  -5   24.80    3.50
   9  -2  -5   20.00    2.40
   8  -2  -5   23.40    2.20
   8  -2  -5   27.50    2.50
   8  -2  -5   26.30    4.40
   8  -2  -5   31.20    3.50
   8  -2  -5   22.70    2.10
   7  -2  -5    8.90    1.90
   7  -2  -5    7.40    2.90
   6  -2  -5  115.19    7.80
   5  -2  -5  181.58   10.90
   4  -2  -5   88.69    6.90
  -4   2   5   98.19    7.50
   3  -2  -5  174.98   11.00
  -3   2   5  191.88   10.10
  -3   2   5  205.08   11.70
   2  -2  -5   30.40    3.80
  -2   2   5   21.10    3.70
   1  -2  -5    9.60    3.20
  -1   2   5    8.90    3.10
   0  -2  -5   -0.50    2.70
   0   2   5    1.30    2.60
   1   2   5   39.60    4.00
   2   2   5 1046.50   53.29
   3   2   5   71.79    5.60
   3   2   5   48.80   35.10
   4   2   5   21.00   42.90
   5   2   5   24.10   47.90
   5   2   5   30.50    3.30
   6   2   5   -9.10   47.80
   7   2   5  -11.30   44.80
   8   2   5    4.40   47.10
   8   2   5   36.40    4.20
   9   2   5   31.40    3.40
  12  -3  -5   16.20    1.60
  11  -3  -5   24.80    2.30
  10  -3  -5   12.10    3.40
  10  -3  -5    9.70    1.90
   9  -3  -5   28.20    3.80
   9  -3  -5   32.00    2.80
   8  -3  -5   94.99    5.80
   8  -3  -5   78.49    6.40
   8  -3  -5   95.49    5.80
   7  -3  -5   98.29    6.20
   7  -3  -5   95.19    7.30
   6  -3  -5   55.29    5.60
   5  -3  -5    8.10    3.20
   4  -3  -5  220.58   12.50
  -4   3   5  197.88   12.90
   3  -3  -5  349.27   19.10
  -3   3   5  354.66   17.90
  -3   3   5  342.77   19.50
   2  -3  -5    3.00    3.10
  -2   3   5    3.50    3.20
   1  -3  -5   80.79    6.60
  -1   3   5   78.69    6.70
   0   3   5   -1.40    2.80
   1   3   5  241.58   13.70
   2   3   5   88.39    6.60
   2   3   5   92.79   39.40
   3   3   5   12.40   38.40
   3   3   5   29.20    3.80
   4   3   5  202.58   57.09
   4   3   5  246.58   13.20
   5   3   5   35.90   51.19
   5   3   5   62.49    5.30
   5   3   5   70.79    4.70
   6   3   5    9.40    2.30
   6   3   5    6.50    2.70
   6   3   5   20.80   44.30
   7   3   5   24.70    3.50
   7   3   5    0.20   45.80
   8   3   5  -11.00   34.70
   8   3   5    0.10    2.70
   9   3   5   27.90    3.10
  12  -4  -5   26.60    2.20
  11  -4  -5    4.90    1.60
  10  -4  -5    4.00    1.80
   9  -4  -5    1.30    3.30
   9  -4  -5    0.60    1.70
   9  -4  -5    1.10    1.70
   8  -4  -5   26.80    4.00
   8  -4  -5   27.10    2.70
   8  -4  -5   30.50    3.20
   7  -4  -5    3.40    1.80
   7  -4  -5    6.60    2.20
   7  -4  -5    4.50    3.20
   6  -4  -5  501.65   27.20
   5  -4  -5   87.49    7.50
   4  -4  -5   14.40    3.70
  -4   4   5   14.30    4.20
   3  -4  -5   70.79    6.60
   2  -4  -5   38.30    4.50
  -2   4   5   47.70    5.10
  -1   4   5   73.89    6.70
   0   4   5  248.18   14.30
   1   4   5  128.99   34.50
   1   4   5  110.89    7.90
   2   4   5    3.60    2.90
   2   4   5   -7.30   32.90
   3   4   5  -26.20   38.00
   3   4   5   -0.20    1.90
   4   4   5   51.49   48.60
   4   4   5  109.79    6.80
   4   4   5  101.19    6.30
   5   4   5  -18.00   41.10
   5   4   5    0.90    1.80
   5   4   5    2.00    2.40
   6   4   5   -4.80   42.40
   6   4   5   38.50    4.10
   6   4   5   34.00    3.40
   7   4   5   16.80   38.40
   7   4   5   33.70    3.20
   7   4   5   31.70    3.90
   8   4   5    8.60    2.70
  12  -5  -5    7.80    1.40
  11  -5  -5   -2.00    1.50
  10  -5  -5   12.40    2.10
   9  -5  -5   10.00    2.40
   9  -5  -5   10.40    2.20
   8  -5  -5   62.99    4.50
   8  -5  -5   54.09    5.10
   7  -5  -5   75.89    7.10
   7  -5  -5   65.09    4.90
   7  -5  -5   73.29    5.60
   6  -5  -5    0.80    2.30
   6  -5  -5   -2.00    3.10
   5  -5  -5    7.20    3.50
   4  -5  -5  113.79    8.70
  -4   5   5  109.39    9.40
   3  -5  -5    0.00    3.20
  -3   5   5    2.80    3.60
   2  -5  -5  373.36   23.10
  -2   5   5  386.06   21.40
  -1   5   5   29.30    4.40
   0   5   5    5.40    3.10
   1   5   5   82.19   31.80
   1   5   5  104.49    7.90
   2   5   5   36.30    4.60
   2   5   5   34.70   33.90
   3   5   5  272.47   14.80
   3   5   5  230.48   52.19
   3   5   5  288.07   15.00
   4   5   5   73.49   44.40
   4   5   5  115.59    7.60
   4   5   5  125.09    7.30
   5   5   5    1.80    2.00
   5   5   5    1.60    2.40
   5   5   5    9.00   40.10
   6   5   5   68.19    6.00
   6   5   5   90.39    5.70
   7   5   5   46.20    3.80
   7   5   5   43.10    4.40
   8   5   5   14.00    2.60
  12  -6  -5    2.70    1.20
  11  -6  -5   -0.10    1.50
  10  -6  -5    3.60    1.80
  10  -6  -5    5.90    1.90
   9  -6  -5    2.20    1.90
   9  -6  -5    2.70    2.40
   9  -6  -5    3.60    2.30
   8  -6  -5   85.69    5.80
   8  -6  -5   85.19    6.30
   7  -6  -5   17.60    3.20
   7  -6  -5   18.50    2.60
   6  -6  -5    3.50    2.50
   6  -6  -5    1.60    3.50
   5  -6  -5    9.80    3.90
  -5   6   5    5.80    4.60
   4  -6  -5  106.49    8.80
  -4   6   5  112.29    9.90
  -3   6   5   14.10    4.40
  -2   6   5  290.37   17.40
  -1   6   5   18.50    4.20
   0   6   5   17.60    4.00
   1   6   5   74.29    7.00
   1   6   5   64.19    4.80
   1   6   5   67.79    4.70
   2   6   5    7.90    2.30
   2   6   5    7.30    2.10
   3   6   5   -0.30    2.10
   3   6   5   -2.20    1.90
   4   6   5   66.49    5.00
   4   6   5   69.39    5.40
   5   6   5   94.99    6.30
   5   6   5   99.59    7.00
   6   6   5   62.49    4.60
   6   6   5   60.79    5.30
   7   6   5    0.30    2.40
   7   6   5    3.90    1.90
  11  -7  -5   -0.10    1.50
  10  -7  -5    3.80    1.80
  10  -7  -5    3.80    2.20
   9  -7  -5    7.10    2.10
   9  -7  -5    7.90    2.70
   8  -7  -5   26.70    2.90
   8  -7  -5   22.70    3.40
   7  -7  -5   19.10    2.70
   7  -7  -5   19.40    3.30
   6  -7  -5   24.50    3.70
   5  -7  -5   61.49    6.60
  -5   7   5   52.79    5.40
  -5   7   5   68.99    7.80
  -4   7   5   -1.90    4.10
  -3   7   5    8.20    3.20
  -3   7   5   18.90    5.00
  -2   7   5   66.89    6.00
  -2   7   5   78.09    8.10
  -1   7   5   47.20    4.30
  -1   7   5   37.20    5.60
  -1   7   5   41.60    4.10
   0   7   5   56.79    4.90
   0   7   5   58.69    6.40
   0   7   5   55.09    4.90
   0   7   5   60.19    4.10
   1   7   5   20.10    3.00
   1   7   5   24.30    2.50
   2   7   5  123.69    7.70
   3   7   5   33.00    3.30
   3   7   5   36.10    3.60
   3   7   5   32.00    3.40
   4   7   5    5.00    2.50
   4   7   5    3.30    2.10
   4   7   5    2.80    2.10
   5   7   5   62.89    5.20
   5   7   5   64.29    4.70
   6   7   5   54.69    4.00
   6   7   5   56.89    4.60
  11  -8  -5   19.80    2.00
  10  -8  -5   24.70    2.90
  10  -8  -5   27.10    2.70
   9  -8  -5   11.10    2.90
   9  -8  -5   10.70    2.20
   8  -8  -5   13.30    3.10
   8  -8  -5   11.00    3.00
   7  -8  -5   15.80    3.20
  -6   8   5  168.18   10.80
  -5   8   5   22.70    3.80
  -4   8   5    3.30    2.80
  -4   8   5    0.30    3.10
  -3   8   5   61.39    5.30
  -3   8   5   40.70    4.70
  -3   8   5   55.19    5.40
  -2   8   5    0.00    2.60
  -2   8   5    4.50    2.50
  -2   8   5    3.60    2.70
  -1   8   5   18.90    2.60
  -1   8   5   19.90    3.30
  -1   8   5   18.70    3.30
   0   8   5   87.09    6.50
   0   8   5   83.49    5.90
   1   8   5    2.20    2.50
   2   8   5   -0.90    2.30
   3   8   5   38.40    3.70
   3   8   5   34.30    3.50
   4   8   5   -0.40    1.90
   4   8   5    2.50    2.10
   5   8   5   40.00    3.50
  10  -9  -5   11.20    2.30
   9  -9  -5   30.30    3.60
   8  -9  -5   43.50    4.20
   8  -9  -5   40.10    4.20
   7  -9  -5    9.90    2.90
   7  -9  -5    6.20    2.80
  -7   9   5    2.90    2.90
  -6   9   5   33.50    4.20
  -5   9   5   25.00    3.80
  -5   9   5   30.50    4.50
  -4   9   5   17.10    3.30
  -4   9   5   13.60    3.40
  -3   9   5   10.40    3.30
  -3   9   5   11.00    2.80
  -3   9   5   10.20    3.30
  -2   9   5   -1.20    2.80
  -2   9   5    3.40    3.00
  -2   9   5    1.10    2.00
  -1   9   5    7.90    3.10
  -1   9   5   12.90    1.90
  -1   9   5   12.70    2.70
   0   9   5   -6.00    2.60
   0   9   5    3.50    1.60
   1   9   5   43.20    4.40
   2   9   5   12.50    2.90
   2   9   5    7.20    2.30
   3   9   5   -0.80    1.90
   3   9   5   -1.40    2.10
   4   9   5   22.30    2.50
   9 -10  -5   42.70    4.10
   8 -10  -5   11.00    2.80
  -8  10   5    7.80    2.60
  -7  10   5    2.50    2.50
  -6  10   5   29.20    3.70
  -5  10   5   14.40    3.50
  -5  10   5   16.80    3.20
  -4  10   5   64.29    6.10
  -4  10   5   68.09    5.40
  -3  10   5   11.80    2.50
  -3  10   5    1.90    3.00
  -3  10   5   12.00    3.00
  -2  10   5   23.30    2.40
  -2  10   5   18.90    3.60
  -2  10   5   16.90    3.00
  -1  10   5   42.00    4.50
  -1  10   5   41.50    3.60
   0  10   5  207.58   12.20
   1  10   5    4.50    2.70
   1  10   5    9.00    2.20
   2  10   5   14.90    2.30
   2  10   5   19.70    2.90
   3  10   5    1.60    1.70
   3  10   5    3.60    1.60
   8 -11  -5   41.30    3.90
  -8  11   5   27.70    3.00
  -7  11   5   -0.60    1.90
  -6  11   5   52.99    4.30
  -6  11   5   53.49    4.80
  -5  11   5   -2.80    1.90
  -5  11   5    1.90    2.40
  -4  11   5   10.70    2.60
  -4  11   5    6.90    2.10
  -3  11   5   16.60    2.70
  -3  11   5   17.60    3.50
  -3  11   5   20.00    2.10
  -2  11   5   17.20    2.30
  -2  11   5   11.80    3.30
  -1  11   5   53.59    4.90
   0  11   5   52.29    4.80
   1  11   5    0.90    1.60
   1  11   5    0.40    2.20
   2  11   5   -0.80    1.60
  -7  12   5    9.10    1.80
  -6  12   5   27.60    2.90
  -6  12   5   28.80    2.80
  -5  12   5   -1.40    1.80
  -5  12   5    0.80    1.50
  -4  12   5    4.10    1.90
  -3  12   5   40.70    4.00
  -3  12   5   50.59    3.30
  -2  12   5   17.80    2.80
  -1  12   5    0.20    2.00
  -1  12   5    4.70    1.50
   1  12  -6   16.70    2.20
   0  12  -6   30.00    3.00
   0  12  -6   31.30    2.70
  -1  12  -6    9.90    1.90
  -1  12  -6   11.50    2.40
  -2  12  -6   10.20    1.80
  -2  12  -6   12.20    2.00
  -3  12  -6    1.90    1.50
  -3  12  -6    0.50    1.40
  -4  12  -6   53.99    3.70
  -4  12  -6   58.69    4.00
  -5  12  -6    6.80    1.60
   3  11  -6    5.30    1.70
   2  11  -6    0.20    1.70
   2  11  -6    2.60    2.00
   1  11  -6   54.39    3.90
   1  11  -6   38.70    3.90
   0  11  -6   56.69    5.20
   0  11  -6   58.19    4.40
   0  11  -6   56.59    3.80
  -1  11  -6    4.40    2.80
  -1  11  -6    8.60    2.10
  -2  11  -6   59.79    4.10
  -2  11  -6   58.79    4.60
  -3  11  -6   42.70    4.10
  -3  11  -6   45.20    3.70
  -4  11  -6  105.39    7.00
  -4  11  -6  108.69    6.70
  -5  11  -6    1.30    2.00
  -5  11  -6    3.80    2.70
  -6  11  -6    6.30    2.10
   6 -11   6    5.50    2.70
  -7  11  -6   45.20    3.50
   7 -11   6   37.40    3.90
   4  10  -6   23.90    2.60
   4  10  -6   26.90    2.60
   3  10  -6    1.50    2.10
   3  10  -6    2.90    2.00
   2  10  -6    3.70    2.60
   2  10  -6    6.50    2.30
   1  10  -6   25.70    3.20
   1  10  -6   19.80    3.60
   1  10  -6   22.30    2.30
   0  10  -6    1.10    3.10
   0  10  -6    4.40    2.00
   0  10  -6    3.20    2.10
  -1  10  -6   64.89    4.60
  -1  10  -6   61.59    5.90
  -1  10  -6   65.59    5.10
  -2  10  -6    3.70    2.20
  -2  10  -6    6.80    2.30
  -3  10  -6   32.10    3.60
  -3  10  -6   37.80    3.90
  -4  10  -6   14.40    2.80
  -4  10  -6    9.60    2.70
  -5  10  -6   -0.40    2.30
  -6  10  -6   32.20    3.60
   6 -10   6   26.80    4.10
   7 -10   6   35.40    4.00
   8 -10   6   19.80    2.90
   5   9  -6   40.90    3.80
   5   9  -6   51.19    3.70
   4   9  -6   14.60    2.60
   4   9  -6   11.40    2.50
   3   9  -6    7.70    2.70
   3   9  -6   11.00    2.50
   2   9  -6   15.10    1.80
   2   9  -6   25.40    3.10
   2   9  -6   17.40    3.60
   1   9  -6   35.50    3.50
   1   9  -6   37.90    4.50
   0   9  -6   26.10    2.70
   0   9  -6   22.60    4.10
   0   9  -6   30.70    3.40
  -1   9  -6  193.38   12.00
  -1   9  -6  190.58   10.90
  -1   9  -6  181.48   10.60
  -2   9  -6   12.20    2.80
  -2   9  -6   15.40    2.70
  -3   9  -6    1.80    2.30
  -3   9  -6    3.30    2.60
  -4   9  -6    2.20    2.40
  -5   9  -6    3.00    2.60
   5  -9   6    1.60    3.20
   6  -9   6  137.79    9.40
   7  -9   6    8.40    3.30
   8  -9   6   40.30    4.00
   7   8  -6   30.50    3.00
   6   8  -6   -0.40    1.90
   6   8  -6    2.10    1.50
   5   8  -6   20.10    2.80
   5   8  -6   22.20    2.90
   4   8  -6    5.70    2.50
   4   8  -6    1.50    2.20
   3   8  -6    1.10    2.70
   3   8  -6    5.20    2.40
   2   8  -6   -1.60    2.20
   2   8  -6    1.20    3.00
   2   8  -6    1.80    1.80
   1   8  -6    1.10    1.60
   1   8  -6    3.90    2.10
   1   8  -6    1.90    3.00
   0   8  -6  116.79    7.00
   0   8  -6  111.29    8.40
   0   8  -6  112.49    7.20
  -1   8  -6    2.40    2.20
  -1   8  -6    2.50    2.00
  -1   8  -6    0.40    3.20
  -2   8  -6   36.40    3.60
  -2   8  -6   22.30    3.40
  -3   8  -6   39.20    4.00
  -4   8  -6   25.10    3.50
   5  -8   6   -0.30    2.90
   6  -8   6   25.40    4.00
   7  -8   6   53.59    5.20
   7  -8   6   46.40    4.00
   8  -8   6   16.10    3.20
   8  -8   6   13.10    2.10
   9  -8   6   17.50    2.00
   8   7  -6   -2.30    1.60
   7   7  -6   12.40    2.40
   6   7  -6    0.90    2.30
   6   7  -6    0.10    1.80
   5   7  -6   12.70    2.80
   5   7  -6   11.30    2.50
   4   7  -6   -2.40    2.10
   4   7  -6    1.50    2.40
   3   7  -6  268.47   14.90
   3   7  -6  275.77   14.60
   3   7  -6  252.87   13.70
   2   7  -6   18.20    2.40
   2   7  -6   18.60    2.50
   2   7  -6   23.00    3.60
   1   7  -6   12.20    2.30
   1   7  -6    5.80    3.10
   1   7  -6   10.40    2.00
   1   7  -6   12.10    4.10
   0   7  -6   -1.20    3.60
   0   7  -6    9.60    2.30
   0   7  -6    7.00    3.20
   0   7  -6    5.00    2.00
  -1   7  -6    6.00    2.40
  -1   7  -6    6.70    4.10
  -1   7  -6    6.00    2.10
  -2   7  -6   37.40    5.80
  -2   7  -6   25.60    3.30
  -2   7  -6   36.90    3.70
  -3   7  -6  167.98   10.30
  -3   7  -6  177.08   13.10
   3  -7   6  190.18   13.40
   4  -7   6    2.70    3.10
   5  -7   6   71.29    6.60
   6  -7   6    0.40    3.00
   6  -7   6    4.70    1.90
   7  -7   6   -3.40    2.90
   7  -7   6    3.20    1.80
   8  -7   6    6.00    2.80
   8  -7   6    5.30    1.80
   9  -7   6    8.30    1.80
  10  -7   6   30.90    2.50
   8   6  -6   -1.90    1.90
   7   6  -6   24.90    3.20
   7   6  -6   24.70    3.20
   6   6  -6   15.00    3.20
   6   6  -6    8.70    2.60
   6   6  -6   17.60    2.50
   5   6  -6   87.49    5.90
   5   6  -6   80.49    6.00
   4   6  -6   45.60    4.30
   4   6  -6   52.79    4.80
   3   6  -6   24.80    3.50
   3   6  -6   34.70    4.70
   3   6  -6   27.60    3.10
   3   6  -6   28.90    2.60
   2   6  -6   35.00    3.40
   2   6  -6   29.60    4.70
   1   6  -6    4.40    2.20
   1   6  -6    7.80    3.50
   0   6  -6  128.49    9.70
  -1   6  -6    2.20    3.40
  -2   6  -6  222.48   14.40
   2  -6   6  221.58   14.70
  -3   6  -6   46.60    6.40
   3  -6   6   65.39    7.30
   4  -6   6   21.60    3.80
   4  -6   6   24.80    5.30
   5  -6   6  189.28   11.40
   5  -6   6  181.48   10.30
   6  -6   6   -2.10    1.50
   6  -6   6    2.60    2.90
   7  -6   6    9.30    3.40
   7  -6   6    6.20    1.90
   8  -6   6   16.10    2.20
   8  -6   6   19.10    3.00
   9  -6   6   14.30    2.00
   9  -6   6   -6.10   33.50
  10  -6   6   65.29    4.00
   9   5  -6   45.50    3.80
   8   5  -6   14.00    2.80
   7   5  -6    4.70    2.50
   7   5  -6    2.70    2.50
   6   5  -6   23.00    3.10
   6   5  -6   20.00    3.00
   6   5  -6   19.90    2.60
   5   5  -6   23.30    2.80
   5   5  -6   21.80    3.00
   4   5  -6   46.00    4.10
   4   5  -6   43.90    5.10
   4   5  -6   46.80    3.10
   4   5  -6   48.00    4.00
   3   5  -6  178.48   11.20
   3   5  -6  171.38    9.60
   2   5  -6    9.80    3.30
   1   5  -6   10.60    3.50
   0   5  -6   42.90    5.00
  -1   5  -6   39.00    5.00
   1  -5   6   38.20    5.50
  -2   5  -6   14.60    4.00
   2  -5   6    9.30    4.40
  -3   5  -6   25.60    4.90
   3  -5   6   34.60    5.40
   4  -5   6   86.19    8.20
   5  -5   6  206.78   12.50
   5  -5   6  215.88   11.50
   5  -5   6  209.68   14.00
   6  -5   6   47.80    4.90
   6  -5   6   53.69    4.10
   7  -5   6    0.70    2.70
   7  -5   6   -1.90    1.60
   8  -5   6    1.50    1.60
   8  -5   6   -0.10    1.80
   9  -5   6   16.20    2.20
   9  -5   6    6.20   37.00
  10  -5   6   34.70    2.70
  10   4  -6    3.70    1.80
   9   4  -6   13.10    2.60
   8   4  -6   12.90    3.00
   7   4  -6  127.09    8.20
   7   4  -6  131.09    8.20
   6   4  -6  268.47   14.70
   6   4  -6  271.57   15.00
   6   4  -6  284.17   15.00
   5   4  -6   -1.20    2.10
   5   4  -6    3.30    2.50
   5   4  -6    5.50    2.00
   5   4  -6    0.80    1.90
   4   4  -6   96.99    6.60
   4   4  -6   99.59    7.50
   3   4  -6   12.90    3.20
   3   4  -6   10.80    2.20
   2   4  -6   24.80    3.80
   2   4  -6   24.50    2.50
   1   4  -6  780.42   40.70
   0   4  -6   52.39    5.10
   0  -4   6   50.99    5.60
  -1   4  -6  142.49   10.10
   1  -4   6  168.98   11.20
  -2   4  -6  129.39    9.60
   2  -4   6  137.69   10.20
   3  -4   6   47.70    5.90
   4  -4   6   46.70    5.90
   5  -4   6  189.98   11.20
   5  -4   6  185.68   12.60
   6  -4   6    4.10    1.60
   6  -4   6    7.10    2.90
   7  -4   6   10.40    2.60
   7  -4   6    8.90    1.90
   8  -4   6    4.10   39.80
   9  -4   6    4.60    1.70
   9  -4   6   -3.90   39.10
  10  -4   6    4.50    1.40
  10   3  -6   12.00    2.40
   9   3  -6    1.20    2.40
   8   3  -6   -3.90    2.40
   7   3  -6   75.39    5.30
   7   3  -6   57.79    4.40
   7   3  -6   64.19    5.40
   6   3  -6   97.19    6.00
   6   3  -6   85.39    5.60
   6   3  -6   83.89    6.10
   5   3  -6   53.09    4.40
   5   3  -6   37.70    4.20
   4   3  -6   18.70    2.70
   4   3  -6   15.20    3.10
   3   3  -6    8.80    2.80
   3   3  -6    4.90    1.90
   2   3  -6    9.40    2.90
   2   3  -6   10.30    1.80
   1   3  -6  456.45   23.90
  -1  -3   6  443.06   24.40
   0   3  -6    3.00    2.80
   0  -3   6    5.60    3.90
  -1   3  -6   27.50    4.10
   1  -3   6   39.10    5.30
  -2   3  -6  487.35   26.80
   2  -3   6  520.05   27.50
   3  -3   6   96.19    8.50
   4  -3   6    1.00    3.30
   5  -3   6  185.98   12.20
   5  -3   6  181.98   10.80
   6  -3   6    0.30    2.20
   6  -3   6    1.00    1.50
   6  -3   6    4.80    3.40
   7  -3   6  157.28    8.80
   8  -3   6   18.30   43.30
   9  -3   6   36.40   41.40
   9  -3   6   15.10    2.10
  10  -3   6    7.90    1.40
  11   2  -6   11.30    2.00
  10   2  -6    0.20    2.30
   9   2  -6   60.69    5.10
   8   2  -6   -0.20    2.40
   8   2  -6    3.50    1.70
   7   2  -6   90.89    5.90
   7   2  -6  107.49    6.60
   7   2  -6   85.99    6.60
   6   2  -6   57.49    4.80
   6   2  -6   64.49    5.70
   6   2  -6   55.29    4.50
   5   2  -6   -2.10    2.30
   5   2  -6   -1.80    2.30
   4   2  -6  166.78    9.70
   4   2  -6  163.98   10.00
   3   2  -6   19.40    3.10
   3   2  -6   18.20    2.50
   2   2  -6   65.69    4.30
   2   2  -6   64.49    5.30
  -2  -2   6   57.29    5.60
   1   2  -6   76.19    6.10
   1   2  -6   75.09    4.60
  -1  -2   6   86.49    7.60
   0   2  -6   12.50    3.00
   0  -2   6   13.40    4.10
  -1   2  -6   80.09    6.20
   1  -2   6   64.79    6.80
  -2   2  -6   39.90    4.20
  -2   2  -6   43.60    3.50
   2  -2   6   26.90    4.60
  -3   2  -6   66.39    5.30
   3  -2   6   64.09    6.70
   4  -2   6   32.20    4.70
   5  -2   6   11.00    2.40
   5  -2   6   10.60    3.60
   6  -2   6   84.39    5.40
   6  -2   6   92.09    7.70
   6  -2   6   88.89    5.30
   7  -2   6    0.50   43.30
   8  -2   6   10.10   44.00
   8  -2   6    0.70    1.60
   9  -2   6   31.50    2.80
   9  -2   6   21.00   49.99
  10  -2   6    6.10    1.20
  11   1  -6    3.40    2.00
  10   1  -6   -1.80    2.40
   9   1  -6   92.39    5.70
   9   1  -6  100.49    6.80
   8   1  -6   -0.60    2.30
   8   1  -6   -1.10    1.60
   7   1  -6  233.88   12.50
   7   1  -6  213.88   12.00
   6   1  -6   41.50    4.40
   6   1  -6   34.40    4.00
   5   1  -6    6.30    2.60
   5   1  -6    3.20    2.50
   4   1  -6   26.90    3.50
   3   1  -6    8.90    2.60
   2   1  -6  297.57   16.50
  -2  -1   6  310.27   17.10
   1   1  -6  673.13   34.00
   1   1  -6  684.43   34.90
  -1  -1   6  671.83   35.40
   0   1  -6  173.98   10.40
   0  -1   6  172.98   10.90
  -1   1  -6   65.89    5.20
   1  -1   6   59.29    6.00
   2  -1   6  342.27   18.80
  -3   1  -6   78.79    5.60
   3  -1   6   63.69    6.30
  -4   1  -6   76.49    6.10
   4  -1   6   86.19    7.20
  -5   1  -6   64.59    5.60
   5  -1   6   67.09    6.50
   6  -1   6   -6.90   39.50
   7  -1   6    5.80   44.60
   8  -1   6    0.20   49.90
   8  -1   6   -0.40    1.40
   9  -1   6   23.70    2.20
   9  -1   6   21.70   44.10
  11   0  -6   36.90    3.50
  10   0  -6   12.20    2.90
  10   0  -6   18.80    2.00
   9   0  -6    2.00    2.50
   9   0  -6    3.10    1.60
   8   0  -6   13.60    2.90
   8   0  -6   11.00    2.00
   7   0  -6  224.88   12.50
   7   0  -6  196.58   11.20
   7   0  -6  202.78   12.30
   7   0  -6  202.18   11.50
   6   0  -6   83.19    6.50
  -6   0   6   89.59    6.20
   5   0  -6   25.00    3.40
  -5   0   6   24.80    3.00
   4   0  -6  150.08    9.00
  -4   0   6  138.69    8.20
   3   0  -6   71.59    5.90
  -3   0   6   64.29    6.70
   2   0  -6  179.78   10.70
  -2   0   6  177.98   11.20
   1   0  -6  121.59    8.10
  -1   0   6  128.69    8.70
   0   0  -6   -0.80    2.60
   0   0   6    2.10    2.90
  -1   0  -6  388.56   20.50
   1   0   6  388.46   21.00
   2   0   6   33.50    4.00
   3   0   6   53.79    5.30
   4   0   6    2.60    2.80
   4   0   6    7.80   34.80
  -5   0  -6    0.40    2.70
   5   0   6    4.90    1.90
   5   0   6   21.30   40.00
   6   0   6   36.50    3.50
   6   0   6   48.10   46.10
   6   0   6   32.90    2.90
   7   0   6    8.70    2.70
   7   0   6   10.90    1.60
   7   0   6   -1.60   53.19
   8   0   6  -15.20   47.10
   9   0   6   15.50   40.20
   9   0   6   -2.20    2.00
  11  -1  -6    3.00    2.60
  11  -1  -6    1.00    1.20
  10  -1  -6    2.00    2.50
  10  -1  -6   -0.60    1.40
   9  -1  -6    0.20    2.50
   9  -1  -6    1.40    1.50
   8  -1  -6   48.50    4.50
   8  -1  -6   42.10    3.70
   7  -1  -6  270.27   15.00
   7  -1  -6  282.57   15.70
   7  -1  -6  272.67   14.50
  -7   1   6  279.47   15.40
   6  -1  -6    0.90    2.40
  -6   1   6    1.70    2.20
   5  -1  -6    9.30    2.80
  -5   1   6   16.60    2.50
   4  -1  -6   -1.20    2.60
  -4   1   6   -0.50    1.80
   3  -1  -6   27.20    3.90
  -3   1   6   49.40    5.00
   2  -1  -6   -1.10    3.00
  -2   1   6    3.60    3.40
   1  -1  -6   11.40    3.50
  -1   1   6   17.20    3.70
   0  -1  -6  332.47   18.30
   0   1   6  345.87   18.60
   1   1   6    9.00    3.20
   2   1   6   10.60    3.00
   3   1   6   15.70   32.80
   4   1   6   47.40    4.70
   4   1   6   20.60   37.30
   5   1   6   43.90   42.90
   6   1   6   -7.50   51.09
   6   1   6   21.40    2.90
   7   1   6   18.30   51.69
   7   1   6   29.80    3.70
   8   1   6   -7.60   44.40
   9   1   6   10.40    2.50
  11  -2  -6   16.10    3.20
  11  -2  -6   12.60    1.80
  10  -2  -6   19.10    2.20
  10  -2  -6   16.10    3.20
   9  -2  -6    0.10    1.60
   9  -2  -6   -1.30    2.40
   8  -2  -6    3.50    1.50
   8  -2  -6    6.50    2.60
   8  -2  -6    4.70    1.80
   7  -2  -6   22.80    2.70
   7  -2  -6   21.90    3.70
  -7   2   6   27.30    3.60
   6  -2  -6    3.20    2.70
  -6   2   6    5.00    2.30
   5  -2  -6  234.08   13.00
  -5   2   6  211.58   12.10
   4  -2  -6  133.69    8.40
  -4   2   6  116.79    7.00
  -4   2   6  119.49    9.00
   3  -2  -6    2.80    3.10
  -3   2   6   -2.50    3.30
   2  -2  -6   29.20    4.20
  -2   2   6   33.80    4.40
   1  -2  -6  163.08   10.50
  -1   2   6  169.48   10.50
   0  -2  -6    6.20    2.80
   0   2   6    2.20    3.00
   1   2   6   21.80    3.50
   2   2   6  150.68   41.90
   2   2   6  330.87   17.20
   3   2   6   43.50   42.60
   3   2   6  107.09    7.40
   4   2   6   28.50   45.10
   4   2   6   27.60    2.90
   5   2   6   14.80   48.10
   6   2   6   41.80    4.00
   6   2   6   23.80   49.99
   7   2   6   33.10   46.90
   7   2   6   79.39    6.10
   8   2   6   45.90   47.00
   8   2   6   70.49    5.60
   9   2   6    5.40    2.10
  12  -3  -6    0.60    1.10
  11  -3  -6   69.19    4.50
  10  -3  -6   22.20    2.40
  10  -3  -6   14.60    3.50
   9  -3  -6   10.80    2.10
   9  -3  -6   10.90    3.10
   8  -3  -6   70.99    5.70
   8  -3  -6   61.89    4.80
   8  -3  -6   78.09    5.00
   7  -3  -6   10.70    2.40
   7  -3  -6    5.80    3.10
   7  -3  -6    7.30    1.90
   6  -3  -6    1.40    2.90
   5  -3  -6  364.96   19.60
  -5   3   6  343.77   18.50
   4  -3  -6  250.97   14.20
  -4   3   6  240.28   12.80
  -4   3   6  238.58   14.70
   3  -3  -6  290.17   16.00
  -3   3   6  278.97   16.60
   2  -3  -6  286.77   16.40
  -2   3   6  296.07   16.70
   1  -3  -6    7.00    3.30
  -1   3   6   12.70    3.40
   0   3   6   10.70    3.20
   1   3   6   69.79    6.10
   2   3   6  130.49   41.40
   2   3   6  151.78    9.70
   3   3   6   54.39    5.40
   3   3   6   35.10   41.90
   4   3   6   14.40    2.50
   4   3   6    5.80   42.60
   5   3   6   18.20    2.90
   5   3   6    3.20   44.50
   6   3   6    8.90    2.70
   6   3   6   -5.30   40.40
   7   3   6   22.80   45.30
   7   3   6    1.40    2.60
   8   3   6   20.90    3.20
  12  -4  -6   -0.90    1.10
  11  -4  -6   12.30    1.90
  10  -4  -6   16.10    2.30
   9  -4  -6    6.30    1.90
   9  -4  -6    5.90    1.90
   9  -4  -6    6.20    2.00
   9  -4  -6    3.20    3.40
   8  -4  -6   22.60    2.70
   8  -4  -6   29.30    3.30
   7  -4  -6   15.50    2.40
   7  -4  -6   22.60    3.20
   7  -4  -6   20.00    3.90
   6  -4  -6   86.09    7.40
   5  -4  -6    4.40    3.30
   4  -4  -6   47.80    5.20
  -4   4   6   48.50    5.80
   3  -4  -6  288.87   17.20
  -3   4   6  317.47   17.80
   2  -4  -6   22.30    4.00
  -2   4   6   19.30    4.30
  -1   4   6   62.89    6.50
   0   4   6   14.80    3.50
   1   4   6  178.88   37.00
   1   4   6  176.28   11.10
   2   4   6   75.69    6.60
   2   4   6   45.30   39.60
   3   4   6   -1.00    2.00
   3   4   6  -16.20   41.00
   4   4   6    6.60    1.90
   4   4   6   25.20   48.20
   4   4   6   12.00    2.50
   5   4   6   -9.40   42.30
   5   4   6   13.40    2.40
   5   4   6    9.20    2.70
   6   4   6   20.60   40.60
   6   4   6   13.90    3.00
   7   4   6   13.20    3.00
   7   4   6  -11.70   34.30
   8   4   6   19.70    2.90
  12  -5  -6   -1.00    1.20
  11  -5  -6    5.70    1.70
  10  -5  -6    9.90    2.10
   9  -5  -6   16.90    2.70
   9  -5  -6   20.50    2.80
   9  -5  -6   20.70    2.60
   8  -5  -6  148.89    8.60
   8  -5  -6  144.79    9.00
   7  -5  -6   23.40    3.40
   7  -5  -6   24.60    2.90
   6  -5  -6   -0.50    3.20
   6  -5  -6   -1.40    2.30
   5  -5  -6   49.40    5.40
   4  -5  -6   32.70    4.70
  -4   5   6   30.80    5.50
   3  -5  -6  145.79   10.60
  -3   5   6  180.48   11.50
  -2   5   6    4.30    3.60
  -1   5   6  317.67   18.40
   0   5   6   29.20    4.40
   1   5   6   -8.50   27.50
   1   5   6    6.90    3.20
   2   5   6   18.30   31.50
   2   5   6   62.79    6.40
   2   5   6   54.29    4.50
   2   5   6   56.09    3.70
   3   5   6   24.50   37.80
   3   5   6   23.20    3.00
   3   5   6   24.40    2.80
   4   5   6   -2.30   37.70
   4   5   6   14.70    2.80
   4   5   6   11.40    2.50
   4   5   6   15.40    2.40
   5   5   6  204.88   11.50
   5   5   6  104.39   45.30
   5   5   6  219.18   12.00
   6   5   6    0.70    2.00
   6   5   6    1.00    2.60
   7   5   6   63.99    5.20
  11  -6  -6   32.50    3.00
  10  -6  -6    4.40    1.90
  10  -6  -6    3.60    1.80
   9  -6  -6   57.89    4.60
   9  -6  -6   60.69    5.00
   9  -6  -6   53.49    4.80
   8  -6  -6   10.90    2.30
   8  -6  -6    7.10    2.70
   7  -6  -6   11.20    2.90
   7  -6  -6   10.30    2.30
   6  -6  -6   20.30    4.40
   6  -6  -6   15.70    3.20
   5  -6  -6   26.10    4.90
  -5   6   6   22.60    5.80
   4  -6  -6   53.69    5.90
  -4   6   6   59.09    7.10
  -3   6   6   12.30    4.40
  -2   6   6   24.50    4.70
  -1   6   6   57.99    6.30
  -1   6   6   63.79    5.50
   0   6   6   19.70    3.10
   0   6   6   12.00    3.80
   1   6   6   31.90    3.20
   1   6   6   32.00    3.10
   1   6   6   31.90    4.90
   1   6   6   32.60    3.50
   2   6   6    9.10    2.40
   2   6   6   12.10    2.60
   3   6   6   12.60    2.30
   3   6   6    9.90    2.50
   3   6   6    6.20    2.50
   4   6   6   56.09    4.50
   4   6   6   55.49    5.00
   4   6   6   57.99    4.60
   5   6   6   15.50    2.50
   5   6   6   12.90    3.00
   6   6   6    3.20    1.90
   6   6   6    2.20    2.60
   7   6   6   15.20    2.60
  11  -7  -6   10.40    1.80
  10  -7  -6    1.70    1.80
  10  -7  -6    0.80    2.00
   9  -7  -6   60.99    4.90
   9  -7  -6   57.49    5.20
   9  -7  -6   57.29    4.50
   8  -7  -6    2.90    2.60
   8  -7  -6   -2.00    1.90
   7  -7  -6  136.99    8.90
   6  -7  -6   -0.30    2.70
   5  -7  -6    7.30    4.70
  -5   7   6    8.10    5.40
  -5   7   6    3.50    3.00
  -4   7   6  148.29   11.20
  -4   7   6  120.29    8.50
  -4   7   6  114.79    8.70
  -3   7   6   -3.70    3.00
  -3   7   6   -2.20    2.50
  -3   7   6   -5.00    3.80
  -2   7   6   66.89    7.10
  -2   7   6   55.49    5.40
  -2   7   6   56.89    5.00
  -1   7   6   27.30    3.40
  -1   7   6   31.10    5.40
  -1   7   6   35.80    4.10
  -1   7   6   36.10    3.70
   0   7   6    5.60    2.50
   0   7   6    4.70    1.70
   0   7   6    3.10    2.30
   1   7   6   78.39    6.00
   1   7   6   79.59    5.00
   2   7   6   -0.40    2.20
   2   7   6    4.00    2.10
   3   7   6   50.69    4.70
   3   7   6   55.59    4.50
   3   7   6   52.09    4.70
   4   7   6   67.69    5.00
   4   7   6   72.29    5.40
   4   7   6   67.79    4.90
   5   7   6    1.40    2.50
   5   7   6    3.40    2.00
   6   7   6    4.40    2.30
  11  -8  -6    2.90    1.40
  10  -8  -6    9.00    2.30
  10  -8  -6    7.80    1.90
   9  -8  -6   12.40    2.90
   8  -8  -6   -2.20    2.40
   7  -8  -6    8.30    2.90
  -6   8   6    4.20    3.10
  -5   8   6   53.09    5.20
  -4   8   6   24.30    4.00
  -4   8   6   21.40    3.70
  -3   8   6    7.60    3.20
  -3   8   6    6.40    2.90
  -3   8   6   11.10    3.10
  -2   8   6    3.20    2.90
  -2   8   6    3.90    2.50
  -2   8   6    4.40    2.70
  -1   8   6   44.40    3.80
  -1   8   6   39.80    4.30
  -1   8   6   42.60    4.40
   0   8   6   60.09    4.90
   0   8   6   65.89    5.60
   1   8   6  133.59    8.60
   2   8   6   23.20    3.30
   3   8   6   50.49    4.20
   3   8   6   51.49    4.40
   4   8   6   27.40    2.90
   4   8   6   27.10    2.80
   5   8   6   -0.80    1.60
  10  -9  -6   24.10    2.70
   9  -9  -6    4.20    2.40
   8  -9  -6   -0.80    2.40
   8  -9  -6   -1.50    2.20
   7  -9  -6    2.80    2.60
  -7   9   6    6.20    3.10
  -6   9   6    8.50    3.20
  -5   9   6   16.70    3.60
  -5   9   6   14.70    3.60
  -4   9   6    5.00    3.20
  -4   9   6    3.30    2.70
  -3   9   6    3.50    2.80
  -3   9   6   -1.20    2.40
  -3   9   6    3.10    3.10
  -2   9   6   -0.20    2.80
  -2   9   6   -3.20    1.90
  -2   9   6    2.80    2.90
  -1   9   6    1.30    2.80
  -1   9   6    3.80    2.30
   0   9   6   -0.10    2.80
   0   9   6   -0.10    1.30
   1   9   6   38.70    4.30
   2   9   6   34.40    3.70
   2   9   6   25.20    3.00
   3   9   6    9.10    2.10
   3   9   6   10.00    2.30
   4   9   6    1.40    1.60
   9 -10  -6    0.40    2.10
   8 -10  -6   35.90    3.70
  -8  10   6   32.90    3.60
  -7  10   6   16.50    3.00
  -6  10   6    4.80    3.00
  -6  10   6   -0.30    2.50
  -5  10   6   28.50    3.70
  -5  10   6   35.80    4.30
  -4  10   6    2.80    2.50
  -4  10   6    0.20    2.70
  -3  10   6    6.30    2.70
  -3  10   6    1.10    2.10
  -3  10   6    0.00    2.90
  -2  10   6    4.40    1.90
  -2  10   6    7.70    2.40
  -2  10   6    7.20    3.10
  -1  10   6    3.70    1.70
  -1  10   6    2.60    2.90
   0  10   6   34.90    4.10
   1  10   6  115.09    7.20
   1  10   6  100.89    6.40
   2  10   6    5.80    1.80
   2  10   6    6.60    2.30
   8 -11  -6   26.10    3.30
  -8  11   6   32.20    3.00
  -7  11   6   13.80    2.70
  -7  11   6   14.30    2.40
  -6  11   6   16.30    2.90
  -6  11   6   14.70    2.50
  -5  11   6   39.50    4.10
  -5  11   6   47.60    3.80
  -4  11   6   -2.60    2.10
  -4  11   6    0.50    1.70
  -3  11   6    1.30    2.80
  -3  11   6    4.70    2.10
  -2  11   6    4.20    1.60
  -2  11   6    7.40    3.00
  -1  11   6    0.50    2.60
   0  11   6   29.70    3.40
   0  11   6   32.60    2.80
   1  11   6    0.50    1.40
   1  11   6   -1.40    2.00
  -6  12   6    5.40    1.50
  -6  12   6    2.80    1.80
  -5  12   6   56.39    4.10
  -5  12   6   58.19    3.60
  -4  12   6    0.60    1.60
  -3  12   6   13.70    2.60
  -2  12   6    6.50    2.30
  -1  12   6    1.10    1.90
   0  12  -7   71.19    4.60
  -1  12  -7   -0.50    1.40
  -2  12  -7   14.40    1.90
  -2  12  -7   13.70    2.00
  -3  12  -7   12.70    1.60
  -3  12  -7    8.70    1.80
  -4  12  -7   -0.60    1.30
  -4  12  -7    2.20    1.60
   3  11  -7   19.70    2.20
   2  11  -7   63.49    4.60
   2  11  -7   66.29    4.40
   1  11  -7    3.70    1.90
   1  11  -7    2.10    2.20
   0  11  -7   62.89    5.00
   0  11  -7   63.89    4.60
   0  11  -7   59.59    3.90
  -1  11  -7   -1.40    1.60
  -1  11  -7   -0.90    2.40
  -2  11  -7   14.00    2.40
  -2  11  -7    9.30    1.90
  -3  11  -7   17.50    2.60
  -3  11  -7   18.60    2.40
  -4  11  -7    1.90    2.10
  -4  11  -7    0.50    1.70
  -5  11  -7   15.10    2.20
  -6  11  -7    5.70    1.70
   6 -11   7    0.90    2.50
   4  10  -7    2.80    1.70
   4  10  -7    2.90    1.70
   3  10  -7    6.10    2.10
   3  10  -7    5.10    2.20
   2  10  -7    2.50    2.40
   2  10  -7    1.60    2.00
   1  10  -7    0.80    2.60
   1  10  -7    1.40    1.40
   1  10  -7    0.70    2.20
   0  10  -7    4.60    3.00
   0  10  -7    9.40    2.20
   0  10  -7   16.10    2.00
  -1  10  -7    9.90    2.40
  -1  10  -7    9.90    2.10
  -1  10  -7    9.40    3.30
  -2  10  -7  229.78   13.40
  -2  10  -7  246.58   13.10
  -3  10  -7    6.10    2.60
  -3  10  -7    8.20    2.40
  -4  10  -7   12.70    2.80
  -4  10  -7    9.30    2.70
  -5  10  -7   13.60    2.80
  -6  10  -7   13.40    2.70
   6 -10   7   11.80    3.40
   7 -10   7   90.49    6.40
   5   9  -7    8.40    2.20
   5   9  -7   11.80    2.00
   4   9  -7   -2.30    2.00
   4   9  -7    0.70    2.10
   3   9  -7   56.09    4.70
   3   9  -7   53.89    4.50
   2   9  -7    0.90    1.40
   2   9  -7    5.50    2.40
   2   9  -7    1.50    2.70
   1   9  -7    3.60    2.50
   1   9  -7    4.60    2.10
   1   9  -7    9.50    3.20
   0   9  -7   13.60    3.50
   0   9  -7   11.20    2.50
   0   9  -7   10.20    2.10
  -1   9  -7  153.58    9.20
  -1   9  -7  148.59    8.80
  -1   9  -7  150.38   10.00
  -2   9  -7   63.39    5.20
  -2   9  -7   61.99    5.10
  -3   9  -7   52.49    4.60
  -3   9  -7   35.90    4.00
  -4   9  -7   40.40    4.20
  -5   9  -7   18.70    3.40
   5  -9   7   26.90    4.30
   6  -9   7    2.80    3.00
   7  -9   7   40.30    4.50
   8  -9   7    5.40    2.30
   7   8  -7    0.20    1.80
   6   8  -7   35.70    3.00
   6   8  -7   42.90    3.70
   5   8  -7    1.70    2.10
   5   8  -7   -4.40    1.90
   4   8  -7   -2.40    2.20
   4   8  -7    0.10    2.40
   3   8  -7   33.80    3.70
   3   8  -7   29.80    3.80
   2   8  -7   66.59    4.80
   2   8  -7   66.79    5.40
   2   8  -7   67.19    6.10
   1   8  -7   17.40    2.40
   1   8  -7   16.20    2.70
   1   8  -7   20.20    3.80
   0   8  -7   30.80    3.50
   0   8  -7   26.60    3.10
   0   8  -7   47.00    4.90
  -1   8  -7   61.89    5.00
  -1   8  -7   63.69    5.80
  -1   8  -7   65.09    5.20
  -2   8  -7   32.60    3.70
  -2   8  -7   33.00    3.90
  -3   8  -7   53.39    4.90
  -4   8  -7   14.70    3.10
   5  -8   7    6.90    3.40
   6  -8   7  149.88   10.10
   7  -8   7    1.80    3.20
   7  -8   7    2.90    1.70
   8  -8   7    2.60    1.50
   8  -8   7    2.60    2.40
   9  -8   7   37.90    2.80
   7   7  -7   13.10    2.40
   6   7  -7    3.90    2.30
   6   7  -7    3.80    1.90
   5   7  -7   -0.10    2.40
   5   7  -7   -2.90    2.10
   4   7  -7   99.59    7.00
   4   7  -7  103.19    6.80
   3   7  -7    6.00    2.80
   3   7  -7    4.20    1.60
   3   7  -7    2.50    2.30
   2   7  -7    1.00    2.00
   2   7  -7    1.40    2.80
   2   7  -7    0.60    1.60
   1   7  -7   -2.10    1.70
   1   7  -7   -1.40    2.90
   1   7  -7    0.10    1.90
   0   7  -7    6.90    3.30
   0   7  -7    3.40    3.80
   0   7  -7    3.90    2.20
   0   7  -7    3.50    1.90
  -1   7  -7   47.00    4.80
  -1   7  -7   35.60    3.70
  -1   7  -7   32.60    3.70
  -1   7  -7   30.40    5.60
  -2   7  -7   27.40    5.70
  -2   7  -7   28.90    3.40
  -3   7  -7   -0.80    2.20
   4  -7   7    8.60    3.80
   5  -7   7   35.50    4.40
   6  -7   7   65.09    6.40
   6  -7   7   60.39    4.60
   7  -7   7   88.09    5.80
   7  -7   7   91.69    7.20
   8  -7   7   -2.10    2.20
   8  -7   7   -1.20    1.60
   9  -7   7    7.30    1.60
   8   6  -7    5.40    2.10
   7   6  -7   11.00    2.00
   7   6  -7    9.60    2.50
   6   6  -7   33.10    3.60
   6   6  -7   26.90    3.10
   5   6  -7   25.50    3.20
   5   6  -7   18.70    2.90
   4   6  -7  128.29    7.90
   4   6  -7  119.69    7.70
   3   6  -7   32.20    3.30
   3   6  -7   32.10    2.90
   3   6  -7   23.90    3.60
   2   6  -7  115.79    8.90
   2   6  -7  105.09    6.40
   2   6  -7   92.39    7.00
   2   6  -7   88.99    6.00
   1   6  -7   45.30    4.10
   1   6  -7   49.10    5.90
   0   6  -7    0.70    1.80
   0   6  -7   -0.10    3.50
  -1   6  -7   24.00    4.70
  -2   6  -7   90.49    8.40
   2  -6   7   83.89    8.70
   3  -6   7   59.19    7.50
   4  -6   7  129.79   10.90
   5  -6   7   29.30    3.00
   5  -6   7   18.90    3.90
   6  -6   7   77.69    6.90
   6  -6   7   73.69    5.10
   7  -6   7   34.20    3.10
   7  -6   7   29.00    4.20
   8  -6   7    0.10    2.00
   8  -6   7   -0.10    1.80
   9  -6   7   19.40    2.20
  10  -6   7    1.90    1.10
   9   5  -7    5.30    2.00
   8   5  -7    8.20    2.50
   7   5  -7   15.70    3.00
   7   5  -7   12.30    2.20
   7   5  -7   10.70    2.80
   6   5  -7   35.40    3.70
   6   5  -7   35.10    3.30
   5   5  -7    1.80    2.10
   5   5  -7    2.10    2.20
   4   5  -7   -0.40    2.10
   4   5  -7   -0.50    3.00
   4   5  -7   -0.10    1.90
   4   5  -7   -1.10    1.30
   3   5  -7   39.40    4.90
   3   5  -7   41.90    3.90
   3   5  -7   40.00    3.60
   2   5  -7   89.59    7.50
   1   5  -7  121.69    9.00
   0   5  -7   46.40    5.60
  -1   5  -7    1.60    3.60
   1  -5   7    0.30    4.10
  -2   5  -7    1.80    3.70
   2  -5   7    0.70    4.20
   3  -5   7  109.39    9.70
   4  -5   7    1.50    2.60
   4  -5   7    2.70    3.90
   5  -5   7   34.50    4.30
   5  -5   7   37.80    3.40
   6  -5   7  210.38   11.30
   6  -5   7  196.78   12.40
   7  -5   7    0.60    1.70
   7  -5   7    1.20    2.60
   8  -5   7   -2.10    1.60
   9  -5   7   11.70    1.90
   9  -5   7   20.80   38.70
  10  -5   7   14.40    1.70
  10   4  -7   37.00    3.20
   9   4  -7    5.40    2.20
   8   4  -7   -2.00    2.30
   7   4  -7   36.10    3.10
   7   4  -7   27.20    3.50
   7   4  -7   27.00    3.40
   6   4  -7   60.59    4.90
   6   4  -7   63.39    4.70
   5   4  -7  138.29    8.20
   5   4  -7  129.79    8.00
   4   4  -7  154.98    9.00
   4   4  -7  145.99    8.10
   4   4  -7  137.29    8.80
   4   4  -7  142.19    9.90
   3   4  -7  204.48   12.50
   2   4  -7  203.98   12.50
   1   4  -7   48.40    5.20
   0   4  -7  171.28   10.70
   0  -4   7  154.88   11.50
  -1   4  -7   43.70    5.20
   1  -4   7   56.19    6.40
  -2   4  -7    1.90    3.50
   2  -4   7   -0.40    3.90
   3  -4   7  185.78   12.60
   4  -4   7    3.10    2.70
   4  -4   7   -0.10    3.70
   5  -4   7   43.20    5.60
   5  -4   7   37.40    3.30
   5  -4   7   43.90    4.60
   6  -4   7   13.00    2.00
   6  -4   7   13.60    3.20
   7  -4   7    2.20    2.10
   7  -4   7   -2.70    1.50
   8  -4   7    1.50   40.10
   9  -4   7   -3.80   36.20
   9  -4   7    8.10    1.70
  10  -4   7   12.60    1.60
  10   3  -7   11.90    2.30
   9   3  -7    2.20    2.40
   8   3  -7   88.59    6.30
   8   3  -7   78.79    5.30
   7   3  -7   -1.40    2.20
   7   3  -7    2.70    1.80
   6   3  -7   81.59    5.80
   6   3  -7   81.39    5.40
   6   3  -7   79.29    5.60
   5   3  -7    0.50    1.40
   5   3  -7    2.60    2.00
   5   3  -7    1.20    2.40
   5   3  -7    4.00    2.80
   4   3  -7   -2.20    2.40
   4   3  -7    0.00    2.10
   3   3  -7  112.49    7.10
   3   3  -7  128.49    8.30
   2   3  -7  131.99    8.80
   1   3  -7   27.90    3.90
  -1  -3   7   28.80    4.90
   0   3  -7  500.15   26.70
   0  -3   7  500.25   27.50
  -1   3  -7  116.99    8.60
   1  -3   7  124.69    9.70
  -2   3  -7   43.90    4.90
   2  -3   7   35.30    5.30
   3  -3   7   43.60    5.70
   4  -3   7   -4.60    3.20
   5  -3   7  117.89    6.80
   5  -3   7  108.49    9.20
   5  -3   7  122.59    7.80
   6  -3   7   77.59    5.90
   6  -3   7   83.99    5.20
   7  -3   7   20.90   45.30
   7  -3   7   46.10    3.70
   8  -3   7   -5.80   40.20
   9  -3   7   -0.70    1.40
   9  -3   7    7.40   38.80
  10  -3   7    5.30    1.20
  11   2  -7   12.60    2.10
  10   2  -7    2.70    2.20
   9   2  -7    2.10    1.50
   9   2  -7   -0.40    2.40
   8   2  -7   96.09    6.10
   8   2  -7  101.19    6.90
   7   2  -7   19.70    2.60
   7   2  -7   20.60    3.00
   6   2  -7  167.18    9.80
   6   2  -7  170.98    9.70
   6   2  -7  158.48    9.80
   6   2  -7  181.98   10.70
   6   2  -7  185.28   10.90
   5   2  -7   12.90    3.00
   5   2  -7   15.10    3.20
   4   2  -7   12.20    2.60
   4   2  -7    4.50    2.70
   3   2  -7  206.18   11.50
   3   2  -7  213.08   12.30
   2   2  -7   15.60    3.10
   2   2  -7   18.50    2.20
  -2  -2   7   18.90    4.90
   1   2  -7  108.09    7.50
  -1  -2   7   94.19    8.40
   0   2  -7  928.01   47.50
   0  -2   7  920.31   48.10
  -1   2  -7   -1.60    3.00
   1  -2   7    0.30    3.60
  -2   2  -7   98.59    6.60
   2  -2   7  106.89    8.50
  -3   2  -7   31.40    3.60
   3  -2   7   33.40    4.70
   4  -2   7   80.49    7.40
   5  -2   7  185.78   10.70
   5  -2   7  192.48   12.20
   5  -2   7  185.58   10.10
   6  -2   7   63.19    4.30
   6  -2   7   61.79    4.30
   7  -2   7   26.30   45.90
   8  -2   7  -23.40   40.90
   8  -2   7   15.50    2.10
   9  -2   7    3.30    1.50
   9  -2   7    1.40   43.10
  11   1  -7    9.00    2.10
  10   1  -7   23.70    2.10
  10   1  -7   24.00    3.20
   9   1  -7  103.79    6.90
   9   1  -7  101.09    6.10
   8   1  -7   92.69    6.00
   8   1  -7  103.29    6.80
   7   1  -7   20.90    2.60
   7   1  -7   17.60    2.90
   6   1  -7   34.90    3.20
   6   1  -7   33.10    4.20
   6   1  -7   36.20    4.30
   5   1  -7   11.70    2.90
   5   1  -7   12.30    2.80
   4   1  -7  376.56   20.40
   3   1  -7  390.86   21.00
   2   1  -7   18.30    3.60
  -2  -1   7   14.10    4.00
   1   1  -7  507.45   26.90
  -1  -1   7  513.75   27.50
   0   1  -7   96.39    7.40
   0  -1   7  105.09    7.90
  -1   1  -7   74.19    6.10
   1  -1   7   72.29    6.70
   2  -1   7   27.60    4.00
  -3   1  -7   10.70    2.60
   3  -1   7    8.00    3.20
  -4   1  -7  374.56   19.90
   4  -1   7  359.76   20.50
   5  -1   7   75.69    7.00
   5  -1   7   -2.20   37.80
   5  -1   7   71.19    4.90
   5  -1   7   76.99    4.70
   6  -1   7    2.30    1.60
   6  -1   7  -16.30   41.60
   7  -1   7   -0.20    1.50
   7  -1   7  -27.50   40.00
   8  -1   7   40.50    3.30
   8  -1   7   35.30   51.89
   9  -1   7   25.10    2.10
  11   0  -7   48.40    4.20
  10   0  -7    6.30    2.60
  10   0  -7    4.80    1.60
   9   0  -7   70.69    4.60
   9   0  -7   56.49    5.30
   8   0  -7   -0.80    1.70
   8   0  -7   -2.50    2.30
   7   0  -7   30.10    3.10
   7   0  -7   32.10    3.50
   7   0  -7   38.80    4.60
   7   0  -7   30.80    2.80
   6   0  -7  144.19    8.90
   6   0  -7  156.88    9.80
   5   0  -7  164.88   10.30
   4   0  -7  201.08   12.00
   3   0  -7   18.80    3.50
  -3   0   7   29.90    4.50
   2   0  -7   -0.30    2.80
  -2   0   7    2.90    3.50
   1   0  -7  107.59    7.70
  -1   0   7  100.99    8.10
   0   0  -7    9.70    3.10
   0   0   7    7.20    3.40
   1   0   7   26.70    3.80
   2   0   7  113.19    8.00
   3   0   7   37.80    4.30
  -4   0  -7   41.80    4.60
   4   0   7   11.20   36.40
   4   0   7   47.10    5.00
   5   0   7    3.40    1.80
   5   0   7   17.40   41.40
   5   0   7    0.20    1.30
   6   0   7    7.80    1.70
   6   0   7    4.80    2.20
   6   0   7   14.20   44.50
   7   0   7    6.90   46.40
   7   0   7    4.40    2.50
   7   0   7    4.80    1.60
   8   0   7  -11.10   46.50
  11  -1  -7   17.00    3.00
  11  -1  -7   19.40    1.90
  10  -1  -7    1.40    1.60
  10  -1  -7    4.80    2.60
   9  -1  -7   20.60    2.40
   9  -1  -7   16.00    3.20
   8  -1  -7   58.69    5.10
   8  -1  -7   61.19    4.50
   7  -1  -7   97.99    6.60
   7  -1  -7   93.79    6.10
   7  -1  -7   98.99    6.10
   7  -1  -7   97.49    7.50
   6  -1  -7  145.49    9.40
  -6   1   7  137.49    8.70
   5  -1  -7    1.50    2.80
  -5   1   7    0.80    2.00
   4  -1  -7  277.67   15.80
   3  -1  -7   25.50    4.00
  -3   1   7   15.90    4.20
   2  -1  -7  109.39    8.10
  -2   1   7  110.99    8.50
   1  -1  -7    2.60    3.10
  -1   1   7   -1.10    3.20
   0  -1  -7    3.20    3.00
   0   1   7    5.60    3.20
   1   1   7   35.10    4.30
   2   1   7   25.10   29.90
   2   1   7   51.29    5.30
   3   1   7   22.60   34.20
   3   1   7   43.10    4.60
   4   1   7   33.10    4.30
   4   1   7   -2.30   37.80
   4   1   7   33.90    3.10
   5   1   7    5.30   40.70
   5   1   7   21.00    2.80
   5   1   7   25.10    2.30
   6   1   7   24.20   53.79
   7   1   7   22.60   46.80
   8   1   7   -1.30    2.40
   8   1   7    8.60   41.40
   9   1   7   40.30    3.50
  11  -2  -7   23.50    2.30
  11  -2  -7   29.50    3.60
  10  -2  -7    3.50    1.70
  10  -2  -7    1.00    2.70
   9  -2  -7    7.30    2.00
   9  -2  -7    6.90    2.80
   8  -2  -7   36.80    3.30
   8  -2  -7   38.10    3.30
   8  -2  -7   34.50    4.00
   7  -2  -7   25.30    2.80
   7  -2  -7   14.50    2.40
   7  -2  -7   11.80    3.40
   6  -2  -7   82.09    6.70
  -6   2   7   72.49    5.70
   5  -2  -7    1.70    2.80
  -5   2   7    2.60    2.00
   4  -2  -7  198.48   12.30
  -4   2   7  204.18   12.80
   3  -2  -7    0.00    3.20
  -3   2   7   -0.40    3.60
   2  -2  -7   10.60    3.80
  -2   2   7   18.30    3.90
   1  -2  -7   23.60    4.20
  -1   2   7   22.80    4.00
   0   2   7    5.40    3.10
   1   2   7  192.98   11.80
   2   2   7   27.90    4.00
   2   2   7    2.30   33.90
   3   2   7   68.39   44.40
   3   2   7   65.59    5.90
   4   2   7   33.80   47.70
   5   2   7   12.00    2.50
   5   2   7   18.00   46.40
   5   2   7   10.10    1.60
   6   2   7   27.90   51.39
   6   2   7   41.70    4.00
   7   2   7   -2.70   40.70
   7   2   7   15.70    3.00
   8   2   7  -10.60   36.10
  12  -3  -7   25.90    2.10
  11  -3  -7    2.00    1.50
  10  -3  -7    7.10    1.90
  10  -3  -7    5.50    3.20
   9  -3  -7   36.90    4.30
   9  -3  -7   44.90    3.30
   9  -3  -7   49.70    4.20
   9  -3  -7   45.80    3.30
   8  -3  -7   16.90    2.50
   8  -3  -7   13.20    2.60
   7  -3  -7   71.09    5.30
   7  -3  -7   60.39    4.80
   7  -3  -7   70.59    6.70
   6  -3  -7   20.00    3.20
   6  -3  -7   22.30    4.10
  -6   3   7   23.80    3.00
   5  -3  -7   -0.60    3.10
  -5   3   7    0.70    1.80
   4  -3  -7  595.64   31.60
  -4   3   7  593.44   32.00
   3  -3  -7   77.09    7.00
  -3   3   7   81.39    7.70
   2  -3  -7  114.09    8.60
  -2   3   7  112.79    8.70
  -1   3   7   29.30    4.30
   0   3   7   13.50    3.60
   1   3   7   42.30    4.70
   2   3   7   41.50    4.90
   2   3   7   25.30   35.90
   3   3   7   37.80   42.90
   3   3   7   78.59    5.20
   3   3   7   75.49    6.80
   4   3   7   21.50    2.90
   4   3   7   44.30   46.00
   4   3   7   25.90    2.50
   5   3   7   13.80    2.90
   5   3   7   18.50    2.20
   5   3   7   12.70   43.40
   6   3   7   29.10    3.50
   6   3   7   24.10   46.40
   7   3   7    3.10    2.50
   7   3   7   -0.10   39.10
   8   3   7   24.00    3.00
  12  -4  -7   13.20    1.60
  11  -4  -7    1.80    1.50
  10  -4  -7   77.99    5.20
   9  -4  -7    3.90    1.90
   9  -4  -7    4.00    1.80
   8  -4  -7   -0.20    2.00
   8  -4  -7   -0.90    2.20
   7  -4  -7   74.09    5.50
   7  -4  -7   55.69    6.70
   7  -4  -7   62.49    4.90
   6  -4  -7   -0.30    2.40
   6  -4  -7   -0.60    3.20
   5  -4  -7  161.68   10.80
   4  -4  -7  159.68   11.10
  -4   4   7  179.68   11.90
   3  -4  -7   25.70    4.50
  -3   4   7   28.60    4.90
   2  -4  -7   13.90    4.00
  -2   4   7   20.30    4.40
  -1   4   7   -2.70    3.00
   0   4   7  438.26   24.10
   1   4   7   57.99    5.80
   2   4   7    0.00    2.00
   2   4   7    3.30   35.80
   2   4   7    3.30    2.00
   2   4   7    6.90    3.50
   3   4   7  100.29    6.30
   3   4   7  112.99    6.80
   3   4   7   64.39   45.40
   4   4   7   -0.90    1.60
   4   4   7    1.00   42.60
   4   4   7    0.20    2.10
   5   4   7   19.10   42.60
   5   4   7   47.80    4.40
   6   4   7    2.20   36.70
   7   4   7  -28.20   36.20
   7   4   7   11.70    2.70
   8   4   7   64.59    4.60
  12  -5  -7    1.00    1.20
  11  -5  -7    0.90    1.50
  10  -5  -7   46.40    3.90
  10  -5  -7   48.50    3.60
   9  -5  -7    0.10    1.80
   9  -5  -7    1.80    2.10
   8  -5  -7   78.09    5.90
   8  -5  -7   73.29    5.40
   7  -5  -7   -2.70    1.90
   7  -5  -7    3.10    2.60
   6  -5  -7    7.40    2.80
   6  -5  -7    5.70    2.60
   6  -5  -7    9.10    3.80
   5  -5  -7   63.29    6.30
   4  -5  -7   56.69    6.00
  -4   5   7   59.99    6.90
   3  -5  -7  103.59    8.80
  -3   5   7  123.89    9.60
  -2   5   7  124.39    9.80
  -1   5   7  178.18   12.00
   0   5   7  146.29   10.20
   0   5   7  128.39    9.70
   1   5   7   87.09    7.80
   1   5   7   96.39    6.30
   1   5   7   82.99    5.90
   1   5   7   47.90   48.80
   2   5   7   69.59    7.30
   2   5   7   67.19    4.40
   2   5   7   69.59    5.10
   2   5   7   72.39    5.20
   2   5   7   27.50   34.30
   3   5   7  105.19   45.00
   3   5   7  109.19    7.10
   3   5   7  111.09    7.00
   3   5   7  111.19    6.70
   4   5   7    8.40   36.10
   4   5   7   30.90    3.60
   4   5   7   31.30    3.10
   4   5   7   30.80    3.30
   5   5   7   18.60   36.70
   6   5   7   13.90    2.80
   7   5   7   17.70    2.80
  11  -6  -7   13.30    2.00
  10  -6  -7   19.90    2.50
  10  -6  -7   21.90    2.60
   9  -6  -7   -1.70    2.00
   9  -6  -7    1.60    2.20
   8  -6  -7  220.98   12.00
   8  -6  -7  207.38   12.40
   7  -6  -7   10.80    3.00
   7  -6  -7   12.30    2.60
   6  -6  -7    9.70    3.00
   5  -6  -7  112.69    9.30
  -4   6   7   14.60    5.00
  -3   6   7   25.90    5.30
  -3   6   7   20.50    4.10
  -2   6   7   18.20    3.60
  -2   6   7   23.10    4.80
  -1   6   7   16.90    3.40
  -1   6   7   29.00    2.90
  -1   6   7   35.30    5.20
   0   6   7   41.50    5.60
   0   6   7   46.50    4.00
   0   6   7   42.20    4.20
   0   6   7   52.49    4.90
   0   6   7   44.70    4.00
   1   6   7   10.80    2.80
   1   6   7   16.60    2.50
   1   6   7   13.50    2.60
   2   6   7   72.29    5.80
   2   6   7   77.49    5.60
   3   6   7   42.90    3.60
   3   6   7   42.10    4.00
   3   6   7   36.20    3.80
   4   6   7    2.80    2.00
   4   6   7   -0.80    2.10
   4   6   7    5.20    2.50
   5   6   7   58.09    4.90
   5   6   7   61.39    4.40
   6   6   7    2.40    2.40
  11  -7  -7    8.40    1.70
  10  -7  -7   -0.30    1.70
  10  -7  -7   -0.20    1.90
   9  -7  -7   52.49    4.20
   9  -7  -7   49.30    4.60
   9  -7  -7   55.99    4.70
   8  -7  -7    8.30    2.80
   8  -7  -7    7.20    2.30
   7  -7  -7   50.59    5.00
   6  -7  -7   84.99    7.10
  -5   7   7   45.90    5.10
  -4   7   7   32.70    4.20
  -4   7   7   24.60    4.30
  -3   7   7    8.50    3.00
  -3   7   7    7.90    3.70
  -3   7   7    3.20    2.90
  -2   7   7    3.70    3.10
  -2   7   7    2.00    2.50
  -2   7   7    7.60    2.80
  -1   7   7   81.09    6.50
  -1   7   7   74.49    5.80
  -1   7   7   84.29    6.20
   0   7   7   96.29    6.90
   0   7   7   94.89    6.70
   1   7   7   58.59    3.90
   1   7   7   51.09    4.60
   1   7   7   61.29    5.40
   2   7   7   88.79    6.60
   2   7   7  101.09    6.40
   3   7   7    3.60    2.00
   3   7   7    2.50    2.30
   3   7   7    4.80    2.30
   4   7   7   27.50    3.30
   4   7   7   27.80    2.90
   4   7   7   21.90    2.90
   5   7   7   51.09    4.00
   5   7   7   64.99    4.70
  10  -8  -7   -1.20    1.90
   9  -8  -7    2.10    2.20
   9  -8  -7    4.20    2.40
   8  -8  -7   26.00    3.50
   7  -8  -7    2.20    2.60
  -6   8   7   50.89    5.20
  -5   8   7   12.60    3.40
  -4   8   7   69.39    6.20
  -3   8   7   27.80    4.30
  -3   8   7   46.10    4.60
  -3   8   7   46.30    4.60
  -2   8   7    1.80    2.90
  -2   8   7    0.30    2.40
  -2   8   7   -2.20    2.60
  -1   8   7  128.19    8.20
  -1   8   7  111.79    7.10
  -1   8   7  122.19    8.10
   0   8   7    9.70    2.40
   0   8   7    9.90    3.00
   1   8   7   -1.20    2.60
   2   8   7  169.88    9.50
   2   8   7  162.08   10.00
   3   8   7   -3.80    1.70
   3   8   7   -2.30    2.10
   4   8   7   64.89    4.50
   4   8   7   65.69    4.50
  10  -9  -7   -0.40    1.80
   9  -9  -7    1.20    2.20
   8  -9  -7   15.60    2.90
   8  -9  -7   14.80    2.80
   7  -9  -7   18.10    3.20
  -7   9   7   11.40    3.30
  -6   9   7    6.50    3.20
  -5   9   7    7.80    3.10
  -5   9   7    8.20    3.20
  -4   9   7   23.80    3.80
  -4   9   7   18.80    3.90
  -3   9   7   -3.10    2.60
  -3   9   7   -3.70    2.40
  -3   9   7   -3.50    2.70
  -2   9   7    4.10    2.10
  -2   9   7    6.70    2.90
  -2   9   7    2.70    2.90
  -1   9   7   28.40    3.30
  -1   9   7   29.30    4.00
   0   9   7   -2.90    2.70
   1   9   7   18.90    3.40
   2   9   7   -1.20    2.30
   2   9   7    2.80    1.90
   3   9   7   14.50    2.40
   3   9   7   16.00    2.10
   9 -10  -7   -1.40    2.10
  -9  10   7    3.20    2.00
   8 -10  -7    3.40    2.40
  -8  10   7    7.50    2.40
  -7  10   7    7.80    2.60
  -6  10   7   18.80    3.50
  -6  10   7   20.60    3.20
  -5  10   7   -1.50    2.80
  -5  10   7    4.10    2.50
  -4  10   7   20.90    3.10
  -4  10   7   19.60    3.70
  -3  10   7    2.30    2.60
  -3  10   7    2.80    2.90
  -3  10   7    5.00    2.00
  -2  10   7   11.90    3.30
  -2  10   7    9.20    2.40
  -1  10   7    3.50    2.90
   0  10   7   10.70    3.00
   1  10   7   36.50    3.90
   1  10   7   45.00    3.40
   2  10   7    4.50    1.60
   2  10   7   10.40    2.20
  -8  11   7   -1.40    1.50
  -7  11   7   30.00    3.30
  -7  11   7   28.60    2.90
  -6  11   7    4.60    2.10
  -6  11   7    7.40    2.40
  -5  11   7    4.00    2.30
  -5  11   7    1.50    1.90
  -4  11   7    2.10    1.60
  -4  11   7   -0.80    2.00
  -3  11   7   -1.40    1.70
  -3  11   7    1.90    2.70
  -2  11   7   14.00    3.10
  -1  11   7  113.59    7.40
   0  11   7   20.50    2.80
   0  11   7   16.00    2.00
  -5  12   7    8.30    1.80
  -2  12  -8    2.20    1.30
  -3  12  -8    1.20    1.30
   2  11  -8   63.39    4.50
   2  11  -8   74.39    4.50
   1  11  -8    8.90    2.20
   1  11  -8    4.60    1.70
   0  11  -8    2.50    1.30
   0  11  -8   -2.00    1.70
   0  11  -8   -1.10    2.20
  -1  11  -8   17.10    2.50
  -1  11  -8   21.60    2.50
  -2  11  -8    2.00    1.60
  -2  11  -8    0.40    1.80
  -3  11  -8    3.50    1.80
  -3  11  -8    5.70    2.00
  -4  11  -8    0.10    1.80
  -4  11  -8    0.90    1.60
  -5  11  -8   17.80    2.30
  -6  11  -8    4.40    1.60
   4  10  -8    1.20    1.60
   4  10  -8    1.70    1.50
   3  10  -8    3.10    2.00
   3  10  -8    3.40    1.90
   2  10  -8   25.90    2.90
   2  10  -8   21.10    3.10
   1  10  -8    8.70    1.60
   1  10  -8    2.80    2.60
   1  10  -8    4.50    2.20
   0  10  -8   41.80    3.90
   0  10  -8   44.30    4.50
   0  10  -8   37.70    3.80
   0  10  -8   44.10    3.10
  -1  10  -8   28.90    3.20
  -1  10  -8   35.70    3.40
  -2  10  -8   61.09    4.50
  -2  10  -8   52.09    4.90
  -3  10  -8    3.20    2.40
  -3  10  -8    5.60    2.20
  -4  10  -8   -1.30    1.90
  -5  10  -8   67.89    5.00
   5 -10   8   66.39    6.20
  -6  10  -8   40.40    3.80
   6 -10   8   48.60    4.70
   7 -10   8   14.30    2.60
   5   9  -8   12.60    1.90
   5   9  -8   13.30    2.20
   4   9  -8   -0.60    2.00
   4   9  -8   -1.10    1.90
   3   9  -8  100.29    6.50
   3   9  -8  102.89    6.90
   2   9  -8   94.29    6.40
   2   9  -8   80.99    5.00
   2   9  -8   77.09    5.90
   1   9  -8   37.60    4.00
   1   9  -8   41.70    3.90
   1   9  -8   45.70    4.60
   0   9  -8  179.88   10.10
   0   9  -8  172.88   10.80
   0   9  -8  164.68    9.80
  -1   9  -8    1.20    3.00
  -1   9  -8    0.10    2.20
  -1   9  -8    0.10    2.00
  -2   9  -8   85.39    6.60
  -2   9  -8   97.59    6.30
  -3   9  -8    3.50    2.40
  -3   9  -8    0.50    2.50
  -4   9  -8   10.70    2.90
  -5   9  -8   51.79    4.90
   5  -9   8   49.30    5.50
   6  -9   8   20.10    3.80
   7  -9   8   10.70    2.90
   6   8  -8   21.70    2.70
   6   8  -8   23.60    2.30
   5   8  -8   31.70    3.20
   5   8  -8   33.80    3.40
   4   8  -8    7.50    2.60
   4   8  -8    5.70    2.40
   3   8  -8   26.80    3.60
   3   8  -8   31.00    3.50
   2   8  -8   49.00    4.50
   2   8  -8   40.60    3.80
   2   8  -8   39.90    4.40
   1   8  -8   45.50    4.00
   1   8  -8   51.39    4.90
   1   8  -8   46.40    4.50
   0   8  -8    0.90    2.00
   0   8  -8   10.90    3.30
   0   8  -8    3.60    2.30
  -1   8  -8    3.40    2.40
  -1   8  -8   10.70    5.40
  -1   8  -8    6.20    2.30
  -2   8  -8   21.70    3.10
  -2   8  -8   12.50    2.90
  -3   8  -8   70.39    5.70
  -4   8  -8  133.59    8.70
   5  -8   8   56.09    5.60
   6  -8   8   25.40    4.30
   7  -8   8   37.90    4.30
   8  -8   8   26.30    2.40
   8  -8   8   29.80    2.80
   7   7  -8    4.90    1.50
   7   7  -8    4.60    2.00
   6   7  -8   11.30    2.20
   6   7  -8    9.90    2.50
   5   7  -8    4.40    2.30
   5   7  -8    3.80    2.40
   4   7  -8    0.70    2.30
   4   7  -8    3.30    2.50
   3   7  -8   25.70    3.30
   3   7  -8   21.90    3.40
   3   7  -8   25.00    2.60
   2   7  -8    0.50    1.70
   2   7  -8    1.70    2.10
   2   7  -8    0.00    2.80
   2   7  -8    1.00    2.30
   1   7  -8   98.99    6.60
   1   7  -8  105.69    6.80
   1   7  -8  105.29    7.60
   0   7  -8    0.60    1.90
   0   7  -8   -2.40    2.90
   0   7  -8    4.60    2.30
  -1   7  -8   -0.60    2.00
  -1   7  -8    1.30    2.10
  -2   7  -8   10.70    2.60
  -3   7  -8   64.59    5.40
   4  -7   8  138.59    9.70
   5  -7   8   23.00    4.10
   6  -7   8   56.19    5.60
   6  -7   8   45.10    4.00
   7  -7   8   19.40    2.40
   7  -7   8   19.10    3.50
   8  -7   8   11.50    1.90
   8  -7   8   17.30    2.20
   9  -7   8   -0.10    1.30
   8   6  -8    1.40    1.90
   7   6  -8   10.80    2.00
   7   6  -8    4.90    2.40
   6   6  -8   36.80    3.70
   6   6  -8   30.30    3.20
   5   6  -8   33.80    3.60
   5   6  -8   28.50    3.40
   4   6  -8    1.40    2.40
   4   6  -8    3.00    1.40
   4   6  -8   -2.50    2.10
   3   6  -8  117.59    7.90
   3   6  -8  116.89    7.20
   3   6  -8  123.39    7.60
   2   6  -8   53.89    4.60
   2   6  -8   62.79    5.40
   2   6  -8   54.09    4.40
   1   6  -8   10.70    2.20
   1   6  -8    9.40    2.50
   1   6  -8    9.40    4.20
   1   6  -8   12.60    3.10
   0   6  -8  235.18   13.10
   0   6  -8  234.98   15.10
   0   6  -8  231.28   12.80
  -1   6  -8   12.30    3.10
  -1   6  -8    9.80    4.20
  -1   6  -8   11.70    2.60
  -2   6  -8   33.30    3.80
  -2   6  -8   35.40    6.00
   2  -6   8   46.00    6.90
   3  -6   8   39.70    6.50
   4  -6   8   17.30    3.90
   5  -6   8   -2.70    3.00
   5  -6   8    2.80    2.00
   6  -6   8    0.60    1.90
   6  -6   8    2.90    3.20
   7  -6   8   84.69    5.50
   7  -6   8   77.39    6.40
   8  -6   8    8.00    1.90
   9  -6   8   15.70    1.80
   9   5  -8    8.40    2.00
   8   5  -8    6.90    1.70
   8   5  -8    5.30    2.40
   7   5  -8    4.00    2.00
   7   5  -8    3.90    2.50
   6   5  -8   12.00    2.70
   6   5  -8   11.00    2.40
   5   5  -8   20.70    3.00
   5   5  -8   18.50    2.90
   4   5  -8    1.10    2.40
   4   5  -8    0.00    1.60
   4   5  -8    2.80    2.20
   3   5  -8   -1.30    2.20
   3   5  -8    1.50    1.80
   3   5  -8    1.20    1.80
   3   5  -8    1.80    2.10
   3   5  -8    1.00    3.20
   2   5  -8   12.20    3.80
   2   5  -8    8.10    2.30
   1   5  -8   35.10    5.10
   0   5  -8    4.10    3.60
  -1   5  -8   44.20    5.70
   1  -5   8   25.60    5.70
  -2   5  -8    4.70    4.10
   2  -5   8   11.60    4.90
   3  -5   8   37.30    5.80
   3  -5   8   28.10    4.50
   4  -5   8   56.29    4.60
   4  -5   8   66.19    6.40
   4  -5   8   61.79    8.10
   5  -5   8   11.50    3.70
   5  -5   8   21.40    2.60
   6  -5   8   10.60    3.50
   6  -5   8   15.60    2.50
   7  -5   8    4.10    2.00
   7  -5   8   11.20    2.80
   8  -5   8   14.90    2.10
   8  -5   8   -2.30   37.60
   9  -5   8   48.40    3.40
   9   4  -8   46.50    4.10
   8   4  -8   12.20    2.80
   8   4  -8   10.70    2.10
   7   4  -8  109.49    6.70
   7   4  -8  100.59    7.10
   6   4  -8    0.60    2.20
   6   4  -8    6.90    2.10
   5   4  -8    6.00    2.30
   5   4  -8    4.20    2.20
   5   4  -8    3.60    1.50
   4   4  -8   83.69    6.00
   4   4  -8   84.89    5.40
   4   4  -8   78.99    5.70
   4   4  -8   89.69    7.30
   3   4  -8   78.79    5.20
   3   4  -8   72.19    6.90
   2   4  -8   41.80    5.00
   1   4  -8   34.30    4.90
   0   4  -8   82.49    7.30
   0  -4   8   88.89    8.70
  -1   4  -8   31.90    4.90
   1  -4   8   48.40    6.40
  -2   4  -8    1.00    3.80
   2  -4   8    0.80    3.90
   3  -4   8   26.80    5.00
   4  -4   8  106.19    9.00
   4  -4   8   87.09    7.40
   4  -4   8   94.49    6.00
   5  -4   8   50.29    5.00
   5  -4   8   46.50    4.00
   6  -4   8   53.59    4.30
   6  -4   8   52.49    4.90
   7  -4   8    8.50    2.00
   7  -4   8    2.60    1.90
   8  -4   8   20.90    2.40
   8  -4   8    6.30   40.30
   9  -4   8   50.69    3.50
  10   3  -8   14.20    2.30
   9   3  -8   14.20    2.90
   9   3  -8   21.90    2.10
   8   3  -8    4.60    2.60
   8   3  -8   10.30    2.10
   7   3  -8   20.80    3.20
   7   3  -8   24.00    2.90
   6   3  -8   16.80    2.50
   6   3  -8   13.60    2.60
   5   3  -8   16.40    2.70
   5   3  -8   23.30    3.90
   5   3  -8   22.10    2.30
   5   3  -8   14.50    3.10
   5   3  -8   20.60    2.80
   4   3  -8   24.60    2.70
   4   3  -8   22.70    3.10
   4   3  -8   27.90    3.90
   3   3  -8    6.40    2.90
   2   3  -8  127.79    8.80
   1   3  -8   56.29    5.70
  -1  -3   8   60.19    6.60
   0   3  -8   11.90    3.70
   0  -3   8   10.30    4.30
  -1   3  -8   44.40    5.10
   1  -3   8   49.50    6.00
   2  -3   8   -1.20    3.50
   3  -3   8  130.99   10.30
   4  -3   8  110.59    7.60
   4  -3   8  102.69    8.90
   5  -3   8   69.99    5.70
   5  -3   8   62.99    4.70
   6  -3   8   -1.90    1.70
   6  -3   8   -0.30    2.10
   7  -3   8  -13.60   42.20
   7  -3   8    2.00    1.80
   8  -3   8  -11.10   40.50
   9  -3   8   25.30    2.30
  10   2  -8   -0.80    2.10
   9   2  -8    1.70    1.50
   9   2  -8    4.60    2.50
   8   2  -8   98.59    6.20
   8   2  -8   91.69    6.70
   7   2  -8   19.90    3.00
   7   2  -8   21.50    2.80
   6   2  -8   65.89    6.50
   6   2  -8   69.19    5.00
   6   2  -8   68.79    4.50
   6   2  -8   67.69    5.10
   5   2  -8    1.00    2.70
   5   2  -8   -0.30    1.60
   5   2  -8    1.90    2.80
   4   2  -8   24.90    3.10
   4   2  -8   23.50    3.70
   3   2  -8   31.20    4.00
   3   2  -8   24.90    2.80
   2   2  -8   24.70    3.80
   1   2  -8   38.90    4.50
  -1  -2   8   45.40    5.80
   0   2  -8  217.98   13.00
   0  -2   8  213.38   13.70
  -1   2  -8   25.20    4.30
   1  -2   8   38.90    5.10
   2  -2   8    0.10    3.30
   3  -2   8  257.57   15.70
   4  -2   8   83.79    6.10
   4  -2   8   75.59    7.60
   5  -2   8    2.80    2.10
   5  -2   8    0.40    1.60
   5  -2   8    3.40    3.60
   6  -2   8   59.79    4.30
   6  -2   8  -21.30   40.90
   7  -2   8    2.70   42.60
   7  -2   8    3.60    1.70
   8  -2   8    5.10    1.70
   8  -2   8    2.80   41.60
   9  -2   8   48.10    3.30
  11   1  -8    4.30    2.00
  10   1  -8    1.90    1.40
  10   1  -8    4.10    2.50
   9   1  -8   13.00    2.20
   9   1  -8   14.10    2.90
   8   1  -8   85.09    5.70
   8   1  -8   86.59    6.30
   7   1  -8   58.79    5.00
   7   1  -8   63.39    4.80
   6   1  -8    2.20    2.10
   6   1  -8    1.10    1.70
   6   1  -8    6.00    2.80
   6   1  -8    0.40    2.00
   6   1  -8   -0.30    2.90
   5   1  -8   36.50    4.40
   4   1  -8   30.30    4.10
   3   1  -8  118.39    8.40
   2   1  -8   68.59    6.30
  -2  -1   8   70.59    6.60
   1   1  -8   30.90    4.20
  -1  -1   8   46.00    5.30
   0   1  -8  570.74   31.50
   0  -1   8  632.44   32.00
  -1   1  -8   13.30    5.60
   1  -1   8    9.90    3.40
  -2   1  -8   30.60    3.50
   2  -1   8   36.00    4.60
  -3   1  -8  137.39    8.80
   3  -1   8  143.39    9.90
  -4   1  -8   35.80    4.00
   4  -1   8   37.50    3.50
   4  -1   8   27.80    4.60
   5  -1   8   -4.80   40.70
   5  -1   8  178.98    9.30
   5  -1   8  159.18    9.50
   5  -1   8  185.58   12.40
   6  -1   8    0.30   41.40
   7  -1   8   -8.00   42.50
   7  -1   8    3.30    1.60
   8  -1   8    0.60   45.80
   9  -1   8   38.30    2.70
  11   0  -8   13.10    2.60
  11   0  -8   20.60    1.80
  10   0  -8   17.60    2.00
  10   0  -8    8.50    2.70
   9   0  -8   28.60    3.60
   9   0  -8   29.70    2.90
   8   0  -8   -0.50    2.40
   8   0  -8    1.10    1.90
   7   0  -8   87.09    5.50
   7   0  -8   88.99    6.20
   7   0  -8   90.99    6.10
   6   0  -8   37.40    4.70
   6   0  -8   42.10    3.90
   5   0  -8   59.19    6.10
   4   0  -8    0.80    2.90
   3   0  -8   15.80    3.60
  -3   0   8   18.10    4.00
   2   0  -8    6.50    3.40
  -2   0   8    4.80    3.60
   1   0  -8    1.80    3.40
  -1   0   8    3.70    3.50
   0   0  -8   61.19    6.40
   0   0   8   76.39    6.60
   1   0   8   90.19    7.30
   2   0   8  241.48   14.30
   3   0   8   49.10   36.40
  -4   0  -8   56.69    5.50
   4   0   8   64.09    4.80
   4   0   8   68.59    6.90
   4   0   8   68.19    4.50
   4   0   8   10.40   37.30
   5   0   8   17.00   43.40
   6   0   8    8.90    2.30
   6   0   8   11.10    1.80
   6   0   8   26.80   44.50
   7   0   8   12.10    1.90
   7   0   8   14.20    2.70
   7   0   8   28.20   51.69
   8   0   8   -6.00   41.00
  11  -1  -8   37.40    2.70
  11  -1  -8   35.20    3.60
  10  -1  -8    3.30    2.50
  10  -1  -8    0.80    1.60
   9  -1  -8   66.89    5.40
   9  -1  -8   60.39    4.60
   8  -1  -8   80.79    5.80
   8  -1  -8   72.69    4.60
   8  -1  -8   71.79    5.30
   7  -1  -8   39.10    3.60
   7  -1  -8   31.20    4.70
   7  -1  -8   38.90    3.50
   6  -1  -8   37.80    4.70
   6  -1  -8   37.40    3.60
   5  -1  -8    9.50    3.50
   4  -1  -8  102.69    7.90
   3  -1  -8  603.54   32.00
  -3   1   8  602.84   32.30
   2  -1  -8    9.90    3.80
  -2   1   8   14.40    4.10
   1  -1  -8    5.20    3.50
  -1   1   8    2.90    3.30
   0   1   8    2.10    3.10
   1   1   8   87.39    7.30
   2   1   8   -0.40    2.70
   2   1   8   -4.80   30.00
   3   1   8   12.00   35.00
   4   1   8   50.59    3.70
   4   1   8   46.30    4.00
   4   1   8   59.89    5.70
   4   1   8   44.40    3.60
   4   1   8   -2.40   36.00
   5   1   8   -0.70    1.40
   5   1   8   -8.50   47.20
   5   1   8   -0.40    1.90
   6   1   8   -5.10   48.60
   6   1   8   21.50    2.90
   6   1   8   17.10    2.10
   7   1   8    0.60   45.30
   7   1   8    4.50    2.50
   7   1   8    5.20    1.60
   8   1   8  -22.00   38.10
  11  -2  -8   19.20    2.00
  10  -2  -8   -3.60    2.60
  10  -2  -8   -1.10    1.60
   9  -2  -8    1.90    3.80
   9  -2  -8    6.60    2.10
   8  -2  -8   74.39    5.10
   8  -2  -8   76.29    5.40
   7  -2  -8   -0.60    2.00
   7  -2  -8    1.70    3.10
   7  -2  -8   -0.90    2.00
   6  -2  -8  194.28   11.10
   6  -2  -8  184.88   12.10
   5  -2  -8   35.90    4.80
   4  -2  -8  145.39   10.10
   3  -2  -8   37.60    5.00
  -3   2   8   34.70    5.20
   2  -2  -8   47.70    5.50
  -2   2   8   42.20    5.20
   1  -2  -8   29.40    4.50
  -1   2   8   39.30    5.00
   0   2   8   -0.60    3.10
   1   2   8   77.99    6.90
   2   2   8   41.90   39.30
   2   2   8   22.20    3.90
   3   2   8   19.60    2.60
   3   2   8   17.10    3.70
   3   2   8   18.10    2.60
   3   2   8   10.30   40.70
   4   2   8    8.40    1.60
   4   2   8   11.50    2.40
   4   2   8   15.40   45.30
   5   2   8   25.40   48.60
   5   2   8   30.90    3.40
   5   2   8   29.10    2.60
   6   2   8    6.40    2.50
   6   2   8  -10.20   42.50
   6   2   8    4.80    1.80
   7   2   8   -5.80   43.40
   8   2   8    7.10    2.30
  11  -3  -8    2.10    1.50
  10  -3  -8    0.60    1.70
   9  -3  -8  128.09    7.50
   9  -3  -8  119.39    6.90
   8  -3  -8   43.20    3.80
   8  -3  -8   42.90    4.00
   7  -3  -8    8.00    2.40
   7  -3  -8   14.60    2.80
   6  -3  -8    8.70    3.70
   6  -3  -8    5.40    2.70
   5  -3  -8  158.28   10.90
   4  -3  -8    6.30    3.60
  -4   3   8    8.20    4.20
   3  -3  -8    0.40    3.70
  -3   3   8   -0.50    3.80
   2  -3  -8   10.70    4.10
  -2   3   8   21.50    4.40
  -1   3   8   12.80    3.80
   0   3   8   23.10    4.20
   1   3   8   10.70    3.60
   2   3   8   15.90    2.30
   2   3   8   10.60    3.70
   2   3   8    8.00    2.40
   2   3   8   17.90   35.10
   3   3   8   95.69    8.00
   3   3   8   87.79    5.90
   3   3   8   72.09   44.70
   3   3   8  105.59    6.30
   4   3   8   10.30    2.40
   4   3   8   17.20   41.70
   4   3   8    6.60    1.90
   5   3   8   -8.50   39.10
   5   3   8    1.10    1.70
   5   3   8   -0.80    2.30
   6   3   8    4.90    2.20
   6   3   8    4.00    2.40
   6   3   8    0.90   42.40
   7   3   8   -2.10   33.60
   8   3   8    1.20    2.00
  11  -4  -8   13.10    1.90
  10  -4  -8   -1.00    1.70
   9  -4  -8   28.70    3.00
   9  -4  -8   30.30    3.00
   8  -4  -8   49.80    4.80
   8  -4  -8   44.40    4.00
   7  -4  -8   42.50    3.90
   7  -4  -8   42.30    4.20
   6  -4  -8  122.89    8.20
   6  -4  -8  123.59    9.60
   5  -4  -8    3.80    3.60
   4  -4  -8   78.39    7.40
  -4   4   8   68.19    7.30
   3  -4  -8    3.10    3.80
  -3   4   8   -3.00    3.60
  -2   4   8   -2.50    3.20
  -1   4   8   98.59    8.40
   0   4   8   79.29    7.50
   1   4   8   35.50    3.30
   1   4   8   34.40    3.90
   1   4   8   37.20    5.00
   2   4   8   10.50    2.50
   2   4   8   10.40    3.90
   2   4   8   10.60    2.10
   2   4   8   -0.50   35.00
   2   4   8   10.30    2.40
   3   4   8    0.90    2.30
   3   4   8   -4.80   39.50
   3   4   8   -0.90    1.70
   4   4   8  -21.80   38.20
   5   4   8   12.80    2.30
   5   4   8  -47.60   32.80
   5   4   8    7.30    2.70
   6   4   8    0.30   32.50
   7   4   8    6.50    2.40
  11  -5  -8   18.30    2.10
  10  -5  -8   12.70    2.20
  10  -5  -8   14.70    1.80
   9  -5  -8   -0.90    1.90
   9  -5  -8    4.30    2.20
   8  -5  -8    6.60    2.60
   8  -5  -8    1.20    2.10
   7  -5  -8   42.70    4.40
   7  -5  -8   37.10    3.70
   6  -5  -8   -0.30    2.70
   6  -5  -8   -2.30    4.10
   6  -5  -8    4.10    2.30
   5  -5  -8   47.50    6.00
   4  -5  -8   99.69    8.70
  -4   5   8   91.49    9.40
  -3   5   8  104.99    9.30
  -2   5   8   70.19    7.30
  -1   5   8   71.29    7.10
  -1   5   8   66.59    6.10
   0   5   8   41.50    3.60
   0   5   8   51.09    5.90
   0   5   8   38.50    4.40
   0   5   8   40.20    4.20
   1   5   8   64.69    5.30
   1   5   8   68.39    5.00
   1   5   8   54.39    6.40
   1   5   8   59.69    5.20
   2   5   8    9.50    2.60
   2   5   8   28.70   33.70
   2   5   8   15.00    2.70
   3   5   8    9.60    2.60
   3   5   8   20.30   33.90
   3   5   8   11.40    2.60
   4   5   8    2.50    2.50
   4   5   8   25.80   37.00
   4   5   8    7.50    2.50
   5   5   8    0.70    2.00
   5   5   8   -2.00    2.30
   6   5   8   36.70    3.70
   7   5   8    9.60    2.70
  11  -6  -8   12.90    1.90
  10  -6  -8   19.90    2.50
  10  -6  -8   25.60    2.50
   9  -6  -8    9.50    2.40
   9  -6  -8    8.30    2.30
   8  -6  -8   24.70    3.40
   8  -6  -8   19.10    2.90
   7  -6  -8   -0.70    2.60
   6  -6  -8   -0.10    2.80
   5  -6  -8   23.10    5.10
  -5   6   8   17.20    4.00
  -4   6   8  123.19   10.90
  -4   6   8  126.29    8.80
  -3   6   8   23.20    3.80
  -3   6   8   19.60    5.10
  -3   6   8   27.10    4.40
  -2   6   8   -0.40    2.50
  -2   6   8   -0.30    3.70
  -2   6   8   -2.80    3.10
  -2   6   8   -3.20    2.50
  -1   6   8    2.30    2.00
  -1   6   8   -5.20    2.40
  -1   6   8   -0.60    2.50
  -1   6   8    1.40    3.00
  -1   6   8    0.50    3.70
   0   6   8   35.00    3.90
   0   6   8   35.90    4.10
   0   6   8   32.60    3.30
   0   6   8   38.00    3.50
   1   6   8   15.50    3.10
   1   6   8   10.50    2.60
   1   6   8   13.40    2.50
   2   6   8   12.10    2.90
   2   6   8   14.10    2.70
   3   6   8    8.50    2.70
   3   6   8   10.90    2.60
   3   6   8    7.60    2.20
   4   6   8   41.50    3.80
   4   6   8   37.70    3.90
   5   6   8    4.20    2.50
   6   6   8   11.50    2.50
  11  -7  -8   -0.80    1.40
  10  -7  -8   46.90    3.70
  10  -7  -8   42.90    3.60
   9  -7  -8    6.30    2.30
   9  -7  -8    7.10    2.10
   8  -7  -8    1.90    2.60
   7  -7  -8    7.50    2.90
  -6   7   8    4.90    3.30
  -5   7   8   17.50    3.80
  -4   7   8   -0.90    3.00
  -4   7   8    5.10    3.40
  -3   7   8   33.10    4.40
  -3   7   8   36.10    5.00
  -3   7   8   41.10    4.40
  -2   7   8   36.40    4.70
  -2   7   8   39.60    4.20
  -2   7   8   40.10    4.30
  -1   7   8   45.10    4.60
  -1   7   8   54.09    4.70
  -1   7   8   47.80    4.40
  -1   7   8   56.49    5.30
   0   7   8   89.49    6.80
   0   7   8   89.39    6.40
   0   7   8   88.09    6.10
   1   7   8    4.10    2.70
   1   7   8    2.30    2.20
   2   7   8    4.60    2.40
   2   7   8    3.10    2.60
   3   7   8  108.29    6.90
   3   7   8  102.99    6.80
   3   7   8  102.29    6.40
   4   7   8   19.20    2.90
   4   7   8   22.80    2.70
   4   7   8   16.40    3.00
   5   7   8   35.40    3.40
  10  -8  -8    2.80    1.90
   9  -8  -8    7.20    2.30
   9  -8  -8    6.80    2.40
   8  -8  -8    9.30    2.70
   7  -8  -8   30.30    3.90
  -7   8   8   26.50    4.20
  -6   8   8    9.60    3.30
  -5   8   8   54.19    5.20
  -5   8   8   34.50    4.70
  -4   8   8    3.80    3.30
  -4   8   8   -0.20    2.90
  -3   8   8   12.40    3.00
  -3   8   8    7.30    3.40
  -3   8   8   10.30    3.10
  -2   8   8  138.69    9.30
  -2   8   8  143.29    8.90
  -2   8   8  145.99    9.60
  -1   8   8    5.90    3.00
  -1   8   8    8.00    2.80
  -1   8   8    9.10    2.00
   0   8   8   26.50    2.90
   0   8   8   28.50    3.80
   1   8   8  116.49    7.90
   2   8   8   52.79    4.60
   2   8   8   50.29    4.00
   3   8   8    1.00    2.10
   3   8   8    0.20    2.10
   3   8   8    3.70    1.80
   4   8   8    0.70    2.00
  10  -9  -8    3.80    1.90
   9  -9  -8   40.00    4.00
   8  -9  -8   10.60    2.80
   8  -9  -8    9.50    2.60
  -8   9   8   13.00    3.10
   7  -9  -8    8.80    3.00
  -7   9   8    6.00    3.10
  -6   9   8   38.90    4.50
  -5   9   8   17.50    3.60
  -5   9   8   18.10    3.70
  -4   9   8   11.00    3.20
  -4   9   8   12.50    3.50
  -3   9   8    6.90    2.90
  -3   9   8    8.10    3.20
  -3   9   8   -0.90    2.40
  -2   9   8   37.50    3.40
  -2   9   8   37.30    4.30
  -2   9   8   36.00    4.10
  -1   9   8   16.00    3.40
  -1   9   8   15.00    2.50
   0   9   8   10.00    3.00
   1   9   8    0.40    1.80
   1   9   8    0.30    2.50
   2   9   8   32.50    3.50
   2   9   8   35.70    3.10
   3   9   8   13.90    2.10
   9 -10  -8    1.40    2.10
  -9  10   8    5.60    2.20
   8 -10  -8   -1.30    2.00
   8 -10  -8   -0.50    2.30
  -8  10   8   -2.90    1.90
  -7  10   8   -1.00    2.20
  -6  10   8   13.40    3.30
  -6  10   8    9.90    2.80
  -5  10   8   12.70    2.80
  -5  10   8   10.00    3.30
  -4  10   8   -0.70    2.70
  -4  10   8   -0.90    2.00
  -3  10   8   31.00    3.90
  -3  10   8   28.40    3.60
  -3  10   8   26.70    2.60
  -2  10   8   15.10    3.20
  -2  10   8    9.80    2.20
  -1  10   8   35.90    4.00
   0  10   8   17.90    3.10
   1  10   8   15.40    2.00
   1  10   8   16.00    2.70
   2  10   8   41.40    3.50
  -7  11   8    3.60    1.70
  -6  11   8    3.30    2.10
  -6  11   8    3.00    1.80
  -5  11   8   18.20    2.80
  -5  11   8   25.40    2.40
  -4  11   8    0.20    1.80
  -4  11   8    4.70    1.50
  -3  11   8   13.90    1.90
  -3  11   8   13.30    2.90
  -2  11   8   18.60    3.00
  -1  11   8   22.50    3.00
   0  11   8    8.40    2.20
   2  11  -9   -0.20    1.50
   1  11  -9   23.10    2.20
   1  11  -9   24.40    2.60
   0  11  -9   22.20    2.40
   0  11  -9   25.40    3.00
   0  11  -9   27.60    2.10
  -1  11  -9    8.50    1.80
  -1  11  -9    4.50    1.70
  -2  11  -9   15.30    2.00
  -2  11  -9   18.00    2.40
  -3  11  -9    3.70    1.90
  -3  11  -9    9.50    1.90
  -4  11  -9   -0.80    1.70
  -4  11  -9    4.00    1.80
  -5  11  -9   -3.40    1.40
   4  10  -9   13.80    1.80
   3  10  -9   16.60    2.20
   3  10  -9   14.00    2.10
   2  10  -9   24.30    2.90
   2  10  -9   21.50    2.50
   1  10  -9   10.30    2.30
   1  10  -9   12.60    1.80
   1  10  -9   10.60    2.70
   0  10  -9    0.10    1.80
   0  10  -9   -0.30    2.50
   0  10  -9   -1.70    2.00
  -1  10  -9   16.40    2.70
  -1  10  -9   20.60    2.50
  -2  10  -9   29.30    3.30
  -2  10  -9   33.90    3.30
  -3  10  -9   18.00    2.60
  -3  10  -9   15.70    2.80
  -4  10  -9   11.80    2.40
  -5  10  -9   -2.10    1.70
   5 -10   9    2.50    2.70
  -6  10  -9   26.60    2.90
   6 -10   9   20.90    3.10
   5   9  -9   17.50    2.20
   5   9  -9   21.00    2.10
   4   9  -9   49.10    3.90
   4   9  -9   45.10    3.90
   3   9  -9    3.30    2.40
   3   9  -9    0.50    2.00
   2   9  -9   52.19    4.80
   2   9  -9   54.99    4.60
   2   9  -9   50.99    3.60
   1   9  -9   37.90    3.80
   1   9  -9   35.70    3.50
   1   9  -9   45.00    4.40
   0   9  -9   -0.70    2.10
   0   9  -9   -0.30    2.80
   0   9  -9   -0.60    1.90
  -1   9  -9   21.20    2.90
  -1   9  -9   17.70    3.00
  -2   9  -9   12.70    2.90
  -2   9  -9   18.50    2.80
  -3   9  -9    0.50    2.20
  -3   9  -9    3.40    2.50
  -4   9  -9   55.69    4.90
  -5   9  -9   -0.90    2.30
   5  -9   9    6.00    3.30
   6  -9   9   -0.50    2.70
   7  -9   9   -0.30    2.20
   6   8  -9   27.10    2.40
   6   8  -9   21.40    2.60
   5   8  -9   20.60    2.60
   5   8  -9   18.50    2.60
   4   8  -9   20.60    2.90
   4   8  -9   19.60    2.90
   3   8  -9    6.10    2.40
   3   8  -9    4.30    2.80
   3   8  -9    9.10    1.90
   2   8  -9    7.40    2.60
   2   8  -9    8.00    2.10
   2   8  -9    0.30    2.80
   1   8  -9    1.60    2.00
   1   8  -9    2.90    3.00
   1   8  -9    4.00    2.30
   0   8  -9  117.89    7.50
   0   8  -9  113.99    8.20
   0   8  -9  112.49    7.30
  -1   8  -9   28.10    3.20
  -1   8  -9   19.40    3.10
  -2   8  -9   12.40    3.00
  -2   8  -9    7.30    2.50
  -3   8  -9    8.90    2.70
  -4   8  -9   73.29    5.70
   4  -8   9   64.79    6.50
   5  -8   9   29.60    4.40
   6  -8   9    2.50    3.00
   7  -8   9   -6.60    2.20
   7   7  -9   16.80    1.90
   7   7  -9   13.60    2.20
   6   7  -9   10.80    2.10
   6   7  -9   10.10    2.50
   5   7  -9   25.60    3.10
   5   7  -9   21.60    3.10
   4   7  -9    9.20    2.80
   4   7  -9   11.40    2.60
   3   7  -9   35.20    3.80
   3   7  -9   29.70    3.90
   3   7  -9   36.80    3.40
   2   7  -9   21.90    3.60
   2   7  -9   14.30    2.90
   2   7  -9   27.80    3.20
   2   7  -9   15.90    2.50
   1   7  -9  156.78   10.20
   1   7  -9  160.98    9.50
   1   7  -9  164.28    9.80
   0   7  -9    0.80    3.10
   0   7  -9    0.90    2.20
   0   7  -9    1.60    2.10
  -1   7  -9  161.68    9.70
  -1   7  -9  164.28   10.00
  -2   7  -9    5.50    2.40
  -3   7  -9   89.59    6.60
   4  -7   9   14.60    4.00
   5  -7   9   66.39    6.50
   6  -7   9   34.40    3.30
   6  -7   9   40.30    4.80
   7  -7   9    2.30    2.50
   7  -7   9    0.20    1.60
   8  -7   9   36.50    2.90
   8   6  -9   14.10    2.30
   7   6  -9    8.60    2.10
   7   6  -9   12.30    2.50
   6   6  -9   -2.10    2.20
   6   6  -9   -1.50    1.90
   5   6  -9  157.48    9.30
   5   6  -9  155.88    9.40
   4   6  -9  301.87   16.50
   4   6  -9  318.37   16.70
   4   6  -9  298.47   16.00
   3   6  -9    9.50    2.60
   3   6  -9    9.60    2.40
   3   6  -9    5.20    1.90
   3   6  -9    9.30    2.90
   2   6  -9   -1.00    2.00
   2   6  -9    0.60    2.20
   2   6  -9   -1.30    2.70
   1   6  -9    4.30    2.90
   1   6  -9    4.70    2.30
   1   6  -9    5.80    2.40
   0   6  -9  112.79    8.30
   0   6  -9  141.39   14.20
   0   6  -9  122.79    7.60
   0   6  -9  121.79    7.90
  -1   6  -9   75.89    7.90
  -1   6  -9   66.99    5.60
  -1   6  -9   73.19    5.40
  -2   6  -9   15.20    2.80
   3  -6   9  114.59    8.80
   4  -6   9   31.00    5.00
   5  -6   9   10.30    3.70
   5  -6   9    8.60    2.20
   6  -6   9   14.00    2.40
   6  -6   9    9.00    3.30
   7  -6   9   14.20    2.20
   7  -6   9   11.50    2.90
   8  -6   9   30.20    2.70
   9  -6   9    8.30    1.50
   9   5  -9    4.30    1.80
   8   5  -9    8.90    2.40
   8   5  -9    6.80    1.80
   7   5  -9   26.20    2.90
   7   5  -9   25.00    3.30
   6   5  -9    0.20    2.10
   6   5  -9    3.00    2.30
   5   5  -9   97.69    6.40
   5   5  -9   84.99    6.30
   4   5  -9   34.30    3.70
   4   5  -9   35.20    3.60
   4   5  -9   32.90    3.20
   3   5  -9    2.70    1.90
   3   5  -9    1.50    2.40
   3   5  -9    2.30    2.10
   3   5  -9    1.30    2.20
   2   5  -9   28.30    3.20
   2   5  -9   25.40    3.40
   2   5  -9   31.20    5.00
   2   5  -9   37.60    3.90
   1   5  -9   23.60    4.60
   1   5  -9   25.20    3.40
   1   5  -9   23.90    3.10
   0   5  -9  219.48   12.70
   0   5  -9  237.48   14.70
  -1   5  -9    2.30    4.30
   1  -5   9    2.90    4.60
   2  -5   9   48.50    6.90
   3  -5   9   73.99    9.00
   3  -5   9   93.09    7.50
   4  -5   9   13.80    2.40
   4  -5   9   18.80    4.00
   5  -5   9  283.97   15.40
   5  -5   9  291.17   16.60
   6  -5   9    5.30    3.20
   6  -5   9    6.80    2.10
   7  -5   9   61.49    4.30
   7  -5   9   53.39    4.40
   8  -5   9   14.80   38.20
   8  -5   9   22.40    2.40
   9  -5   9    1.50    1.30
   9   4  -9    7.70    2.30
   9   4  -9   10.50    1.60
   8   4  -9   33.90    3.70
   8   4  -9   34.90    3.10
   7   4  -9    2.80    2.50
   7   4  -9    2.30    2.10
   6   4  -9   15.30    2.80
   6   4  -9   16.30    2.70
   5   4  -9   75.79    5.50
   5   4  -9   70.19    4.70
   5   4  -9   77.19    5.60
   4   4  -9   12.80    3.70
   4   4  -9   11.50    2.60
   4   4  -9    9.70    2.30
   4   4  -9    6.60    2.30
   3   4  -9   90.59    5.90
   3   4  -9   82.29    6.80
   3   4  -9   84.09    7.70
   3   4  -9   79.29    5.60
   3   4  -9   82.09    6.10
   2   4  -9   21.10    2.90
   2   4  -9   18.00    4.10
   1   4  -9    7.70    3.80
   0   4  -9  133.29    9.60
   0  -4   9  119.69   10.60
  -1   4  -9   -0.10    3.60
   1  -4   9   -2.00    4.10
   2  -4   9  274.57   17.40
   3  -4   9    9.60    4.20
   3  -4   9   12.80    2.40
   3  -4   9    4.10    3.40
   4  -4   9   15.20    2.40
   4  -4   9   20.60    3.90
   5  -4   9   69.49    6.10
   5  -4   9   60.39    4.70
   6  -4   9   24.90    3.60
   6  -4   9   20.70    2.70
   7  -4   9    9.90   42.40
   8  -4   9    4.60    1.70
   8  -4   9    0.70   38.50
   9  -4   9    1.10    1.30
  10   3  -9   37.40    3.40
   9   3  -9   31.80    2.80
   9   3  -9   32.40    3.40
   8   3  -9   81.29    6.20
   8   3  -9   86.79    5.70
   7   3  -9   19.00    2.80
   7   3  -9   18.50    3.00
   6   3  -9   59.29    4.80
   6   3  -9   53.99    4.70
   5   3  -9    2.70    2.10
   5   3  -9    0.50    1.80
   5   3  -9    2.70    2.20
   5   3  -9    5.70    4.30
   4   3  -9   25.70    3.00
   4   3  -9   18.90    3.90
   4   3  -9   23.90    3.50
   4   3  -9   28.20    3.90
   3   3  -9  413.16   24.40
   3   3  -9  451.05   23.90
   2   3  -9   57.69    6.00
   1   3  -9   13.90    3.80
  -1  -3   9   21.70    5.30
   0   3  -9  175.38   11.70
   0  -3   9  171.78   12.50
  -1   3  -9    4.10    3.60
   1  -3   9    6.60    4.20
   2  -3   9   15.20    4.30
   3  -3   9    9.50    4.00
   3  -3   9    6.10    2.90
   4  -3   9  172.08   13.40
   4  -3   9  182.68   10.20
   4  -3   9  188.48   11.20
   5  -3   9   66.09    4.60
   5  -3   9   56.19    5.60
   6  -3   9   23.80    3.00
   6  -3   9   18.90    2.60
   7  -3   9   31.60    3.00
   7  -3   9   31.80   43.00
   8  -3   9  -18.50   34.10
   8  -3   9    0.70    1.60
   9  -3   9    3.90    1.30
  10   2  -9    4.10    2.20
  10   2  -9   -1.10    1.10
   9   2  -9   19.40    3.00
   9   2  -9   21.20    2.40
   8   2  -9    4.80    2.70
   8   2  -9   15.10    2.40
   7   2  -9   31.00    3.50
   7   2  -9   31.80    3.40
   6   2  -9   97.79    5.90
   6   2  -9   82.79    6.30
   6   2  -9  104.59    6.50
   5   2  -9   40.30    3.80
   5   2  -9   34.90    4.70
   5   2  -9   42.20    3.70
   5   2  -9   52.89    4.70
   5   2  -9   36.00    3.60
   4   2  -9   94.89    7.60
   4   2  -9   91.99    6.20
   4   2  -9   90.79    6.80
   3   2  -9   -1.00    2.90
   2   2  -9    9.90    3.40
   1   2  -9    0.20    2.90
  -1  -2   9    6.40    4.10
   0   2  -9  128.09    9.30
   0  -2   9  133.89   10.00
   1  -2   9  194.68   12.80
   2  -2   9   47.50    5.60
   3  -2   9   27.20    4.80
   3  -2   9   20.30    3.30
   4  -2   9   25.30    3.60
   4  -2   9   20.90    4.60
   4  -2   9   23.10    2.50
   5  -2   9   75.59    5.50
   5  -2   9   71.29    5.00
   6  -2   9   13.60   43.30
   7  -2   9   -1.20   40.10
   8  -2   9    4.60    1.60
   8  -2   9    7.60   45.90
   9  -2   9    2.20    1.20
  10   1  -9    7.90    2.40
  10   1  -9    9.20    1.60
   9   1  -9   22.90    3.20
   9   1  -9   27.30    2.80
   8   1  -9    0.20    2.40
   8   1  -9   -2.20    1.90
   7   1  -9   39.20    3.00
   7   1  -9   36.30    3.70
   7   1  -9   37.90    3.90
   6   1  -9   55.99    4.30
   6   1  -9   41.60    5.20
   6   1  -9   46.90    4.30
   6   1  -9   43.70    5.30
   5   1  -9    4.70    3.30
   5   1  -9    3.10    2.10
   5   1  -9    6.90    2.70
   4   1  -9   86.09    7.50
   3   1  -9   -1.20    3.00
   2   1  -9  203.18   12.80
  -2  -1   9  212.88   13.40
   1   1  -9  361.86   20.60
  -1  -1   9  376.26   21.00
   0   1  -9    8.10    3.40
   0  -1   9    9.70    3.70
  -1   1  -9   23.40    2.90
   1  -1   9   23.40    4.20
  -2   1  -9  157.18    9.70
   2  -1   9  172.18   11.10
  -3   1  -9    1.80    2.60
   3  -1   9    0.60    2.00
   3  -1   9    2.10    3.10
   4  -1   9  170.88   11.80
   4  -1   9  168.68    9.70
   4  -1   9   52.09   41.70
   4  -1   9  177.58   10.20
   4  -1   9  183.48    9.60
   5  -1   9    0.80    1.90
   5  -1   9    7.50   41.80
   5  -1   9    1.90    1.60
   6  -1   9    7.60    1.90
   6  -1   9    7.10   43.90
   7  -1   9   -9.90   47.50
   8  -1   9    7.70    1.60
   8  -1   9  -37.20   40.60
  11   0  -9    4.20    1.10
  11   0  -9    0.60    2.20
  10   0  -9    0.10    1.50
  10   0  -9   -0.20    2.30
   9   0  -9    7.00    2.10
   9   0  -9    5.20    2.60
   8   0  -9   -2.90    2.30
   8   0  -9    3.00    2.10
   7   0  -9    3.50    2.20
   7   0  -9    1.40    1.80
   6   0  -9   42.10    3.90
   6   0  -9   48.20    4.10
   6   0  -9   30.10    4.60
   5   0  -9  116.79    7.50
   5   0  -9  121.69    8.80
   4   0  -9   33.90    4.60
   3   0  -9   24.20    4.20
   2   0  -9  209.68   13.60
  -2   0   9  229.68   13.80
   1   0  -9  123.79    9.70
  -1   0   9  145.89    9.80
   0   0  -9   33.20    4.80
   0   0   9   31.30    4.50
   1   0   9  143.99   10.00
   2   0   9  100.69    8.10
  -3   0  -9   82.19    7.30
   3   0   9   98.09    6.00
   3   0   9  103.99    6.70
   3   0   9  106.79    8.20
   3   0   9   -9.30   33.20
   4   0   9   10.80   37.10
   4   0   9   34.00    3.10
   4   0   9   28.30    3.20
   4   0   9   34.00    2.90
   4   0   9   25.60    4.70
   5   0   9   66.09    4.90
   5   0   9    3.00   40.20
   5   0   9   68.79    4.70
   6   0   9  -16.40   47.60
   7   0   9    7.40    1.70
   7   0   9   13.30   45.60
   8   0   9    0.20    1.40
  11  -1  -9   43.30    3.00
  10  -1  -9    8.10    1.90
  10  -1  -9   14.60    2.70
   9  -1  -9    1.50    2.00
   8  -1  -9    1.20    1.60
   8  -1  -9    0.10    2.00
   7  -1  -9   56.09    4.60
   7  -1  -9   45.10    4.20
   6  -1  -9   10.10    2.60
   6  -1  -9    9.10    2.50
   6  -1  -9    3.90    3.60
   5  -1  -9  183.68   12.30
   5  -1  -9  194.28   12.20
   4  -1  -9   28.30    4.80
   3  -1  -9  196.28   12.60
  -3   1   9  192.88   12.80
   2  -1  -9   18.80    4.40
  -2   1   9   31.00    4.80
   1  -1  -9  105.79    8.90
  -1   1   9  131.89    9.10
   0   1   9   36.50    4.80
   1   1   9  229.68   13.90
   2   1   9  107.79    8.50
   2   1   9  113.39    7.50
   3   1   9  192.48   12.40
   3   1   9  197.98   10.70
   3   1   9  196.18   11.20
   3   1   9  201.58   10.90
   4   1   9   -0.30    1.40
   4   1   9    0.70    1.80
   4   1   9    4.00    1.90
   4   1   9   21.80   47.20
   5   1   9   33.80    3.30
   5   1   9   23.20   47.30
   5   1   9   24.80    2.50
   6   1   9  116.79    6.70
   6   1   9   41.30   48.70
   6   1   9  115.19    7.30
   7   1   9  -10.50   39.80
   7   1   9   -1.40    1.60
   7   1   9   -4.30    2.00
   8   1   9    8.80    2.10
  11  -2  -9   28.00    2.50
  10  -2  -9   20.00    2.40
   9  -2  -9   -2.50    1.90
   8  -2  -9    8.90    2.40
   8  -2  -9   11.80    2.30
   7  -2  -9  127.99    8.10
   7  -2  -9  124.29    8.00
   6  -2  -9   22.10    3.30
   6  -2  -9   17.30    4.30
   6  -2  -9   16.10    2.90
   5  -2  -9   90.19    8.10
   4  -2  -9   17.70    4.50
   3  -2  -9  110.49    9.10
  -3   2   9  113.49    9.40
   2  -2  -9   68.09    6.90
  -2   2   9   86.59    7.70
  -1   2   9   22.10    4.50
   0   2   9   17.00    4.00
   1   2   9   86.89    7.70
   2   2   9    7.30    2.60
   2   2   9    2.50    1.90
   2   2   9    1.30    3.00
   3   2   9   23.80   42.60
   3   2   9  178.28    9.90
   3   2   9  178.78   10.20
   3   2   9  188.78   10.20
   3   2   9  182.88   11.80
   4   2   9   10.00   46.60
   4   2   9   48.20    3.90
   4   2   9   53.99    4.40
   5   2   9   -1.10   41.90
   5   2   9   -1.00    1.60
   5   2   9    3.10    2.30
   6   2   9   67.69    5.20
   6   2   9   15.10   40.70
   6   2   9   67.19    4.60
   7   2   9   -5.30    1.90
   7   2   9   -0.90    1.70
   7   2   9    6.10   39.80
  11  -3  -9    0.00    1.40
  10  -3  -9   26.20    2.70
   9  -3  -9   26.20    3.10
   9  -3  -9   27.20    2.60
   8  -3  -9   13.80    2.60
   8  -3  -9   23.00    3.00
   7  -3  -9   19.10    3.00
   7  -3  -9   24.90    3.40
   6  -3  -9    1.60    3.60
   6  -3  -9    5.20    2.80
   6  -3  -9    3.90    2.30
   5  -3  -9    3.60    3.80
   5  -3  -9    5.60    2.90
   4  -3  -9    2.20    3.80
  -4   3   9    6.10    4.50
   3  -3  -9   30.40    5.30
  -3   3   9   32.80    5.50
  -2   3   9   38.00    5.30
  -1   3   9   38.60    5.30
   0   3   9  216.58   13.80
   1   3   9    2.10    3.40
   1   3   9   11.40    2.80
   1   3   9    8.50    2.10
   2   3   9   -1.20    2.20
   2   3   9   -0.90    1.90
   2   3   9    0.30    3.50
   2   3   9    1.90    1.80
   3   3   9   37.10    3.30
   3   3   9    2.50   38.70
   3   3   9   33.60    3.50
   4   3   9   -9.60   37.90
   5   3   9   78.79    5.70
   5   3   9  -10.10   40.60
   5   3   9   72.89    5.00
   6   3   9   13.50    2.10
   6   3   9   13.00    2.70
   6   3   9   22.70   38.20
   7   3   9   24.00    2.90
  11  -4  -9   24.70    2.40
  10  -4  -9   62.69    4.50
   9  -4  -9    3.60    2.10
   9  -4  -9    6.10    2.10
   8  -4  -9   39.40    4.10
   8  -4  -9   38.10    3.80
   7  -4  -9    8.00    2.90
   7  -4  -9    4.70    2.50
   6  -4  -9   70.29    5.40
   6  -4  -9   64.19    5.80
   5  -4  -9   94.69    8.60
   5  -4  -9   88.49    7.00
   4  -4  -9   77.39    7.40
  -4   4   9   57.59    7.20
   3  -4  -9   23.40    5.00
  -3   4   9   17.60    4.70
  -2   4   9   44.50    5.70
  -1   4   9   -4.30    3.30
  -1   4   9   -2.20    2.70
   0   4   9   45.30    4.00
   0   4   9   42.80    4.50
   0   4   9   56.69    6.30
   1   4   9   -2.00    1.90
   1   4   9   -3.30    2.40
   1   4   9   -3.30    1.90
   1   4   9    3.00    3.50
   1   4   9   -2.00    2.10
   2   4   9    9.20    2.20
   2   4   9    4.10    2.30
   2   4   9    5.30    2.40
   3   4   9   22.40    2.80
   3   4   9   33.40    3.40
   3   4   9  -13.20   34.20
   4   4   9   22.10   38.50
   5   4   9   69.29    5.30
   5   4   9   68.29    4.90
   5   4   9   39.70   36.20
   6   4   9   -1.70    2.20
   7   4   9   29.80    3.10
  11  -5  -9   12.90    1.80
  10  -5  -9   34.60    2.90
  10  -5  -9   40.80    3.50
   9  -5  -9   21.60    2.80
   9  -5  -9   23.60    3.00
   8  -5  -9   68.69    5.30
   8  -5  -9   70.79    5.80
   7  -5  -9   -0.80    2.50
   7  -5  -9   -1.00    2.20
   6  -5  -9   97.89    7.30
   5  -5  -9  132.09   10.80
  -4   5   9    5.20    3.30
  -4   5   9    0.00    4.50
  -3   5   9   16.60    4.80
  -3   5   9   17.90    4.00
  -3   5   9   13.50    4.40
  -2   5   9    0.50    3.70
  -2   5   9    5.00    3.30
  -2   5   9   -0.40    2.80
  -1   5   9  106.39    7.40
  -1   5   9   97.19    9.00
  -1   5   9  101.69    7.20
  -1   5   9  106.09    7.80
   0   5   9   94.89    9.60
   0   5   9   89.99    6.80
   0   5   9   84.29    6.50
   0   5   9   83.99    5.90
   0   5   9   85.69    6.20
   1   5   9    9.40    2.50
   1   5   9    8.50    2.80
   1   5   9    9.10    2.90
   2   5   9   17.90    3.10
   2   5   9   20.80    3.10
   3   5   9    4.70    2.40
   3   5   9    6.00    2.50
   4   5   9    3.70    2.50
   4   5   9    8.30    2.60
   5   5   9   19.20    2.90
   5   5   9   14.90    2.50
   6   5   9   -1.60    2.00
  11  -6  -9   18.00    2.00
  10  -6  -9   21.50    2.40
  10  -6  -9   20.00    2.50
   9  -6  -9    8.80    2.50
   9  -6  -9   11.10    2.50
   8  -6  -9   24.50    3.50
   8  -6  -9   22.70    3.00
   7  -6  -9   14.10    3.30
   6  -6  -9   38.50    4.40
  -5   6   9   -1.10    3.20
  -4   6   9   -2.30    3.00
  -4   6   9    3.40    3.50
  -3   6   9   36.90    5.00
  -3   6   9   30.90    4.40
  -3   6   9   31.80    3.80
  -2   6   9    9.10    2.90
  -2   6   9    3.40    2.90
  -2   6   9   10.90    3.50
  -1   6   9   37.80    4.20
  -1   6   9   38.90    3.60
  -1   6   9   33.50    4.50
  -1   6   9   40.20    4.20
   0   6   9    3.50    2.90
   0   6   9    1.00    2.20
   0   6   9    1.00    2.70
   0   6   9   -0.10    2.00
   1   6   9   37.70    3.80
   1   6   9   38.60    3.80
   1   6   9   42.10    4.40
   2   6   9   28.50    3.30
   2   6   9   23.60    3.60
   3   6   9   -1.40    2.40
   3   6   9   -1.00    2.40
   4   6   9   -0.90    2.20
   4   6   9    2.60    2.10
   5   6   9    6.10    2.30
  10  -7  -9    6.40    1.90
  10  -7  -9    9.90    2.00
   9  -7  -9   21.20    2.90
   8  -7  -9   22.60    3.40
   7  -7  -9    2.10    3.20
  -6   7   9   52.69    5.60
  -5   7   9    0.40    3.40
  -4   7   9   51.99    5.40
  -3   7   9   15.50    3.60
  -3   7   9    2.90    3.50
  -3   7   9    9.50    3.10
  -2   7   9   25.50    3.00
  -2   7   9   26.70    4.40
  -2   7   9   26.30    3.50
  -2   7   9   19.80    3.60
  -1   7   9   92.89    6.40
  -1   7   9   94.39    6.40
  -1   7   9  102.39    7.20
  -1   7   9  100.29    7.50
   0   7   9   -1.00    2.30
   0   7   9    3.70    2.90
   0   7   9    3.60    2.30
   1   7   9    5.90    2.40
   1   7   9   11.30    3.10
   2   7   9   46.60    4.20
   2   7   9   38.20    3.70
   2   7   9   36.80    3.30
   3   7   9   60.99    4.70
   3   7   9   56.09    4.70
   4   7   9   21.20    2.50
   4   7   9   23.20    2.90
  10  -8  -9   12.70    2.10
   9  -8  -9    2.90    2.10
   9  -8  -9    3.10    2.10
   8  -8  -9   -1.50    2.40
   7  -8  -9   57.09    5.80
  -7   8   9   72.49    6.20
  -6   8   9   23.50    4.00
  -5   8   9    8.30    3.40
  -5   8   9   -1.20    3.00
  -4   8   9    6.10    3.20
  -4   8   9   21.30    4.10
  -3   8   9   10.60    3.20
  -3   8   9    8.20    2.90
  -3   8   9   12.80    3.80
  -2   8   9   19.40    3.80
  -2   8   9   18.60    3.50
  -2   8   9   16.70    3.00
  -1   8   9   23.50    3.80
  -1   8   9   36.00    3.80
   0   8   9   17.50    3.30
   0   8   9   16.10    2.00
   1   8   9   94.19    7.30
   1   8   9  106.59    7.10
   2   8   9    4.40    2.40
   2   8   9    4.80    2.20
   2   8   9    1.40    1.80
   3   8   9   13.90    2.40
   3   8   9   14.70    2.40
   9  -9  -9   38.40    3.50
   9  -9  -9   40.50    3.80
   8  -9  -9    4.90    2.30
  -8   9   9    4.60    2.50
  -7   9   9   94.89    6.90
  -6   9   9    0.10    2.90
  -6   9   9    1.30    2.90
  -5   9   9    0.90    2.80
  -5   9   9    4.70    3.20
  -4   9   9    3.10    2.80
  -4   9   9    0.60    3.00
  -3   9   9   11.90    3.30
  -3   9   9    9.40    3.20
  -3   9   9   16.70    2.80
  -2   9   9   50.49    4.70
  -2   9   9   42.70    4.20
  -2   9   9   39.80    3.60
  -1   9   9   10.10    1.90
  -1   9   9   10.00    3.10
   0   9   9   11.00    3.00
   1   9   9   33.10    2.80
   1   9   9   27.80    3.40
   2   9   9    1.60    1.50
   2   9   9    1.00    1.90
   8 -10  -9    2.10    2.10
   8 -10  -9    4.10    2.40
  -8  10   9    9.40    2.00
  -7  10   9    8.40    2.30
  -6  10   9    6.70    2.80
  -6  10   9    8.80    2.50
  -5  10   9   39.20    3.60
  -5  10   9   25.60    3.80
  -4  10   9   11.50    2.90
  -4  10   9   14.20    2.30
  -3  10   9   75.79    6.00
  -3  10   9   79.39    5.60
  -2  10   9   -0.30    2.70
  -2  10   9    1.80    1.50
  -1  10   9    2.20    2.50
   0  10   9   55.99    3.70
   0  10   9   49.50    4.50
  -7  11   9    0.20    1.40
  -6  11   9    1.60    1.90
  -6  11   9    2.30    1.50
  -5  11   9   12.10    2.20
  -5  11   9   15.10    1.70
  -4  11   9   12.20    2.00
  -3  11   9   -0.50    2.30
  -2  11   9   24.20    3.00
  -1  11   9    2.10    2.00
   1  11 -10    4.90    1.70
   0  11 -10   24.60    2.30
  -1  11 -10   23.20    2.40
  -1  11 -10   30.90    2.40
  -2  11 -10   10.10    1.50
  -2  11 -10    7.50    1.60
  -2  11 -10   10.30    1.90
  -3  11 -10   -0.90    1.40
  -3  11 -10    0.20    1.80
  -4  11 -10    2.60    1.60
   3  10 -10    3.20    1.60
   3  10 -10    5.10    1.50
   2  10 -10   11.50    1.90
   2  10 -10    8.20    2.10
   1  10 -10    9.70    2.10
   1  10 -10    9.10    1.50
   1  10 -10    6.80    2.30
   0  10 -10   34.70    3.20
   0  10 -10   35.90    3.30
  -1  10 -10    1.70    1.70
  -1  10 -10    1.00    2.00
  -2  10 -10   39.00    3.60
  -2  10 -10   32.10    3.20
  -3  10 -10   27.90    3.30
  -3  10 -10   31.90    3.20
  -4  10 -10    6.80    2.20
  -5  10 -10   34.20    3.30
   5 -10  10   31.10    3.60
   5   9 -10   54.99    3.60
   5   9 -10   50.99    3.70
   4   9 -10   54.49    3.90
   4   9 -10   53.39    3.90
   3   9 -10   35.20    3.30
   3   9 -10   30.60    3.30
   2   9 -10    5.60    2.50
   2   9 -10    2.80    2.10
   2   9 -10    2.50    1.50
   1   9 -10    8.50    2.30
   1   9 -10   -0.30    2.50
   1   9 -10    5.00    2.00
   0   9 -10   82.09    5.80
   0   9 -10   83.09    6.30
   0   9 -10   77.99    5.40
  -1   9 -10    3.40    2.20
  -1   9 -10    4.80    2.40
  -2   9 -10   36.00    4.00
  -2   9 -10   37.40    3.80
  -3   9 -10    1.90    2.40
  -3   9 -10    5.00    2.40
  -4   9 -10    2.30    2.20
   4  -9  10   -0.50    3.10
  -5   9 -10   64.59    5.00
   5  -9  10   65.19    5.70
   6  -9  10    4.40    2.40
   6   8 -10    0.80    1.50
   6   8 -10    2.30    1.60
   5   8 -10   -0.10    1.70
   5   8 -10    1.00    1.80
   4   8 -10   19.60    2.70
   4   8 -10   15.50    2.60
   3   8 -10   81.19    4.80
   3   8 -10   83.89    5.80
   3   8 -10   86.19    6.20
   2   8 -10   -0.80    2.60
   2   8 -10    1.50    2.00
   2   8 -10   -2.40    2.10
   1   8 -10   87.19    6.00
   1   8 -10   90.49    6.90
   1   8 -10   97.39    6.50
   1   8 -10   93.19    6.40
   0   8 -10    2.60    2.30
   0   8 -10    1.70    2.80
   0   8 -10    3.60    2.30
  -1   8 -10   28.70    3.50
  -1   8 -10   26.50    3.40
  -2   8 -10    7.10    2.70
  -2   8 -10    6.30    2.50
  -3   8 -10    4.30    2.50
  -4   8 -10  106.89    7.20
   4  -8  10   98.79    8.10
   5  -8  10    5.30    3.30
   6  -8  10   -2.20    2.50
   7  -8  10    1.90    2.00
   7   7 -10    4.70    1.40
   7   7 -10   -0.70    1.60
   6   7 -10   46.10    3.80
   6   7 -10   45.60    4.10
   5   7 -10   23.90    3.10
   5   7 -10   27.10    3.10
   4   7 -10   93.29    6.00
   4   7 -10   79.79    6.10
   3   7 -10   35.90    3.30
   3   7 -10   31.00    3.60
   3   7 -10   38.50    4.10
   2   7 -10  115.79    7.20
   2   7 -10  115.79    7.80
   2   7 -10  106.69    6.80
   2   7 -10  105.59    7.20
   1   7 -10   31.20    4.10
   1   7 -10   26.00    3.40
   1   7 -10   32.40    3.80
   0   7 -10    7.60    4.20
   0   7 -10    2.00    2.30
   0   7 -10    4.50    2.50
  -1   7 -10    8.70    2.60
  -1   7 -10    8.00    2.70
  -2   7 -10    3.20    2.40
  -3   7 -10   61.69    5.30
   4  -7  10  113.19    8.90
   5  -7  10    9.20    3.50
   6  -7  10   11.50    3.20
   7  -7  10   41.50    3.60
   7  -7  10   33.40    2.90
   8  -7  10    1.20    1.20
   8   6 -10    0.80    1.70
   7   6 -10   15.50    2.60
   7   6 -10   17.80    2.30
   6   6 -10   66.59    4.90
   6   6 -10   65.19    5.10
   5   6 -10    2.90    2.30
   5   6 -10    5.20    2.40
   4   6 -10  156.48    9.40
   4   6 -10  167.08    9.70
   4   6 -10  153.68    8.90
   3   6 -10    3.70    2.60
   3   6 -10    0.70    1.90
   3   6 -10    3.10    2.30
   3   6 -10    2.40    2.20
   2   6 -10    4.60    2.80
   2   6 -10    1.80    2.20
   2   6 -10    6.30    2.40
   2   6 -10    2.20    2.30
   1   6 -10   29.80    3.50
   1   6 -10   24.00    3.70
   1   6 -10   24.90    3.40
   0   6 -10   21.60    3.10
   0   6 -10   22.00    3.30
  -1   6 -10   88.19    6.30
  -2   6 -10   25.90    3.50
   3  -6  10   45.40    5.70
   4  -6  10   35.20    4.90
   5  -6  10    0.50    1.80
   5  -6  10   -1.40    3.20
   6  -6  10   10.30    2.10
   6  -6  10    5.60    3.10
   7  -6  10    4.00    2.00
   7  -6  10    1.60    1.60
   8  -6  10    9.20    1.60
   8   5 -10    1.10    2.10
   8   5 -10   -1.50    1.50
   7   5 -10    5.20    2.20
   7   5 -10    6.10    2.40
   6   5 -10   25.70    3.20
   6   5 -10   25.00    3.30
   5   5 -10   -1.30    2.20
   5   5 -10   -0.70    2.20
   5   5 -10    0.70    1.40
   4   5 -10   14.90    2.60
   4   5 -10   17.80    2.70
   4   5 -10   18.70    3.10
   3   5 -10   -1.40    2.40
   3   5 -10    0.10    2.00
   3   5 -10   -1.80    2.20
   3   5 -10    1.30    2.20
   2   5 -10  105.99    7.10
   2   5 -10  107.29    7.00
   2   5 -10  102.09    7.40
   1   5 -10    4.60    2.40
   1   5 -10    5.30    4.30
   1   5 -10    1.20    2.30
   1   5 -10   -0.20    2.60
   0   5 -10   28.30    3.40
   0   5 -10   22.10    5.00
   0   5 -10   23.00    3.50
  -1   5 -10  124.09   10.70
  -1   5 -10  120.19    7.80
   3  -5  10    5.30    3.60
   4  -5  10   12.30    3.60
   4  -5  10   11.60    2.40
   5  -5  10   31.00    4.40
   5  -5  10   31.90    3.20
   6  -5  10   21.60    2.70
   6  -5  10   25.20    3.60
   7  -5  10    4.40    1.80
   7  -5  10    5.40    1.80
   7  -5  10    3.10   37.20
   8  -5  10   76.69    4.70
   9   4 -10   27.90    2.30
   9   4 -10   26.60    2.80
   8   4 -10    2.00    2.30
   8   4 -10   -1.10    1.80
   7   4 -10    6.40    2.50
   7   4 -10    7.40    2.40
   6   4 -10    1.80    2.30
   6   4 -10    5.80    2.40
   5   4 -10   94.49    6.50
   5   4 -10   85.59    6.30
   5   4 -10   97.99    5.90
   4   4 -10    0.60    2.20
   4   4 -10    0.00    2.00
   4   4 -10   -0.10    2.20
   3   4 -10   -1.30    2.00
   3   4 -10   -3.40    2.30
   3   4 -10   -1.40    2.30
   3   4 -10   -3.70    3.40
   3   4 -10    1.70    2.20
   2   4 -10  262.77   16.20
   2   4 -10  262.17   14.40
   2   4 -10  263.37   14.40
   2   4 -10  253.77   14.50
   1   4 -10   11.20    2.70
   1   4 -10   15.10    4.50
   0   4 -10  117.39    9.50
  -1   4 -10   34.70    5.60
   1  -4  10   27.10    5.50
   2  -4  10   34.20    5.70
   2  -4  10   42.90    5.10
   3  -4  10    2.20    3.30
   3  -4  10    3.30    2.00
   4  -4  10   42.20    4.70
   4  -4  10   42.80    3.90
   5  -4  10   75.69    6.40
   5  -4  10   66.79    5.00
   6  -4  10   68.29    5.20
   6  -4  10   56.29    4.70
   7  -4  10   -0.90   38.20
   8  -4  10   36.20    3.00
   9   3 -10   32.00    3.40
   9   3 -10   35.00    2.90
   8   3 -10   52.69    4.70
   8   3 -10   50.99    4.40
   7   3 -10   43.80    4.20
   7   3 -10   54.39    4.70
   6   3 -10   47.20    4.50
   6   3 -10   52.89    4.80
   6   3 -10   51.59    3.80
   5   3 -10    6.00    2.30
   5   3 -10    3.50    2.10
   5   3 -10    6.20    2.40
   4   3 -10   86.19    5.90
   4   3 -10   77.29    5.80
   4   3 -10   75.79    7.30
   3   3 -10   17.20    3.10
   3   3 -10   18.20    3.00
   3   3 -10   18.70    4.10
   2   3 -10  102.99    6.80
   2   3 -10   98.49    8.20
   1   3 -10   27.20    4.70
   0   3 -10   56.69    6.60
   0  -3  10   39.70    6.20
   1  -3  10   -2.10    3.60
   2  -3  10   20.80    4.80
   2  -3  10   20.80    3.90
   3  -3  10   50.89    5.20
   3  -3  10   52.19    4.00
   3  -3  10   27.30    6.90
   4  -3  10    2.20    1.90
   4  -3  10    0.20    2.90
   5  -3  10    2.20    2.10
   5  -3  10    1.20    1.90
   5  -3  10   -0.70    2.50
   6  -3  10   10.30    2.40
   6  -3  10   14.60    2.40
   6  -3  10   10.30   43.10
   7  -3  10   17.30   39.90
   7  -3  10   10.30    2.10
   8  -3  10   12.50    1.80
  10   2 -10   32.80    3.20
  10   2 -10   35.80    2.60
   9   2 -10    2.20    1.70
   9   2 -10    1.80    2.30
   8   2 -10    3.90    2.50
   8   2 -10    0.10    2.00
   7   2 -10   26.10    3.30
   7   2 -10   25.40    3.30
   6   2 -10    9.10    2.30
   6   2 -10   12.70    2.80
   6   2 -10   10.30    2.60
   5   2 -10   41.80    4.00
   5   2 -10   35.50    3.70
   4   2 -10    0.70    2.20
   4   2 -10    2.20    3.20
   4   2 -10    2.50    2.50
   3   2 -10   10.10    3.70
   3   2 -10   12.20    2.80
   2   2 -10   27.60    4.40
   1   2 -10    3.80    3.60
  -1  -2  10    0.50    3.90
   0   2 -10   62.59    7.00
   0  -2  10  100.59    8.30
   1  -2  10    0.80    3.40
   2  -2  10  187.48   11.50
   2  -2  10  197.58   13.10
   3  -2  10  220.28   13.90
   3  -2  10  207.78   11.30
   3  -2  10  193.68   12.20
   4  -2  10   87.99    5.80
   4  -2  10   93.69    6.60
   4  -2  10   85.59    6.20
   5  -2  10   -2.00   39.40
   5  -2  10    5.90    2.50
   5  -2  10    5.40    2.00
   6  -2  10    5.20   41.00
   6  -2  10   -1.30    1.80
   7  -2  10  -11.30   37.30
   8  -2  10   18.70    2.00
  10   1 -10   -1.60    1.30
  10   1 -10    4.30    2.20
   9   1 -10    1.80    2.40
   9   1 -10   -1.20    1.80
   8   1 -10   63.69    4.90
   8   1 -10   54.59    4.90
   7   1 -10    4.20    2.40
   7   1 -10    3.90    1.70
   6   1 -10   56.69    4.90
   6   1 -10   61.49    5.30
   5   1 -10   18.60    4.00
   5   1 -10   19.10    3.30
   5   1 -10   17.60    2.90
   5   1 -10   21.70    3.10
   4   1 -10   19.60    4.10
   4   1 -10   21.50    3.30
   3   1 -10   31.70    4.80
   2   1 -10   33.60    5.00
  -2  -1  10   29.80    5.20
   1   1 -10    5.30    3.80
  -1  -1  10    4.80    3.70
   0   1 -10  123.89   10.10
   0  -1  10  141.19    9.90
   1  -1  10   17.80    4.00
   2  -1  10   96.19    6.60
   2  -1  10   84.99    8.00
   3  -1  10  180.98   10.80
   3  -1  10  213.38   12.70
   3  -1  10  172.88   10.60
   3  -1  10   35.10   38.00
   3  -1  10  186.58   10.10
   4  -1  10  -29.30   36.10
   4  -1  10    2.30    2.40
   4  -1  10    7.80    2.20
   4  -1  10    4.80    1.90
   5  -1  10    7.90    2.00
   5  -1  10    8.10    2.10
   5  -1  10  -29.70   38.60
   6  -1  10  -15.00   38.20
   6  -1  10    0.20    1.70
   7  -1  10   24.10    2.50
   7  -1  10    9.90   44.50
   8  -1  10   30.20    2.70
  11   0 -10   16.30    1.60
  10   0 -10    1.70    1.60
   9   0 -10   13.10    2.40
   8   0 -10    3.00    2.40
   7   0 -10   34.60    3.70
   7   0 -10   31.20    3.30
   6   0 -10  201.18   11.40
   6   0 -10  191.68   11.30
   5   0 -10   28.40    4.60
   5   0 -10   24.90    3.40
   5   0 -10   26.10    3.40
   4   0 -10   11.30    3.90
   4   0 -10   10.20    4.40
   3   0 -10  262.97   16.10
   2   0 -10   30.40    4.90
  -2   0  10   32.30    5.10
   1   0 -10   -0.30    3.80
  -1   0  10    0.70    3.50
   0   0  10    3.80    3.30
   1   0  10  109.79    8.70
   2   0  10  307.87   16.60
   2   0  10  326.87   17.80
   2   0  10  279.57   15.80
   3   0  10   56.99    6.30
   3   0  10   71.59    5.60
   3   0  10   56.49    4.50
   3   0  10   17.70   35.70
   3   0  10   62.79    4.50
   3   0  10   65.59    4.80
   4   0  10    3.00   38.20
   4   0  10   43.40    3.80
   4   0  10   42.90    3.60
   4   0  10   42.90    4.10
   5   0  10   -0.50   46.10
   5   0  10    1.50    2.10
   5   0  10    2.60    1.70
   6   0  10   -0.20   45.10
   6   0  10    6.70    1.80
   7   0  10    8.10   39.90
   8   0  10    4.70    1.40
  11  -1 -10    7.80    1.40
  10  -1 -10    1.80    1.70
   9  -1 -10   20.00    2.80
   8  -1 -10   44.80    4.00
   8  -1 -10   39.40    3.50
   7  -1 -10    1.90    2.40
   7  -1 -10    3.80    2.40
   6  -1 -10   50.79    4.70
   6  -1 -10   53.69    4.90
   5  -1 -10    4.70    3.70
   5  -1 -10    6.90    2.80
   4  -1 -10    8.50    3.80
   3  -1 -10   32.60    5.30
  -3   1  10   35.90    5.70
   2  -1 -10  142.09   11.10
  -2   1  10  160.48   11.30
  -1   1  10   88.79    8.10
   0   1  10    0.00    3.10
   1   1  10  117.39    8.90
   1   1  10  111.79    7.80
   2   1  10   59.19    4.30
   2   1  10   71.29    6.60
   2   1  10   53.39    5.00
   2   1  10   61.99    4.80
   2   1  10   53.09    4.30
   3   1  10   12.30    2.00
   3   1  10    6.40    2.50
   3   1  10   12.50    2.30
   4   1  10  108.39    7.00
   4   1  10  119.19    6.80
   4   1  10  113.59    6.60
   4   1  10    0.20   40.30
   5   1  10   17.20   45.00
   5   1  10   10.20    2.10
   5   1  10   11.60    2.50
   6   1  10   12.50   42.40
   6   1  10   25.90    2.90
   6   1  10   40.60    3.50
   7   1  10   22.30    2.80
   7   1  10   25.00    2.40
  11  -2 -10    3.40    1.40
  10  -2 -10    1.10    1.80
   9  -2 -10   60.99    4.70
   8  -2 -10   36.20    3.60
   8  -2 -10   41.30    3.90
   7  -2 -10   29.20    3.60
   7  -2 -10   22.90    3.30
   6  -2 -10   39.50    3.90
   6  -2 -10   20.30    3.60
   5  -2 -10    1.00    2.80
   5  -2 -10    1.30    3.80
   4  -2 -10  229.78   14.90
   3  -2 -10   15.00    4.70
  -3   2  10    8.60    4.50
   2  -2 -10    7.50    4.40
  -2   2  10   12.90    4.10
  -1   2  10  156.18   11.20
   0   2  10    0.90    3.50
   0   2  10    1.00    2.70
   1   2  10  156.88   11.00
   1   2  10  147.09    9.50
   1   2  10  160.58    8.80
   2   2  10   -4.30    3.10
   2   2  10    2.10    2.00
   2   2  10    2.20    2.60
   2   2  10    2.10    2.20
   2   2  10    4.80    2.00
   3   2  10   23.50    2.80
   3   2  10   19.70    2.80
   3   2  10   27.20    3.00
   4   2  10   15.30    2.50
   4   2  10    1.50   39.90
   4   2  10   22.50    2.80
   5   2  10   12.40    2.70
   5   2  10   17.10    2.40
   5   2  10  -18.00   37.10
   6   2  10   45.40    4.10
   6   2  10    3.80   38.90
   6   2  10   47.20    3.60
   7   2  10   15.10    1.90
   7   2  10   13.00    2.30
  11  -3 -10    4.60    1.50
  10  -3 -10   13.10    2.20
   9  -3 -10    8.00    1.80
   9  -3 -10    6.30    2.30
   8  -3 -10    2.80    2.40
   8  -3 -10   -0.10    2.20
   7  -3 -10   -1.40    2.50
   7  -3 -10    2.00    2.40
   6  -3 -10    5.10    2.50
   6  -3 -10   -1.60    2.80
   5  -3 -10   62.29    7.00
   5  -3 -10   56.49    5.80
   5  -3 -10   63.49    6.60
   4  -3 -10  111.79    9.90
   3  -3 -10   -4.30    4.20
  -3   3  10    1.40    4.10
  -2   3  10  130.69   10.50
  -1   3  10   84.79    8.00
  -1   3  10   65.19    6.50
   0   3  10   -0.90    3.50
   0   3  10    0.50    2.70
   0   3  10    7.10    3.90
   1   3  10   13.30    4.10
   1   3  10   15.90    3.30
   1   3  10   16.20    2.90
   1   3  10   18.00    2.50
   1   3  10   13.70    2.40
   2   3  10    0.70    2.50
   2   3  10    1.40    2.20
   2   3  10    2.50    2.00
   3   3  10   64.09    5.00
   3   3  10   72.29    5.30
   4   3  10  -16.20   39.00
   5   3  10    0.30    1.90
   5   3  10   -2.40    2.10
   5   3  10  -11.30   34.10
   6   3  10   55.79    4.50
   6   3  10   55.49    4.00
   7   3  10    2.30    1.90
  11  -4 -10    2.40    1.50
  10  -4 -10   36.50    3.30
   9  -4 -10   11.40    2.40
   9  -4 -10    8.70    2.30
   8  -4 -10   51.39    4.80
   8  -4 -10   41.70    4.20
   7  -4 -10   19.40    3.00
   7  -4 -10   15.20    3.30
   6  -4 -10   -0.80    3.00
   6  -4 -10    1.10    2.40
   5  -4 -10    1.60    3.00
   5  -4 -10    1.20    4.10
   4  -4 -10   66.79    7.60
  -4   4  10   60.79    6.00
  -4   4  10   64.39    8.00
  -3   4  10   33.80    5.80
  -3   4  10   40.40    5.50
  -2   4  10   17.40    4.90
  -2   4  10   27.20    3.90
  -2   4  10   30.20    4.50
  -1   4  10    1.50    3.00
  -1   4  10   -2.50    2.50
  -1   4  10    2.60    3.90
  -1   4  10    0.80    2.50
   0   4  10   28.30    3.10
   0   4  10   32.20    4.10
   0   4  10   35.80    3.60
   0   4  10   30.50    5.30
   0   4  10   32.70    3.90
   1   4  10   13.10    2.60
   1   4  10    9.30    2.40
   1   4  10   12.30    3.20
   1   4  10   10.60    2.60
   2   4  10   36.40    3.90
   2   4  10   36.10    3.60
   2   4  10   31.80    3.50
   3   4  10   48.80    4.30
   3   4  10   52.99    4.60
   4   4  10   12.70    2.70
   4   4  10   15.50    2.60
   5   4  10    0.00   30.70
   5   4  10   21.10    2.80
   5   4  10   19.50    2.90
   6   4  10   15.60    2.50
  11  -5 -10   10.50    1.70
  10  -5 -10   63.69    4.00
  10  -5 -10   65.79    4.50
   9  -5 -10    8.50    2.30
   9  -5 -10    8.20    2.30
   8  -5 -10    1.00    2.50
   8  -5 -10    7.30    2.40
   7  -5 -10  125.09    8.20
   7  -5 -10  108.19    8.00
   6  -5 -10    0.90    2.90
  -5   5  10   11.70    3.70
  -4   5  10   11.70    3.70
  -3   5  10   -3.50    3.10
  -3   5  10   -0.60    3.30
  -2   5  10   89.39    6.90
  -2   5  10   97.29    7.50
  -2   5  10   94.19    7.70
  -1   5  10   26.00    4.20
  -1   5  10   27.30    3.70
  -1   5  10   26.20    3.80
   0   5  10   39.80    4.50
   0   5  10   27.70    3.50
   0   5  10   30.30    3.80
   0   5  10   31.90    3.40
   1   5  10    2.00    2.50
   1   5  10    1.20    2.30
   1   5  10    2.60    2.70
   2   5  10   46.30    4.20
   2   5  10   40.30    4.30
   3   5  10    0.50    2.50
   3   5  10   -2.80    2.10
   4   5  10    6.00    2.50
   4   5  10   14.00    2.80
   5   5  10   14.00    2.20
   5   5  10   13.50    2.50
  11  -6 -10   -0.10    1.40
  10  -6 -10   68.79    4.60
  10  -6 -10   67.09    4.40
   9  -6 -10   -1.20    2.00
   9  -6 -10    0.70    2.10
   8  -6 -10   42.10    4.30
   7  -6 -10    3.80    2.80
   6  -6 -10   25.40    4.10
  -5   6  10    4.00    3.50
  -4   6  10   62.69    6.00
  -4   6  10   61.89    6.40
  -3   6  10   35.40    6.10
  -3   6  10   29.50    4.40
  -2   6  10    7.70    2.90
  -2   6  10    8.10    3.30
  -2   6  10    8.80    3.70
  -1   6  10    7.30    3.50
  -1   6  10    2.10    2.20
  -1   6  10    8.70    2.80
  -1   6  10    6.50    3.00
   0   6  10    7.70    3.00
   0   6  10    9.10    2.50
   0   6  10    8.70    3.10
   1   6  10   14.00    2.90
   1   6  10   14.80    3.50
   1   6  10   20.50    2.40
   2   6  10   55.49    5.10
   2   6  10   59.29    4.90
   3   6  10    0.60    2.40
   3   6  10   -2.10    2.20
   4   6  10   19.10    2.90
   4   6  10   20.30    2.60
   5   6  10   13.70    2.30
  10  -7 -10   19.80    2.30
   9  -7 -10    1.20    2.00
   8  -7 -10   29.20    3.60
   7  -7 -10    5.30    2.90
  -6   7  10   18.40    3.90
  -5   7  10   38.30    4.90
  -4   7  10    1.90    3.20
  -4   7  10    1.20    3.50
  -3   7  10    5.70    2.90
  -3   7  10    4.20    3.20
  -3   7  10   -1.00    1.80
  -3   7  10    4.50    3.50
  -2   7  10    0.60    2.60
  -2   7  10   -5.90    3.00
  -2   7  10   -0.60    1.90
  -2   7  10   -0.80    2.50
  -1   7  10    0.40    3.00
  -1   7  10   -0.60    2.70
  -1   7  10   -0.70    2.00
  -1   7  10   -2.90    2.00
   0   7  10    2.30    2.20
   0   7  10    4.90    2.30
   0   7  10    0.50    2.80
   1   7  10    5.60    2.30
   1   7  10    8.10    3.00
   2   7  10   -1.00    2.30
   2   7  10    2.60    2.30
   3   7  10    7.30    2.20
   3   7  10   11.50    2.40
   4   7  10    0.20    1.50
   4   7  10    3.90    2.00
   9  -8 -10    8.80    2.10
   9  -8 -10    5.70    2.20
   8  -8 -10   21.50    3.10
   7  -8 -10    0.20    2.60
  -7   8  10   -3.10    2.80
  -6   8  10   48.00    5.00
  -5   8  10   25.00    4.30
  -5   8  10   27.50    4.10
  -4   8  10    6.20    3.10
  -4   8  10   -1.30    3.10
  -3   8  10    7.50    2.90
  -3   8  10    9.80    3.50
  -3   8  10    6.20    2.90
  -2   8  10    3.10    3.00
  -2   8  10   -0.10    2.10
  -2   8  10   -0.80    2.60
  -1   8  10   -1.50    2.80
  -1   8  10    2.20    2.30
   0   8  10   14.10    3.20
   0   8  10   19.30    2.80
   1   8  10    1.80    2.50
   1   8  10    4.30    1.80
   1   8  10   -2.60    1.90
   2   8  10   50.69    4.00
   2   8  10   56.99    4.40
   3   8  10   -2.60    1.60
   9  -9 -10    0.90    1.70
   9  -9 -10    2.80    1.90
  -9   9  10    2.80    2.70
   8  -9 -10   -0.20    1.90
  -8   9  10   -1.10    2.20
  -7   9  10    2.20    2.60
  -6   9  10    7.60    3.10
  -6   9  10   10.70    3.00
  -5   9  10    4.80    3.10
  -5   9  10    6.00    2.80
  -4   9  10    2.20    2.50
  -4   9  10    2.20    2.90
  -3   9  10   40.00    4.30
  -3   9  10   45.70    4.40
  -3   9  10   42.20    3.70
  -2   9  10    2.00    2.30
  -2   9  10   -0.20    2.60
  -1   9  10    5.60    2.80
   0   9  10   -0.40    2.40
   1   9  10    0.90    2.20
   1   9  10   -1.00    1.50
   2   9  10   19.50    2.30
  -8  10  10    1.10    1.70
  -7  10  10   13.80    2.80
  -7  10  10   17.60    2.40
  -6  10  10    9.20    2.20
  -6  10  10    5.30    2.60
  -5  10  10    0.70    1.90
  -5  10  10    0.40    2.40
  -4  10  10   91.19    6.00
  -4  10  10   81.99    5.10
  -3  10  10    7.10    2.70
  -3  10  10    8.20    2.00
  -2  10  10   -1.20    2.40
  -1  10  10   52.79    4.50
   0  10  10    9.00    2.30
   2  10 -11    2.80    1.40
   2  10 -11    4.40    1.70
   1  10 -11    0.90    1.90
   1  10 -11    0.40    1.40
   0  10 -11   16.50    2.20
   0  10 -11   20.90    2.30
  -1  10 -11   33.90    2.80
  -1  10 -11   27.80    2.70
  -1  10 -11   28.90    2.90
  -2  10 -11    0.50    1.70
  -2  10 -11    0.70    2.00
  -3  10 -11   49.50    4.10
  -3  10 -11   55.09    4.00
  -4  10 -11   35.10    3.30
   4   9 -11    1.40    1.60
   4   9 -11    0.90    1.50
   3   9 -11   10.60    2.20
   3   9 -11    4.70    1.80
   2   9 -11   90.39    5.00
   2   9 -11   92.59    5.90
   2   9 -11   81.79    5.60
   1   9 -11    6.60    2.10
   1   9 -11    5.50    2.00
   1   9 -11   10.70    2.60
   0   9 -11   13.40    2.50
   0   9 -11   19.10    2.40
   0   9 -11   17.40    2.60
  -1   9 -11  112.09    7.30
  -1   9 -11  113.09    7.00
  -2   9 -11   15.80    2.90
  -2   9 -11   22.50    3.00
  -3   9 -11    9.90    3.70
  -3   9 -11    9.00    2.70
  -4   9 -11   22.60    3.10
   4  -9  11   21.20    3.60
  -5   9 -11   19.10    2.90
   5  -9  11   18.00    3.10
   6  -9  11   15.10    2.90
   5   8 -11   68.69    4.70
   5   8 -11   78.29    4.90
   4   8 -11    0.30    1.90
   4   8 -11    0.70    1.90
   3   8 -11   15.20    2.80
   3   8 -11   19.80    2.70
   3   8 -11   22.20    2.30
   2   8 -11   28.40    3.20
   2   8 -11   23.80    3.40
   2   8 -11   32.30    3.10
   1   8 -11    0.90    2.20
   1   8 -11   -0.40    2.60
   1   8 -11    1.30    2.10
   1   8 -11    0.40    2.00
   0   8 -11   13.50    2.90
   0   8 -11   12.50    2.70
  -1   8 -11  122.39    7.50
  -1   8 -11  102.89    7.60
  -2   8 -11   10.30    2.80
  -2   8 -11    7.50    2.80
  -3   8 -11   13.40    3.00
  -4   8 -11    3.60    2.60
   4  -8  11    7.90    3.40
   5  -8  11   14.90    3.30
   6  -8  11    4.00    2.30
   6   7 -11    5.70    1.90
   6   7 -11    5.90    2.00
   5   7 -11    0.70    1.90
   5   7 -11   -0.60    1.90
   4   7 -11    2.20    2.20
   4   7 -11    0.80    2.20
   3   7 -11   85.59    5.90
   3   7 -11   85.09    5.60
   3   7 -11   86.29    6.30
   2   7 -11    6.80    2.40
   2   7 -11   11.70    2.70
   2   7 -11   11.30    2.90
   2   7 -11   10.10    2.30
   1   7 -11   47.90    4.30
   1   7 -11   37.20    4.30
   1   7 -11   38.60    4.00
   0   7 -11   98.49    7.00
   0   7 -11   93.39    6.80
  -1   7 -11   83.69    6.40
  -1   7 -11   73.39    6.00
  -2   7 -11   83.39    6.30
  -3   7 -11   53.99    5.20
   3  -7  11   62.49    6.40
   4  -7  11    2.00    3.20
   5  -7  11   44.20    4.80
   6  -7  11   43.80    4.30
   7  -7  11    1.30    1.30
   7   6 -11    0.20    1.70
   7   6 -11   -0.60    1.80
   6   6 -11   16.10    2.70
   6   6 -11   10.30    2.40
   5   6 -11   25.10    3.10
   5   6 -11   22.40    3.00
   4   6 -11    0.40    2.30
   4   6 -11   -1.20    2.00
   4   6 -11    1.00    1.80
   3   6 -11    8.20    2.70
   3   6 -11   13.60    2.60
   3   6 -11    8.40    2.50
   2   6 -11   -2.90    2.40
   2   6 -11    7.80    2.50
   2   6 -11    1.40    2.40
   2   6 -11    0.00    2.10
   1   6 -11   28.90    3.60
   1   6 -11   28.70    3.60
   1   6 -11   33.20    3.90
   0   6 -11    0.40    2.30
   0   6 -11    4.00    2.50
  -1   6 -11   -1.20    2.50
  -2   6 -11   21.20    3.50
   3  -6  11   19.10    4.20
   4  -6  11   12.60    3.60
   5  -6  11   36.10    4.50
   5  -6  11   28.10    3.00
   6  -6  11    0.40    2.30
   6  -6  11    0.00    1.70
   7  -6  11   16.00    2.00
   8   5 -11   16.80    2.00
   8   5 -11   15.30    2.40
   7   5 -11    2.10    2.20
   7   5 -11    0.80    2.00
   6   5 -11   24.10    3.10
   6   5 -11   27.10    3.30
   5   5 -11   28.20    3.30
   5   5 -11   25.80    3.30
   5   5 -11   28.40    2.70
   4   5 -11    5.30    2.50
   4   5 -11    3.50    2.10
   4   5 -11    6.20    2.40
   3   5 -11   52.69    4.60
   3   5 -11   55.29    5.00
   3   5 -11   47.20    4.80
   3   5 -11   52.69    4.50
   2   5 -11   40.70    4.20
   2   5 -11   49.20    4.70
   2   5 -11   48.10    4.30
   2   5 -11   50.29    4.60
   1   5 -11   87.19    6.40
   1   5 -11   89.69    6.50
   1   5 -11   87.99    6.60
   0   5 -11   61.99    5.60
   0   5 -11   60.39    5.30
  -1   5 -11   55.49    5.20
   2  -5  11   14.10    3.60
   3  -5  11    6.90    3.50
   4  -5  11   26.10    4.40
   4  -5  11   26.80    3.00
   5  -5  11   19.30    2.70
   5  -5  11   23.30    3.90
   6  -5  11   12.10    2.20
   6  -5  11    9.20    2.60
   7  -5  11   29.50    2.60
   8  -5  11   -0.40    1.20
   9   4 -11   24.90    3.30
   9   4 -11   27.60    2.20
   8   4 -11    0.40    2.20
   8   4 -11   -1.80    1.70
   7   4 -11   80.49    5.50
   7   4 -11   67.59    5.40
   6   4 -11  193.68   11.10
   6   4 -11  190.28   11.10
   5   4 -11   15.60    2.80
   5   4 -11   13.50    2.90
   5   4 -11   21.00    2.70
   4   4 -11    0.90    2.40
   4   4 -11    2.50    2.40
   4   4 -11    1.10    2.00
   3   4 -11   57.89    5.10
   3   4 -11   64.69    5.40
   3   4 -11   62.29    5.40
   2   4 -11   72.99    6.00
   2   4 -11   86.59    6.10
   2   4 -11   82.69    6.30
   1   4 -11   90.99    6.50
   1   4 -11   77.79    8.80
   1   4 -11   98.49    6.70
   0   4 -11   19.10    4.90
   0   4 -11   16.00    3.10
   2  -4  11   40.70    4.90
   3  -4  11    0.80    3.10
   3  -4  11    1.90    2.00
   4  -4  11   63.59    5.10
   4  -4  11   75.59    6.60
   5  -4  11   13.20    3.20
   5  -4  11    9.10    2.30
   6  -4  11   -4.40   36.90
   7  -4  11   42.40    3.30
   8  -4  11    2.20    1.20
   9   3 -11   71.39    4.70
   9   3 -11   64.69    4.30
   8   3 -11   12.50    2.70
   8   3 -11   14.90    2.50
   7   3 -11   74.49    5.60
   7   3 -11   67.19    5.30
   6   3 -11  123.59    7.40
   6   3 -11  127.29    7.90
   6   3 -11  129.69    8.20
   5   3 -11   28.70    3.60
   5   3 -11   31.60    3.40
   4   3 -11    2.80    2.40
   4   3 -11   -1.70    2.40
   3   3 -11    6.90    2.60
   3   3 -11    5.70    2.50
   3   3 -11    7.30    2.80
   2   3 -11  143.59    8.90
   2   3 -11  136.99   10.20
   2   3 -11  135.19    8.60
   2   3 -11  135.39    8.50
   1   3 -11   83.99    8.30
   1   3 -11   63.79    6.20
   1   3 -11   71.59    5.70
   0   3 -11   19.90    5.20
   0  -3  11   26.30    5.70
   1  -3  11   41.10    5.80
   1  -3  11   42.70    4.90
   2  -3  11    2.90    2.00
   2  -3  11    7.40    3.30
   3  -3  11   39.70    3.50
   3  -3  11   32.60    4.40
   4  -3  11   14.90    3.20
   4  -3  11   12.20    2.40
   5  -3  11   26.90   40.50
   5  -3  11   32.30    3.30
   6  -3  11   24.80    2.80
   6  -3  11   31.80   41.30
   7  -3  11    1.20   48.80
   7  -3  11   11.90    2.00
   8  -3  11   -1.80    1.20
  10   2 -11   15.30    1.60
   9   2 -11    8.00    1.90
   9   2 -11    6.60    2.30
   8   2 -11   18.10    2.90
   8   2 -11    9.60    2.40
   7   2 -11   73.09    5.80
   6   2 -11   11.30    2.80
   6   2 -11   12.90    2.60
   5   2 -11   50.69    4.90
   5   2 -11   52.89    4.70
   4   2 -11   54.29    4.80
   4   2 -11   54.89    5.20
   3   2 -11   25.20    4.60
   3   2 -11   29.20    3.60
   3   2 -11   22.60    3.30
   3   2 -11   31.30    3.80
   2   2 -11  132.19    9.60
   2   2 -11  116.19    8.20
   1   2 -11   87.69    8.60
  -1  -2  11  102.29    9.20
   0  -2  11   81.79    8.30
   1  -2  11   98.99    7.30
   1  -2  11   96.29    8.80
   2  -2  11   61.09    4.60
   2  -2  11   65.99    6.10
   3  -2  11   33.80    3.10
   3  -2  11   28.00    3.80
   4  -2  11   59.89    4.50
   4  -2  11   57.19    4.80
   4  -2  11   59.39    5.60
   4  -2  11   26.20   39.90
   5  -2  11   48.00    4.60
   5  -2  11   53.69    4.30
   5  -2  11   33.90   43.00
   6  -2  11  -13.50   38.50
   7  -2  11   10.50    1.90
   8  -2  11   10.40    1.70
  10   1 -11    6.40    1.50
   9   1 -11   31.80    3.00
   8   1 -11   42.40    3.90
   7   1 -11   33.20    3.90
   7   1 -11   37.60    3.50
   6   1 -11    0.20    2.40
   6   1 -11   -0.30    2.50
   5   1 -11  202.18   11.90
   5   1 -11  209.38   12.00
   4   1 -11  111.99    7.70
   4   1 -11  121.09    9.10
   4   1 -11  102.59    7.40
   3   1 -11    5.60    3.00
   3   1 -11    7.70    3.90
   2   1 -11  153.58   11.20
   1   1 -11   36.70    5.50
  -1  -1  11   40.70    5.60
   0  -1  11    5.60    3.60
   0  -1  11   16.70    3.80
   1  -1  11   29.70    4.90
   1  -1  11   30.90    4.20
   2  -1  11   37.00    5.60
   2  -1  11   39.00    4.40
   2  -1  11   40.70    3.40
   2  -1  11   34.20    4.10
   3  -1  11  141.09    9.20
   3  -1  11  159.58    8.80
   3  -1  11  161.38    9.80
   4  -1  11   -7.20   38.30
   4  -1  11   84.09    6.40
   4  -1  11   91.09    5.80
   5  -1  11   -3.10   38.30
   5  -1  11   15.40    2.40
   5  -1  11   21.10    2.40
   6  -1  11    6.90    1.90
   6  -1  11   -5.70   41.60
   7  -1  11    4.90    1.80
   8  -1  11   10.40    1.60
  10   0 -11   -0.60    1.50
   9   0 -11   42.10    3.80
   8   0 -11   -1.90    2.20
   8   0 -11   -0.90    1.60
   7   0 -11   18.70    3.00
   7   0 -11   27.80    3.40
   6   0 -11    3.30    2.70
   6   0 -11    4.30    2.70
   5   0 -11   58.39    5.50
   5   0 -11   60.29    5.40
   4   0 -11   18.70    3.50
   4   0 -11   29.30    5.00
   4   0 -11   35.90    4.50
   3   0 -11    6.20    3.10
   3   0 -11   -4.40    3.60
   2   0 -11   92.59    9.00
  -2   0  11  103.99    9.10
  -1   0  11   17.20    4.40
   0   0  11   89.09    7.00
   0   0  11   87.59    8.20
   1   0  11    1.20    2.50
   1   0  11    0.90    1.90
   1   0  11   -2.00    3.20
   1   0  11   -0.40    2.70
   1   0  11   -1.50    1.40
   2   0  11    6.90    2.60
   2   0  11    4.50    1.80
   2   0  11    3.00    1.80
   2   0  11    2.50    2.80
   3   0  11  208.78   11.60
   3   0  11  217.88   12.30
   3   0  11  211.98   11.50
   3   0  11  199.88   11.50
   4   0  11    7.70    2.40
   4   0  11  -15.00   48.90
   4   0  11    6.20    2.00
   4   0  11    9.70    2.20
   5   0  11   10.30    2.10
   5   0  11  -23.60   42.40
   6   0  11   22.60   42.40
   7   0  11    4.40    1.70
  11  -1 -11    3.60    1.20
  10  -1 -11   -1.70    1.60
   9  -1 -11    3.40    2.10
   8  -1 -11    8.80    2.10
   8  -1 -11    4.70    2.50
   7  -1 -11    4.80    2.60
   7  -1 -11    3.00    2.60
   6  -1 -11   -3.90    2.30
   6  -1 -11    1.30    2.70
   5  -1 -11   46.70    4.80
   5  -1 -11   57.29    4.90
   4  -1 -11    4.00    4.20
   4  -1 -11    5.90    3.10
   3  -1 -11  304.47   18.50
  -3   1  11  293.47   18.30
   2  -1 -11    3.60    4.60
  -2   1  11    1.00    3.80
  -1   1  11    2.80    3.50
  -1   1  11    1.40    3.00
   0   1  11  174.28   12.10
   0   1  11  178.68   10.90
   1   1  11  217.48   14.00
   1   1  11  226.88   12.80
   1   1  11  210.98   11.80
   1   1  11  220.18   12.10
   1   1  11  217.88   12.50
   2   1  11  123.49    7.40
   2   1  11  119.79    7.80
   2   1  11  131.09    8.20
   2   1  11  119.29    7.50
   3   1  11   11.70    2.90
   3   1  11   12.50    2.40
   3   1  11   11.30    2.40
   4   1  11   27.10    2.90
   4   1  11   21.30    2.80
   5   1  11   49.40    4.40
   5   1  11   56.49    4.40
   5   1  11   26.80   39.80
   6   1  11   34.70    3.40
   6   1  11   39.10    3.30
   6   1  11   37.40   37.60
   7   1  11   23.00    2.20
  11  -2 -11    4.40    1.30
  10  -2 -11   26.70    2.70
   9  -2 -11    0.30    2.00
   8  -2 -11   35.40    3.80
   8  -2 -11   41.10    4.00
   7  -2 -11   -2.40    2.50
   7  -2 -11   -3.70    2.30
   6  -2 -11   34.90    4.40
   6  -2 -11   34.00    3.80
   5  -2 -11   24.40    3.30
   5  -2 -11   15.50    3.60
   4  -2 -11    8.80    4.30
   4  -2 -11    4.00    3.30
   3  -2 -11   67.99    7.80
  -3   2  11   85.49    8.30
  -2   2  11   92.19    7.60
  -2   2  11   79.69    8.60
  -1   2  11   32.40    4.60
  -1   2  11   36.50    5.50
  -1   2  11   28.90    5.10
   0   2  11   40.60    3.60
   0   2  11   38.80    4.40
   0   2  11   39.40    4.30
   0   2  11   40.90    5.60
   1   2  11    5.80    2.00
   1   2  11   -2.00    2.40
   1   2  11    3.70    2.10
   1   2  11    5.20    2.90
   2   2  11    0.30    2.10
   2   2  11   -1.90    2.10
   2   2  11    1.70    2.10
   2   2  11   -0.50    2.70
   3   2  11    9.40    2.40
   3   2  11   15.60    2.60
   3   2  11   15.70    2.60
   4   2  11   23.30    2.80
   4   2  11   20.60    2.80
   5   2  11   48.00    4.20
   5   2  11   44.30    3.80
   6   2  11    0.20    1.60
   6   2  11    2.60    2.00
  11  -3 -11    2.20    1.40
  10  -3 -11    4.20    1.80
   9  -3 -11   21.10    2.90
   9  -3 -11   23.80    2.50
   8  -3 -11    0.90    2.30
   8  -3 -11    2.90    2.40
   7  -3 -11    2.10    2.70
   7  -3 -11    1.80    2.40
   6  -3 -11   26.20    4.00
   6  -3 -11   32.60    3.70
   5  -3 -11    6.10    3.50
   4  -3 -11    7.50    4.70
  -3   3  11  104.49    9.80
  -3   3  11   98.59    7.70
  -2   3  11   11.70    4.70
  -2   3  11   13.00    3.50
  -2   3  11   21.70    4.10
  -1   3  11  223.68   13.00
  -1   3  11  225.18   14.70
  -1   3  11  207.28   13.20
  -1   3  11  223.08   12.40
   0   3  11   21.80    3.00
   0   3  11   19.70    3.90
   0   3  11   17.50    3.50
   1   3  11  118.49    8.20
   1   3  11  137.39    7.70
   1   3  11  121.39    7.60
   1   3  11  111.19    7.70
   2   3  11    0.50    2.30
   2   3  11   -2.50    2.00
   2   3  11   -2.10    2.40
   3   3  11  117.29    7.20
   3   3  11  111.19    7.30
   4   3  11   39.00    3.70
   4   3  11   41.30    3.70
   5   3  11   33.90    3.20
   5   3  11   35.40    3.40
   6   3  11    2.60    1.80
   6   3  11    0.90    2.00
  11  -4 -11   12.60    1.80
  10  -4 -11    3.30    1.80
   9  -4 -11   20.80    2.70
   9  -4 -11   17.30    2.50
   8  -4 -11   -0.30    2.30
   8  -4 -11    0.80    2.40
   7  -4 -11    5.50    2.90
   7  -4 -11    1.60    2.40
   6  -4 -11   -3.90    2.90
   5  -4 -11    7.20    3.60
  -4   4  11   54.09    5.50
  -3   4  11  125.09    8.90
  -3   4  11  121.19    9.10
  -2   4  11    2.90    2.80
  -2   4  11    1.40    3.10
  -2   4  11    0.10    2.90
  -1   4  11   17.70    3.50
  -1   4  11   23.00    3.50
  -1   4  11   12.70    3.70
   0   4  11    8.70    3.40
   0   4  11    8.90    3.00
   0   4  11   12.60    2.50
   0   4  11   17.50    3.10
   1   4  11  146.89    9.50
   1   4  11  145.49    9.00
   1   4  11  157.48    9.30
   2   4  11  149.09    8.60
   2   4  11  131.89    8.50
   2   4  11  135.59    8.00
   3   4  11    3.30    2.40
   3   4  11    0.60    2.20
   4   4  11   61.89    5.10
   4   4  11   70.09    5.10
   5   4  11    1.20    2.00
   5   4  11    1.50    1.90
   6   4  11    1.50    2.10
  11  -5 -11    5.70    1.40
  10  -5 -11   -0.10    1.70
   9  -5 -11   19.50    2.70
   9  -5 -11   16.70    2.60
   8  -5 -11   14.30    3.00
   8  -5 -11   15.20    2.80
   7  -5 -11    3.20    2.80
   6  -5 -11   25.10    4.00
  -5   5  11    7.60    3.70
  -4   5  11   25.10    4.50
  -3   5  11  118.69    8.90
  -3   5  11  109.59    8.60
  -2   5  11   34.00    4.00
  -2   5  11   26.90    4.60
  -2   5  11   36.10    4.60
  -1   5  11   87.59    7.10
  -1   5  11  101.59    6.30
  -1   5  11   86.49    7.60
   0   5  11    2.40    2.40
   0   5  11    2.40    2.30
   0   5  11    7.20    2.90
   0   5  11    9.70    3.30
   1   5  11    3.70    2.60
   1   5  11    3.30    2.80
   1   5  11    2.80    2.50
   2   5  11   50.39    4.40
   2   5  11   50.09    4.80
   3   5  11   22.00    3.00
   3   5  11   22.00    3.20
   4   5  11   68.79    4.80
   4   5  11   57.69    4.70
   5   5  11    1.10    1.90
   5   5  11    2.30    1.50
  10  -6 -11    4.00    1.70
  10  -6 -11    2.70    1.50
   9  -6 -11   12.80    2.40
   8  -6 -11    5.60    2.60
   7  -6 -11   45.90    4.70
   6  -6 -11   61.09    5.90
  -6   6  11   57.79    5.90
  -5   6  11    0.40    3.30
  -4   6  11   80.99    7.60
  -4   6  11   91.29    7.50
  -3   6  11   19.20    4.00
  -3   6  11   10.20    3.90
  -2   6  11   18.90    3.70
  -2   6  11   12.30    3.90
  -2   6  11   11.70    3.10
  -2   6  11   18.50    2.60
  -1   6  11   56.09    4.90
  -1   6  11   49.90    5.30
  -1   6  11   51.09    4.70
  -1   6  11   48.60    4.90
   0   6  11    5.60    3.10
   0   6  11    2.80    2.40
   0   6  11    0.70    2.70
   1   6  11   89.49    6.20
   1   6  11   84.79    6.80
   2   6  11   16.50    2.80
   2   6  11   17.70    3.20
   3   6  11   56.59    4.70
   3   6  11   58.19    4.60
   4   6  11    1.40    1.60
   4   6  11    2.40    1.90
  10  -7 -11   20.30    2.70
   9  -7 -11    8.30    2.20
   8  -7 -11   15.40    3.00
   7  -7 -11   64.79    5.80
  -7   7  11   55.69    5.70
  -6   7  11   27.70    4.40
  -5   7  11   -1.60    3.10
  -5   7  11    4.30    3.30
  -4   7  11    1.10    3.30
  -4   7  11   -1.00    3.20
  -3   7  11    4.80    3.70
  -3   7  11   -4.70    3.20
  -3   7  11    5.20    1.90
  -3   7  11   -1.90    2.90
  -2   7  11   38.50    4.90
  -2   7  11   46.30    4.60
  -2   7  11   49.70    4.80
  -2   7  11   51.69    4.30
  -1   7  11   34.60    3.90
  -1   7  11   26.80    3.60
  -1   7  11   26.50    3.90
  -1   7  11   34.20    3.40
   0   7  11    1.00    1.80
   0   7  11    2.00    2.20
   0   7  11    0.30    2.70
   1   7  11   42.90    3.80
   1   7  11   42.20    4.20
   2   7  11   12.40    2.40
   2   7  11    7.60    2.40
   3   7  11    5.50    1.90
   3   7  11    6.30    2.00
   9  -8 -11    6.70    2.00
   9  -8 -11    8.10    2.10
   8  -8 -11    1.10    2.30
  -8   8  11    7.30    2.70
   7  -8 -11   18.20    3.30
  -7   8  11   12.50    3.20
  -6   8  11    2.60    2.90
  -5   8  11   39.70    5.00
  -5   8  11   51.49    4.90
  -4   8  11    3.00    2.80
  -4   8  11    0.40    3.20
  -3   8  11   -0.50    2.90
  -3   8  11   -1.10    2.50
  -3   8  11   -1.50    2.70
  -2   8  11    3.10    1.70
  -2   8  11   -2.10    2.70
  -2   8  11    1.40    2.60
  -1   8  11    8.00    2.90
  -1   8  11    6.30    2.10
  -1   8  11    5.00    2.20
   0   8  11   15.30    3.00
   0   8  11   19.40    2.50
   1   8  11   21.90    3.10
   1   8  11   24.00    2.70
   2   8  11    1.00    1.80
   8  -9 -11    5.70    2.10
  -8   9  11    2.80    2.00
  -7   9  11   19.60    3.00
  -6   9  11    5.60    2.70
  -6   9  11    4.90    2.50
  -5   9  11    0.10    2.40
  -5   9  11   -0.60    2.50
  -4   9  11    4.60    2.20
  -4   9  11    6.30    2.80
  -3   9  11   19.10    3.60
  -3   9  11   17.80    2.00
  -3   9  11   15.20    2.90
  -2   9  11    1.90    1.80
  -2   9  11    0.40    2.60
  -1   9  11   20.10    3.10
   0   9  11   12.60    2.60
   1   9  11    0.40    1.80
  -7  10  11    9.20    1.90
  -6  10  11   -2.60    1.90
  -6  10  11    0.10    1.70
  -5  10  11   11.00    2.50
  -5  10  11   18.40    2.00
  -4  10  11    5.10    2.00
  -3  10  11   19.20    1.90
  -2  10  11    1.00    2.10
  -1  10  11   15.70    2.40
   1  10 -12   13.10    1.70
   0  10 -12    1.40    1.40
   0  10 -12   -1.40    1.20
  -1  10 -12    3.70    1.40
  -1  10 -12   -0.40    1.60
  -1  10 -12    1.00    1.30
  -2  10 -12    6.50    1.50
  -2  10 -12    4.60    1.80
  -2  10 -12    9.40    1.70
  -3  10 -12   -0.10    1.50
   3   9 -12    0.90    1.50
   3   9 -12    2.30    1.70
   2   9 -12    3.10    1.90
   2   9 -12    1.80    1.50
   1   9 -12   47.90    3.40
   1   9 -12   35.60    3.40
   0   9 -12   12.40    2.10
   0   9 -12   12.80    2.10
   0   9 -12   14.30    2.40
  -1   9 -12    1.00    1.70
  -1   9 -12   -0.40    2.00
  -1   9 -12    4.00    1.90
  -2   9 -12   26.10    3.00
  -2   9 -12   23.70    3.20
  -3   9 -12   -1.10    2.10
  -4   9 -12   47.00    4.00
   4  -9  12   41.30    4.30
   5   8 -12    1.00    1.60
   5   8 -12    0.80    1.50
   4   8 -12   40.60    3.50
   4   8 -12   40.10    3.30
   3   8 -12    0.30    1.80
   3   8 -12    0.50    2.00
   2   8 -12   24.40    2.70
   2   8 -12   24.20    2.80
   2   8 -12   28.90    3.30
   1   8 -12   10.30    2.20
   1   8 -12    9.50    2.60
   1   8 -12    7.40    2.00
   1   8 -12    2.20    3.50
   0   8 -12   12.90    2.70
   0   8 -12   19.40    2.60
   0   8 -12   18.00    2.70
  -1   8 -12   23.80    3.40
  -1   8 -12   27.90    3.30
  -2   8 -12    9.30    2.80
  -2   8 -12    8.90    3.00
  -3   8 -12    5.30    2.60
  -4   8 -12   27.40    3.40
   4  -8  12   19.40    3.50
   5  -8  12   -2.70    2.20
   6  -8  12   29.00    3.70
   6   7 -12    5.70    1.70
   6   7 -12    4.30    1.70
   5   7 -12   21.20    2.50
   5   7 -12   17.00    2.50
   4   7 -12   19.70    2.70
   4   7 -12   20.30    2.90
   3   7 -12    9.30    2.60
   3   7 -12    4.60    2.10
   3   7 -12    2.90    2.00
   2   7 -12   85.79    5.90
   2   7 -12   80.29    5.60
   2   7 -12   75.19    6.00
   2   7 -12   82.29    5.50
   1   7 -12   48.70    4.70
   1   7 -12   53.19    4.30
   1   7 -12   49.70    4.50
   0   7 -12   50.79    4.70
   0   7 -12   45.30    4.40
  -1   7 -12   55.69    5.20
  -1   7 -12   54.99    5.10
  -2   7 -12   17.00    3.30
  -3   7 -12   52.39    4.90
   3  -7  12   42.10    5.30
   4  -7  12   44.10    4.70
   5  -7  12    1.00    2.50
   6  -7  12   10.70    2.30
   7   6 -12    3.00    1.60
   7   6 -12    2.20    1.70
   6   6 -12   -0.10    1.90
   6   6 -12    0.60    1.90
   5   6 -12   91.59    6.40
   5   6 -12  100.49    6.20
   4   6 -12   82.89    5.80
   4   6 -12   76.19    5.40
   4   6 -12   78.49    5.20
   3   6 -12   78.09    5.40
   3   6 -12   74.39    5.70
   3   6 -12   80.59    5.90
   2   6 -12   28.60    3.10
   2   6 -12   26.10    3.40
   2   6 -12   21.80    3.50
   2   6 -12   25.50    3.50
   1   6 -12   54.99    4.50
   1   6 -12   57.89    5.20
   1   6 -12   59.49    5.10
   0   6 -12   14.60    3.10
   0   6 -12    9.70    2.80
  -1   6 -12   22.70    3.50
  -2   6 -12   84.49    6.60
   3  -6  12   13.30    3.70
   4  -6  12   59.79    6.00
   5  -6  12   -4.20    2.50
   6  -6  12    7.60    2.30
   6  -6  12    9.00    1.80
   7  -6  12    1.00    1.20
   8   5 -12   27.50    2.50
   7   5 -12    5.60    2.10
   7   5 -12    8.00    2.10
   6   5 -12    8.40    2.50
   6   5 -12    9.20    2.40
   5   5 -12    6.80    2.60
   5   5 -12    9.70    2.40
   5   5 -12    9.60    1.80
   4   5 -12    2.60    2.10
   4   5 -12    7.00    2.60
   4   5 -12    7.00    2.60
   3   5 -12    0.60    2.40
   3   5 -12    2.40    2.50
   3   5 -12    1.70    2.50
   2   5 -12   80.19    6.30
   2   5 -12   84.19    6.30
   2   5 -12   87.89    6.70
   1   5 -12   -0.40    2.50
   1   5 -12    4.20    2.60
   0   5 -12   14.60    3.10
   0   5 -12   10.60    2.70
  -1   5 -12   36.10    4.20
   2  -5  12   21.70    4.20
   3  -5  12   17.50    4.10
   4  -5  12    1.20    3.10
   4  -5  12    4.60    2.00
   5  -5  12   58.09    5.10
   5  -5  12   52.09    4.20
   5  -5  12   62.19    4.70
   6  -5  12    8.50    2.30
   6  -5  12    5.70    1.80
   7  -5  12    0.40    1.30
   8   4 -12   22.00    2.60
   8   4 -12   20.20    2.30
   7   4 -12    4.60    2.20
   7   4 -12    1.10    2.10
   6   4 -12   81.49    6.00
   6   4 -12   79.19    5.70
   5   4 -12    2.30    2.50
   5   4 -12    2.20    2.10
   4   4 -12    5.50    2.60
   4   4 -12    3.90    2.60
   3   4 -12    8.00    2.80
   3   4 -12    1.40    2.60
   3   4 -12    5.90    2.60
   2   4 -12  166.28   10.30
   2   4 -12  164.08   10.00
   2   4 -12  160.68   10.00
   1   4 -12    3.30    2.60
   1   4 -12    1.00    2.40
   0   4 -12   69.89    5.90
   2  -4  12    9.00    3.40
   3  -4  12   53.89    5.40
   3  -4  12   47.00    4.20
   4  -4  12   21.30    3.70
   4  -4  12   18.40    2.60
   5  -4  12   18.10    3.30
   5  -4  12    3.30   36.70
   5  -4  12   22.70    2.60
   6  -4  12    5.80    1.80
   6  -4  12  -13.30   34.60
   6  -4  12    4.50    1.70
   7  -4  12   22.20    2.20
   9   3 -12    0.50    1.40
   8   3 -12   47.40    3.90
   7   3 -12    8.50    2.60
   6   3 -12    1.40    2.60
   6   3 -12    1.00    1.90
   5   3 -12   25.30    3.40
   5   3 -12   33.80    3.80
   4   3 -12    6.60    2.70
   4   3 -12    5.20    2.90
   3   3 -12    5.40    2.90
   3   3 -12    0.20    2.40
   3   3 -12    0.20    2.70
   2   3 -12   10.20    3.10
   2   3 -12    6.00    2.80
   1   3 -12   21.00    3.50
   0   3 -12    4.70    2.70
   1  -3  12   59.09    6.10
   2  -3  12   11.20    2.30
   2  -3  12   11.00    3.50
   3  -3  12    7.70    3.30
   3  -3  12    6.80    2.10
   4  -3  12    7.60    2.70
   4  -3  12   10.20    2.20
   4  -3  12   13.00    3.40
   5  -3  12   14.60   38.20
   5  -3  12   18.80    3.20
   5  -3  12   20.80    2.60
   6  -3  12   25.50    2.60
   6  -3  12    7.30   35.00
   7  -3  12   32.20    2.90
   9   2 -12    3.00    1.70
   8   2 -12   25.00    3.00
   7   2 -12   19.10    3.10
   6   2 -12    4.70    2.40
   6   2 -12    3.30    2.50
   5   2 -12   23.40    3.50
   5   2 -12   25.50    3.60
   4   2 -12   40.90    4.30
   4   2 -12   54.69    5.30
   3   2 -12   15.20    3.10
   3   2 -12   13.80    3.30
   3   2 -12   20.70    3.80
   2   2 -12    1.90    2.70
   2   2 -12    1.90    3.90
   2   2 -12    0.80    2.70
   1   2 -12    9.60    3.00
   1   2 -12    8.70    4.70
   0  -2  12   35.20    5.90
   1  -2  12   -5.20    2.70
   2  -2  12   74.09    6.70
   2  -2  12   79.79    5.30
   3  -2  12   -1.40    2.80
   3  -2  12   -1.50    2.50
   3  -2  12    1.10    1.80
   4  -2  12   45.30    3.90
   4  -2  12   38.10    3.80
   4  -2  12   44.20    4.70
   5  -2  12   -0.30    2.00
   5  -2  12    1.70    1.90
   6  -2  12  -36.60   38.80
   6  -2  12    7.40    1.90
   7  -2  12   18.80    2.20
  10   1 -12    5.20    1.50
   9   1 -12   77.89    5.10
   8   1 -12   57.69    4.80
   7   1 -12    8.20    2.20
   7   1 -12    8.30    2.70
   6   1 -12  109.79    7.40
   6   1 -12  104.79    7.40
   5   1 -12   -0.80    2.60
   5   1 -12    0.00    2.60
   4   1 -12   85.09    6.50
   4   1 -12   88.99    6.80
   3   1 -12   44.10    5.00
   3   1 -12   46.30    6.90
   2   1 -12    5.30    4.20
   2   1 -12    4.30    2.90
  -1  -1  12    2.00    4.10
   0  -1  12   35.20    5.50
   0  -1  12   49.99    5.20
   1  -1  12   36.00    4.40
   1  -1  12   32.20    3.40
   1  -1  12   35.20    4.60
   2  -1  12   29.80    3.20
   2  -1  12   32.20    4.00
   2  -1  12   27.70    4.00
   3  -1  12   18.60    3.60
   3  -1  12   15.80    2.90
   3  -1  12   21.70    2.60
   4  -1  12    6.30    2.00
   4  -1  12    4.90    2.50
   5  -1  12    7.50    2.10
   6  -1  12    3.10    1.90
   7  -1  12   15.70    2.00
  10   0 -12    6.40    1.60
   9   0 -12   54.49    4.20
   8   0 -12   37.00    3.60
   8   0 -12   28.20    2.60
   7   0 -12    4.80    2.60
   7   0 -12    0.10    2.50
   6   0 -12   15.40    3.00
   6   0 -12   12.80    3.30
   5   0 -12    6.80    2.80
   5   0 -12   10.00    3.30
   4   0 -12   57.49    5.70
   4   0 -12   65.99    5.50
   3   0 -12   44.30    5.00
   3   0 -12   38.50    6.10
   2   0 -12   24.90    5.50
   2   0 -12   33.70    4.50
  -2   0  12   28.90    4.20
  -2   0  12   27.20    5.20
  -1   0  12   -1.90    2.80
  -1   0  12    2.50    3.10
  -1   0  12    1.30    3.50
   0   0  12   -0.30    2.20
   0   0  12    1.50    3.70
   0   0  12    1.30    3.00
   0   0  12    2.60    2.80
   1   0  12   53.59    4.60
   1   0  12   53.09    4.10
   1   0  12   54.59    5.30
   1   0  12   54.89    5.40
   2   0  12  155.38   10.00
   2   0  12  149.19    8.90
   2   0  12  162.68    9.20
   2   0  12  156.68    9.50
   3   0  12   -3.20    2.00
   3   0  12    1.00    2.10
   3   0  12   -1.10    1.90
   3   0  12    1.10    2.60
   4   0  12    0.30    2.10
   4   0  12    4.40    2.20
   5   0  12    4.30    2.10
   6   0  12    0.50    1.70
   7   0  12    2.50    1.50
  10  -1 -12   10.20    1.90
   9  -1 -12   -1.80    1.80
   8  -1 -12    1.30    1.90
   8  -1 -12    2.20    2.30
   7  -1 -12   21.00    3.20
   7  -1 -12   18.30    3.30
   6  -1 -12   59.29    5.60
   6  -1 -12   68.89    6.30
   5  -1 -12   11.20    3.00
   5  -1 -12   10.50    3.40
   4  -1 -12   79.89    6.80
   3  -1 -12   -2.80    4.40
  -2   1  12   99.99    7.50
  -2   1  12  107.69    9.70
  -1   1  12   82.99    8.40
  -1   1  12   78.29    6.70
  -1   1  12   81.69    6.50
   0   1  12   27.70    4.00
   0   1  12   27.00    3.80
   0   1  12   28.50    3.20
   1   1  12  324.17   17.70
   1   1  12  343.37   18.40
   1   1  12  326.37   17.50
   1   1  12  332.57   18.10
   2   1  12   10.70    2.70
   2   1  12   13.00    2.60
   2   1  12   13.10    3.20
   2   1  12   10.50    2.30
   3   1  12    6.80    2.30
   3   1  12    6.50    2.60
   3   1  12    6.80    2.40
   4   1  12   56.79    4.60
   4   1  12   52.49    4.40
   5   1  12   -1.80    1.80
   5   1  12    0.60    2.00
   6   1  12   42.90    3.50
  10  -2 -12   -0.90    1.60
   9  -2 -12   26.40    3.00
   8  -2 -12   44.30    3.90
   8  -2 -12   33.00    3.60
   7  -2 -12   29.20    3.60
   7  -2 -12   25.30    3.80
   6  -2 -12   98.69    7.70
   6  -2 -12  100.09    7.00
   5  -2 -12   39.30    4.90
   4  -2 -12   35.70    4.70
  -3   2  12    4.80    3.20
  -3   2  12    5.50    4.60
  -2   2  12    2.50    3.40
  -2   2  12    3.80    4.40
  -2   2  12   -1.70    2.90
  -1   2  12    1.30    2.40
  -1   2  12    5.60    3.30
  -1   2  12    6.20    3.10
   0   2  12  122.89    7.70
   0   2  12  121.29    8.30
   0   2  12  117.79    8.60
   1   2  12  201.78   11.70
   1   2  12  212.78   12.50
   1   2  12  219.48   11.80
   1   2  12  204.98   12.10
   2   2  12    1.00    2.60
   2   2  12    0.80    2.10
   2   2  12    5.90    2.30
   3   2  12    3.10    2.10
   3   2  12    3.00    2.20
   3   2  12    4.60    2.10
   4   2  12   33.20    3.40
   4   2  12   37.90    3.40
   5   2  12   22.90    2.80
   5   2  12   29.10    2.90
   6   2  12   15.20    2.10
   6   2  12   12.70    2.20
  10  -3 -12   36.10    3.10
   9  -3 -12    2.40    1.70
   9  -3 -12    1.40    2.00
   8  -3 -12   15.90    2.90
   8  -3 -12   11.90    2.70
   7  -3 -12    8.90    3.10
   7  -3 -12    5.30    2.60
   6  -3 -12    6.80    3.30
   5  -3 -12   11.90    3.90
  -4   3  12   16.00    4.00
  -3   3  12    9.70    3.60
  -2   3  12   54.59    5.40
  -2   3  12   49.00    5.90
  -1   3  12   48.40    5.40
  -1   3  12   56.09    5.00
  -1   3  12   45.70    5.00
   0   3  12   25.00    3.80
   0   3  12   30.40    4.40
   0   3  12   26.70    3.50
   0   3  12   37.00    3.40
   1   3  12   30.50    3.40
   1   3  12   31.40    4.10
   1   3  12   23.30    3.30
   1   3  12   28.90    3.40
   2   3  12    6.80    2.50
   2   3  12    5.00    2.50
   2   3  12    7.00    2.60
   3   3  12   39.30    3.80
   3   3  12   33.40    3.50
   4   3  12    3.00    2.20
   4   3  12    2.00    2.10
   5   3  12    4.20    2.00
   5   3  12    2.50    1.90
  10  -4 -12   32.70    2.90
   9  -4 -12    2.30    1.90
   9  -4 -12    1.50    2.00
   8  -4 -12    4.70    2.30
   8  -4 -12    0.40    2.40
   7  -4 -12   -1.30    2.70
   6  -4 -12   37.90    4.60
  -5   4  12   18.00    4.20
  -4   4  12    0.70    3.30
  -3   4  12   40.30    4.90
  -3   4  12   31.10    4.70
  -2   4  12  116.49    8.20
  -2   4  12  118.29    8.90
  -2   4  12  119.79    8.50
  -1   4  12   20.70    4.20
  -1   4  12   23.50    3.50
  -1   4  12   10.30    3.60
   0   4  12    0.00    2.30
   0   4  12    6.00    3.20
   0   4  12    4.90    2.80
   0   4  12   -2.60    2.50
   1   4  12   14.80    3.20
   1   4  12   16.00    3.00
   1   4  12   20.80    3.40
   2   4  12   14.00    3.00
   2   4  12   16.60    2.90
   3   4  12   65.19    5.00
   4   4  12    3.80    2.10
   4   4  12    1.50    2.20
   5   4  12   26.30    2.80
   5   4  12   26.20    2.60
  10  -5 -12   14.40    2.10
   9  -5 -12   -2.00    1.80
   9  -5 -12   -0.90    1.90
   8  -5 -12    4.70    2.70
   7  -5 -12    0.70    2.60
   6  -5 -12    1.70    3.10
  -5   5  12    4.40    3.60
  -4   5  12   -0.70    3.20
  -4   5  12    0.00    3.50
  -3   5  12   19.10    4.20
  -3   5  12    8.20    3.60
  -2   5  12    3.20    2.80
  -2   5  12    1.50    3.20
  -2   5  12   12.00    3.90
  -1   5  12   14.10    3.60
  -1   5  12    6.50    2.90
  -1   5  12   10.40    2.50
  -1   5  12    3.80    2.90
   0   5  12    3.70    2.20
   0   5  12   15.50    3.40
   0   5  12    5.40    3.20
   0   5  12   16.50    2.80
   1   5  12    5.20    2.50
   1   5  12    6.80    2.40
   1   5  12    4.30    3.00
   2   5  12   49.70    4.50
   2   5  12   60.89    5.20
   3   5  12   -1.00    2.10
   3   5  12    1.20    2.40
   4   5  12    1.60    2.00
   4   5  12    3.30    1.80
   9  -6 -12    3.60    2.00
   8  -6 -12    5.20    2.50
   7  -6 -12   15.20    3.30
  -6   6  12   26.50    4.50
  -5   6  12   29.60    4.70
  -4   6  12    3.60    3.70
  -4   6  12    6.60    3.50
  -3   6  12   60.29    6.30
  -3   6  12   68.19    6.60
  -2   6  12   -2.00    2.00
  -2   6  12   -1.70    3.30
  -2   6  12   -1.80    2.70
  -2   6  12   -4.00    2.50
  -1   6  12   -3.30    2.70
  -1   6  12    2.00    3.00
  -1   6  12    4.00    2.20
  -1   6  12    5.70    2.30
   0   6  12   70.39    5.60
   0   6  12   70.79    5.70
   0   6  12   92.49    6.40
   1   6  12    7.00    2.50
   1   6  12    4.60    2.80
   2   6  12   25.50    2.90
   2   6  12   18.70    3.00
   3   6  12    3.70    2.00
   3   6  12   -1.60    1.80
   9  -7 -12   13.10    2.20
   8  -7 -12    5.10    2.40
   7  -7 -12   10.50    3.00
  -7   7  12    4.70    3.10
  -6   7  12   31.10    4.40
  -5   7  12   16.20    3.80
  -5   7  12   14.90    3.90
  -4   7  12   13.20    3.90
  -4   7  12    2.20    3.10
  -4   7  12    4.00    1.80
  -3   7  12   21.20    2.60
  -3   7  12   16.20    4.00
  -3   7  12   20.60    3.50
  -2   7  12    2.60    2.90
  -2   7  12    2.40    2.00
  -2   7  12    2.50    3.10
  -2   7  12    1.50    2.20
  -1   7  12   11.80    2.60
  -1   7  12   11.10    3.10
  -1   7  12   10.80    2.70
   0   7  12  126.79    7.60
   0   7  12  105.79    7.00
   1   7  12   -0.10    1.80
   1   7  12   -1.00    2.20
   2   7  12    6.40    2.00
   2   7  12    5.30    2.00
   8  -8 -12    0.60    2.00
  -8   8  12    0.50    2.20
   7  -8 -12   -1.50    2.40
  -7   8  12    2.30    2.50
  -6   8  12   69.59    5.50
  -6   8  12   53.09    5.40
  -5   8  12    2.10    2.70
  -5   8  12    2.40    3.00
  -4   8  12    9.80    3.30
  -4   8  12   20.20    3.20
  -3   8  12   13.10    2.50
  -3   8  12   16.40    3.20
  -2   8  12    7.20    2.90
  -2   8  12    7.20    2.40
  -1   8  12   20.20    3.30
  -1   8  12   22.90    2.50
   0   8  12   65.89    4.50
   0   8  12   72.89    5.20
   1   8  12    2.60    2.00
  -8   9  12    0.50    1.90
  -7   9  12   10.10    2.30
  -6   9  12   17.20    3.00
  -6   9  12   16.20    2.70
  -5   9  12    4.30    2.00
  -5   9  12    4.40    2.40
  -4   9  12    1.80    2.20
  -4   9  12    2.90    1.70
  -3   9  12   14.70    2.50
  -2   9  12   -1.70    2.10
  -1   9  12   61.09    4.60
   0   9  12    3.30    2.00
   2   9 -13    1.80    1.60
   1   9 -13    9.30    1.60
   1   9 -13    6.90    1.70
   0   9 -13    3.90    1.60
   0   9 -13    7.30    1.60
   0   9 -13    7.40    1.90
  -1   9 -13   29.60    2.70
  -1   9 -13   30.10    3.10
  -1   9 -13   19.00    2.30
  -2   9 -13   25.30    2.90
  -2   9 -13   23.40    2.70
  -3   9 -13   35.40    3.20
   4   8 -13   -1.50    1.40
   4   8 -13    2.50    1.70
   3   8 -13    5.90    1.70
   3   8 -13    6.30    2.10
   2   8 -13    2.70    1.60
   2   8 -13    0.10    2.10
   2   8 -13    2.30    1.70
   1   8 -13   17.30    2.30
   1   8 -13   14.50    2.50
   1   8 -13   19.80    2.30
   0   8 -13   20.10    2.50
   0   8 -13   22.60    2.80
   0   8 -13   22.00    3.10
  -1   8 -13   -0.10    2.20
  -1   8 -13   -0.20    2.10
  -2   8 -13   42.10    4.20
  -2   8 -13   45.00    4.30
  -3   8 -13    5.30    2.50
   3  -8  13    4.20    2.70
  -4   8 -13    2.50    2.30
   4  -8  13    0.40    2.20
   5  -8  13   15.70    3.60
   5   7 -13    7.40    2.00
   5   7 -13    4.70    1.80
   4   7 -13   24.30    2.60
   4   7 -13   27.60    3.00
   3   7 -13   62.79    4.60
   3   7 -13   69.29    4.60
   3   7 -13   68.69    5.20
   2   7 -13    7.40    2.10
   2   7 -13    4.90    2.20
   2   7 -13    4.10    2.50
   1   7 -13   92.79    6.20
   1   7 -13   92.69    6.60
   0   7 -13   19.30    3.20
   0   7 -13   23.70    3.20
  -1   7 -13    3.50    2.60
  -1   7 -13    1.40    2.50
  -2   7 -13   74.29    5.90
  -3   7 -13   -3.00    2.50
   3  -7  13    1.80    3.00
   4  -7  13   30.10    3.80
   5  -7  13   35.90    3.50
   5  -7  13   31.70    3.00
   6   6 -13   10.90    2.10
   6   6 -13   11.50    2.10
   5   6 -13    0.60    2.10
   5   6 -13    2.00    1.90
   4   6 -13   58.09    4.40
   4   6 -13   55.89    4.80
   4   6 -13   60.79    4.20
   3   6 -13   34.50    3.80
   3   6 -13   40.90    3.80
   2   6 -13    2.50    2.50
   2   6 -13   -2.70    2.20
   2   6 -13   -0.10    2.40
   1   6 -13  203.38   12.20
   1   6 -13  208.28   11.90
   0   6 -13    1.10    2.60
   0   6 -13    2.50    2.50
  -1   6 -13   46.60    4.70
  -2   6 -13   44.70    4.70
   2  -6  13   37.00    5.20
   3  -6  13    2.50    3.10
   4  -6  13   40.20    4.30
   5  -6  13   52.39    4.70
   5  -6  13   61.09    4.00
   7   5 -13    0.10    1.70
   6   5 -13   12.30    2.40
   5   5 -13    3.60    2.40
   5   5 -13    2.90    1.60
   4   5 -13   39.40    4.00
   4   5 -13   44.30    4.30
   3   5 -13   21.80    3.40
   3   5 -13   28.20    3.60
   2   5 -13  109.99    7.40
   2   5 -13  101.59    7.50
   1   5 -13  114.99    8.00
   1   5 -13  115.99    7.90
   0   5 -13   22.40    3.40
   0   5 -13   26.70    3.70
  -1   5 -13   27.60    4.00
   2  -5  13    8.80    3.70
   3  -5  13   21.20    3.90
   4  -5  13   46.10    4.60
   5  -5  13   -1.80    1.60
   5  -5  13   -2.50    2.20
   6  -5  13    5.40    1.70
   8   4 -13    1.20    1.60
   7   4 -13   41.00    3.80
   6   4 -13    1.50    2.30
   5   4 -13    1.70    2.60
   5   4 -13    1.30    2.10
   4   4 -13   26.60    3.60
   4   4 -13   31.90    3.70
   3   4 -13   12.20    3.00
   3   4 -13   17.10    3.40
   2   4 -13  167.48   10.00
   2   4 -13  152.48   10.10
   1   4 -13   77.59    6.30
   1   4 -13   81.29    6.60
   0   4 -13   -0.90    2.60
  -1   4 -13   19.10    3.50
   1  -4  13   17.10    3.80
   2  -4  13   47.30    5.20
   3  -4  13   60.89    6.00
   4  -4  13    9.00    2.70
   4  -4  13   10.00    3.10
   4  -4  13    7.90    2.10
   5  -4  13    1.60    2.50
   5  -4  13    4.50    1.90
   6  -4  13   35.00    3.10
   7  -4  13    1.30    1.40
   9   3 -13    6.20    1.40
   8   3 -13   42.60    3.60
   7   3 -13  111.59    7.10
   6   3 -13    6.40    2.10
   6   3 -13    8.50    2.70
   5   3 -13   10.50    2.90
   5   3 -13   14.20    3.00
   4   3 -13   46.60    4.80
   4   3 -13   55.59    4.80
   3   3 -13    4.00    2.80
   3   3 -13   10.90    3.30
   2   3 -13  139.29    9.00
   2   3 -13  129.69    8.90
   1   3 -13   -1.80    2.70
   0   3 -13   -0.40    2.60
   1  -3  13   32.60    4.50
   2  -3  13   -1.70    2.90
   3  -3  13   22.30    2.90
   3  -3  13   22.60    4.00
   3  -3  13   28.80    3.90
   4  -3  13    3.60    2.20
   4  -3  13    3.30    1.90
   4  -3  13    5.80    3.10
   5  -3  13   20.10    2.60
   5  -3  13   20.90    2.60
   6  -3  13   21.30    2.50
   7  -3  13    1.10    1.40
   9   2 -13    2.70    1.50
   8   2 -13   32.10    3.20
   7   2 -13   30.40    3.40
   6   2 -13   32.30    3.80
   6   2 -13   34.20    3.70
   5   2 -13   61.29    5.40
   5   2 -13   57.49    5.30
   4   2 -13   16.10    3.10
   4   2 -13   14.90    3.40
   3   2 -13   19.60    3.60
   2   2 -13    6.90    3.30
   2   2 -13   13.30    3.30
   1   2 -13   23.80    3.80
   0  -2  13   46.60    5.40
   1  -2  13   40.80    4.80
   2  -2  13   91.89    6.40
   2  -2  13  103.29    7.50
   2  -2  13   95.79    7.60
   3  -2  13   24.70    3.40
   3  -2  13   23.70    4.00
   3  -2  13   22.00    3.00
   4  -2  13   -1.20    2.40
   4  -2  13    0.30    2.00
   5  -2  13   20.50    2.70
   6  -2  13    7.90    1.90
   7  -2  13   -0.80    1.30
   9   1 -13   13.60    2.10
   8   1 -13  103.99    6.60
   7   1 -13   70.09    5.20
   7   1 -13   78.19    5.60
   6   1 -13   -3.10    2.30
   6   1 -13    3.30    2.80
   5   1 -13   27.80    4.10
   5   1 -13   26.60    3.60
   4   1 -13    1.10    2.70
   4   1 -13    2.80    2.90
   3   1 -13   67.69    6.30
   2   1 -13    2.50    3.30
  -2  -1  13   -1.20    3.00
   1   1 -13    0.40    3.30
  -1  -1  13   -1.70    3.00
   0  -1  13   30.20    4.50
   0  -1  13   35.80    4.50
   1  -1  13   21.90    3.10
   1  -1  13   24.30    3.80
   1  -1  13   23.50    4.10
   2  -1  13    0.20    2.20
   2  -1  13    1.40    2.70
   2  -1  13    5.40    3.30
   3  -1  13    1.30    2.20
   3  -1  13    1.00    2.70
   3  -1  13    2.10    2.20
   4  -1  13   12.60    2.60
   4  -1  13    9.90    2.60
   5  -1  13   28.80    3.10
   6  -1  13    6.10    1.90
  10   0 -13   15.40    1.90
   9   0 -13    7.80    2.00
   8   0 -13   40.30    2.90
   8   0 -13   44.10    3.90
   7   0 -13    0.60    2.50
   7   0 -13   -1.70    2.30
   6   0 -13   16.70    3.50
   6   0 -13   13.80    3.00
   5   0 -13   27.80    4.20
   5   0 -13   28.50    3.60
   4   0 -13   66.99    6.10
   3   0 -13   33.90    4.40
  -2   0  13    0.50    3.00
  -1   0  13    2.70    3.10
  -1   0  13    1.80    3.00
   0   0  13   80.09    6.70
   0   0  13   78.89    5.70
   0   0  13   80.49    7.00
   1   0  13    2.60    2.70
   1   0  13   -0.10    2.20
   1   0  13    3.80    1.90
   1   0  13    3.50    3.00
   2   0  13   36.70    3.40
   2   0  13   33.30    3.80
   2   0  13   29.30    4.10
   2   0  13   34.90    3.60
   3   0  13    0.70    2.60
   3   0  13    0.40    2.20
   4   0  13   22.40    3.00
   5   0  13   33.00    3.10
   6   0  13    5.40    1.70
  10  -1 -13    5.50    1.60
   9  -1 -13    4.60    1.90
   8  -1 -13   17.00    2.40
   8  -1 -13   16.30    2.80
   7  -1 -13   22.60    3.20
   7  -1 -13   15.30    3.30
   6  -1 -13   46.60    5.10
   6  -1 -13   51.29    4.50
   5  -1 -13   60.49    5.90
   4  -1 -13   92.69    7.60
  -3   1  13   35.30    4.60
  -2   1  13   -3.60    2.80
  -1   1  13   38.00    4.70
  -1   1  13   40.90    4.70
   0   1  13   -0.80    2.10
   0   1  13    1.40    3.10
   0   1  13    2.00    3.00
   0   1  13    0.40    1.80
   1   1  13   38.50    4.50
   1   1  13   32.50    4.00
   1   1  13   36.50    3.50
   1   1  13   28.30    3.20
   2   1  13  113.09    7.40
   2   1  13  128.49    8.30
   2   1  13  124.39    7.40
   2   1  13  114.89    7.60
   3   1  13    2.60    2.20
   3   1  13   -2.60    1.90
   3   1  13    2.20    2.30
   4   1  13   -0.40    2.00
   4   1  13    3.40    2.00
   5   1  13   24.00    2.60
   6   1  13   17.70    2.10
  10  -2 -13   10.80    1.80
   9  -2 -13   13.80    2.40
   8  -2 -13   -1.70    2.00
   8  -2 -13    0.40    2.20
   7  -2 -13   14.90    2.90
   7  -2 -13    6.40    3.00
   6  -2 -13   78.69    6.10
   6  -2 -13   84.39    7.00
   5  -2 -13   -3.00    3.00
  -3   2  13  153.28   10.30
  -2   2  13    2.70    3.10
  -2   2  13    6.20    3.80
  -1   2  13   10.90    3.60
  -1   2  13   11.30    2.90
  -1   2  13   19.00    3.70
   0   2  13    1.60    2.40
   0   2  13    0.40    3.10
   0   2  13    3.30    2.00
   0   2  13   -3.40    2.70
   1   2  13   84.39    6.80
   1   2  13   77.99    6.00
   1   2  13   86.59    6.10
   1   2  13   85.59    5.80
   2   2  13   36.20    3.70
   2   2  13   43.20    4.30
   2   2  13   39.80    3.80
   3   2  13    0.80    2.00
   3   2  13    2.80    2.30
   4   2  13   12.60    2.40
   4   2  13   16.20    2.50
   5   2  13   14.50    2.30
   5   2  13   12.90    2.10
  10  -3 -13    2.40    1.50
   9  -3 -13    4.00    1.60
   9  -3 -13    4.60    1.90
   8  -3 -13    7.80    2.40
   8  -3 -13    3.50    2.40
   7  -3 -13   13.80    2.90
   7  -3 -13   13.40    3.30
   6  -3 -13   53.49    5.40
   5  -3 -13   42.30    5.10
  -4   3  13    4.10    3.40
  -3   3  13    4.70    3.50
  -3   3  13    8.50    3.50
  -2   3  13   28.40    4.40
  -2   3  13   35.70    4.60
  -1   3  13  157.58    9.50
  -1   3  13  137.59    9.60
  -1   3  13  153.38   10.30
   0   3  13   13.90    3.60
   0   3  13   14.20    3.00
   0   3  13   10.20    3.10
   0   3  13   18.40    2.80
   1   3  13    7.70    2.40
   1   3  13    8.50    3.10
   1   3  13   12.10    2.90
   1   3  13   11.10    2.70
   2   3  13    5.50    2.20
   2   3  13    2.20    2.30
   2   3  13    6.70    2.60
   3   3  13   -0.40    2.20
   3   3  13    1.90    2.00
   4   3  13   30.30    3.10
   4   3  13   27.60    3.10
   5   3  13   -0.40    1.70
   5   3  13   -2.60    1.60
  10  -4 -13   27.50    2.50
   9  -4 -13   10.60    2.00
   9  -4 -13   11.60    2.10
   8  -4 -13    3.20    2.50
   7  -4 -13    6.00    3.00
   6  -4 -13    0.10    3.10
  -5   4  13   -2.00    3.40
  -4   4  13  188.48   12.00
  -3   4  13    8.40    3.90
  -3   4  13    9.80    3.70
  -2   4  13  107.39    8.70
  -2   4  13  120.49    8.60
  -1   4  13    1.30    2.30
  -1   4  13    2.20    2.90
  -1   4  13   -1.90    2.90
  -1   4  13    8.60    3.60
   0   4  13   15.80    2.90
   0   4  13   13.50    3.60
   0   4  13   20.60    3.10
   0   4  13   12.70    3.20
   1   4  13   87.19    6.30
   1   4  13   87.49    6.10
   1   4  13   83.99    6.70
   2   4  13    5.70    2.80
   2   4  13    5.40    2.40
   3   4  13   25.10    3.20
   3   4  13   25.00    3.00
   4   4  13   24.90    2.80
   4   4  13   33.50    3.00
   9  -5 -13   18.30    2.40
   8  -5 -13    2.00    2.40
   7  -5 -13    1.20    2.80
   6  -5 -13   -0.70    3.10
  -6   5  13   -3.00    3.30
  -5   5  13    1.20    3.50
  -4   5  13    9.80    3.70
  -4   5  13    4.90    3.80
  -3   5  13   19.50    4.10
  -3   5  13   13.30    3.90
  -2   5  13   52.19    5.60
  -2   5  13   47.80    5.00
  -2   5  13   41.50    4.50
  -2   5  13   49.60    4.20
  -1   5  13   -0.70    3.00
  -1   5  13    4.70    2.90
  -1   5  13    2.20    2.60
  -1   5  13   -0.70    2.30
   0   5  13   -1.90    2.60
   0   5  13    1.40    2.90
   0   5  13   -0.90    2.20
   1   5  13   59.19    4.90
   1   5  13   61.89    5.60
   2   5  13    1.00    2.00
   2   5  13    3.80    2.50
   3   5  13   24.40    2.90
   3   5  13   26.80    2.80
   4   5  13    5.70    1.60
   9  -6 -13   16.40    2.30
   8  -6 -13    0.00    2.10
   7  -6 -13   10.50    3.10
  -7   6  13    6.90    3.40
  -6   6  13    8.90    3.60
  -5   6  13   62.29    6.90
  -5   6  13   74.89    6.60
  -4   6  13   -0.90    3.10
  -4   6  13   -0.90    3.30
  -3   6  13   -1.40    3.40
  -3   6  13    1.70    1.90
  -3   6  13   -1.40    3.00
  -2   6  13    7.60    2.90
  -2   6  13    7.90    2.80
  -2   6  13   15.40    3.70
  -2   6  13   13.10    2.50
  -1   6  13    5.40    2.90
  -1   6  13    1.00    2.20
  -1   6  13    1.10    2.60
  -1   6  13    1.00    2.00
   0   6  13   90.79    6.10
   0   6  13   96.09    5.80
   0   6  13   83.79    6.50
   1   6  13    3.60    2.40
   1   6  13    1.60    2.00
   2   6  13   18.20    2.40
   2   6  13   17.20    2.60
   3   6  13    4.30    1.60
   8  -7 -13   19.20    2.80
  -8   7  13   22.00    3.00
   7  -7 -13   18.20    3.20
  -7   7  13   25.80    3.50
  -6   7  13    2.80    2.90
  -5   7  13   66.29    6.00
  -5   7  13   70.29    6.60
  -4   7  13    1.10    1.70
  -4   7  13    0.00    3.20
  -4   7  13   -2.40    2.60
  -3   7  13   14.00    3.50
  -3   7  13   16.60    2.90
  -3   7  13   13.80    2.30
  -2   7  13    8.80    2.20
  -2   7  13    5.90    2.90
  -2   7  13    9.10    2.90
  -2   7  13    6.10    1.90
  -1   7  13    0.40    1.80
  -1   7  13   -1.30    2.50
  -1   7  13    2.10    2.00
   0   7  13   29.50    3.40
   0   7  13   28.80    2.90
   1   7  13    0.00    1.90
   1   7  13    1.10    1.70
   2   7  13   31.20    2.90
  -8   8  13   16.80    2.50
   7  -8 -13   18.30    3.00
  -7   8  13   17.00    2.80
  -6   8  13   35.30    3.70
  -6   8  13   37.50    4.20
  -5   8  13    2.70    2.30
  -5   8  13    1.40    2.50
  -4   8  13   -0.80    2.00
  -4   8  13    7.00    2.70
  -3   8  13    6.70    1.60
  -3   8  13   11.60    2.60
  -2   8  13    5.80    1.80
  -2   8  13    4.00    1.80
  -2   8  13    1.40    2.40
  -1   8  13   14.40    2.70
  -1   8  13   18.80    2.10
   0   8  13   13.00    2.40
  -6   9  13    4.00    1.70
  -5   9  13    8.90    2.30
  -5   9  13   10.50    1.80
  -4   9  13    6.20    2.00
  -3   9  13   57.79    4.10
  -1   9 -14   16.20    1.90
   3   8 -14    5.90    2.10
   2   8 -14    3.90    1.50
   1   8 -14   24.40    2.70
   0   8 -14   -1.80    1.70
   0   8 -14   -1.10    1.80
  -1   8 -14   11.90    2.50
  -1   8 -14   14.90    2.40
  -2   8 -14   -0.20    2.20
  -2   8 -14    1.40    2.00
  -3   8 -14   41.90    3.70
   5   7 -14   12.50    1.90
   4   7 -14    9.10    2.10
   3   7 -14   16.20    2.60
   3   7 -14   18.50    2.20
   2   7 -14   43.40    3.90
   1   7 -14   -1.40    2.10
   1   7 -14   -0.10    2.10
   0   7 -14   45.30    4.50
   0   7 -14   43.90    4.20
  -1   7 -14    3.80    2.40
  -1   7 -14    2.10    2.60
  -2   7 -14   23.00    3.10
  -3   7 -14   59.29    4.80
   3  -7  14   59.49    5.10
   4  -7  14   -2.20    1.90
   4  -7  14   -2.20    2.10
   6   6 -14    2.00    1.60
   5   6 -14    7.60    2.10
   4   6 -14   -0.40    1.50
   4   6 -14    1.00    2.10
   3   6 -14   25.10    3.00
   3   6 -14   22.10    3.20
   2   6 -14   39.50    4.00
   1   6 -14    3.10    2.50
   1   6 -14    2.20    2.50
   0   6 -14   32.10    3.80
   0   6 -14   29.20    3.70
  -1   6 -14   21.80    3.30
  -2   6 -14   25.50    3.60
   2  -6  14   25.70    3.90
   3  -6  14   53.79    5.20
   4  -6  14    2.00    2.10
   4  -6  14    1.20    2.30
   5  -6  14    6.30    2.10
   7   5 -14    1.90    1.40
   6   5 -14   27.60    2.80
   5   5 -14    1.40    2.10
   5   5 -14    2.60    1.50
   4   5 -14    9.10    2.70
   4   5 -14   10.70    2.50
   3   5 -14   44.00    4.40
   3   5 -14   47.60    4.30
   2   5 -14    2.90    2.70
   2   5 -14    0.90    2.50
   1   5 -14   81.99    6.40
   1   5 -14   74.89    6.20
   0   5 -14   37.10    4.30
  -1   5 -14    2.60    2.70
  -2   5 -14   57.09    7.10
   2  -5  14   47.60    5.20
   3  -5  14    3.40    2.90
   4  -5  14    6.50    2.70
   4  -5  14    8.20    2.30
   5  -5  14   18.70    2.40
   7   4 -14    2.60    1.80
   6   4 -14   79.09    5.50
   5   4 -14    8.80    2.60
   5   4 -14    5.60    2.20
   4   4 -14   22.30    3.30
   4   4 -14   22.70    3.30
   3   4 -14   60.09    7.20
   3   4 -14   67.79    5.80
   2   4 -14   71.79    6.20
   2   4 -14   70.09    6.20
   1   4 -14   31.90    3.90
   1   4 -14   19.90    3.40
   0   4 -14   17.00    3.40
  -1   4 -14   17.30    3.60
   1  -4  14   24.60    4.30
   2  -4  14  112.59    8.30
   3  -4  14    8.60    3.20
   3  -4  14    8.40    3.00
   4  -4  14    9.00    2.20
   4  -4  14   12.20    2.30
   4  -4  14    4.90    2.80
   5  -4  14   38.40    3.20
   5  -4  14   36.10    3.30
   6  -4  14   -0.70    1.40
   8   3 -14    5.30    1.70
   7   3 -14   28.30    3.00
   6   3 -14   -0.70    2.20
   6   3 -14   -1.30    1.80
   5   3 -14   87.89    6.40
   5   3 -14   89.09    6.30
   4   3 -14   90.99    7.00
   4   3 -14   95.69    6.70
   3   3 -14   50.59    4.90
   2   3 -14   15.30    3.40
   2   3 -14    5.90    2.90
   1   3 -14    3.20    2.90
   0   3 -14   50.79    5.20
   1  -3  14    7.10    3.40
   1  -3  14    6.50    3.50
   2  -3  14   71.49    6.50
   2  -3  14   70.39    6.50
   3  -3  14    2.90    2.60
   3  -3  14    1.10    2.10
   3  -3  14    1.90    3.00
   4  -3  14   18.80    2.70
   4  -3  14   19.70    3.10
   5  -3  14    9.60    2.10
   6  -3  14    1.80    1.50
   9   2 -14   -0.80    1.30
   8   2 -14    1.40    1.80
   7   2 -14    4.90    2.20
   6   2 -14   15.50    2.90
   6   2 -14   14.30    2.80
   5   2 -14   -0.40    2.70
   5   2 -14   -1.90    2.40
   4   2 -14  114.69    8.10
   4   2 -14  112.39    7.50
   3   2 -14   26.20    3.90
   2   2 -14   20.80    3.80
   2   2 -14   19.20    3.80
  -2  -2  14   25.40    4.90
   1   2 -14   23.70    4.10
  -1  -2  14   26.30    4.40
   0  -2  14    5.00    3.20
   0  -2  14    3.20    3.30
   1  -2  14   50.79    5.10
   1  -2  14   29.20    4.80
   2  -2  14   30.20    3.30
   2  -2  14   27.60    4.00
   2  -2  14   35.80    4.50
   3  -2  14   16.10    2.70
   3  -2  14   19.20    2.90
   3  -2  14   14.10    3.30
   4  -2  14   30.80    3.30
   4  -2  14   36.20    3.50
   5  -2  14    1.10    1.80
   6  -2  14   14.70    2.00
   9   1 -14   -1.70    1.40
   8   1 -14   22.80    2.70
   7   1 -14   26.20    2.90
   7   1 -14   29.90    3.30
   6   1 -14   99.39    6.60
   6   1 -14   92.89    7.00
   5   1 -14    5.90    3.10
   5   1 -14    5.20    2.50
   4   1 -14    2.70    3.00
   3   1 -14    7.60    2.90
  -2  -1  14   -0.50    2.90
   1   1 -14  213.08   13.60
  -1  -1  14  238.58   13.60
   0  -1  14    9.10    3.50
   0  -1  14   13.40    3.50
   1  -1  14   18.70    3.50
   1  -1  14   25.40    4.30
   1  -1  14   18.90    2.90
   2  -1  14   -0.30    2.50
   2  -1  14    3.30    2.20
   2  -1  14    2.60    2.90
   3  -1  14   22.40    3.50
   3  -1  14   30.80    3.30
   4  -1  14    1.10    2.00
   4  -1  14    5.50    1.90
   5  -1  14    5.70    1.90
   6  -1  14   38.40    3.00
   9   0 -14    5.80    1.70
   8   0 -14    7.30    2.20
   7   0 -14   24.40    3.10
   7   0 -14   25.50    3.30
   6   0 -14    9.00    2.80
   6   0 -14   13.10    3.30
   5   0 -14   -0.90    3.00
   4   0 -14    1.70    3.00
  -3   0  14    2.60    3.20
  -2   0  14    1.10    3.00
  -1   0  14   11.00    3.60
  -1   0  14    8.70    3.20
   0   0  14    3.50    3.00
   0   0  14    0.10    1.80
   0   0  14    2.50    3.10
   1   0  14   51.39    4.10
   1   0  14   41.10    3.50
   1   0  14   38.20    4.40
   1   0  14   23.70    4.20
   2   0  14    2.10    2.40
   2   0  14    1.70    2.80
   2   0  14    0.80    2.20
   3   0  14    0.70    2.40
   3   0  14    1.00    2.10
   4   0  14    3.70    2.10
   5   0  14   37.40    3.30
   9  -1 -14    8.60    1.90
   8  -1 -14    5.80    1.90
   8  -1 -14    1.10    2.10
   7  -1 -14    5.70    2.40
   7  -1 -14    8.60    2.90
   6  -1 -14    1.60    2.30
   6  -1 -14    2.60    3.10
   5  -1 -14   57.69    5.90
   4  -1 -14    2.40    3.10
  -3   1  14    2.40    3.30
  -2   1  14   69.99    6.70
  -2   1  14   83.39    7.20
  -1   1  14   -0.50    3.20
  -1   1  14   -0.20    3.00
   0   1  14   25.00    4.20
   0   1  14   20.00    3.20
   0   1  14   29.40    3.00
   0   1  14   29.80    4.10
   1   1  14   65.39    6.40
   1   1  14   66.79    5.70
   1   1  14   75.09    5.10
   1   1  14   70.79    5.40
   2   1  14   10.80    2.50
   2   1  14    9.50    3.00
   2   1  14    8.30    2.30
   3   1  14    6.00    2.00
   3   1  14    4.70    2.00
   3   1  14    2.60    2.20
   4   1  14    5.70    2.10
   5   1  14   28.80    2.80
   9  -2 -14    1.60    1.70
   8  -2 -14    1.40    2.10
   8  -2 -14    4.30    2.10
   7  -2 -14    0.10    2.10
   7  -2 -14   -3.10    2.60
   6  -2 -14    5.80    3.30
   5  -2 -14   80.99    7.10
  -4   2  14   15.20    4.00
  -3   2  14   10.00    3.50
  -2   2  14    9.00    3.70
  -2   2  14   12.60    3.60
  -1   2  14    6.00    3.30
  -1   2  14    9.10    3.70
   0   2  14  123.99    8.40
   0   2  14  140.99    9.30
   0   2  14  135.69    8.70
   0   2  14  133.39    8.00
   1   2  14    4.50    3.00
   1   2  14   11.90    2.70
   1   2  14    8.60    2.80
   1   2  14    9.90    2.50
   2   2  14    6.70    2.30
   2   2  14    3.20    2.30
   2   2  14    8.40    2.70
   3   2  14   17.60    2.40
   3   2  14   15.10    2.80
   4   2  14    4.20    1.80
   4   2  14    5.50    2.10
   5   2  14   19.40    2.30
   9  -3 -14    1.50    1.30
   9  -3 -14    2.80    1.70
   8  -3 -14   56.89    4.70
   8  -3 -14   65.49    4.60
   7  -3 -14    3.30    2.70
   6  -3 -14   30.70    4.40
   5  -3 -14    0.00    3.50
  -5   3  14    3.80    3.30
  -4   3  14   -1.60    3.20
  -3   3  14   12.80    4.00
  -3   3  14   18.10    3.90
  -2   3  14    1.50    3.40
  -2   3  14    1.90    3.20
  -1   3  14  261.47   14.30
  -1   3  14  275.77   15.00
  -1   3  14  258.77   15.40
  -1   3  14  251.77   14.90
   0   3  14    7.40    2.90
   0   3  14    6.50    3.30
   0   3  14    8.80    2.50
   0   3  14    4.20    2.60
   1   3  14    3.80    2.60
   1   3  14   -0.20    2.60
   1   3  14    0.40    2.20
   2   3  14   15.70    3.00
   2   3  14   20.10    2.70
   3   3  14   19.50    2.90
   3   3  14   17.00    2.40
   4   3  14   11.00    1.90
   4   3  14    7.10    2.10
   9  -4 -14    7.00    1.60
   8  -4 -14   86.49    6.00
   7  -4 -14   -1.70    2.60
   6  -4 -14   36.20    4.60
  -5   4  14   30.60    5.00
  -4   4  14    9.20    3.70
  -3   4  14    3.40    3.40
  -3   4  14    1.90    3.40
  -2   4  14    0.90    3.20
  -2   4  14   -5.00    3.10
  -1   4  14  192.18   10.60
  -1   4  14  177.08   11.50
  -1   4  14  178.28   11.00
   0   4  14   51.59    5.00
   0   4  14   51.59    4.10
   0   4  14   61.29    4.80
   0   4  14   59.59    5.20
   1   4  14   -1.70    2.60
   1   4  14    1.10    2.10
   1   4  14    1.20    2.10
   2   4  14   18.60    3.00
   2   4  14   15.00    2.50
   3   4  14   -3.70    1.90
   3   4  14    1.80    1.90
   9  -5 -14   18.40    2.10
   8  -5 -14    3.80    2.20
   7  -5 -14    1.30    2.70
   6  -5 -14   48.50    5.00
  -6   5  14   50.89    5.30
  -5   5  14   25.20    4.30
  -4   5  14   12.50    3.70
  -4   5  14    8.90    3.70
  -3   5  14    3.50    3.40
  -3   5  14    5.40    3.30
  -2   5  14   13.20    3.20
  -2   5  14   17.10    2.60
  -2   5  14   10.50    3.50
  -1   5  14   33.70    3.40
  -1   5  14   41.60    4.10
  -1   5  14   27.80    3.20
  -1   5  14   27.90    4.10
   0   5  14   79.29    5.50
   0   5  14   80.99    5.60
   0   5  14   70.99    5.90
   1   5  14   26.20    3.30
   1   5  14   24.10    2.90
   2   5  14    1.60    2.10
   2   5  14    4.50    1.90
   3   5  14   -0.60    1.50
   8  -6 -14    4.70    2.20
   7  -6 -14    8.50    2.80
  -7   6  14    4.00    2.80
  -6   6  14    3.60    3.10
  -5   6  14    9.40    3.20
  -5   6  14    8.50    3.50
  -4   6  14   20.70    4.00
  -4   6  14   25.30    3.80
  -4   6  14   19.90    2.50
  -3   6  14   11.00    3.50
  -3   6  14   14.50    2.40
  -3   6  14   10.60    3.00
  -2   6  14    1.10    2.10
  -2   6  14    4.90    2.90
  -2   6  14    1.40    2.00
  -2   6  14   -0.20    2.70
  -1   6  14   12.30    2.80
  -1   6  14    5.60    2.20
  -1   6  14    5.70    2.50
   0   6  14   -0.70    2.30
   0   6  14   -1.20    1.90
   1   6  14   36.20    3.20
   1   6  14   36.80    3.40
   2   6  14    4.90    1.80
  -8   7  14    7.80    2.30
   7  -7 -14    8.80    2.50
  -7   7  14    9.50    2.50
  -6   7  14    6.80    2.70
  -6   7  14   10.20    3.10
  -6   7  14   10.50    1.70
  -5   7  14    2.50    2.80
  -5   7  14    2.20    1.50
  -5   7  14   -2.50    2.40
  -4   7  14    8.30    2.60
  -4   7  14   14.50    2.10
  -4   7  14   12.90    3.20
  -3   7  14   42.60    3.50
  -3   7  14   38.40    3.60
  -3   7  14   47.40    4.40
  -2   7  14    1.30    1.80
  -2   7  14   -1.40    2.40
  -2   7  14   -0.60    2.00
  -1   7  14   23.40    3.00
  -1   7  14   21.70    2.50
   0   7  14    7.20    2.30
   0   7  14   12.40    1.90
  -7   8  14   14.00    2.20
  -6   8  14    1.50    1.90
  -5   8  14   24.00    2.60
  -5   8  14   18.20    2.90
  -4   8  14    1.70    2.10
  -4   8  14    4.00    1.60
  -3   8  14    4.30    1.90
   0   8 -15    0.80    1.90
  -1   8 -15   19.80    2.30
   2   7 -15   19.90    2.40
   1   7 -15   49.40    4.10
   0   7 -15    2.70    2.20
   0   7 -15    2.60    2.10
  -1   7 -15   33.10    3.30
  -1   7 -15   31.40    3.50
  -2   7 -15    1.80    2.20
   2  -7  15    1.10    2.40
  -3   7 -15    5.10    2.20
   3  -7  15    7.60    2.10
   3  -7  15   11.70    3.30
   5   6 -15   -3.00    1.60
   4   6 -15   24.90    2.80
   3   6 -15    2.00    1.90
   2   6 -15   38.20    3.70
   1   6 -15   42.90    4.30
   1   6 -15   43.30    4.00
   0   6 -15    7.50    2.60
   0   6 -15    5.50    2.60
  -1   6 -15   11.40    2.90
  -2   6 -15    1.00    2.50
   2  -6  15    2.70    2.70
   2  -6  15    5.10    2.70
  -3   6 -15    3.90    2.50
   3  -6  15    4.10    2.20
   3  -6  15    8.30    2.60
   4  -6  15   11.00    2.40
   6   5 -15   -1.30    1.50
   5   5 -15   15.20    2.40
   4   5 -15   23.70    2.70
   4   5 -15   16.90    2.80
   3   5 -15   30.30    3.60
   2   5 -15   10.70    2.90
   1   5 -15   15.10    3.20
   1   5 -15   18.40    3.30
   0   5 -15   79.09    6.10
  -1   5 -15   40.20    4.40
   1  -5  15   42.70    4.80
  -2   5 -15   -2.10    2.50
   2  -5  15   -0.10    2.70
   2  -5  15    1.40    2.70
   3  -5  15   44.90    3.90
   3  -5  15   36.50    4.20
   4  -5  15   11.00    2.40
   7   4 -15    0.40    1.50
   6   4 -15   35.30    3.20
   5   4 -15    4.60    2.10
   5   4 -15    8.90    2.40
   4   4 -15   16.80    2.90
   4   4 -15   17.80    2.90
   3   4 -15   78.69    6.20
   2   4 -15   40.90    4.40
   1   4 -15   18.40    3.30
   1   4 -15   24.70    3.70
  -1  -4  15   26.00    4.40
   0   4 -15   58.69    5.30
   0  -4  15   54.29    5.70
  -1   4 -15   20.70    3.60
   1  -4  15   22.70    4.00
   1  -4  15   16.50    3.60
   2  -4  15   32.70    4.00
   2  -4  15   29.00    4.20
   3  -4  15   91.49    7.00
   3  -4  15  105.89    6.50
   4  -4  15   13.40    2.50
   7   3 -15   13.10    2.10
   6   3 -15    9.80    2.20
   6   3 -15   11.40    1.90
   5   3 -15    1.00    2.40
   5   3 -15    1.00    2.20
   4   3 -15   17.60    3.10
   3   3 -15   11.00    3.10
   2   3 -15   10.70    3.10
   1   3 -15    3.50    3.10
  -1  -3  15    9.60    3.60
   0   3 -15   31.10    4.20
   0  -3  15   32.40    4.90
   0  -3  15   26.00    4.40
   1  -3  15    3.70    3.40
   1  -3  15    8.80    3.40
   2  -3  15   44.30    4.50
   2  -3  15   46.50    5.20
   3  -3  15    1.90    2.60
   3  -3  15    5.80    2.30
   4  -3  15   -2.20    1.90
   4  -3  15   -1.80    1.80
   5  -3  15   24.60    2.40
   8   2 -15    3.80    1.60
   7   2 -15   15.00    2.40
   6   2 -15    5.50    2.30
   6   2 -15    9.10    2.50
   5   2 -15   16.50    2.70
   5   2 -15   19.50    3.30
   4   2 -15  152.48    9.70
   3   2 -15  108.59    7.90
   2   2 -15    3.80    3.20
  -2  -2  15    5.10    3.30
   1   2 -15    2.30    3.10
  -1  -2  15    1.80    3.10
   0  -2  15   80.99    6.60
   0  -2  15   59.49    6.00
   1  -2  15   14.50    3.70
   1  -2  15   18.80    3.70
   2  -2  15   59.39    5.60
   2  -2  15   51.09    4.70
   3  -2  15   23.70    2.90
   3  -2  15   21.90    3.30
   4  -2  15   28.60    2.70
   4  -2  15   29.70    2.90
   5  -2  15   24.70    2.40
   8   1 -15   45.80    3.50
   7   1 -15   13.60    2.00
   7   1 -15   13.30    2.40
   6   1 -15   42.30    3.90
   6   1 -15   42.80    4.20
   5   1 -15   37.30    4.30
   4   1 -15   39.60    4.70
   3   1 -15    8.50    3.40
  -3  -1  15   10.70    4.40
  -2  -1  15   -1.70    3.00
  -1  -1  15   78.09    6.70
  -1  -1  15   69.89    6.70
   0  -1  15   45.90    4.90
   0  -1  15   41.70    5.10
   1  -1  15    1.80    2.90
   1  -1  15    1.90    2.80
   2  -1  15   10.80    2.70
   2  -1  15   11.60    2.50
   2  -1  15   11.90    3.20
   3  -1  15    2.40    2.50
   3  -1  15    2.10    2.00
   4  -1  15    6.30    2.00
   5  -1  15   21.20    2.30
   9   0 -15    3.10    1.40
   8   0 -15   89.89    5.50
   7   0 -15   14.00    2.60
   7   0 -15   15.60    2.50
   6   0 -15    0.80    2.90
   6   0 -15    0.10    2.10
   5   0 -15    7.00    3.40
   4   0 -15    2.90    3.10
  -3   0  15    0.80    3.30
  -2   0  15    1.60    3.20
  -1   0  15   44.30    5.10
  -1   0  15   48.30    5.00
   0   0  15    1.10    3.00
   0   0  15    5.30    2.20
   0   0  15    4.70    3.30
   1   0  15    5.20    2.90
   1   0  15   -0.10    2.20
   1   0  15   -0.90    2.90
   2   0  15    2.80    2.80
   2   0  15    6.80    2.30
   2   0  15    2.00    2.00
   3   0  15    2.50    1.90
   3   0  15    2.30    2.10
   4   0  15    9.40    2.10
   5   0  15    4.40    1.70
   9  -1 -15   24.40    2.30
   8  -1 -15   -0.50    1.80
   8  -1 -15    2.20    1.60
   7  -1 -15    3.70    2.50
   7  -1 -15    2.80    2.10
   6  -1 -15   24.20    3.80
   5  -1 -15   11.50    3.60
   4  -1 -15   13.30    3.80
  -4   1  15   13.80    3.90
  -3   1  15    6.10    3.40
  -2   1  15   14.50    3.80
  -2   1  15    4.10    3.60
  -1   1  15   14.50    2.30
  -1   1  15   12.50    3.70
  -1   1  15   22.50    3.90
   0   1  15    0.10    2.80
   0   1  15    1.30    2.00
   0   1  15    0.30    3.10
   1   1  15    4.40    2.40
   1   1  15    1.20    1.90
   1   1  15    3.50    2.50
   1   1  15    1.50    2.80
   2   1  15   13.50    2.70
   2   1  15    8.80    2.70
   2   1  15   10.40    2.10
   3   1  15    9.00    2.40
   4   1  15   10.70    2.20
   9  -2 -15    7.40    1.60
   8  -2 -15    7.40    2.10
   8  -2 -15   10.20    2.20
   7  -2 -15    1.20    2.50
   6  -2 -15   -2.60    3.00
   5  -2 -15   -5.10    3.10
  -4   2  15   28.70    4.80
  -3   2  15   55.49    5.70
  -2   2  15   29.00    4.40
  -2   2  15   33.50    4.50
  -1   2  15   27.40    2.90
  -1   2  15   22.60    4.10
  -1   2  15   28.90    4.10
   0   2  15    3.90    2.10
   0   2  15    3.40    2.70
   0   2  15    0.30    3.00
   0   2  15    0.70    2.40
   1   2  15    2.90    2.10
   1   2  15    1.10    2.30
   1   2  15   -0.80    2.50
   2   2  15    8.20    2.50
   2   2  15    3.80    1.90
   2   2  15    3.10    1.90
   3   2  15   20.00    2.80
   3   2  15   18.80    2.30
   4   2  15   34.30    3.10
   8  -3 -15   11.00    2.40
   7  -3 -15    2.70    2.50
   6  -3 -15    3.00    3.10
   5  -3 -15    5.50    3.50
  -5   3  15    3.90    3.40
  -4   3  15    6.80    3.40
  -3   3  15    6.10    3.20
  -3   3  15    1.10    3.40
  -2   3  15   14.90    3.50
  -2   3  15   21.60    3.90
  -1   3  15   -0.60    2.00
  -1   3  15   -0.50    2.90
  -1   3  15    4.70    3.00
   0   3  15    9.90    2.50
   0   3  15   15.90    3.20
   0   3  15   17.20    2.70
   0   3  15   15.90    3.50
   1   3  15   11.20    2.30
   1   3  15   11.80    2.60
   1   3  15    8.70    2.80
   2   3  15   -0.10    1.70
   2   3  15    3.80    2.50
   3   3  15   33.20    3.00
   3   3  15   34.80    3.30
   8  -4 -15   53.89    4.30
   7  -4 -15    1.90    2.50
   6  -4 -15    3.90    3.00
  -6   4  15    2.60    3.30
  -5   4  15   22.70    4.20
  -4   4  15   23.60    4.10
  -4   4  15   22.40    4.30
  -3   4  15    2.00    3.20
  -3   4  15    2.00    3.20
  -2   4  15   10.40    2.30
  -2   4  15    6.70    3.10
  -2   4  15   10.20    3.40
  -1   4  15   11.20    2.90
  -1   4  15    6.40    3.00
  -1   4  15    4.30    2.50
  -1   4  15    8.70    2.30
   0   4  15    2.70    2.60
   0   4  15   -0.20    2.40
   0   4  15    1.90    2.20
   1   4  15   18.10    3.10
   1   4  15   21.10    2.60
   2   4  15    8.00    2.30
   2   4  15    5.50    1.80
   8  -5 -15   33.00    3.20
   7  -5 -15    2.00    2.50
  -7   5  15   -2.00    2.60
   6  -5 -15    2.80    2.90
  -6   5  15    4.70    3.00
  -5   5  15    0.80    3.00
  -4   5  15    6.10    3.10
  -4   5  15   10.90    3.60
  -3   5  15    6.20    3.20
  -3   5  15   16.20    3.20
  -3   5  15   11.80    2.20
  -2   5  15    1.80    2.40
  -2   5  15    0.20    2.00
  -2   5  15    5.80    3.00
  -1   5  15    0.30    2.40
  -1   5  15    3.70    2.10
  -1   5  15   -0.50    2.30
   0   5  15   18.20    2.00
   0   5  15    7.10    2.60
   0   5  15   15.10    2.40
   1   5  15   17.00    2.60
   1   5  15   12.30    2.10
   2   5  15    1.00    1.70
   7  -6 -15    3.90    2.20
  -7   6  15   -2.10    2.10
  -6   6  15   35.50    3.90
  -5   6  15   10.50    3.30
  -5   6  15   20.10    3.20
  -5   6  15   20.60    2.20
  -4   6  15   87.49    6.10
  -4   6  15   80.39    6.50
  -4   6  15   83.99    5.20
  -3   6  15    0.40    2.10
  -3   6  15   -0.70    1.80
  -3   6  15    2.10    2.70
  -2   6  15   21.20    2.50
  -2   6  15   16.70    2.90
  -1   6  15   16.30    2.00
  -1   6  15   17.20    2.30
  -1   6  15   14.10    2.70
   0   6  15   32.30    3.20
   0   6  15   37.70    3.10
  -7   7  15   -3.50    1.70
  -6   7  15    0.90    1.90
  -5   7  15   15.10    2.40
  -5   7  15   15.90    1.90
  -5   7  15   10.20    2.70
  -4   7  15    4.30    2.40
  -4   7  15    3.80    1.80
  -4   7  15    5.10    1.60
  -3   7  15   16.70    2.10
  -3   7  15   24.70    2.80
  -2   7  15   14.20    2.00
  -2   7  15   18.30    2.00
   0  -7  16   29.30    3.30
  -1   7 -16    3.30    1.80
   1  -7  16    1.00    2.00
   3   6 -16   37.50    3.10
   2   6 -16    3.10    1.90
   1   6 -16   37.70    3.70
  -1  -6  16   34.00    3.90
   0   6 -16   -2.50    2.00
   0   6 -16    1.90    2.20
   0  -6  16    0.90    2.50
  -1   6 -16    9.80    2.50
   1  -6  16    9.50    3.90
   1  -6  16   11.70    2.70
  -2   6 -16    4.70    2.30
   2  -6  16    4.60    2.10
   2  -6  16    7.40    2.50
   4   5 -16   11.00    2.00
   3   5 -16   20.70    2.70
   2   5 -16   14.50    2.80
   1   5 -16   22.70    3.20
  -1  -5  16   28.90    3.80
   0   5 -16    4.40    2.60
   0  -5  16   -3.00    2.70
  -1   5 -16   14.60    3.00
   1  -5  16   13.50    3.00
   1  -5  16   14.50    3.30
  -2   5 -16    1.60    2.50
   2  -5  16    3.20    2.20
   2  -5  16    5.70    2.70
   3  -5  16    4.50    2.20
   3  -5  16   -1.70    1.60
   6   4 -16    9.80    1.80
   5   4 -16   14.90    2.00
   5   4 -16   17.00    2.30
   4   4 -16   71.59    5.20
   3   4 -16   13.50    2.80
   2   4 -16    9.50    2.90
   1   4 -16   38.70    4.20
  -1  -4  16   32.30    4.40
   0   4 -16   12.50    3.30
   0  -4  16   17.10    3.50
  -1   4 -16   71.29    5.80
   1  -4  16   66.89    6.20
   1  -4  16   66.99    5.70
   2  -4  16   12.50    3.10
   2  -4  16   10.90    2.60
   3  -4  16    1.30    2.10
   7   3 -16    4.00    2.20
   6   3 -16    0.50    1.70
   5   3 -16   -0.60    2.10
   4   3 -16   34.10    3.70
   3   3 -16    2.40    2.70
   2   3 -16    8.90    2.90
  -2  -3  16    4.70    3.20
  -1  -3  16    2.40    3.10
   0   3 -16   24.50    4.00
   0  -3  16   26.90    4.00
   0  -3  16   31.80    4.40
   1  -3  16   11.80    3.20
   1  -3  16    8.60    3.00
   2  -3  16   -2.50    2.30
   2  -3  16   -1.80    2.60
   3  -3  16    1.90    2.30
   7   2 -16    9.40    1.80
   6   2 -16    7.80    2.10
   6   2 -16    8.60    2.10
   5   2 -16   27.40    3.50
   4   2 -16   37.40    4.20
   3   2 -16    2.30    2.90
   2   2 -16    3.50    4.60
  -2  -2  16   -5.00    2.90
  -1  -2  16   20.00    3.70
   0  -2  16   45.00    5.10
   0  -2  16   44.60    4.80
   1  -2  16   40.30    4.50
   1  -2  16   36.70    4.00
   2  -2  16    1.20    2.60
   2  -2  16    4.50    2.30
   3  -2  16   73.99    5.20
   3  -2  16   76.59    5.10
   4  -2  16    5.20    1.80
   7   1 -16   68.89    4.00
   7   1 -16   68.19    4.50
   6   1 -16   17.60    2.90
   5   1 -16  146.89    9.30
   4   1 -16    5.10    3.10
   3   1 -16    0.80    3.10
  -3  -1  16    3.90    3.30
  -2  -1  16   69.89    6.30
  -1  -1  16    4.30    3.10
  -1  -1  16   -2.20    2.80
   0  -1  16   72.79    5.80
   0  -1  16   53.79    5.50
   1  -1  16   18.80    3.60
   1  -1  16   16.90    3.10
   2  -1  16   -0.50    2.80
   2  -1  16    0.20    2.50
   3  -1  16   33.50    2.80
   3  -1  16   25.10    2.90
   4  -1  16   -0.10    1.70
   8   0 -16   24.50    2.30
   7   0 -16    1.60    1.80
   6   0 -16    5.20    2.90
   5   0 -16   33.50    4.20
   4   0 -16   16.80    3.60
  -4   0  16    2.70    3.40
  -3   0  16   14.20    3.60
  -2   0  16   12.90    3.60
  -2   0  16   14.50    3.60
  -1   0  16   16.40    3.60
  -1   0  16   10.40    3.40
   0   0  16    9.80    3.40
   0   0  16   12.30    3.20
   1   0  16    1.70    2.80
   1   0  16   -1.30    2.20
   2   0  16   17.00    2.90
   2   0  16   23.10    2.90
   3   0  16   18.20    2.60
   4   0  16    1.80    1.80
   7  -1 -16   -4.00    1.80
   6  -1 -16   42.00    4.40
   5  -1 -16   10.50    3.50
   4  -1 -16   30.50    4.40
  -4   1  16   28.10    4.30
  -3   1  16  118.29    8.40
  -2   1  16   -2.80    3.00
  -2   1  16    8.10    3.50
  -1   1  16   43.60    4.60
  -1   1  16   38.60    3.40
  -1   1  16   44.70    4.90
   0   1  16   21.20    2.50
   0   1  16   21.80    3.30
   0   1  16   18.70    3.60
   1   1  16    0.40    1.70
   1   1  16    4.00    2.40
   1   1  16    1.40    2.60
   2   1  16   -1.00    2.20
   2   1  16    0.80    1.80
   3   1  16    6.40    2.10
   8  -2 -16   25.10    2.40
   7  -2 -16   11.40    2.60
   6  -2 -16    6.00    2.90
   5  -2 -16   38.60    4.90
  -5   2  16   53.19    5.10
  -4   2  16    2.60    3.10
  -3   2  16   72.39    6.60
  -3   2  16   63.19    6.20
  -2   2  16   38.90    4.70
  -2   2  16   27.40    4.00
  -2   2  16   26.50    2.80
  -1   2  16   10.70    3.30
  -1   2  16   13.40    2.30
  -1   2  16    5.50    2.90
   0   2  16   13.70    2.60
   0   2  16   12.60    3.10
   0   2  16   12.10    2.20
   1   2  16   29.40    3.20
   1   2  16   23.90    3.40
   1   2  16   22.40    2.60
   2   2  16    1.40    1.50
   2   2  16   -2.80    2.10
   3   2  16   12.30    2.30
   8  -3 -16    9.10    1.80
   7  -3 -16   15.00    2.80
   6  -3 -16    2.70    2.80
  -6   3  16    3.80    3.10
   5  -3 -16   38.50    4.60
  -5   3  16   29.10    4.30
  -4   3  16    5.00    3.20
  -3   3  16   10.50    3.40
  -3   3  16    9.10    3.50
  -2   3  16   -0.20    2.80
  -2   3  16   -2.40    1.80
  -2   3  16   -2.90    2.90
  -1   3  16   60.69    5.80
  -1   3  16   68.29    4.60
  -1   3  16   65.39    5.10
   0   3  16   24.80    3.20
   0   3  16   23.40    3.30
   0   3  16   19.70    2.60
   1   3  16   -0.90    2.30
   1   3  16   -1.10    1.60
   2   3  16   18.80    2.20
   2   3  16   34.60    3.10
   7  -4 -16    0.10    2.20
  -7   4  16    3.20    2.60
   6  -4 -16   19.60    3.30
  -6   4  16   17.10    3.30
  -5   4  16    1.60    2.80
  -4   4  16   10.50    3.20
  -4   4  16    5.80    3.10
  -3   4  16   10.70    3.00
  -3   4  16   20.00    3.70
  -3   4  16   17.00    2.30
  -2   4  16   27.40    3.80
  -2   4  16   29.80    3.40
  -2   4  16   29.70    2.90
  -1   4  16   32.70    3.80
  -1   4  16   39.10    3.40
   0   4  16   -1.10    2.20
   0   4  16   -3.50    1.70
   0   4  16    0.40    1.70
   1   4  16    2.10    1.60
   1   4  16    4.30    2.10
   7  -5 -16   -3.10    2.00
  -7   5  16    3.20    2.20
   6  -5 -16   14.10    3.00
  -6   5  16    8.60    2.70
  -5   5  16    6.90    3.10
  -5   5  16   12.10    2.90
  -4   5  16    2.40    2.50
  -4   5  16    0.40    1.60
  -4   5  16   -0.60    2.70
  -3   5  16   36.80    3.50
  -3   5  16   32.10    4.00
  -3   5  16   36.10    3.20
  -2   5  16   -0.20    1.70
  -2   5  16    2.70    1.70
  -2   5  16   -0.90    2.40
  -1   5  16   15.60    2.30
  -1   5  16   16.50    2.20
   0   5  16    1.30    1.60
   0   5  16    5.60    2.10
  -6   6  16   10.40    2.30
  -5   6  16    0.60    2.20
  -5   6  16    1.20    1.40
  -5   6  16    6.00    2.20
  -4   6  16   -0.60    2.30
  -4   6  16    5.50    2.00
  -4   6  16    2.10    1.50
  -3   6  16    3.10    2.30
  -3   6  16    1.50    1.60
  -3   6  16    4.60    1.50
  -2   6  16   52.09    3.60
  -2   6  16   51.59    3.70
   0  -6  17   16.50    2.50
   3   5 -17   16.30    2.30
   2   5 -17    1.50    2.00
  -2  -5  17    4.80    2.40
   1   5 -17   -0.10    2.00
  -1  -5  17    1.90    2.30
   0  -5  17   16.50    2.70
   1  -5  17   -1.20    2.00
   4   4 -17   12.60    2.30
   3   4 -17   50.59    4.20
   2   4 -17    4.90    2.30
  -2  -4  17    7.30    2.70
   1   4 -17    4.00    2.50
  -1  -4  17    6.60    2.60
   0  -4  17   22.70    3.50
   0  -4  17   25.20    3.20
   1  -4  17   -1.00    2.20
   1  -4  17    1.20    2.10
   2  -4  17   18.50    2.20
   2  -4  17   16.60    2.70
   5   3 -17    1.20    1.80
   4   3 -17    5.80    2.40
   3   3 -17   19.10    3.00
   2   3 -17    8.90    2.70
  -2  -3  17   11.80    3.10
  -1  -3  17   63.59    5.40
   0  -3  17   14.70    3.10
   0  -3  17   13.50    3.00
   1  -3  17   16.00    3.10
   1  -3  17   14.10    2.70
   2  -3  17   23.00    2.30
   2  -3  17   21.30    2.90
   5   2 -17    4.50    2.30
   4   2 -17   51.89    4.70
   3   2 -17    1.10    2.50
  -3  -2  17    1.50    2.80
  -2  -2  17   -1.20    2.80
  -1  -2  17   14.80    3.20
  -1  -2  17   11.80    3.40
   0  -2  17   -1.00    2.70
   0  -2  17   -3.00    2.50
   1  -2  17   39.00    3.60
   1  -2  17   38.50    4.10
   2  -2  17   38.50    3.70
   6   1 -17    7.00    2.10
   5   1 -17   -1.60    2.30
   4   1 -17   15.50    3.20
  -4  -1  17   14.70    3.80
   3   1 -17   42.50    4.50
  -3  -1  17   39.60    4.50
  -2  -1  17   31.60    4.20
  -1  -1  17   24.30    3.80
  -1  -1  17   38.10    4.50
   0  -1  17   11.60    2.90
   0  -1  17    7.10    3.10
   1  -1  17   31.00    3.70
   1  -1  17   34.60    3.40
   2  -1  17   16.90    2.50
   6   0 -17    7.00    2.50
   5   0 -17   36.90    4.10
   4   0 -17   26.30    3.80
  -4   0  17   23.40    3.80
  -3   0  17    4.50    3.00
  -2   0  17   32.00    4.10
  -2   0  17   31.20    4.30
  -1   0  17    2.30    2.70
  -1   0  17   -3.00    2.70
   0   0  17    5.10    3.00
   0   0  17    9.90    2.70
   1   0  17   32.90    3.60
   7  -1 -17    8.10    1.90
   6  -1 -17    1.90    2.40
   5  -1 -17    5.20    3.00
  -5   1  17    7.30    2.80
   4  -1 -17   31.30    4.10
  -4   1  17   29.30    4.00
  -3   1  17   43.90    4.60
  -2   1  17   22.60    3.60
  -2   1  17   21.50    2.30
  -2   1  17   27.30    4.00
  -1   1  17   12.70    2.80
  -1   1  17    8.60    3.10
  -1   1  17   13.50    1.90
   0   1  17    3.20    2.10
   0   1  17    5.30    2.60
   1   1  17   -0.80    2.20
   2   1  17    7.70    2.30
   7  -2 -17   20.80    2.50
   6  -2 -17   16.80    2.90
   5  -2 -17   17.20    3.30
  -5   2  17    8.00    3.00
  -4   2  17   16.10    3.20
  -3   2  17   17.10    3.30
  -3   2  17   13.00    2.00
  -3   2  17   24.90    3.70
  -2   2  17    6.70    3.00
  -2   2  17    8.40    1.80
  -2   2  17    6.70    2.70
  -1   2  17    2.70    2.80
  -1   2  17   -0.30    1.50
  -1   2  17    1.20    2.30
   0   2  17    0.10    2.30
   0   2  17    1.60    1.50
   1   2  17    1.50    2.10
   7  -3 -17   18.00    3.00
   6  -3 -17    7.60    2.50
  -6   3  17    1.40    2.50
   5  -3 -17   16.00    3.30
  -5   3  17   13.40    3.10
  -4   3  17    2.40    2.60
  -4   3  17   -2.20    2.70
  -3   3  17    0.20    2.70
  -3   3  17    1.90    2.60
  -3   3  17    0.80    1.60
  -2   3  17   13.30    2.70
  -2   3  17   13.60    3.20
  -2   3  17   14.20    2.10
  -1   3  17    3.80    2.40
  -1   3  17   -1.10    1.60
  -1   3  17    0.10    2.10
   0   3  17   30.30    2.80
   0   3  17   25.10    2.50
  -6   4  17   19.60    2.90
  -5   4  17   24.20    3.20
  -4   4  17   18.90    2.10
  -4   4  17   13.30    3.10
  -4   4  17   20.20    3.00
  -3   4  17   62.99    4.10
  -3   4  17   51.79    4.50
  -3   4  17   59.19    5.10
  -2   4  17    6.80    2.60
  -2   4  17   10.10    1.90
  -2   4  17    9.80    1.90
  -1   4  17    0.80    1.60
  -1   4  17    3.70    2.00
  -5   5  17   35.90    3.40
  -5   5  17   35.80    2.90
  -4   5  17    1.80    1.40
  -4   5  17   -1.80    2.20
  -4   5  17   -1.30    1.80
  -3   5  17    1.90    1.50
  -3   5  17   -1.00    1.40
  -3   5  17    1.30    2.20
  -2   5  17    5.00    1.90
  -2  -4  18   10.50    2.50
  -1  -4  18   15.90    2.60
   0  -4  18    4.20    2.00
   3   3 -18   10.10    2.40
  -3  -3  18   12.00    2.70
   2   3 -18    7.80    2.50
  -2  -3  18    3.30    2.40
  -1  -3  18   -1.30    2.10
   0  -3  18   10.80    2.30
   4   2 -18   -3.10    2.00
  -4  -2  18    1.80    2.60
   3   2 -18    4.90    2.30
  -3  -2  18    6.20    2.50
   2   2 -18    4.90    2.60
  -2  -2  18    4.20    2.50
  -1  -2  18    4.30    2.60
  -1  -2  18    5.60    2.50
   0  -2  18   29.60    3.40
   0  -2  18   27.80    3.10
   5   1 -18   39.40    3.50
   4   1 -18    3.20    2.40
  -4  -1  18    0.80    2.30
   3   1 -18    6.40    2.60
  -3  -1  18    0.00    2.40
  -2  -1  18    1.40    2.50
  -2  -1  18    5.80    2.70
  -1  -1  18    4.40    2.40
  -1  -1  18    3.40    2.70
   0  -1  18   17.00    2.40
   0  -1  18   19.70    3.10
   5   0 -18    9.40    2.40
  -5   0  18    3.00    2.30
   4   0 -18   -0.10    2.60
  -4   0  18   -1.20    2.30
  -3   0  18   53.79    4.80
  -2   0  18   -0.20    2.40
  -2   0  18    0.50    2.50
  -1   0  18   17.60    3.10
  -1   0  18   12.90    2.60
   0   0  18   22.60    2.90
   0   0  18   16.90    2.20
   5  -1 -18   19.00    3.00
  -5   1  18   14.50    2.80
   4  -1 -18   14.70    3.00
  -4   1  18   10.60    1.50
  -4   1  18   10.50    2.60
  -3   1  18   13.20    3.10
  -3   1  18    9.20    1.50
  -3   1  18    8.40    2.60
  -2   1  18   16.40    2.90
  -2   1  18   21.70    3.20
  -1   1  18    9.30    2.20
  -1   1  18    7.00    2.60
   0   1  18    7.90    2.30
  -5   2  18   -2.70    2.10
  -4   2  18   13.50    2.80
  -4   2  18   14.70    1.70
  -3   2  18   -1.40    2.20
  -3   2  18   -1.40    1.20
  -3   2  18   -1.30    2.50
  -2   2  18    9.50    2.60
  -2   2  18    8.40    1.50
  -2   2  18    4.70    2.20
  -1   2  18   14.80    2.70
  -5   3  18    0.00    2.00
  -4   3  18   11.60    1.70
  -4   3  18   14.80    2.50
  -3   3  18   -2.50    2.20
  -3   3  18   -0.40    1.30
  -3   3  18   -2.70    1.90
  -2   3  18    6.80    2.40
   0   0   0    0.00    0.00

_computing_structure_solution     'SHELXT 2014/5 (Sheldrick, 2014)'
;
_shelx_hkl_checksum              20474
loop_
_space_group_symop_operation_xyz
'x, y, z'
'-x, -y, -z'
loop_
_atom_site_label
_atom_site_type_symbol
_atom_site_fract_x
_atom_site_fract_y
_atom_site_fract_z
_atom_site_U_iso_or_equiv
_atom_site_adp_type
_atom_site_occupancy
_atom_site_site_symmetry_order
_atom_site_calc_flag
_atom_site_refinement_flags_posn
_atom_site_refinement_flags_adp
_atom_site_refinement_flags_occupancy
_atom_site_disorder_assembly
_atom_site_disorder_group
Zn1 Zn 0.19371(4) 0.55807(4) 0.31208(3) 0.01708(13) Uani 1 1 d . . . . .
O1 O 0.4518(8) 0.6046(7) 0.5880(5) 0.026(3) Uani 0.304(9) 1 d . . P A 2
O2 O 0.3125(3) 0.4476(2) 0.2802(2) 0.0368(7) Uani 1 1 d D . . . .
H21W H 0.368(5) 0.480(5) 0.245(3) 0.055 Uiso 1 1 d D U . . .
H22W H 0.282(5) 0.3660(19) 0.272(3) 0.055 Uiso 1 1 d D U . . .
O3 O 0.4915(2) 0.4085(2) 0.80073(15) 0.0241(5) Uani 1 1 d . . . . .
O4 O 0.3569(2) 0.2082(2) 0.78254(15) 0.0254(5) Uani 1 1 d . . . . .
O5 O 0.9601(3) 0.9443(2) 0.66032(17) 0.0313(6) Uani 1 1 d . . . . .
O6 O 0.8261(3) 0.8039(2) 0.72992(16) 0.0283(5) Uani 1 1 d . . . . .
O7 O -0.1636(13) 0.2232(11) 0.3631(9) 0.030(4) Uani 0.199(9) 1 d . . P B 2
O8 O 0.4281(5) 0.9590(4) 0.2421(3) 0.0265(15) Uani 0.497(9) 1 d . . P C 2
N1 N -0.0066(3) 0.4793(3) 0.25508(18) 0.0201(6) Uani 1 1 d . . . . .
N2 N 0.1469(3) 0.4775(2) 0.42053(17) 0.0181(5) Uani 1 1 d . . . . .
N3 N 0.3364(3) 0.7078(2) 0.37985(17) 0.0170(5) Uani 1 1 d . . . . .
N4 N 0.1627(3) 0.6684(3) 0.21262(18) 0.0249(6) Uani 1 1 d . . . . .
C1 C -0.0552(4) 0.5160(3) 0.1769(2) 0.0228(7) Uani 1 1 d . . . . .
C2 C -0.1875(4) 0.4252(3) 0.1378(2) 0.0327(8) Uani 1 1 d . . . . .
C3 C -0.2160(4) 0.3356(3) 0.1963(2) 0.0258(7) Uani 1 1 d . . . . .
C4 C -0.1014(3) 0.3719(3) 0.2718(2) 0.0197(6) Uani 1 1 d . . . . .
C5 C -0.0800(3) 0.3249(3) 0.3534(2) 0.0187(6) Uani 1 1 d . . . . .
H5 H -0.1475 0.2502 0.3622 0.022 Uiso 0.801(9) 1 calc R U P B 1
C6 C 0.0357(3) 0.3791(3) 0.4264(2) 0.0179(6) Uani 1 1 d . . . . .
C7 C 0.0520(3) 0.3411(3) 0.5140(2) 0.0176(6) Uani 1 1 d . . . . .
C8 C 0.1754(3) 0.4203(3) 0.5605(2) 0.0183(6) Uani 1 1 d . . . . .
C9 C 0.2344(3) 0.5062(3) 0.5010(2) 0.0175(6) Uani 1 1 d . . . . .
C10 C 0.3576(3) 0.6096(3) 0.5193(2) 0.0209(7) Uani 1 1 d . . . . .
H10 H 0.4158 0.6152 0.5754 0.025 Uiso 0.696(9) 1 calc R U P A 1
C11 C 0.4050(3) 0.7063(3) 0.4640(2) 0.0175(6) Uani 1 1 d . . . . .
C12 C 0.5217(3) 0.8172(3) 0.4863(2) 0.0185(6) Uani 1 1 d . . . . .
C13 C 0.5232(3) 0.8846(3) 0.4125(2) 0.0190(6) Uani 1 1 d . . . . .
C14 C 0.4053(3) 0.8155(3) 0.3477(2) 0.0173(6) Uani 1 1 d . . . . .
C15 C 0.3542(3) 0.8576(3) 0.2626(2) 0.0205(7) Uani 1 1 d . . . . .
H15 H 0.4073 0.9358 0.2469 0.025 Uiso 0.503(9) 1 calc R U P C 1
C16 C 0.2316(4) 0.7903(3) 0.2021(2) 0.0227(7) Uani 1 1 d . . . . .
C17 C 0.1470(4) 0.8351(3) 0.1320(2) 0.0235(7) Uani 1 1 d . . . . .
C18 C 0.0247(4) 0.7382(3) 0.1041(2) 0.0251(7) Uani 1 1 d . . . . .
C19 C 0.0372(4) 0.6347(3) 0.1573(2) 0.0257(7) Uani 1 1 d . . . . .
C20A C -0.2529(11) 0.4195(9) 0.0388(7) 0.024(3) Uani 0.517(12) 1 d . . P D 1
H20A H -0.1882 0.4792 0.0093 0.029 Uiso 0.517(12) 1 calc R U P D 1
H20B H -0.2720 0.3329 0.0115 0.029 Uiso 0.517(12) 1 calc R U P D 1
C21A C -0.3863(9) 0.4556(7) 0.0307(5) 0.034(2) Uani 0.517(12) 1 d . . P D 1
H21A H -0.4302 0.4530 -0.0310 0.050 Uiso 0.517(12) 1 calc R U P D 1
H21B H -0.4494 0.3958 0.0600 0.050 Uiso 0.517(12) 1 calc R U P D 1
H21C H -0.3660 0.5415 0.0579 0.050 Uiso 0.517(12) 1 calc R U P D 1
C20B C -0.2963(9) 0.4306(9) 0.0579(7) 0.017(2) Uani 0.483(12) 1 d . . P D 2
H20C H -0.3206 0.5115 0.0600 0.020 Uiso 0.483(12) 1 calc R U P D 2
H20D H -0.3817 0.3596 0.0537 0.020 Uiso 0.483(12) 1 calc R U P D 2
C21B C -0.2287(7) 0.4200(7) -0.0203(6) 0.023(2) Uani 0.483(12) 1 d . . P D 2
H21D H -0.2942 0.4229 -0.0746 0.034 Uiso 0.483(12) 1 calc R U P D 2
H21E H -0.1441 0.4907 -0.0149 0.034 Uiso 0.483(12) 1 calc R U P D 2
H21F H -0.2049 0.3396 -0.0211 0.034 Uiso 0.483(12) 1 calc R U P D 2
C22 C -0.3426(4) 0.2233(3) 0.1861(3) 0.0341(9) Uani 1 1 d . . . . .
H22A H -0.3172 0.1554 0.2203 0.041 Uiso 1 1 calc R U . . .
H22B H -0.3728 0.1905 0.1241 0.041 Uiso 1 1 calc R U . . .
C23 C -0.4633(4) 0.2530(4) 0.2153(3) 0.0404(10) Uani 1 1 d . . . . .
H23A H -0.4363 0.2805 0.2776 0.061 Uiso 1 1 calc R U . . .
H23B H -0.5432 0.1769 0.2050 0.061 Uiso 1 1 calc R U . . .
H23C H -0.4886 0.3208 0.1823 0.061 Uiso 1 1 calc R U . . .
C24 C -0.0470(3) 0.2342(3) 0.5468(2) 0.0227(7) Uani 1 1 d . . . . .
H24A H -0.0447 0.1532 0.5210 0.034 Uiso 1 1 calc R U . . .
H24B H -0.1413 0.2428 0.5304 0.034 Uiso 1 1 calc R U . . .
H24C H -0.0194 0.2369 0.6104 0.034 Uiso 1 1 calc R U . . .
C25 C 0.2413(3) 0.4146(3) 0.6540(2) 0.0195(6) Uani 1 1 d . . . . .
H25A H 0.1680 0.3806 0.6869 0.023 Uiso 1 1 calc R U . . .
H25B H 0.2946 0.5011 0.6799 0.023 Uiso 1 1 calc R U . . .
C26 C 0.3389(4) 0.3298(3) 0.6615(2) 0.0232(7) Uani 1 1 d . . . . .
H26A H 0.2855 0.2435 0.6352 0.028 Uiso 1 1 calc R U . . .
H26B H 0.4122 0.3640 0.6286 0.028 Uiso 1 1 calc R U . . .
C27 C 0.4057(3) 0.3225(3) 0.7551(2) 0.0191(7) Uani 1 1 d . . . . .
C28 C 0.4185(4) 0.1928(3) 0.8722(2) 0.0311(8) Uani 1 1 d . . . . .
H28A H 0.5200 0.2176 0.8805 0.047 Uiso 1 1 calc R U . . .
H28B H 0.3853 0.1039 0.8845 0.047 Uiso 1 1 calc R U . . .
H28C H 0.3916 0.2465 0.9119 0.047 Uiso 1 1 calc R U . . .
C29 C 0.6226(3) 0.8542(3) 0.5719(2) 0.0210(7) Uani 1 1 d . . . . .
H29A H 0.5763 0.8173 0.6188 0.025 Uiso 1 1 calc R U . . .
H29B H 0.6508 0.9477 0.5829 0.025 Uiso 1 1 calc R U . . .
C30 C 0.7525(3) 0.8097(3) 0.5750(2) 0.0218(7) Uani 1 1 d . . . . .
H30A H 0.7254 0.7162 0.5644 0.026 Uiso 1 1 calc R U . . .
H30B H 0.8004 0.8472 0.5289 0.026 Uiso 1 1 calc R U . . .
C31 C 0.8487(3) 0.8496(3) 0.6628(2) 0.0205(7) Uani 1 1 d . . . . .
C32 C 1.0530(4) 0.9900(4) 0.7439(3) 0.0437(11) Uani 1 1 d . . . . .
H32A H 1.0065 1.0294 0.7805 0.066 Uiso 1 1 calc R U . . .
H32B H 1.1372 1.0527 0.7354 0.066 Uiso 1 1 calc R U . . .
H32C H 1.0783 0.9188 0.7725 0.066 Uiso 1 1 calc R U . . .
C33 C 0.6310(4) 1.0042(3) 0.4025(2) 0.0240(7) Uani 1 1 d . . . . .
H33A H 0.6730 1.0509 0.4596 0.036 Uiso 1 1 calc R U . . .
H33B H 0.5872 1.0570 0.3635 0.036 Uiso 1 1 calc R U . . .
H33C H 0.7032 0.9828 0.3779 0.036 Uiso 1 1 calc R U . . .
C34 C 0.1831(4) 0.9655(3) 0.0999(2) 0.0263(7) Uani 1 1 d . . . . .
H34A H 0.2179 1.0289 0.1507 0.032 Uiso 1 1 calc R U . . .
H34B H 0.0975 0.9802 0.0652 0.032 Uiso 1 1 calc R U . . .
C35 C 0.2925(5) 0.9866(4) 0.0440(3) 0.0371(9) Uani 1 1 d . . . . .
H35A H 0.3772 0.9710 0.0774 0.056 Uiso 1 1 calc R U . . .
H35B H 0.3138 1.0742 0.0275 0.056 Uiso 1 1 calc R U . . .
H35C H 0.2564 0.9282 -0.0086 0.056 Uiso 1 1 calc R U . . .
C36 C -0.0975(4) 0.7467(3) 0.0355(2) 0.0269(7) Uani 1 1 d . . . . .
H36A H -0.1160 0.8288 0.0458 0.032 Uiso 1 1 calc R U . . .
H36B H -0.1806 0.6785 0.0415 0.032 Uiso 1 1 calc R U . . .
C37 C -0.0764(4) 0.7355(4) -0.0572(2) 0.0376(9) Uani 1 1 d . . . . .
H37A H 0.0032 0.8049 -0.0645 0.056 Uiso 1 1 calc R U . . .
H37B H -0.1601 0.7402 -0.0985 0.056 Uiso 1 1 calc R U . . .
H37C H -0.0587 0.6541 -0.0682 0.056 Uiso 1 1 calc R U . . .
loop_
_atom_site_aniso_label
_atom_site_aniso_U_11
_atom_site_aniso_U_22
_atom_site_aniso_U_33
_atom_site_aniso_U_23
_atom_site_aniso_U_13
_atom_site_aniso_U_12
Zn1 0.0152(2) 0.0156(2) 0.0175(2) 0.00449(15) 0.00146(16) 0.00077(15)
O1 0.022(5) 0.034(5) 0.011(4) 0.007(3) -0.005(3) -0.002(3)
O2 0.0368(15) 0.0156(11) 0.067(2) 0.0066(12) 0.0341(15) 0.0049(11)
O3 0.0259(13) 0.0215(11) 0.0203(11) 0.0047(9) 0.0036(10) 0.0000(10)
O4 0.0242(13) 0.0232(11) 0.0236(12) 0.0065(9) 0.0024(10) -0.0002(10)
O5 0.0253(14) 0.0290(13) 0.0303(13) 0.0022(10) 0.0063(11) -0.0076(10)
O6 0.0296(14) 0.0233(11) 0.0246(13) 0.0036(9) 0.0030(10) -0.0026(10)
O7 0.032(8) 0.020(6) 0.040(8) 0.021(5) 0.007(6) 0.010(5)
O8 0.027(3) 0.020(2) 0.026(3) 0.0093(19) -0.001(2) 0.000(2)
N1 0.0177(14) 0.0230(13) 0.0174(13) 0.0056(10) 0.0011(11) 0.0037(11)
N2 0.0149(13) 0.0179(12) 0.0189(13) 0.0050(10) 0.0022(11) 0.0011(10)
N3 0.0114(13) 0.0161(12) 0.0196(13) 0.0041(10) -0.0004(10) 0.0002(10)
N4 0.0289(16) 0.0192(13) 0.0207(14) 0.0079(11) -0.0021(12) 0.0021(12)
C1 0.0241(18) 0.0194(15) 0.0216(16) 0.0005(12) -0.0003(14) 0.0049(13)
C2 0.035(2) 0.0244(17) 0.0266(19) 0.0000(14) -0.0090(16) 0.0008(15)
C3 0.0233(19) 0.0206(16) 0.0265(18) 0.0014(13) -0.0038(15) 0.0016(14)
C4 0.0149(16) 0.0161(14) 0.0245(17) 0.0008(12) 0.0014(13) 0.0005(12)
C5 0.0132(15) 0.0154(14) 0.0245(16) 0.0045(12) 0.0040(13) -0.0013(12)
C6 0.0130(15) 0.0153(14) 0.0219(16) 0.0036(12) 0.0004(13) 0.0006(12)
C7 0.0138(15) 0.0171(14) 0.0230(16) 0.0056(12) 0.0057(13) 0.0044(12)
C8 0.0212(16) 0.0181(14) 0.0183(16) 0.0050(12) 0.0068(13) 0.0079(13)
C9 0.0182(16) 0.0143(14) 0.0190(15) 0.0022(11) 0.0031(13) 0.0034(12)
C10 0.0211(17) 0.0192(15) 0.0199(16) 0.0022(12) 0.0038(13) 0.0018(13)
C11 0.0150(16) 0.0159(14) 0.0207(15) 0.0017(12) 0.0032(13) 0.0032(12)
C12 0.0153(16) 0.0177(14) 0.0219(16) 0.0009(12) 0.0041(13) 0.0038(12)
C13 0.0155(16) 0.0155(14) 0.0251(16) 0.0020(12) 0.0065(13) 0.0015(12)
C14 0.0146(16) 0.0161(14) 0.0195(15) 0.0046(12) 0.0038(12) 0.0015(12)
C15 0.0229(17) 0.0198(15) 0.0198(16) 0.0071(12) 0.0082(13) 0.0050(13)
C16 0.0238(18) 0.0180(15) 0.0239(17) 0.0074(13) 0.0028(14) 0.0034(13)
C17 0.0256(18) 0.0240(16) 0.0197(16) 0.0052(13) 0.0019(14) 0.0070(14)
C18 0.0300(19) 0.0246(16) 0.0186(16) 0.0067(13) -0.0003(14) 0.0080(15)
C19 0.0292(19) 0.0220(16) 0.0191(16) 0.0035(13) -0.0022(14) 0.0016(14)
C20A 0.018(5) 0.030(4) 0.024(8) -0.004(3) 0.000(4) 0.007(4)
C21A 0.032(5) 0.042(4) 0.023(4) 0.000(3) -0.002(3) 0.009(4)
C20B 0.009(6) 0.023(4) 0.019(5) 0.003(3) 0.004(4) 0.006(3)
C21B 0.018(4) 0.030(4) 0.017(5) 0.001(3) 0.001(3) 0.004(3)
C22 0.029(2) 0.0194(16) 0.041(2) 0.0033(15) -0.0104(17) -0.0013(15)
C23 0.041(2) 0.0301(19) 0.036(2) -0.0079(16) 0.0163(19) -0.0174(17)
C24 0.0194(17) 0.0242(16) 0.0224(16) 0.0077(13) 0.0047(13) 0.0023(13)
C25 0.0204(17) 0.0192(14) 0.0185(15) 0.0044(12) 0.0043(13) 0.0046(13)
C26 0.0256(18) 0.0244(16) 0.0193(16) 0.0017(12) 0.0028(14) 0.0079(14)
C27 0.0209(17) 0.0194(15) 0.0195(16) 0.0052(12) 0.0074(13) 0.0070(13)
C28 0.040(2) 0.0304(18) 0.0228(18) 0.0122(14) 0.0087(16) 0.0079(16)
C29 0.0159(16) 0.0203(15) 0.0239(16) -0.0019(12) 0.0031(13) 0.0014(12)
C30 0.0192(17) 0.0241(16) 0.0218(16) 0.0003(12) 0.0032(13) 0.0065(13)
C31 0.0140(16) 0.0173(14) 0.0272(17) 0.0038(12) 0.0011(13) 0.0017(12)
C32 0.026(2) 0.044(2) 0.044(2) -0.0136(18) 0.0049(19) -0.0137(18)
C33 0.0216(17) 0.0179(15) 0.0281(18) 0.0010(13) 0.0064(14) -0.0026(13)
C34 0.0284(19) 0.0239(16) 0.0245(17) 0.0057(13) 0.0025(14) 0.0060(14)
C35 0.053(3) 0.0323(19) 0.033(2) 0.0184(16) 0.0202(19) 0.0147(18)
C36 0.0270(19) 0.0263(17) 0.0220(17) 0.0041(13) -0.0037(14) 0.0050(14)
C37 0.042(2) 0.047(2) 0.0219(18) 0.0096(16) -0.0001(17) 0.0136(19)
loop_
_atom_type_symbol
_atom_type_description
_atom_type_scat_dispersion_real
_atom_type_scat_dispersion_imag
_atom_type_scat_source
C C 0.0181 0.0091 'International Tables Vol C Tables 4.2.6.8 and 6.1.1.4'
H H 0.0000 0.0000 'International Tables Vol C Tables 4.2.6.8 and 6.1.1.4'
N N 0.0311 0.0180 'International Tables Vol C Tables 4.2.6.8 and 6.1.1.4'
O O 0.0492 0.0322 'International Tables Vol C Tables 4.2.6.8 and 6.1.1.4'
Zn Zn -1.5491 0.6778 'International Tables Vol C Tables 4.2.6.8 and 6.1.1.4'
loop_
_geom_angle_atom_site_label_1
_geom_angle_atom_site_label_2
_geom_angle_atom_site_label_3
_geom_angle
_geom_angle_site_symmetry_1
_geom_angle_site_symmetry_3
_geom_angle_publ_flag
N3 Zn1 N1 147.15(11) . . ?
N3 Zn1 N2 92.95(11) . . ?
N1 Zn1 N2 86.57(11) . . ?
N3 Zn1 N4 88.85(11) . . ?
N1 Zn1 N4 77.19(11) . . ?
N2 Zn1 N4 152.10(12) . . ?
N3 Zn1 O2 102.62(11) . . ?
N1 Zn1 O2 109.89(12) . . ?
N2 Zn1 O2 99.14(11) . . ?
N4 Zn1 O2 107.62(12) . . ?
Zn1 O2 H21W 116(3) . . ?
Zn1 O2 H22W 123(4) . . ?
H21W O2 H22W 111(5) . . ?
C27 O4 C28 115.0(3) . . ?
C31 O5 C32 114.9(3) . . ?
C1 N1 C4 109.5(3) . . ?
C1 N1 Zn1 118.1(2) . . ?
C4 N1 Zn1 130.8(2) . . ?
C6 N2 C9 108.2(3) . . ?
C6 N2 Zn1 127.8(2) . . ?
C9 N2 Zn1 123.7(2) . . ?
C14 N3 C11 107.6(3) . . ?
C14 N3 Zn1 127.1(2) . . ?
C11 N3 Zn1 123.7(2) . . ?
C19 N4 C16 109.5(3) . . ?
C19 N4 Zn1 117.5(2) . . ?
C16 N4 Zn1 130.7(2) . . ?
N1 C1 C2 108.6(3) . . ?
N1 C1 C19 112.3(3) . . ?
C2 C1 C19 139.1(3) . . ?
C3 C2 C1 107.2(3) . . ?
C3 C2 C20B 121.1(5) . . ?
C1 C2 C20B 130.7(4) . . ?
C3 C2 C20A 129.3(5) . . ?
C1 C2 C20A 121.5(5) . . ?
C2 C3 C4 106.7(3) . . ?
C2 C3 C22 127.2(3) . . ?
C4 C3 C22 126.1(3) . . ?
N1 C4 C5 119.4(3) . . ?
N1 C4 C3 108.0(3) . . ?
C5 C4 C3 132.4(3) . . ?
O7 C5 C4 116.7(7) . . ?
O7 C5 C6 117.0(7) . . ?
C4 C5 C6 126.2(3) . . ?
C4 C5 H5 116.9 . . ?
C6 C5 H5 116.9 . . ?
N2 C6 C7 109.5(3) . . ?
N2 C6 C5 123.3(3) . . ?
C7 C6 C5 127.2(3) . . ?
C8 C7 C6 106.6(3) . . ?
C8 C7 C24 127.4(3) . . ?
C6 C7 C24 126.0(3) . . ?
C7 C8 C9 107.1(3) . . ?
C7 C8 C25 126.8(3) . . ?
C9 C8 C25 126.0(3) . . ?
N2 C9 C10 123.0(3) . . ?
N2 C9 C8 108.6(3) . . ?
C10 C9 C8 128.2(3) . . ?
O1 C10 C9 116.5(4) . . ?
O1 C10 C11 114.1(4) . . ?
C9 C10 C11 128.2(3) . . ?
C9 C10 H10 115.9 . . ?
C11 C10 H10 115.9 . . ?
N3 C11 C10 122.9(3) . . ?
N3 C11 C12 109.5(3) . . ?
C10 C11 C12 127.5(3) . . ?
C13 C12 C11 106.5(3) . . ?
C13 C12 C29 126.3(3) . . ?
C11 C12 C29 127.2(3) . . ?
C12 C13 C14 106.6(3) . . ?
C12 C13 C33 126.3(3) . . ?
C14 C13 C33 127.1(3) . . ?
N3 C14 C13 109.7(3) . . ?
N3 C14 C15 123.6(3) . . ?
C13 C14 C15 126.4(3) . . ?
O8 C15 C16 118.6(4) . . ?
O8 C15 C14 116.4(4) . . ?
C16 C15 C14 124.9(3) . . ?
C16 C15 H15 117.5 . . ?
C14 C15 H15 117.5 . . ?
N4 C16 C15 121.1(3) . . ?
N4 C16 C17 108.2(3) . . ?
C15 C16 C17 130.0(3) . . ?
C18 C17 C16 107.1(3) . . ?
C18 C17 C34 127.2(3) . . ?
C16 C17 C34 125.7(3) . . ?
C17 C18 C19 106.3(3) . . ?
C17 C18 C36 125.2(3) . . ?
C19 C18 C36 128.4(3) . . ?
N4 C19 C18 108.9(3) . . ?
N4 C19 C1 112.9(3) . . ?
C18 C19 C1 137.2(3) . . ?
C21A C20A C2 107.4(8) . . ?
C21A C20A H20A 110.2 . . ?
C2 C20A H20A 110.2 . . ?
C21A C20A H20B 110.2 . . ?
C2 C20A H20B 110.2 . . ?
H20A C20A H20B 108.5 . . ?
C20A C21A H21A 109.5 . . ?
C20A C21A H21B 109.5 . . ?
H21A C21A H21B 109.5 . . ?
C20A C21A H21C 109.5 . . ?
H21A C21A H21C 109.5 . . ?
H21B C21A H21C 109.5 . . ?
C2 C20B C21B 105.3(6) . . ?
C2 C20B H20C 110.7 . . ?
C21B C20B H20C 110.7 . . ?
C2 C20B H20D 110.7 . . ?
C21B C20B H20D 110.7 . . ?
H20C C20B H20D 108.8 . . ?
C20B C21B H21D 109.5 . . ?
C20B C21B H21E 109.5 . . ?
H21D C21B H21E 109.5 . . ?
C20B C21B H21F 109.5 . . ?
H21D C21B H21F 109.5 . . ?
H21E C21B H21F 109.5 . . ?
C3 C22 C23 113.7(3) . . ?
C3 C22 H22A 108.8 . . ?
C23 C22 H22A 108.8 . . ?
C3 C22 H22B 108.8 . . ?
C23 C22 H22B 108.8 . . ?
H22A C22 H22B 107.7 . . ?
C22 C23 H23A 109.5 . . ?
C22 C23 H23B 109.5 . . ?
H23A C23 H23B 109.5 . . ?
C22 C23 H23C 109.5 . . ?
H23A C23 H23C 109.5 . . ?
H23B C23 H23C 109.5 . . ?
C7 C24 H24A 109.5 . . ?
C7 C24 H24B 109.5 . . ?
H24A C24 H24B 109.5 . . ?
C7 C24 H24C 109.5 . . ?
H24A C24 H24C 109.5 . . ?
H24B C24 H24C 109.5 . . ?
C8 C25 C26 110.6(3) . . ?
C8 C25 H25A 109.5 . . ?
C26 C25 H25A 109.5 . . ?
C8 C25 H25B 109.5 . . ?
C26 C25 H25B 109.5 . . ?
H25A C25 H25B 108.1 . . ?
C27 C26 C25 111.4(3) . . ?
C27 C26 H26A 109.4 . . ?
C25 C26 H26A 109.4 . . ?
C27 C26 H26B 109.4 . . ?
C25 C26 H26B 109.4 . . ?
H26A C26 H26B 108.0 . . ?
O3 C27 O4 123.4(3) . . ?
O3 C27 C26 124.9(3) . . ?
O4 C27 C26 111.7(3) . . ?
O4 C28 H28A 109.5 . . ?
O4 C28 H28B 109.5 . . ?
H28A C28 H28B 109.5 . . ?
O4 C28 H28C 109.5 . . ?
H28A C28 H28C 109.5 . . ?
H28B C28 H28C 109.5 . . ?
C12 C29 C30 112.3(3) . . ?
C12 C29 H29A 109.1 . . ?
C30 C29 H29A 109.1 . . ?
C12 C29 H29B 109.1 . . ?
C30 C29 H29B 109.1 . . ?
H29A C29 H29B 107.9 . . ?
C31 C30 C29 109.4(3) . . ?
C31 C30 H30A 109.8 . . ?
C29 C30 H30A 109.8 . . ?
C31 C30 H30B 109.8 . . ?
C29 C30 H30B 109.8 . . ?
H30A C30 H30B 108.2 . . ?
O6 C31 O5 122.8(3) . . ?
O6 C31 C30 124.4(3) . . ?
O5 C31 C30 112.8(3) . . ?
O5 C32 H32A 109.5 . . ?
O5 C32 H32B 109.5 . . ?
H32A C32 H32B 109.5 . . ?
O5 C32 H32C 109.5 . . ?
H32A C32 H32C 109.5 . . ?
H32B C32 H32C 109.5 . . ?
C13 C33 H33A 109.5 . . ?
C13 C33 H33B 109.5 . . ?
H33A C33 H33B 109.5 . . ?
C13 C33 H33C 109.5 . . ?
H33A C33 H33C 109.5 . . ?
H33B C33 H33C 109.5 . . ?
C17 C34 C35 113.9(3) . . ?
C17 C34 H34A 108.8 . . ?
C35 C34 H34A 108.8 . . ?
C17 C34 H34B 108.8 . . ?
C35 C34 H34B 108.8 . . ?
H34A C34 H34B 107.7 . . ?
C34 C35 H35A 109.5 . . ?
C34 C35 H35B 109.5 . . ?
H35A C35 H35B 109.5 . . ?
C34 C35 H35C 109.5 . . ?
H35A C35 H35C 109.5 . . ?
H35B C35 H35C 109.5 . . ?
C18 C36 C37 113.6(3) . . ?
C18 C36 H36A 108.8 . . ?
C37 C36 H36A 108.8 . . ?
C18 C36 H36B 108.8 . . ?
C37 C36 H36B 108.8 . . ?
H36A C36 H36B 107.7 . . ?
C36 C37 H37A 109.5 . . ?
C36 C37 H37B 109.5 . . ?
H37A C37 H37B 109.5 . . ?
C36 C37 H37C 109.5 . . ?
H37A C37 H37C 109.5 . . ?
H37B C37 H37C 109.5 . . ?
loop_
_geom_bond_atom_site_label_1
_geom_bond_atom_site_label_2
_geom_bond_distance
_geom_bond_site_symmetry_2
_geom_bond_publ_flag
Zn1 N3 1.992(3) . ?
Zn1 N1 2.004(3) . ?
Zn1 N2 2.019(3) . ?
Zn1 N4 2.026(3) . ?
Zn1 O2 2.061(3) . ?
O1 C10 1.307(8) . ?
O2 H21W 0.88(2) . ?
O2 H22W 0.86(2) . ?
O3 C27 1.202(4) . ?
O4 C27 1.334(4) . ?
O4 C28 1.457(4) . ?
O5 C31 1.325(4) . ?
O5 C32 1.446(5) . ?
O6 C31 1.214(4) . ?
O7 C5 1.241(12) . ?
O8 C15 1.254(6) . ?
N1 C1 1.343(4) . ?
N1 C4 1.375(4) . ?
N2 C6 1.359(4) . ?
N2 C9 1.370(4) . ?
N3 C14 1.365(4) . ?
N3 C11 1.369(4) . ?
N4 C19 1.350(5) . ?
N4 C16 1.363(4) . ?
C1 C2 1.452(5) . ?
C1 C19 1.466(5) . ?
C2 C3 1.373(5) . ?
C2 C20B 1.517(10) . ?
C2 C20A 1.558(10) . ?
C3 C4 1.452(5) . ?
C3 C22 1.504(5) . ?
C4 C5 1.391(5) . ?
C5 C6 1.455(5) . ?
C5 H5 0.9500 . ?
C6 C7 1.437(4) . ?
C7 C8 1.375(5) . ?
C7 C24 1.501(4) . ?
C8 C9 1.442(4) . ?
C8 C25 1.499(4) . ?
C9 C10 1.422(4) . ?
C10 C11 1.430(4) . ?
C10 H10 0.9500 . ?
C11 C12 1.433(4) . ?
C12 C13 1.389(4) . ?
C12 C29 1.494(5) . ?
C13 C14 1.430(5) . ?
C13 C33 1.502(4) . ?
C14 C15 1.466(4) . ?
C15 C16 1.419(5) . ?
C15 H15 0.9500 . ?
C16 C17 1.441(5) . ?
C17 C18 1.387(5) . ?
C17 C34 1.504(4) . ?
C18 C19 1.445(4) . ?
C18 C36 1.504(5) . ?
C20A C21A 1.507(12) . ?
C20A H20A 0.9900 . ?
C20A H20B 0.9900 . ?
C21A H21A 0.9800 . ?
C21A H21B 0.9800 . ?
C21A H21C 0.9800 . ?
C20B C21B 1.545(11) . ?
C20B H20C 0.9900 . ?
C20B H20D 0.9900 . ?
C21B H21D 0.9800 . ?
C21B H21E 0.9800 . ?
C21B H21F 0.9800 . ?
C22 C23 1.514(6) . ?
C22 H22A 0.9900 . ?
C22 H22B 0.9900 . ?
C23 H23A 0.9800 . ?
C23 H23B 0.9800 . ?
C23 H23C 0.9800 . ?
C24 H24A 0.9800 . ?
C24 H24B 0.9800 . ?
C24 H24C 0.9800 . ?
C25 C26 1.534(4) . ?
C25 H25A 0.9900 . ?
C25 H25B 0.9900 . ?
C26 C27 1.507(4) . ?
C26 H26A 0.9900 . ?
C26 H26B 0.9900 . ?
C28 H28A 0.9800 . ?
C28 H28B 0.9800 . ?
C28 H28C 0.9800 . ?
C29 C30 1.532(4) . ?
C29 H29A 0.9900 . ?
C29 H29B 0.9900 . ?
C30 C31 1.504(5) . ?
C30 H30A 0.9900 . ?
C30 H30B 0.9900 . ?
C32 H32A 0.9800 . ?
C32 H32B 0.9800 . ?
C32 H32C 0.9800 . ?
C33 H33A 0.9800 . ?
C33 H33B 0.9800 . ?
C33 H33C 0.9800 . ?
C34 C35 1.530(5) . ?
C34 H34A 0.9900 . ?
C34 H34B 0.9900 . ?
C35 H35A 0.9800 . ?
C35 H35B 0.9800 . ?
C35 H35C 0.9800 . ?
C36 C37 1.523(5) . ?
C36 H36A 0.9900 . ?
C36 H36B 0.9900 . ?
C37 H37A 0.9800 . ?
C37 H37B 0.9800 . ?
C37 H37C 0.9800 . ?
loop_
_geom_hbond_atom_site_label_D
_geom_hbond_atom_site_label_H
_geom_hbond_atom_site_label_A
_geom_hbond_distance_DH
_geom_hbond_distance_HA
_geom_hbond_distance_DA
_geom_hbond_angle_DHA
_geom_hbond_site_symmetry_A
O2 H21W O3 0.88(2) 1.90(3) 2.741(3) 161(5) 2_666
O2 H22W O6 0.86(2) 1.89(2) 2.726(3) 163(5) 2_666
loop_
_geom_torsion_atom_site_label_1
_geom_torsion_atom_site_label_2
_geom_torsion_atom_site_label_3
_geom_torsion_atom_site_label_4
_geom_torsion
_geom_torsion_site_symmetry_1
_geom_torsion_site_symmetry_2
_geom_torsion_site_symmetry_3
_geom_torsion_site_symmetry_4
_geom_torsion_publ_flag
C4 N1 C1 C2 -2.3(4) . . . . ?
Zn1 N1 C1 C2 164.8(2) . . . . ?
C4 N1 C1 C19 176.6(3) . . . . ?
Zn1 N1 C1 C19 -16.4(4) . . . . ?
N1 C1 C2 C3 1.1(4) . . . . ?
C19 C1 C2 C3 -177.2(4) . . . . ?
N1 C1 C2 C20B 169.5(6) . . . . ?
C19 C1 C2 C20B -8.8(9) . . . . ?
N1 C1 C2 C20A -164.0(6) . . . . ?
C19 C1 C2 C20A 17.7(8) . . . . ?
C1 C2 C3 C4 0.4(4) . . . . ?
C20B C2 C3 C4 -169.3(5) . . . . ?
C20A C2 C3 C4 163.9(6) . . . . ?
C1 C2 C3 C22 178.9(4) . . . . ?
C20B C2 C3 C22 9.1(8) . . . . ?
C20A C2 C3 C22 -17.6(9) . . . . ?
C1 N1 C4 C5 -172.9(3) . . . . ?
Zn1 N1 C4 C5 22.3(5) . . . . ?
C1 N1 C4 C3 2.5(4) . . . . ?
Zn1 N1 C4 C3 -162.3(2) . . . . ?
C2 C3 C4 N1 -1.7(4) . . . . ?
C22 C3 C4 N1 179.8(3) . . . . ?
C2 C3 C4 C5 172.8(4) . . . . ?
C22 C3 C4 C5 -5.7(6) . . . . ?
N1 C4 C5 O7 -175.3(7) . . . . ?
C3 C4 C5 O7 10.6(9) . . . . ?
N1 C4 C5 C6 0.4(5) . . . . ?
C3 C4 C5 C6 -173.6(3) . . . . ?
C9 N2 C6 C7 -0.6(4) . . . . ?
Zn1 N2 C6 C7 172.5(2) . . . . ?
C9 N2 C6 C5 178.8(3) . . . . ?
Zn1 N2 C6 C5 -8.1(4) . . . . ?
O7 C5 C6 N2 168.7(7) . . . . ?
C4 C5 C6 N2 -7.0(5) . . . . ?
O7 C5 C6 C7 -12.0(9) . . . . ?
C4 C5 C6 C7 172.2(3) . . . . ?
N2 C6 C7 C8 0.5(3) . . . . ?
C5 C6 C7 C8 -178.9(3) . . . . ?
N2 C6 C7 C24 -178.7(3) . . . . ?
C5 C6 C7 C24 1.9(5) . . . . ?
C6 C7 C8 C9 -0.2(3) . . . . ?
C24 C7 C8 C9 179.0(3) . . . . ?
C6 C7 C8 C25 -176.9(3) . . . . ?
C24 C7 C8 C25 2.2(5) . . . . ?
C6 N2 C9 C10 -176.3(3) . . . . ?
Zn1 N2 C9 C10 10.2(4) . . . . ?
C6 N2 C9 C8 0.5(3) . . . . ?
Zn1 N2 C9 C8 -172.9(2) . . . . ?
C7 C8 C9 N2 -0.2(3) . . . . ?
C25 C8 C9 N2 176.6(3) . . . . ?
C7 C8 C9 C10 176.4(3) . . . . ?
C25 C8 C9 C10 -6.8(5) . . . . ?
N2 C9 C10 O1 -159.7(5) . . . . ?
C8 C9 C10 O1 24.1(6) . . . . ?
N2 C9 C10 C11 6.7(5) . . . . ?
C8 C9 C10 C11 -169.5(3) . . . . ?
C14 N3 C11 C10 176.9(3) . . . . ?
Zn1 N3 C11 C10 -16.8(4) . . . . ?
C14 N3 C11 C12 0.2(3) . . . . ?
Zn1 N3 C11 C12 166.4(2) . . . . ?
O1 C10 C11 N3 163.5(5) . . . . ?
C9 C10 C11 N3 -3.3(5) . . . . ?
O1 C10 C11 C12 -20.4(6) . . . . ?
C9 C10 C11 C12 172.9(3) . . . . ?
N3 C11 C12 C13 -1.2(3) . . . . ?
C10 C11 C12 C13 -177.8(3) . . . . ?
N3 C11 C12 C29 178.7(3) . . . . ?
C10 C11 C12 C29 2.2(5) . . . . ?
C11 C12 C13 C14 1.7(3) . . . . ?
C29 C12 C13 C14 -178.2(3) . . . . ?
C11 C12 C13 C33 -176.3(3) . . . . ?
C29 C12 C13 C33 3.7(5) . . . . ?
C11 N3 C14 C13 0.9(4) . . . . ?
Zn1 N3 C14 C13 -164.8(2) . . . . ?
C11 N3 C14 C15 -173.0(3) . . . . ?
Zn1 N3 C14 C15 21.3(4) . . . . ?
C12 C13 C14 N3 -1.7(4) . . . . ?
C33 C13 C14 N3 176.4(3) . . . . ?
C12 C13 C14 C15 172.1(3) . . . . ?
C33 C13 C14 C15 -9.9(5) . . . . ?
N3 C14 C15 O8 179.4(4) . . . . ?
C13 C14 C15 O8 6.5(6) . . . . ?
N3 C14 C15 C16 -2.8(5) . . . . ?
C13 C14 C15 C16 -175.7(3) . . . . ?
C19 N4 C16 C15 168.1(3) . . . . ?
Zn1 N4 C16 C15 6.5(5) . . . . ?
C19 N4 C16 C17 -3.1(4) . . . . ?
Zn1 N4 C16 C17 -164.8(3) . . . . ?
O8 C15 C16 N4 166.5(4) . . . . ?
C14 C15 C16 N4 -11.3(5) . . . . ?
O8 C15 C16 C17 -24.3(6) . . . . ?
C14 C15 C16 C17 157.9(3) . . . . ?
N4 C16 C17 C18 2.2(4) . . . . ?
C15 C16 C17 C18 -168.0(4) . . . . ?
N4 C16 C17 C34 179.1(3) . . . . ?
C15 C16 C17 C34 8.8(6) . . . . ?
C16 C17 C18 C19 -0.5(4) . . . . ?
C34 C17 C18 C19 -177.3(3) . . . . ?
C16 C17 C18 C36 176.0(3) . . . . ?
C34 C17 C18 C36 -0.8(6) . . . . ?
C16 N4 C19 C18 2.8(4) . . . . ?
Zn1 N4 C19 C18 167.2(2) . . . . ?
C16 N4 C19 C1 -167.6(3) . . . . ?
Zn1 N4 C19 C1 -3.2(4) . . . . ?
C17 C18 C19 N4 -1.4(4) . . . . ?
C36 C18 C19 N4 -177.8(3) . . . . ?
C17 C18 C19 C1 165.6(4) . . . . ?
C36 C18 C19 C1 -10.7(7) . . . . ?
N1 C1 C19 N4 12.3(4) . . . . ?
C2 C1 C19 N4 -169.4(4) . . . . ?
N1 C1 C19 C18 -154.3(4) . . . . ?
C2 C1 C19 C18 23.9(8) . . . . ?
C3 C2 C20A C21A 83.2(8) . . . . ?
C1 C2 C20A C21A -115.3(7) . . . . ?
C3 C2 C20B C21B -123.6(6) . . . . ?
C1 C2 C20B C21B 69.3(8) . . . . ?
C2 C3 C22 C23 -86.4(5) . . . . ?
C4 C3 C22 C23 91.7(4) . . . . ?
C7 C8 C25 C26 90.4(4) . . . . ?
C9 C8 C25 C26 -85.8(4) . . . . ?
C8 C25 C26 C27 -179.8(3) . . . . ?
C28 O4 C27 O3 -1.9(5) . . . . ?
C28 O4 C27 C26 178.8(3) . . . . ?
C25 C26 C27 O3 -69.4(4) . . . . ?
C25 C26 C27 O4 109.9(3) . . . . ?
C13 C12 C29 C30 -86.1(4) . . . . ?
C11 C12 C29 C30 94.0(4) . . . . ?
C12 C29 C30 C31 -179.8(3) . . . . ?
C32 O5 C31 O6 -0.3(5) . . . . ?
C32 O5 C31 C30 177.4(3) . . . . ?
C29 C30 C31 O6 70.7(4) . . . . ?
C29 C30 C31 O5 -106.9(3) . . . . ?
C18 C17 C34 C35 -107.9(4) . . . . ?
C16 C17 C34 C35 75.9(5) . . . . ?
C17 C18 C36 C37 77.4(5) . . . . ?
C19 C18 C36 C37 -106.9(4) . . . . ?
