#------------------------------------------------------------------------------
#$Date: 2021-10-29 05:27:50 +0300 (Fri, 29 Oct 2021) $
#$Revision: 270148 $
#$URL: file:///home/coder/svn-repositories/cod/cif/7/24/37/7243790.cif $
#------------------------------------------------------------------------------
#
# This file is available in the Crystallography Open Database (COD),
# http://www.crystallography.net/
#
# All data on this site have been placed in the public domain by the
# contributors.
#
data_7243790
loop_
_publ_author_name
'Einrem, Rune F.'
'Jonsson, Einar Torfi'
'Teat, Simon J.'
'Settineri, Nicholas S.'
'Alemayehu, Abraham B.'
'Ghosh, Abhik'
_publ_section_title
;
 Regioselective formylation of rhenium-oxo and gold corroles: substituent
 effects on optical spectra and redox potentials
;
_journal_issue                   54
_journal_name_full               'RSC Advances'
_journal_page_first              34086
_journal_page_last               34094
_journal_paper_doi               10.1039/D1RA05525A
_journal_volume                  11
_journal_year                    2021
_chemical_formula_moiety         'C38 H20 Au F3 N4 O'
_chemical_formula_sum            'C38 H20 Au F3 N4 O'
_chemical_formula_weight         802.55
_chemical_name_systematic
'Gold 3-formyl-5,10,15-tris(p-fluorophenyl)corrole'
_space_group_crystal_system      monoclinic
_space_group_IT_number           15
_space_group_name_Hall           '-C 2yc'
_space_group_name_H-M_alt        'C 1 2/c 1'
_atom_sites_solution_hydrogens   geom
_atom_sites_solution_primary     dual
_audit_creation_date             2020-12-21
_audit_creation_method
;
Olex2 1.2
(compiled 2018.05.29 svn.r3508 for OlexSys, GUI svn.r5506)
;
_audit_update_record
;
2021-06-24 deposited with the CCDC.	2021-09-29 downloaded from the CCDC.
;
_cell_angle_alpha                90
_cell_angle_beta                 91.467(3)
_cell_angle_gamma                90
_cell_formula_units_Z            8
_cell_length_a                   20.9037(12)
_cell_length_b                   19.7169(12)
_cell_length_c                   15.8376(10)
_cell_measurement_reflns_used    9801
_cell_measurement_temperature    100(2)
_cell_measurement_theta_max      31.44
_cell_measurement_theta_min      2.49
_cell_volume                     6525.4(7)
_computing_cell_refinement       'SAINT V8.40A (Bruker, 2016)'
_computing_data_collection       'Bruker APEX3 Bruker-AXS, Madison WI'
_computing_data_reduction        'SAINT V8.40A (Bruker, 2016)'
_computing_molecular_graphics    'Olex2 (Dolomanov et al., 2009)'
_computing_publication_material  'Olex2 (Dolomanov et al., 2009)'
_computing_structure_refinement  'ShelXL (Sheldrick, 2015)'
_computing_structure_solution    'ShelXT (Sheldrick, 2015)'
_diffrn_ambient_temperature      100(2)
_diffrn_measured_fraction_theta_full 0.998
_diffrn_measured_fraction_theta_max 0.991
_diffrn_measurement_device_type  'Bruker D8 with PHOTON II detector'
_diffrn_measurement_method       '\f and \w shutterless scans'
_diffrn_radiation_type           synchrotron
_diffrn_radiation_wavelength     0.7288
_diffrn_reflns_av_R_equivalents  0.0697
_diffrn_reflns_av_unetI/netI     0.0370
_diffrn_reflns_Laue_measured_fraction_full 0.998
_diffrn_reflns_Laue_measured_fraction_max 0.991
_diffrn_reflns_limit_h_max       29
_diffrn_reflns_limit_h_min       -30
_diffrn_reflns_limit_k_max       28
_diffrn_reflns_limit_k_min       -28
_diffrn_reflns_limit_l_max       22
_diffrn_reflns_limit_l_min       -22
_diffrn_reflns_number            84580
_diffrn_reflns_point_group_measured_fraction_full 0.998
_diffrn_reflns_point_group_measured_fraction_max 0.991
_diffrn_reflns_theta_full        25.930
_diffrn_reflns_theta_max         31.600
_diffrn_reflns_theta_min         2.913
_diffrn_source                   'Advanced Light Source, beamline 12.2.1'
_exptl_absorpt_coefficient_mu    4.852
_exptl_absorpt_correction_T_max  0.7462
_exptl_absorpt_correction_T_min  0.5333
_exptl_absorpt_correction_type   multi-scan
_exptl_absorpt_process_details   'SADABS-2016/2 - Bruker AXS, Madison WI'
_exptl_crystal_colour            red
_exptl_crystal_colour_primary    red
_exptl_crystal_density_diffrn    1.634
_exptl_crystal_density_method    'not measured'
_exptl_crystal_description       plate
_exptl_crystal_F_000             3120
_exptl_crystal_recrystallization_method 'Re-crystallisation from solvent'
_exptl_crystal_size_max          0.1
_exptl_crystal_size_mid          0.02
_exptl_crystal_size_min          0.01
_refine_diff_density_max         1.925
_refine_diff_density_min         -1.512
_refine_diff_density_rms         0.154
_refine_ls_extinction_method     none
_refine_ls_goodness_of_fit_ref   1.069
_refine_ls_hydrogen_treatment    constr
_refine_ls_matrix_type           full
_refine_ls_number_parameters     424
_refine_ls_number_reflns         10078
_refine_ls_number_restraints     0
_refine_ls_restrained_S_all      1.069
_refine_ls_R_factor_all          0.0453
_refine_ls_R_factor_gt           0.0377
_refine_ls_shift/su_max          0.003
_refine_ls_shift/su_mean         0.000
_refine_ls_structure_factor_coef Fsqd
_refine_ls_weighting_details
'w=1/[\s^2^(Fo^2^)+(0.0364P)^2^+49.3848P] where P=(Fo^2^+2Fc^2^)/3'
_refine_ls_weighting_scheme      calc
_refine_ls_wR_factor_gt          0.0958
_refine_ls_wR_factor_ref         0.1001
_reflns_Friedel_coverage         0.000
_reflns_number_gt                8633
_reflns_number_total             10078
_reflns_threshold_expression     'I > 2\s(I)'
_cod_data_source_file            d1ra05525a2.cif
_cod_data_source_block           Au_MF
_cod_database_code               7243790
_shelx_shelxl_version_number     2014/7
_shelx_space_group_comment
;
The symmetry employed for this shelxl refinement is uniquely defined
by the following loop, which should always be used as a source of
symmetry information in preference to the above space-group names.
They are only intended as comments.
;
_shelx_estimated_absorpt_t_max   0.953
_shelx_estimated_absorpt_t_min   0.643
_olex2_refinement_description
;
1. Fixed Uiso
 At 1.2 times of:
  All C(H) groups
2.a Aromatic/amide H refined with riding coordinates:
 C2(H2), C3(H3), C7(H7), C8(H8), C12(H12), C13(H13), C18(H18), C21(H21),
 C22(H22), C24(H24), C25(H25), C27(H27), C28(H28), C30(H30), C31(H31), C33(H33),
  C34(H34), C36(H36), C37(H37), C38(H38)
;
_shelx_res_file
;
    au_mf_10.res created by SHELXL-2014/7

TITL au_mf_10_a.res in C2/c
REM Old TITL au_mf_10_a.res in C2/c
REM SHELXT solution in C2/c
REM R1 0.091, Rweak 0.003, Alpha 0.039, Orientation as input
REM Formula found by SHELXT: C36 Au N5 O6
CELL 0.7288 20.9037 19.7169 15.8376 90 91.467 90
ZERR 8 0.0012 0.0012 0.001 0 0.003 0
LATT 7
SYMM -X,+Y,0.5-Z
SFAC C H Au F N O
DISP Au -2.1181 9.2243 38823.3346
DISP C 0.0037 0.0017 12.0457
DISP F 0.0189 0.0109 54.6907
DISP H -0 0 0.6249
DISP N 0.007 0.0034 20.6663
DISP O 0.0123 0.0065 34.424
UNIT 304 160 8 24 32 8

L.S. 10
PLAN  10
SIZE 0.01 0.02 0.1
TEMP -173(2)
BOND $H
list 4
ABIN
fmap 2
ACTA
OMIT 1 1 0
OMIT 2 2 2
OMIT 0 0 2
OMIT 0 2 1
OMIT 1 3 1
OMIT 1 3 0
OMIT 2 0 2
OMIT -1 1 1
OMIT 0 4 0
OMIT 2 2 1
REM <olex2.extras>
REM <HklSrc "%.\\Au_MF_10.hkl">
REM </olex2.extras>

WGHT    0.036400   49.384804
FVAR       0.05360
AU1   3    0.503103    0.541142    0.625180    11.00000    0.02447    0.02466 =
         0.02542   -0.00104   -0.00233   -0.00111
F1    4    0.261759    0.178681    0.741829    11.00000    0.07206    0.06019 =
         0.08480    0.02099   -0.00914   -0.03824
F2    4    0.845282    0.304098    0.475430    11.00000    0.04448    0.05079 =
         0.08889   -0.01063    0.01057    0.01742
F3    4    0.674172    0.953560    0.551024    11.00000    0.07338    0.03524 =
         0.11463   -0.01370    0.04331   -0.01990
O1    6    0.416167    0.855798    0.648183    11.00000    0.07493    0.04114 =
         0.09415    0.00012    0.01433    0.01574
N1    5    0.419267    0.524171    0.670362    11.00000    0.02079    0.02842 =
         0.03331   -0.00128    0.00537   -0.00326
N2    5    0.520981    0.443440    0.612841    11.00000    0.02891    0.01783 =
         0.03596   -0.00560   -0.00032    0.00108
N3    5    0.584295    0.570377    0.578085    11.00000    0.02030    0.02798 =
         0.02820   -0.00074    0.00098   -0.00245
N4    5    0.476923    0.634526    0.645639    11.00000    0.02472    0.03217 =
         0.03410   -0.00580    0.00110    0.00402
C1    1    0.386341    0.580162    0.696214    11.00000    0.02846    0.03627 =
         0.03129   -0.00453   -0.00284    0.00038
C2    1    0.330938    0.554682    0.735223    11.00000    0.02993    0.04591 =
         0.03049   -0.00540    0.00171    0.00427
AFIX  43
H2    2    0.298344    0.581112    0.759927    11.00000   -1.20000
AFIX   0
C3    1    0.332641    0.485104    0.731043    11.00000    0.02763    0.03996 =
         0.02926    0.00028    0.00158   -0.00277
AFIX  43
H3    2    0.301385    0.455205    0.752609    11.00000   -1.20000
AFIX   0
C4    1    0.389063    0.465283    0.689000    11.00000    0.02775    0.03621 =
         0.02458   -0.00074   -0.00088   -0.00208
C5    1    0.415027    0.402436    0.666172    11.00000    0.03142    0.03242 =
         0.02443    0.00052   -0.00371   -0.00480
C6    1    0.474987    0.394115    0.628104    11.00000    0.03082    0.02563 =
         0.02655   -0.00107   -0.00664    0.00496
C7    1    0.503013    0.332729    0.597346    11.00000    0.03058    0.02419 =
         0.03209    0.00479   -0.00205   -0.00401
AFIX  43
H7    2    0.483307    0.289315    0.597572    11.00000   -1.20000
AFIX   0
C8    1    0.561907    0.346318    0.567957    11.00000    0.02657    0.03398 =
         0.03130   -0.00323   -0.00030    0.00414
AFIX  43
H8    2    0.590702    0.314570    0.544591    11.00000   -1.20000
AFIX   0
C9    1    0.572656    0.417887    0.578783    11.00000    0.02675    0.02803 =
         0.02414    0.00029   -0.00203   -0.00201
C10   1    0.627955    0.454980    0.559045    11.00000    0.02638    0.02630 =
         0.02655   -0.00202   -0.00241    0.00003
C11   1    0.632603    0.526243    0.561241    11.00000    0.02495    0.02838 =
         0.02461   -0.00053   -0.00265   -0.00027
C12   1    0.687966    0.568207    0.548341    11.00000    0.02626    0.02933 =
         0.03429   -0.00054   -0.00025   -0.00207
AFIX  43
H12   2    0.729497    0.552355    0.535397    11.00000   -1.20000
AFIX   0
C13   1    0.670964    0.633855    0.557724    11.00000    0.02913    0.03030 =
         0.03275   -0.00042   -0.00124   -0.00495
AFIX  43
H13   2    0.698513    0.671852    0.552399    11.00000   -1.20000
AFIX   0
C14   1    0.604500    0.636540    0.577025    11.00000    0.02951    0.02725 =
         0.02803    0.00062   -0.00221   -0.00355
C15   1    0.567576    0.695182    0.593238    11.00000    0.02878    0.02715 =
         0.03151    0.00064   -0.00377   -0.00198
C16   1    0.504349    0.694895    0.622208    11.00000    0.03636    0.02409 =
         0.03990   -0.00397   -0.00661   -0.00291
C17   1    0.456211    0.744206    0.639011    11.00000    0.03554    0.03181 =
         0.04195   -0.00478   -0.00177    0.00410
C18   1    0.403491    0.711161    0.672956    11.00000    0.02893    0.03864 =
         0.04538   -0.00574    0.00031    0.00434
AFIX  43
H18   2    0.365271    0.732305    0.690690    11.00000   -1.20000
AFIX   0
C19   1    0.416714    0.641709    0.676290    11.00000    0.02773    0.03408 =
         0.03169   -0.00318    0.00004    0.00309
C20   1    0.375747    0.341293    0.683631    11.00000    0.02904    0.03655 =
         0.02838   -0.00055    0.00022   -0.00573
C21   1    0.311723    0.339476    0.657325    11.00000    0.02981    0.04035 =
         0.03391    0.00145   -0.00040   -0.00616
AFIX  43
H21   2    0.294054    0.376366    0.625982    11.00000   -1.20000
AFIX   0
C22   1    0.273146    0.283948    0.676532    11.00000    0.03605    0.04524 =
         0.04415    0.00050   -0.00288   -0.01442
AFIX  43
H22   2    0.229447    0.282435    0.658627    11.00000   -1.20000
AFIX   0
C23   1    0.300150    0.232037    0.721741    11.00000    0.04909    0.03951 =
         0.04637    0.00442   -0.00092   -0.01665
C24   1    0.362637    0.230739    0.748625    11.00000    0.05541    0.03439 =
         0.04246    0.00925   -0.00197   -0.00821
AFIX  43
H24   2    0.379647    0.193384    0.779723    11.00000   -1.20000
AFIX   0
C25   1    0.400251    0.285827    0.728902    11.00000    0.03692    0.04119 =
         0.03449    0.00279   -0.00434   -0.00595
AFIX  43
H25   2    0.444016    0.286020    0.746611    11.00000   -1.20000
AFIX   0
C26   1    0.686048    0.415161    0.536699    11.00000    0.02786    0.02725 =
         0.03052   -0.00288   -0.00325    0.00040
C27   1    0.707735    0.362606    0.588711    11.00000    0.03337    0.03249 =
         0.04017    0.00238   -0.00008    0.00215
AFIX  43
H27   2    0.685667    0.352538    0.638888    11.00000   -1.20000
AFIX   0
C28   1    0.761120    0.324716    0.568323    11.00000    0.03794    0.03422 =
         0.06010    0.00525   -0.00242    0.00728
AFIX  43
H28   2    0.775443    0.288383    0.603375    11.00000   -1.20000
AFIX   0
C29   1    0.792729    0.341155    0.496051    11.00000    0.03551    0.03971 =
         0.05801   -0.01087    0.00401    0.00873
C30   1    0.773645    0.393103    0.442454    11.00000    0.03781    0.03922 =
         0.04435   -0.00889    0.00903   -0.00089
AFIX  43
H30   2    0.796514    0.403327    0.392972    11.00000   -1.20000
AFIX   0
C31   1    0.719484    0.429868    0.463969    11.00000    0.03568    0.03267 =
         0.03207   -0.00206    0.00062   -0.00153
AFIX  43
H31   2    0.705058    0.465741    0.428249    11.00000   -1.20000
AFIX   0
C32   1    0.597711    0.762623    0.581315    11.00000    0.02974    0.02703 =
         0.03985   -0.00050   -0.00157    0.00107
C33   1    0.597559    0.810527    0.647151    11.00000    0.03995    0.03024 =
         0.04487   -0.00713    0.00106   -0.00276
AFIX  43
H33   2    0.579416    0.798714    0.699535    11.00000   -1.20000
AFIX   0
C34   1    0.623737    0.875463    0.636806    11.00000    0.04641    0.03573 =
         0.06418   -0.01499    0.00969   -0.00620
AFIX  43
H34   2    0.623319    0.907855    0.681194    11.00000   -1.20000
AFIX   0
C35   1    0.649598    0.890468    0.561579    11.00000    0.04077    0.02812 =
         0.08371   -0.00276    0.01486   -0.00705
C36   1    0.651444    0.845958    0.494700    11.00000    0.04250    0.03318 =
         0.05767   -0.00167    0.00978   -0.00721
AFIX  43
H36   2    0.669882    0.858674    0.442829    11.00000   -1.20000
AFIX   0
C37   1    0.625328    0.781573    0.505696    11.00000    0.03707    0.03142 =
         0.04310   -0.00262    0.00278   -0.00436
AFIX  43
H37   2    0.626387    0.749878    0.460575    11.00000   -1.20000
AFIX   0
C38   1    0.455045    0.815395    0.617720    11.00000    0.04352    0.04117 =
         0.06572    0.00635    0.00146    0.00433
AFIX  43
H38   2    0.485171    0.832059    0.578892    11.00000   -1.20000
AFIX   0
HKLF 4

REM  au_mf_10_a.res in C2/c
REM R1 =  0.0377 for    8633 Fo > 4sig(Fo)  and  0.0453 for all   10078 data
REM    424 parameters refined using      0 restraints

END

WGHT      0.0363     49.2088

REM Highest difference peak  1.925,  deepest hole -1.512,  1-sigma level  0.154
Q1    1   0.4900  0.4578  0.6246  11.00000  0.05    1.92
Q2    1   0.4806  0.5730  0.6356  11.00000  0.05    1.74
Q3    1   0.5277  0.5701  0.6110  11.00000  0.05    1.26
Q4    1   0.2725  0.4630  0.7612  11.00000  0.05    1.13
Q5    1   0.4262  0.9179  0.6586  11.00000  0.05    1.07
Q6    1   0.4957  0.4923  0.5794  11.00000  0.05    1.04
Q7    1   0.5574  0.5362  0.6205  11.00000  0.05    0.93
Q8    1   0.5501  0.5216  0.6021  11.00000  0.05    0.89
Q9    1   0.5304  0.4894  0.6258  11.00000  0.05    0.88
Q10   1   0.4668  0.4971  0.6395  11.00000  0.05    0.87
;
_shelx_res_checksum              19723
_shelx_fab_file
;
-30 0 2 0.7109 -4.5392
-29 1 1 1.0437 -2.1134
-29 1 2 -0.3008 1.3810
-29 1 3 -0.9810 0.2968
-29 1 4 2.0986 -0.3642
-29 1 5 1.2151 0.4637
-29 1 6 -0.4720 0.0936
-29 3 1 1.7769 -0.3669
-29 3 2 3.0346 -3.1749
-29 3 3 -3.0980 -5.0438
-29 3 4 -0.1733 4.0491
-29 3 5 3.2711 1.2515
-29 3 6 -0.7698 1.2420
-29 5 1 1.8803 -0.1081
-29 5 2 4.7971 -0.7721
-29 5 3 2.4626 -2.3846
-29 5 4 -1.8382 0.7118
-29 5 5 3.0263 0.7513
-29 7 1 -0.0803 -0.0093
-29 7 2 0.8542 -0.6420
-28 0 2 1.9704 -5.6746
-28 0 4 -4.4510 7.1982
-28 0 6 1.7175 4.0055
-28 0 8 -6.9037 -6.8661
-28 2 1 -1.0287 1.5521
-28 2 2 0.6237 1.7956
-28 2 3 3.1544 0.1425
-28 2 4 -3.8460 -0.7601
-28 2 5 -3.5284 0.2147
-28 2 6 0.9238 -0.6908
-28 2 7 0.8543 3.3496
-28 2 8 -5.0628 -4.8548
-28 4 1 -1.2508 -1.4285
-28 4 2 -4.1065 1.1767
-28 4 3 2.3098 2.9011
-28 4 4 -0.0232 -0.0961
-28 4 5 -4.1459 -1.1563
-28 4 6 2.4756 0.4021
-28 4 7 -0.6949 2.2101
-28 4 8 -3.5637 -3.2902
-28 6 1 -0.7688 -0.1495
-28 6 2 -4.1060 0.7494
-28 6 3 -1.5176 -2.4672
-28 6 4 -0.0126 0.3270
-28 6 5 -3.6675 0.6202
-28 6 6 2.6855 -0.5701
-28 6 7 1.0164 2.9245
-28 8 1 0.1688 -0.3729
-28 8 2 -1.9136 0.9873
-28 8 3 -0.5993 -2.8697
-28 8 4 1.9616 -0.8774
-28 8 5 -1.5720 0.2720
-28 10 1 -0.5645 0.5242
-28 10 2 -0.8733 1.3671
-27 1 1 0.1170 -2.3159
-27 1 2 -1.9534 3.1243
-27 1 3 -0.7633 3.3413
-27 1 4 3.0028 -5.0291
-27 1 5 1.6697 -1.1158
-27 1 6 0.4285 -2.6665
-27 1 7 -0.4483 -3.6563
-27 1 8 4.3190 6.3659
-27 1 9 0.6833 -0.9950
-27 1 10 -2.2512 1.2605
-27 3 1 -0.4375 0.1007
-27 3 2 -0.0425 -0.6263
-27 3 3 -2.6259 -1.8688
-27 3 4 1.9444 0.2936
-27 3 5 2.7195 0.1830
-27 3 6 0.4387 -0.2139
-27 3 7 1.6646 0.7234
-27 3 8 2.9822 1.9899
-27 3 9 2.1607 -1.5209
-27 3 10 -3.2913 0.2019
-27 5 1 -0.5757 0.4772
-27 5 2 2.6187 0.7459
-27 5 3 0.3060 0.9637
-27 5 4 1.7036 -1.3247
-27 5 5 1.9344 0.3565
-27 5 6 -1.7293 -0.6441
-27 5 7 2.3238 -0.6704
-27 5 8 3.3000 0.8431
-27 5 9 0.3880 -2.1855
-27 7 1 -0.9347 0.1234
-27 7 2 1.6928 -0.5575
-27 7 3 0.3176 2.5024
-27 7 4 0.0720 0.9070
-27 7 5 1.8675 -0.6338
-27 7 6 -1.0393 0.4689
-27 7 7 -0.2907 0.8250
-27 7 8 3.5911 -2.0233
-27 9 1 0.4805 -0.0519
-27 9 2 0.7117 -0.4202
-27 9 3 1.4170 0.3247
-27 9 4 -1.3004 -0.7924
-27 9 5 -0.7357 1.1943
-27 9 6 -0.6231 -0.6028
-27 9 7 -2.7900 1.3269
-27 11 1 -0.3171 -0.2590
-27 11 2 0.4845 0.1531
-27 11 3 0.7670 -1.9169
-27 11 4 0.9304 -2.2246
-27 11 5 0.5306 -0.1627
-26 0 2 -1.0682 -6.4379
-26 0 4 1.2724 10.1740
-26 0 6 -2.2831 5.7963
-26 0 8 -0.2839 -8.3849
-26 0 10 0.7675 -3.4747
-26 2 1 1.0396 2.7346
-26 2 2 -0.3877 -0.5178
-26 2 3 -0.0988 -0.4566
-26 2 4 0.8306 0.7516
-26 2 5 -1.0044 0.8110
-26 2 6 -3.0183 0.0596
-26 2 7 -0.2511 1.0419
-26 2 8 -0.2007 -0.9942
-26 2 9 -1.3525 0.5872
-26 2 10 2.8841 -0.6798
-26 2 11 -2.3192 -2.8301
-26 4 1 2.1728 -0.9715
-26 4 2 -1.2722 -1.1646
-26 4 3 -1.0899 2.0081
-26 4 4 -0.7278 0.1086
-26 4 5 0.7017 -0.5853
-26 4 6 -1.5513 1.0029
-26 4 7 -2.0711 -2.8132
-26 4 8 -0.7840 0.2543
-26 4 9 -2.1969 1.6960
-26 4 10 2.5879 -0.3198
-26 4 11 -1.0879 1.1100
-26 6 1 2.8702 0.5052
-26 6 2 -0.7862 0.1557
-26 6 3 -1.5327 -1.6207
-26 6 4 -2.6933 -0.8406
-26 6 5 -0.3180 0.6501
-26 6 6 0.3020 -0.8585
-26 6 7 -1.8176 -0.1938
-26 6 8 -3.8571 2.0799
-26 6 9 -0.2294 -0.2651
-26 6 10 1.2040 0.4356
-26 8 1 2.2468 -0.5195
-26 8 2 0.6255 -0.1866
-26 8 3 -1.5487 0.0307
-26 8 4 0.6422 -0.3630
-26 8 5 1.4137 -0.5199
-26 8 6 0.9641 -0.0573
-26 8 7 0.8147 -1.4388
-26 8 8 -4.7935 2.2504
-26 8 9 -0.7643 -1.5514
-26 10 1 1.2741 -0.0148
-26 10 2 1.0357 0.2354
-26 10 3 -2.6943 1.0387
-26 10 4 -2.1772 2.1111
-26 10 5 2.0186 -0.3770
-26 10 6 2.0750 -0.8589
-26 10 7 2.1330 0.7586
-26 10 8 -2.2854 1.0263
-26 12 1 3.2442 -0.1230
-26 12 2 0.2158 -0.3280
-26 12 3 -2.0610 0.8154
-26 12 4 -1.1629 1.8082
-26 12 5 -0.3429 1.0042
-26 12 6 0.4851 -0.8457
-26 14 1 2.9153 0.4346
-26 14 2 1.0781 1.5726
-25 1 1 -0.4352 -2.7319
-25 1 2 2.1680 3.3986
-25 1 3 1.0014 2.0906
-25 1 4 -2.3007 -6.1070
-25 1 5 0.6518 -0.8495
-25 1 6 1.8855 -2.2368
-25 1 7 -0.3976 -4.1483
-25 1 8 -2.3390 4.7877
-25 1 9 -0.0953 0.9530
-25 1 10 -1.7592 2.2258
-25 1 11 1.8692 3.4091
-25 1 12 3.4461 -1.2864
-25 1 13 1.4919 -0.4413
-25 3 1 -1.6987 0.0775
-25 3 2 1.5588 -0.6347
-25 3 3 2.0629 -3.0590
-25 3 4 -1.5970 1.5108
-25 3 5 -0.7777 0.2636
-25 3 6 2.3902 0.3589
-25 3 7 -0.9529 2.4181
-25 3 8 -1.4744 -1.2594
-25 3 9 1.6382 0.1334
-25 3 10 -3.8623 -0.4545
-25 3 11 2.5832 -0.7707
-25 3 12 3.0466 2.8071
-25 5 1 -2.4356 0.4952
-25 5 2 1.7094 0.2044
-25 5 3 2.8299 -0.0619
-25 5 4 2.7176 0.4844
-25 5 5 -0.8693 -0.0129
-25 5 6 0.6957 -0.2364
-25 5 7 0.0086 0.4079
-25 5 8 0.4484 -0.4050
-25 5 9 1.1486 0.4181
-25 5 10 -2.9105 -0.8315
-25 5 11 -0.2627 -2.0046
-25 5 12 4.5400 2.8037
-25 7 1 -3.4637 0.1047
-25 7 2 0.0456 -0.7059
-25 7 3 1.2047 0.0990
-25 7 4 1.1350 1.7415
-25 7 5 0.2094 -0.7276
-25 7 6 -0.1379 0.9282
-25 7 7 0.4031 0.5358
-25 7 8 4.8413 -2.0481
-25 7 9 0.7275 1.9320
-25 7 10 -2.0543 -0.1454
-25 7 11 -0.8217 -2.1420
-25 9 1 -3.0073 0.2248
-25 9 2 -1.4115 0.2973
-25 9 3 3.3145 0.1410
-25 9 4 0.5242 -1.4131
-25 9 5 -4.0328 0.5482
-25 9 6 -1.7117 -0.3210
-25 9 7 -0.4506 -0.7120
-25 9 8 3.3533 -0.2195
-25 9 9 -0.1292 0.3832
-25 9 10 0.6866 1.3249
-25 11 1 -3.9911 0.0717
-25 11 2 -0.9874 -0.6475
-25 11 3 2.1685 -0.4530
-25 11 4 2.5731 -1.2457
-25 11 5 -1.3790 -0.6372
-25 11 6 -1.3909 0.7405
-25 11 7 -0.0361 -1.1200
-25 11 8 1.5701 -0.7645
-25 11 9 -2.2852 -0.4569
-25 13 1 -2.8326 -0.2832
-25 13 2 -0.1949 -0.6079
-25 13 3 2.8495 0.9412
-25 13 4 -0.5984 -1.1732
-25 13 5 -0.4716 0.4246
-25 13 6 0.8047 -0.1179
-25 13 7 -1.1045 -0.1333
-25 15 1 -0.4416 -0.2995
-25 15 2 -0.4074 -1.1437
-25 15 3 1.1967 0.9248
-25 15 4 1.1017 -1.3667
-24 0 2 0.4660 -6.4596
-24 0 4 -0.3460 12.1432
-24 0 6 0.7636 5.4221
-24 0 8 2.9534 -10.2211
-24 0 10 1.4662 -4.6610
-24 0 12 -0.7381 6.8073
-24 0 14 4.4825 3.0629
-24 2 1 0.3039 2.4572
-24 2 2 0.6664 0.5833
-24 2 3 -1.0052 -0.2179
-24 2 4 0.6260 0.5985
-24 2 5 -1.5763 0.5977
-24 2 6 0.1435 -0.3611
-24 2 7 1.8313 1.8509
-24 2 8 1.5000 -0.6220
-24 2 9 -0.6758 -1.5263
-24 2 10 2.7920 -0.1132
-24 2 11 -1.6464 -1.1586
-24 2 12 0.1859 -0.0273
-24 2 13 -0.7720 0.2533
-24 2 14 1.3365 1.3011
-24 4 1 0.2438 -1.8063
-24 4 2 -0.6613 0.0148
-24 4 3 -2.0677 2.4132
-24 4 4 -1.2950 -0.4365
-24 4 5 0.1976 -1.1762
-24 4 6 0.3012 0.9123
-24 4 7 3.2807 -2.1263
-24 4 8 1.8056 -0.8385
-24 4 9 -1.9629 0.1049
-24 4 10 3.3993 0.3921
-24 4 11 -0.2215 1.6931
-24 4 12 -2.3297 -0.9576
-24 4 13 2.1990 0.8625
-24 6 1 0.4097 0.2426
-24 6 2 -1.5620 1.1299
-24 6 3 -0.8945 -1.0711
-24 6 4 -3.3779 -1.5144
-24 6 5 -2.2931 0.9647
-24 6 6 0.3464 -0.6608
-24 6 7 0.9788 1.0336
-24 6 8 -0.7893 0.5423
-24 6 9 -0.9940 -0.6669
-24 6 10 2.3047 1.1900
-24 6 11 2.2736 0.2248
-24 6 12 -1.8365 -1.9032
-24 6 13 -0.2211 1.7248
-24 8 1 1.4349 -0.2625
-24 8 2 -0.3929 -0.4235
-24 8 3 -1.2932 -0.1520
-24 8 4 1.0604 0.0751
-24 8 5 0.9345 0.2720
-24 8 6 -0.4354 0.6308
-24 8 7 0.4510 -0.6517
-24 8 8 -2.3041 -0.1564
-24 8 9 -1.7890 -0.1965
-24 8 10 -0.3885 -0.9178
-24 8 11 1.6193 -0.5401
-24 8 12 0.6670 0.5355
-24 10 1 2.9515 0.6853
-24 10 2 0.6944 0.5484
-24 10 3 -2.4121 -0.9530
-24 10 4 -1.6954 1.1356
-24 10 5 3.0471 0.3074
-24 10 6 0.4250 0.0899
-24 10 7 -0.5689 1.4097
-24 10 8 0.0687 -0.3549
-24 10 9 1.6762 0.9509
-24 10 10 -2.1246 0.5245
-24 10 11 -0.9664 -2.7689
-24 12 1 3.2193 0.0167
-24 12 2 0.6068 0.1538
-24 12 3 -0.8252 0.3830
-24 12 4 0.7705 0.1965
-24 12 5 0.3692 -0.6302
-24 12 6 -0.8919 0.3771
-24 12 7 -0.8245 -0.2955
-24 12 8 -1.1751 0.9820
-24 12 9 1.8291 0.0973
-24 12 10 -0.1122 1.6301
-24 14 1 -0.9166 0.2384
-24 14 2 -0.3257 0.6689
-24 14 3 -1.8030 -0.6439
-24 14 4 0.7475 0.5923
-24 14 5 1.0488 -1.4876
-24 14 6 -0.4726 0.0228
-24 14 7 0.0327 -0.2093
-24 14 8 0.2368 2.2147
-24 16 1 -1.1010 -0.0573
-24 16 2 -1.0302 -0.6065
-24 16 3 1.4392 0.0478
-24 16 4 -0.7807 0.5062
-24 16 5 -1.8455 -0.5069
-23 1 1 0.4690 -3.1178
-23 1 2 -3.2820 3.3186
-23 1 3 -0.6973 3.5760
-23 1 4 1.1293 -7.3393
-23 1 5 2.4335 -1.3637
-23 1 6 -1.2582 -2.7690
-23 1 7 -0.4825 -4.1743
-23 1 8 -1.7955 6.2345
-23 1 9 0.8150 1.8168
-23 1 10 -0.8809 2.8094
-23 1 11 -0.7901 2.5780
-23 1 12 -4.1024 -4.7837
-23 1 13 0.9854 -1.3123
-23 1 14 -1.0295 -3.1006
-23 1 15 -0.1600 -1.3533
-23 3 1 0.8119 0.0739
-23 3 2 -2.1511 -0.6524
-23 3 3 -1.1074 -2.7198
-23 3 4 -0.3430 1.0390
-23 3 5 2.2051 1.2873
-23 3 6 -1.1774 -0.1860
-23 3 7 -3.3402 2.6385
-23 3 8 -1.0080 -0.0887
-23 3 9 3.2560 -0.5637
-23 3 10 -1.4459 0.1620
-23 3 11 -0.4387 -1.3926
-23 3 12 -3.0515 -0.1012
-23 3 13 -2.4436 0.3466
-23 3 14 0.8022 -0.0482
-23 5 1 2.5480 0.7097
-23 5 2 0.6381 0.2811
-23 5 3 -0.1308 0.4247
-23 5 4 2.7240 -0.0965
-23 5 5 1.7753 0.5478
-23 5 6 -1.6691 -0.6171
-23 5 7 -2.5432 -0.1257
-23 5 8 -2.7004 1.2280
-23 5 9 2.3923 -1.0341
-23 5 10 -1.6721 0.1607
-23 5 11 -1.9478 0.0953
-23 5 12 -0.0472 -0.2334
-23 5 13 -2.8638 -0.4869
-23 5 14 -0.8220 0.7843
-23 7 1 2.6046 -0.1916
-23 7 2 1.9605 -0.5173
-23 7 3 -0.6606 0.2409
-23 7 4 0.1831 1.3896
-23 7 5 3.2406 -1.0463
-23 7 6 0.6260 0.4356
-23 7 7 -0.8191 0.5240
-23 7 8 0.1218 -0.9061
-23 7 9 2.9640 -0.5241
-23 7 10 0.0664 -0.1859
-23 7 11 -2.3128 0.2490
-23 7 12 -2.0481 0.5692
-23 7 13 -0.9013 0.7089
-23 9 1 0.9660 -0.5039
-23 9 2 0.9913 0.8015
-23 9 3 0.9955 1.0449
-23 9 4 -1.0017 -1.4318
-23 9 5 -1.1624 -0.2890
-23 9 6 1.3757 -0.6808
-23 9 7 -1.2874 -0.3555
-23 9 8 -1.4791 1.0232
-23 9 9 2.0098 -0.5305
-23 9 10 2.7714 1.0450
-23 9 11 -1.1603 1.6841
-23 9 12 -2.6862 -2.6224
-23 9 13 0.1547 1.5813
-23 11 1 -2.3448 -0.3206
-23 11 2 -0.7224 -0.3364
-23 11 3 -0.4007 -0.6455
-23 11 4 0.8584 0.2229
-23 11 5 1.3673 -0.0972
-23 11 6 0.9815 0.1546
-23 11 7 0.6304 0.1283
-23 11 8 0.4834 -0.3435
-23 11 9 -2.0199 -0.0484
-23 11 10 0.5330 -1.2912
-23 11 11 0.5150 0.2921
-23 11 12 -1.6796 -2.2328
-23 13 1 0.0859 0.2067
-23 13 2 -1.1535 0.4881
-23 13 3 0.1323 -0.2984
-23 13 4 -2.2070 -0.0479
-23 13 5 -0.5201 1.5566
-23 13 6 0.1810 -0.4439
-23 13 7 1.2188 0.8490
-23 13 8 2.4796 -0.6457
-23 13 9 -0.5277 0.2720
-23 13 10 -0.7772 -0.0945
-23 15 1 1.7835 0.4670
-23 15 2 2.0172 -0.3220
-23 15 3 1.2361 -0.1881
-23 15 4 0.8796 0.5825
-23 15 5 -1.3837 0.3189
-23 15 6 -2.0139 0.3062
-23 15 7 1.8834 0.6457
-23 15 8 0.7895 -1.2684
-23 17 1 -0.5717 0.1024
-23 17 2 2.3833 0.3716
-23 17 3 -0.9957 0.3265
-23 17 4 0.6229 0.4605
-23 17 5 0.2633 -0.0517
-22 0 2 2.2015 -6.7934
-22 0 4 -0.5354 13.7983
-22 0 6 -0.0969 5.8361
-22 0 8 2.8478 -11.7723
-22 0 10 0.2886 -4.8637
-22 0 12 4.4220 9.2282
-22 0 14 0.0525 3.8583
-22 2 1 -0.9410 3.2871
-22 2 2 1.6588 -0.1359
-22 2 3 3.1381 -0.5112
-22 2 4 1.3097 0.8774
-22 2 5 -3.1453 0.5315
-22 2 6 -0.2240 0.1050
-22 2 7 0.3037 0.9511
-22 2 8 1.0942 -0.4406
-22 2 9 -3.2476 -0.4304
-22 2 10 -0.6244 -0.6315
-22 2 11 2.0666 -1.2127
-22 2 12 5.6918 0.9420
-22 2 13 1.0688 0.1910
-22 2 14 -1.3195 0.8782
-22 2 15 -0.8443 2.2728
-22 4 1 -1.8116 -1.6128
-22 4 2 0.1159 -1.0369
-22 4 3 2.6895 2.5097
-22 4 4 1.5022 0.1866
-22 4 5 -0.1010 -2.1212
-22 4 6 0.8891 0.7594
-22 4 7 1.4735 -3.1829
-22 4 8 3.0998 -0.9760
-22 4 9 -4.0109 1.7686
-22 4 10 0.1638 -0.9119
-22 4 11 0.5516 2.1960
-22 4 12 2.2875 0.8493
-22 4 13 4.2846 -1.0732
-22 4 14 -0.1245 -0.4063
-22 4 15 -0.7257 1.8508
-22 6 1 -4.1942 0.3798
-22 6 2 -1.9343 0.8224
-22 6 3 1.1614 -1.0707
-22 6 4 -0.5503 -1.3720
-22 6 5 -1.7777 0.7166
-22 6 6 1.2971 -1.0077
-22 6 7 -0.3527 0.8163
-22 6 8 2.0258 1.1983
-22 6 9 -2.3829 0.6112
-22 6 10 1.0116 0.3161
-22 6 11 1.1084 -0.3041
-22 6 12 1.5983 -0.8959
-22 6 13 2.2100 -0.7043
-22 6 14 1.1339 -0.9768
-22 6 15 -0.2336 3.2196
-22 8 1 -3.9949 -0.3386
-22 8 2 -2.2094 -0.7648
-22 8 3 0.5267 0.2555
-22 8 4 2.1436 0.3398
-22 8 5 -1.2210 0.3177
-22 8 6 -1.0209 0.0169
-22 8 7 1.1008 -0.4844
-22 8 8 -0.0757 0.1355
-22 8 9 -3.8857 0.0060
-22 8 10 -1.2123 -0.5250
-22 8 11 0.1988 0.1884
-22 8 12 1.6691 0.3193
-22 8 13 1.2711 -1.3445
-22 8 14 0.4655 -0.0340
-22 10 1 -0.8293 0.4305
-22 10 2 -1.1259 0.0091
-22 10 3 0.8439 -0.3564
-22 10 4 -0.5631 0.6616
-22 10 5 -1.8238 0.5570
-22 10 6 -0.1670 -0.5232
-22 10 7 1.2077 1.0772
-22 10 8 0.6086 -0.2177
-22 10 9 0.4719 -0.5943
-22 10 10 -1.5927 0.2004
-22 10 11 0.2754 -1.2833
-22 10 12 1.3640 1.3320
-22 10 13 -0.8351 -0.1212
-22 12 1 1.4551 -0.5137
-22 12 2 1.8088 -0.7765
-22 12 3 2.4310 1.3954
-22 12 4 0.8966 -0.2768
-22 12 5 -4.2529 -0.7155
-22 12 6 -0.6978 0.2103
-22 12 7 -1.1304 -1.1840
-22 12 8 -3.5687 -0.2412
-22 12 9 1.4456 -0.6969
-22 12 10 0.9839 0.2963
-22 12 11 0.9392 1.4470
-22 12 12 -0.5454 0.7221
-22 14 1 -1.8989 -0.1596
-22 14 2 -0.2214 0.3643
-22 14 3 0.2396 -0.6613
-22 14 4 1.2960 -0.4952
-22 14 5 0.7870 -0.2663
-22 14 6 1.7511 -0.3376
-22 14 7 -2.0096 -0.2349
-22 14 8 -2.0286 0.2908
-22 14 9 -0.3997 0.2333
-22 14 10 -0.7853 -0.5187
-22 14 11 2.7284 0.7863
-22 16 1 1.4031 -0.4652
-22 16 2 -4.1098 0.0572
-22 16 3 -2.0294 -0.0348
-22 16 4 -1.8103 -0.7332
-22 16 5 0.7062 0.3901
-22 16 6 1.8701 -0.1390
-22 16 7 -1.6698 -0.1019
-22 16 8 -0.0607 0.0491
-22 18 1 1.8323 -0.0025
-22 18 2 -2.7546 0.4227
-22 18 3 0.5160 -0.6930
-22 18 4 -0.7157 -0.0204
-22 18 5 -0.4577 0.1546
-21 1 1 0.7620 -3.2115
-21 1 2 0.3950 3.6136
-21 1 3 -1.4189 3.4400
-21 1 4 0.0671 -8.0208
-21 1 5 1.1209 -2.0718
-21 1 6 1.2781 -2.6437
-21 1 7 1.2736 -4.6511
-21 1 8 -2.5475 6.2489
-21 1 9 1.3330 1.5354
-21 1 10 -0.4394 2.3306
-21 1 11 -2.0275 3.8539
-21 1 12 -1.8086 -5.3414
-21 1 13 0.1276 -1.3186
-21 1 14 -0.6038 -2.2836
-21 1 15 1.2624 -2.8962
-21 1 16 -4.5495 1.0828
-21 3 1 -0.2574 0.0011
-21 3 2 1.2371 -0.2741
-21 3 3 -3.1955 -3.4671
-21 3 4 -2.7060 1.1893
-21 3 5 -0.9813 1.5830
-21 3 6 1.4355 0.5067
-21 3 7 1.5015 3.1665
-21 3 8 -2.3110 -0.8141
-21 3 9 3.1544 -1.0831
-21 3 10 1.0851 -0.3090
-21 3 11 -0.1165 -2.4496
-21 3 12 -3.0060 0.4467
-21 3 13 -2.4612 0.8951
-21 3 14 0.8464 0.8038
-21 3 15 0.9120 0.2721
-21 3 16 -2.1303 -2.5421
-21 5 1 1.4493 0.8740
-21 5 2 1.5665 0.2493
-21 5 3 -1.2397 0.3767
-21 5 4 -1.9120 -0.0281
-21 5 5 -3.4685 0.6747
-21 5 6 -1.5005 0.2159
-21 5 7 2.4456 0.0712
-21 5 8 -3.4980 0.4414
-21 5 9 1.0612 -0.2909
-21 5 10 -1.3044 0.2085
-21 5 11 0.4640 -0.9307
-21 5 12 -0.8345 -0.3165
-21 5 13 -1.3311 0.1418
-21 5 14 -0.0143 0.4031
-21 5 15 0.0990 -0.9310
-21 5 16 -2.9612 -2.2639
-21 7 1 3.3418 0.2291
-21 7 2 1.8564 -1.0412
-21 7 3 -0.1474 -0.1403
-21 7 4 -1.1310 1.6800
-21 7 5 -0.5417 -0.6178
-21 7 6 -1.5169 1.0147
-21 7 7 1.8208 -0.3159
-21 7 8 1.1892 -1.9187
-21 7 9 1.2954 0.3643
-21 7 10 -1.4230 -0.8783
-21 7 11 1.0214 -0.4799
-21 7 12 -1.1844 1.8546
-21 7 13 -0.4365 0.2510
-21 7 14 0.3357 0.8336
-21 7 15 -0.4359 0.3839
-21 9 1 2.8729 0.1773
-21 9 2 2.2006 0.6871
-21 9 3 -0.5052 0.7107
-21 9 4 -0.8197 -1.4041
-21 9 5 -0.8862 -0.1119
-21 9 6 -1.6490 0.0601
-21 9 7 -0.2372 -1.4256
-21 9 8 1.3344 0.7907
-21 9 9 0.6791 0.8321
-21 9 10 1.1788 0.1300
-21 9 11 1.4149 1.0096
-21 9 12 0.7946 -0.1755
-21 9 13 -0.0279 -0.4354
-21 9 14 -0.8366 -1.5253
-21 11 1 -0.7984 0.1475
-21 11 2 1.0428 -0.1885
-21 11 3 -1.9879 -0.9198
-21 11 4 0.6181 0.3679
-21 11 5 4.1198 -0.1662
-21 11 6 -1.2294 0.3284
-21 11 7 0.3339 0.1366
-21 11 8 2.1540 0.1594
-21 11 9 -3.3000 0.3776
-21 11 10 0.3399 -0.6518
-21 11 11 0.1533 0.2599
-21 11 12 0.3391 0.4844
-21 11 13 0.6823 -0.8142
-21 13 1 0.8513 -0.1146
-21 13 2 -1.5932 0.5430
-21 13 3 -3.4340 0.3846
-21 13 4 -2.5175 -0.1391
-21 13 5 3.6075 0.6100
-21 13 6 0.8266 -0.2416
-21 13 7 2.0224 0.4418
-21 13 8 3.3315 0.8824
-21 13 9 -0.2242 0.0255
-21 13 10 -0.0217 1.0266
-21 13 11 -1.8792 -0.8473
-21 13 12 2.2481 -0.1341
-21 15 1 1.1886 -0.0591
-21 15 2 3.0463 -0.8111
-21 15 3 -0.5437 0.4682
-21 15 4 -1.0551 0.9527
-21 15 5 0.4859 -0.5613
-21 15 6 -0.7804 0.3603
-21 15 7 0.8935 -0.0304
-21 15 8 0.7507 -0.6430
-21 15 9 1.1751 -0.8708
-21 15 10 0.9854 0.2394
-21 15 11 -2.3195 -0.3583
-21 17 1 -3.5668 0.0413
-21 17 2 2.3417 0.4788
-21 17 3 1.7021 0.5157
-21 17 4 2.5902 -0.6028
-21 17 5 1.2963 0.2617
-21 17 6 0.6199 0.0831
-21 17 7 -0.3072 -0.7880
-21 17 8 0.7714 0.3069
-21 17 9 2.2317 -0.2045
-21 19 1 0.4379 0.1992
-21 19 2 1.2421 -0.0228
-21 19 3 -1.4828 -0.1199
-21 19 4 0.5706 -0.3168
-21 19 5 1.9815 -0.1875
-20 0 2 -1.2976 -6.8914
-20 0 4 -1.6517 15.3497
-20 0 6 -0.4924 5.6525
-20 0 8 1.5400 -12.9248
-20 0 10 2.4411 -4.5937
-20 0 12 -3.1394 10.9112
-20 0 14 3.2842 4.1191
-20 0 16 4.9354 -7.0173
-20 2 1 0.3598 3.1543
-20 2 2 -2.3172 0.2734
-20 2 3 0.1869 -0.2918
-20 2 4 -0.7052 0.9201
-20 2 5 1.2815 0.8581
-20 2 6 -1.4554 -0.2380
-20 2 7 -2.0425 2.0191
-20 2 8 0.9699 -0.4348
-20 2 9 -1.2312 -0.4291
-20 2 10 -0.0490 0.2914
-20 2 11 1.5689 -1.2820
-20 2 12 0.2397 0.5725
-20 2 13 -0.3290 0.6215
-20 2 14 1.7140 0.0320
-20 2 15 -1.2294 0.8330
-20 2 16 1.4916 -0.3293
-20 2 17 -1.2869 -1.0628
-20 4 1 2.3910 -1.9304
-20 4 2 -1.8081 -0.6785
-20 4 3 0.0370 2.4851
-20 4 4 2.0849 0.1760
-20 4 5 5.4869 -2.0627
-20 4 6 -0.0848 0.3429
-20 4 7 -3.2140 -2.9720
-20 4 8 2.5039 -1.0820
-20 4 9 -0.1232 0.8070
-20 4 10 0.5535 -0.0502
-20 4 11 -0.8984 2.8638
-20 4 12 0.4248 0.8642
-20 4 13 -0.3830 -0.1857
-20 4 14 -0.3765 -0.2583
-20 4 15 -0.0977 -2.2440
-20 4 16 1.8207 0.4551
-20 4 17 -3.5547 0.8041
-20 6 1 0.0137 0.1441
-20 6 2 -0.7806 1.5143
-20 6 3 -1.6490 -1.5002
-20 6 4 0.6958 -1.8093
-20 6 5 4.8431 0.7781
-20 6 6 3.0008 -0.7612
-20 6 7 -3.3458 1.2856
-20 6 8 0.4358 1.6515
-20 6 9 1.9049 -0.6211
-20 6 10 2.3569 0.7906
-20 6 11 0.1397 -0.5741
-20 6 12 1.7892 -1.2794
-20 6 13 -2.0276 1.0118
-20 6 14 -1.6760 -0.4934
-20 6 15 -0.2179 0.4130
-20 6 16 2.0017 1.8497
-20 8 1 -1.6981 -0.5634
-20 8 2 -0.8241 -0.3635
-20 8 3 -0.7850 0.0091
-20 8 4 0.1856 0.2076
-20 8 5 3.3078 -0.0687
-20 8 6 2.1209 0.3034
-20 8 7 -2.1039 0.3029
-20 8 8 -2.5760 0.1298
-20 8 9 0.5657 -0.2104
-20 8 10 0.1520 0.3370
-20 8 11 -1.7618 0.0173
-20 8 12 0.1923 -0.7248
-20 8 13 -0.2327 0.3861
-20 8 14 -1.7685 -0.1710
-20 8 15 -1.5920 -1.5525
-20 8 16 1.5164 0.8310
-20 10 1 -1.0632 0.4993
-20 10 2 -2.6616 0.4019
-20 10 3 -0.1841 -0.8789
-20 10 4 -0.8712 0.4840
-20 10 5 1.7421 0.4137
-20 10 6 3.8822 -0.1390
-20 10 7 -0.5095 1.2442
-20 10 8 -1.2837 -0.5257
-20 10 9 3.0563 -0.2288
-20 10 10 -2.0513 0.2390
-20 10 11 -1.6474 -1.4089
-20 10 12 -1.2479 -0.1054
-20 10 13 -0.4675 0.6971
-20 10 14 0.2282 1.1773
-20 10 15 -1.6217 -0.0953
-20 12 1 0.5445 0.0537
-20 12 2 0.2435 -0.4966
-20 12 3 1.0366 0.9329
-20 12 4 0.3082 -0.0314
-20 12 5 -3.6016 -0.6947
-20 12 6 0.3202 0.5671
-20 12 7 -0.6026 -1.1100
-20 12 8 -1.9134 -1.0017
-20 12 9 3.1607 0.6003
-20 12 10 -0.3701 -0.3984
-20 12 11 -0.9870 0.7920
-20 12 12 -1.4915 0.0551
-20 12 13 -0.0346 -0.1319
-20 12 14 -1.1910 0.1271
-20 14 1 -3.4651 0.6672
-20 14 2 0.5160 0.5363
-20 14 3 3.6146 -0.9139
-20 14 4 3.2740 -0.4411
-20 14 5 -2.4335 0.1964
-20 14 6 -0.9790 -0.3300
-20 14 7 -1.1693 0.1811
-20 14 8 -2.4390 0.3220
-20 14 9 0.0611 0.6080
-20 14 10 0.3269 -0.8137
-20 14 11 0.2789 0.0753
-20 14 12 -2.6224 -0.0590
-20 14 13 -1.8863 -0.2945
-20 16 1 1.0084 -0.2734
-20 16 2 -1.7289 -0.4327
-20 16 3 -0.1440 0.5631
-20 16 4 0.4533 -0.1041
-20 16 5 -1.3397 -0.1002
-20 16 6 -0.7977 0.3672
-20 16 7 0.4975 -0.1466
-20 16 8 -2.6551 0.5734
-20 16 9 0.1724 0.5086
-20 16 10 1.8402 0.3276
-20 16 11 -0.1326 0.6533
-20 18 1 1.2126 -0.1288
-20 18 2 3.4065 -0.1258
-20 18 3 0.0339 -0.5442
-20 18 4 -3.1784 0.8043
-20 18 5 -2.1423 0.0434
-20 18 6 -1.0672 -0.2925
-20 18 7 0.0890 0.7204
-20 18 8 -5.0510 -0.1253
-20 18 9 -0.3342 -0.7305
-20 20 1 -4.0724 -0.0623
-20 20 2 0.6624 -0.0212
-20 20 3 0.5863 0.8351
-20 20 4 -0.1670 -0.1737
-20 20 5 -0.8020 0.1853
-19 1 1 0.7776 -3.2980
-19 1 2 3.6526 3.2773
-19 1 3 1.1984 3.9462
-19 1 4 1.3348 -8.9089
-19 1 5 -0.5624 -2.3982
-19 1 6 -0.9813 -2.8587
-19 1 7 -0.0442 -5.3052
-19 1 8 1.8908 7.2204
-19 1 9 0.8200 1.3904
-19 1 10 -1.4128 2.4072
-19 1 11 -2.2323 3.8351
-19 1 12 2.5791 -6.1819
-19 1 13 1.1729 -1.6462
-19 1 14 -3.0702 -2.4945
-19 1 15 0.9695 -2.4181
-19 1 16 -3.4192 5.0914
-19 1 17 -0.6425 1.6625
-19 3 1 -2.1687 -0.1198
-19 3 2 3.8329 -0.4803
-19 3 3 1.4530 -3.5001
-19 3 4 0.8441 1.1393
-19 3 5 -2.3858 1.6546
-19 3 6 -0.3376 0.1491
-19 3 7 0.8815 2.9678
-19 3 8 1.0875 -0.5157
-19 3 9 0.7742 -1.2189
-19 3 10 0.0863 -0.4066
-19 3 11 -0.7510 -2.4834
-19 3 12 0.0323 0.3582
-19 3 13 1.3277 0.5980
-19 3 14 -1.5162 0.1947
-19 3 15 -0.1622 2.2667
-19 3 16 0.8379 0.1013
-19 3 17 2.0980 0.0600
-19 5 1 -2.6445 0.9134
-19 5 2 1.2648 0.2572
-19 5 3 2.6156 0.8571
-19 5 4 -0.8369 0.0411
-19 5 5 -5.2327 0.3878
-19 5 6 -3.0774 -0.4332
-19 5 7 1.5064 0.3869
-19 5 8 0.0670 0.3709
-19 5 9 -1.4298 0.1113
-19 5 10 -2.0896 0.3382
-19 5 11 -1.4100 -0.0869
-19 5 12 -0.5531 -0.7742
-19 5 13 2.4932 -0.5079
-19 5 14 0.5109 -0.6853
-19 5 15 0.6207 0.2599
-19 5 16 0.0498 0.4546
-19 5 17 0.8919 -0.3156
-19 7 1 -0.7613 0.0573
-19 7 2 -0.1428 -0.9040
-19 7 3 2.5683 0.1337
-19 7 4 0.7745 1.8786
-19 7 5 -3.3379 -0.7510
-19 7 6 -1.5225 0.1842
-19 7 7 0.9626 0.1317
-19 7 8 0.9538 -2.1960
-19 7 9 -1.9453 -0.2239
-19 7 10 -1.3786 -0.6829
-19 7 11 -0.7507 0.2200
-19 7 12 -2.4191 1.6220
-19 7 13 0.9472 -0.1885
-19 7 14 1.8965 0.6257
-19 7 15 1.1691 -0.4268
-19 7 16 0.5407 -1.0358
-19 7 17 -0.6568 -0.5658
-19 9 1 1.4283 -0.3454
-19 9 2 0.9057 0.7903
-19 9 3 0.6642 1.2491
-19 9 4 0.5677 -1.4811
-19 9 5 -3.6864 -0.1742
-19 9 6 -1.1900 -0.4587
-19 9 7 1.1376 -0.9881
-19 9 8 0.8888 0.9110
-19 9 9 -1.2933 0.2013
-19 9 10 1.6023 0.4371
-19 9 11 1.0151 0.6630
-19 9 12 0.8761 -0.8736
-19 9 13 0.2503 -0.1519
-19 9 14 0.9705 -0.2368
-19 9 15 1.8232 0.0442
-19 9 16 0.6719 1.0132
-19 11 1 -0.4585 -0.3643
-19 11 2 1.3207 -0.5032
-19 11 3 2.0846 -0.7945
-19 11 4 1.5266 0.3163
-19 11 5 0.0084 0.1269
-19 11 6 -3.0190 -0.1489
-19 11 7 -2.1342 0.4986
-19 11 8 -0.3247 0.2664
-19 11 9 -3.0638 -0.4069
-19 11 10 1.7452 0.1074
-19 11 11 1.8781 -0.2432
-19 11 12 0.9850 -0.3722
-19 11 13 0.7122 0.3383
-19 11 14 -0.1677 0.0797
-19 11 15 -1.4006 -0.5130
-19 13 1 1.2360 -0.4020
-19 13 2 -3.1543 0.5308
-19 13 3 -0.0842 -0.0670
-19 13 4 0.1791 -0.4058
-19 13 5 3.4543 0.5663
-19 13 6 -0.0603 -0.1676
-19 13 7 -0.6210 0.3423
-19 13 8 0.9172 0.7746
-19 13 9 -2.2746 -0.4878
-19 13 10 -0.2648 0.7261
-19 13 11 2.6464 -0.5711
-19 13 12 1.8883 -0.7536
-19 13 13 0.8816 0.4355
-19 13 14 1.3910 0.5595
-19 15 1 2.7081 0.2686
-19 15 2 -0.1119 -0.4617
-19 15 3 -1.8209 -0.5415
-19 15 4 -2.6044 1.0250
-19 15 5 1.3067 -0.6046
-19 15 6 -0.3477 0.1989
-19 15 7 -0.0473 0.4082
-19 15 8 2.9221 -1.3168
-19 15 9 -2.4280 -0.3988
-19 15 10 -1.1058 -0.6374
-19 15 11 2.4080 -0.3091
-19 15 12 0.9054 0.7200
-19 15 13 2.0987 0.0753
-19 17 1 -1.9857 0.4466
-19 17 2 -3.2759 0.7319
-19 17 3 1.4498 0.1492
-19 17 4 0.9470 -0.8400
-19 17 5 -0.4470 0.1450
-19 17 6 0.1822 -0.3746
-19 17 7 1.6041 -0.4714
-19 17 8 4.3042 0.2323
-19 17 9 -3.6116 1.0145
-19 17 10 -1.7206 -0.4944
-19 17 11 0.9234 -0.2141
-19 19 1 3.7870 0.1963
-19 19 2 -6.3683 -0.8268
-19 19 3 -0.1430 -0.0381
-19 19 4 1.8835 0.2297
-19 19 5 0.1533 -0.8805
-19 19 6 -0.2286 0.3305
-19 19 7 1.1988 -0.1539
-19 19 8 7.6658 -0.0078
-19 19 9 -1.0411 1.5839
-19 21 1 4.2332 -0.5547
-19 21 2 -1.1689 -0.2930
-19 21 3 2.9849 -0.4667
-19 21 4 0.8569 -0.6664
-19 21 5 -1.6853 0.0485
-18 0 2 -3.9394 -6.7071
-18 0 4 -0.3993 16.8419
-18 0 6 3.7300 5.6254
-18 0 8 -4.4653 -14.2831
-18 0 10 0.5982 -4.6493
-18 0 12 -1.5087 12.1281
-18 0 14 0.2365 4.0621
-18 0 16 5.4519 -9.0359
-18 0 18 -2.4495 -3.0204
-18 2 1 -1.3985 3.6602
-18 2 2 -4.9200 0.4019
-18 2 3 -0.5464 -0.0427
-18 2 4 -2.6511 1.0118
-18 2 5 -0.4733 0.8839
-18 2 6 3.2325 0.2129
-18 2 7 1.7547 1.6875
-18 2 8 -3.6765 -0.6172
-18 2 9 -2.1690 -0.3379
-18 2 10 -0.9421 -0.3614
-18 2 11 2.3729 -1.1669
-18 2 12 0.4077 0.4754
-18 2 13 -1.0470 0.6484
-18 2 14 0.8558 0.3436
-18 2 15 -0.2838 0.8931
-18 2 16 0.2086 -0.4965
-18 2 17 1.0365 -0.8222
-18 2 18 -2.2324 -2.6577
-18 4 1 0.8588 -1.8898
-18 4 2 -3.1925 -1.0451
-18 4 3 -0.5257 2.8014
-18 4 4 -1.2735 0.1559
-18 4 5 0.7262 -2.1725
-18 4 6 3.9811 0.6482
-18 4 7 1.0698 -3.6050
-18 4 8 -3.1447 -0.7855
-18 4 9 -1.1294 1.0897
-18 4 10 0.7886 -0.4613
-18 4 11 0.9049 2.5594
-18 4 12 -0.8620 0.8269
-18 4 13 -0.6754 -1.4243
-18 4 14 0.7500 0.6102
-18 4 15 0.6489 -2.0498
-18 4 16 -1.9040 -0.3316
-18 4 17 -1.0670 0.4603
-18 4 18 -2.3489 -1.1747
-18 6 1 0.7106 0.1008
-18 6 2 -0.4630 1.1246
-18 6 3 -2.2634 -1.3386
-18 6 4 -0.9073 -1.9450
-18 6 5 1.6893 1.1443
-18 6 6 3.1881 -0.5155
-18 6 7 2.7864 0.5621
-18 6 8 -1.3990 2.2250
-18 6 9 0.4506 -0.1944
-18 6 10 2.2013 0.3480
-18 6 11 1.9082 -0.9835
-18 6 12 0.7662 -1.3145
-18 6 13 -0.3229 -0.0836
-18 6 14 0.7167 0.1018
-18 6 15 -0.6288 1.5909
-18 6 16 -2.6737 0.7288
-18 6 17 0.7990 0.1811
-18 8 1 -0.2863 -0.3504
-18 8 2 0.6279 -0.9269
-18 8 3 -0.4180 0.1944
-18 8 4 -0.7987 0.5367
-18 8 5 0.5040 0.2332
-18 8 6 -2.8847 0.2178
-18 8 7 0.4661 -0.2111
-18 8 8 -0.0321 0.2431
-18 8 9 0.4559 0.1494
-18 8 10 1.3006 -0.0001
-18 8 11 0.4083 0.4373
-18 8 12 -0.1956 -0.0758
-18 8 13 0.5933 -0.3381
-18 8 14 0.1433 -0.3152
-18 8 15 0.3302 -0.0714
-18 8 16 -2.4622 -0.4916
-18 8 17 0.1210 0.7118
-18 10 1 -0.7239 0.7284
-18 10 2 -0.7946 0.3827
-18 10 3 0.2274 -0.8375
-18 10 4 0.1205 0.7490
-18 10 5 0.4982 0.3845
-18 10 6 -0.1413 -0.2588
-18 10 7 1.6141 1.1209
-18 10 8 -0.0398 -0.3568
-18 10 9 -0.3271 -0.6668
-18 10 10 -0.6355 -0.4310
-18 10 11 0.1790 -0.6626
-18 10 12 -1.6047 0.8928
-18 10 13 -1.6125 0.2963
-18 10 14 0.5047 0.2289
-18 10 15 1.4130 0.5385
-18 10 16 -2.5105 -0.7043
-18 12 1 2.2189 -0.1199
-18 12 2 2.1506 -0.4918
-18 12 3 -2.2802 1.5602
-18 12 4 -2.1045 0.3305
-18 12 5 -3.8849 -0.9413
-18 12 6 1.3126 0.3492
-18 12 7 4.2591 -0.8738
-18 12 8 2.0609 -0.8450
-18 12 9 0.9556 0.3615
-18 12 10 -0.0148 -0.3258
-18 12 11 -1.7024 0.9991
-18 12 12 -0.8285 0.8407
-18 12 13 -1.9120 -0.5537
-18 12 14 0.1965 -0.3084
-18 12 15 3.6838 -0.7146
-18 14 1 -1.8105 0.1576
-18 14 2 3.2917 0.3844
-18 14 3 0.6773 -0.3626
-18 14 4 -1.0295 -0.4779
-18 14 5 -4.1552 0.5678
-18 14 6 1.2352 -0.4780
-18 14 7 1.0532 0.1910
-18 14 8 0.0463 0.5549
-18 14 9 2.1626 0.0936
-18 14 10 -0.4285 0.4117
-18 14 11 -3.0976 -0.0875
-18 14 12 -0.3696 -0.2661
-18 14 13 -1.5129 -0.1394
-18 14 14 -1.1447 -0.2095
-18 16 1 0.6338 -0.8092
-18 16 2 -0.4665 -0.4151
-18 16 3 -0.8994 0.6024
-18 16 4 0.8399 -0.3153
-18 16 5 0.8413 0.2291
-18 16 6 0.8580 0.5123
-18 16 7 -0.5065 -0.3589
-18 16 8 0.4411 0.4838
-18 16 9 4.5539 -0.3376
-18 16 10 -1.1464 0.8779
-18 16 11 -2.4506 0.3284
-18 16 12 0.9158 -0.6725
-18 16 13 -0.4470 0.1072
-18 18 1 -0.2749 -0.0507
-18 18 2 5.7204 0.4648
-18 18 3 -2.0683 -1.1824
-18 18 4 -1.2887 0.5030
-18 18 5 3.0604 0.6357
-18 18 6 0.8892 -0.4940
-18 18 7 -4.5107 1.1801
-18 18 8 -2.2864 -0.2868
-18 18 9 5.5489 -1.7564
-18 18 10 -1.5445 -0.3808
-18 18 11 0.7737 -1.4985
-18 20 1 -5.1825 0.3149
-18 20 2 3.7204 0.0326
-18 20 3 -2.0729 0.8648
-18 20 4 -0.8515 0.3433
-18 20 5 2.6488 0.2742
-18 20 6 0.6443 -0.2099
-18 20 7 -0.6534 -0.2350
-18 20 8 -5.5272 -0.0988
-18 22 1 0.6368 0.5828
-18 22 2 0.8106 -0.1989
-18 22 3 -4.9968 -0.3375
-18 22 4 -1.9563 2.3974
-17 1 1 1.9521 -3.5201
-17 1 2 -2.2118 3.0604
-17 1 3 -0.8126 3.7320
-17 1 4 5.1619 -9.6089
-17 1 5 0.0668 -2.6211
-17 1 6 -4.6998 -2.7880
-17 1 7 -1.2237 -5.0824
-17 1 8 2.6137 7.9953
-17 1 9 1.9830 2.1936
-17 1 10 1.4261 2.5865
-17 1 11 -1.6073 3.8181
-17 1 12 -1.3252 -6.6268
-17 1 13 0.1586 -2.3107
-17 1 14 2.3272 -1.8460
-17 1 15 0.9355 -3.2934
-17 1 16 -2.3950 4.6904
-17 1 17 -2.1250 1.1561
-17 1 18 1.4413 2.5983
-17 1 19 -2.8685 1.1498
-17 3 1 2.3820 -0.2921
-17 3 2 -0.2668 -0.4190
-17 3 3 -2.6623 -4.1761
-17 3 4 5.9371 1.3825
-17 3 5 1.4057 1.9100
-17 3 6 -4.5459 0.2752
-17 3 7 -0.9244 3.1642
-17 3 8 1.9689 -0.6907
-17 3 9 2.0439 -1.2064
-17 3 10 2.0846 -0.2653
-17 3 11 0.0309 -2.4568
-17 3 12 -0.7570 0.8990
-17 3 13 -1.1326 1.5740
-17 3 14 0.8189 0.5156
-17 3 15 -1.0732 2.1105
-17 3 16 2.1231 -1.1667
-17 3 17 -0.4623 -0.7827
-17 3 18 1.7567 0.8725
-17 5 1 2.4770 1.1759
-17 5 2 -1.3511 0.2849
-17 5 3 -1.0831 0.6209
-17 5 4 3.0031 0.1196
-17 5 5 -0.0477 0.3895
-17 5 6 -5.1415 -0.1160
-17 5 7 -3.0329 0.4746
-17 5 8 2.9258 0.2767
-17 5 9 1.1412 0.1090
-17 5 10 -0.5353 0.2152
-17 5 11 0.3472 -0.1456
-17 5 12 1.5378 -0.3652
-17 5 13 -1.1901 0.7888
-17 5 14 -0.6673 -0.2753
-17 5 15 -0.3347 0.0108
-17 5 16 1.8219 -0.0806
-17 5 17 -0.1683 -0.2777
-17 5 18 0.6903 -0.7174
-17 7 1 0.6582 0.2531
-17 7 2 -2.6529 -0.8644
-17 7 3 -0.0152 -0.2548
-17 7 4 2.5377 1.7596
-17 7 5 0.9379 -0.8993
-17 7 6 0.7340 0.6403
-17 7 7 -3.9063 -0.0947
-17 7 8 -0.2773 -2.0633
-17 7 9 -0.0848 -0.1899
-17 7 10 -2.3256 -0.8048
-17 7 11 0.4293 -0.0216
-17 7 12 0.9155 1.8334
-17 7 13 -1.4495 0.2212
-17 7 14 -2.1302 0.6683
-17 7 15 -1.1910 -0.3975
-17 7 16 2.9916 -0.9909
-17 7 17 -1.1063 -0.6012
-17 7 18 -1.9724 -0.2191
-17 9 1 0.9469 -0.2692
-17 9 2 -1.7450 0.8329
-17 9 3 -2.4237 1.1831
-17 9 4 -0.2490 -1.9571
-17 9 5 0.9958 -0.2489
-17 9 6 4.5906 0.0097
-17 9 7 1.0631 -1.4107
-17 9 8 0.9680 1.1838
-17 9 9 1.5084 0.8969
-17 9 10 -2.4067 0.3915
-17 9 11 -1.0656 0.7434
-17 9 12 2.2008 -0.9556
-17 9 13 0.3601 -0.7868
-17 9 14 -0.7371 -0.3459
-17 9 15 -1.5969 -0.1001
-17 9 16 1.9556 1.3177
-17 9 17 -1.1401 0.0027
-17 11 1 -2.7688 -0.1212
-17 11 2 0.3106 -0.6605
-17 11 3 -1.6594 -1.0425
-17 11 4 -1.2232 0.1112
-17 11 5 2.3619 0.3856
-17 11 6 0.6856 0.0868
-17 11 7 -2.6031 0.1617
-17 11 8 -1.0618 0.1537
-17 11 9 3.6491 0.1489
-17 11 10 -0.5681 0.0066
-17 11 11 -1.3337 0.1030
-17 11 12 0.8482 -0.1774
-17 11 13 2.1606 -0.1577
-17 11 14 -0.5377 -0.0699
-17 11 15 -1.7497 0.2501
-17 11 16 0.9942 -0.4444
-17 13 1 -2.6661 -0.2654
-17 13 2 -2.6664 0.5624
-17 13 3 -0.4473 -0.1250
-17 13 4 1.8439 -0.5172
-17 13 5 5.7620 0.4964
-17 13 6 -0.0006 -0.1968
-17 13 7 -2.1662 0.1271
-17 13 8 -3.6587 0.7878
-17 13 9 1.6426 -0.2324
-17 13 10 0.0562 -0.0291
-17 13 11 -0.1983 -0.4570
-17 13 12 0.1862 -0.4998
-17 13 13 1.8905 0.5107
-17 13 14 -0.1518 0.0849
-17 13 15 -1.1511 0.6434
-17 15 1 0.6960 0.2943
-17 15 2 0.3732 -0.5905
-17 15 3 -1.8359 -0.0557
-17 15 4 1.9284 1.3251
-17 15 5 3.4288 -0.7884
-17 15 6 -0.5506 -0.0007
-17 15 7 -1.8187 0.3069
-17 15 8 -2.8208 -1.3035
-17 15 9 -0.1656 -0.2380
-17 15 10 1.9780 -0.8778
-17 15 11 1.3984 -0.2355
-17 15 12 -0.0631 1.1059
-17 15 13 -0.1989 0.3754
-17 15 14 -0.4532 0.1247
-17 17 1 -2.4977 0.1825
-17 17 2 -0.4083 0.5685
-17 17 3 2.1955 0.8493
-17 17 4 1.7706 -0.6840
-17 17 5 -2.3546 0.0533
-17 17 6 0.3195 -0.1672
-17 17 7 1.5761 -0.6419
-17 17 8 -5.2493 0.2195
-17 17 9 -4.5382 0.5513
-17 17 10 2.2994 0.5075
-17 17 11 -0.0981 1.1519
-17 17 12 0.0405 0.1135
-17 17 13 -1.2696 -0.0654
-17 19 1 2.2038 -0.0943
-17 19 2 -4.8184 -0.4935
-17 19 3 2.1536 -0.0490
-17 19 4 1.3446 0.1295
-17 19 5 -5.0078 -0.5679
-17 19 6 -0.5862 0.6565
-17 19 7 3.9996 -0.3085
-17 19 8 0.6224 0.0107
-17 19 9 -4.8797 0.3710
-17 19 10 1.8436 0.8016
-17 19 11 -1.6505 2.9688
-17 21 1 0.6621 -0.7542
-17 21 2 0.0656 1.0627
-17 21 3 2.6764 -0.7328
-17 21 4 1.5986 -2.0619
-17 21 5 -3.4596 0.8012
-17 21 6 -0.0629 -0.0772
-17 21 7 0.3352 0.3959
-17 21 8 1.8333 0.9719
-17 23 1 -4.6048 0.2837
-17 23 2 -0.0629 0.0404
-17 23 3 2.5381 0.6113
-16 0 2 12.8460 -6.5141
-16 0 4 -8.3000 18.3083
-16 0 6 0.7422 5.3490
-16 0 8 2.0275 -15.6782
-16 0 10 -1.1282 -4.3636
-16 0 12 1.6841 13.3072
-16 0 14 -3.0874 3.6194
-16 0 16 1.5914 -10.2576
-16 0 18 -1.1901 -2.3294
-16 2 1 -0.9775 4.0834
-16 2 2 10.1136 0.5092
-16 2 3 3.1160 0.0898
-16 2 4 -8.3636 1.0447
-16 2 5 0.6918 0.9405
-16 2 6 0.7187 -0.0166
-16 2 7 -0.7397 2.1969
-16 2 8 3.8210 -1.0049
-16 2 9 -2.0398 -0.7114
-16 2 10 -3.5403 -0.3006
-16 2 11 0.2824 -1.5221
-16 2 12 2.5560 0.4946
-16 2 13 1.3228 0.8590
-16 2 14 -2.2038 -0.1617
-16 2 15 -0.3729 1.0970
-16 2 16 -1.8833 -0.5243
-16 2 17 1.9613 -0.0788
-16 2 18 -1.0252 -0.0783
-16 2 19 5.0126 -0.8339
-16 4 1 -2.8756 -1.8819
-16 4 2 7.0411 -0.9876
-16 4 3 3.4289 2.7600
-16 4 4 -5.0273 0.0760
-16 4 5 0.8116 -2.5522
-16 4 6 1.5911 0.4639
-16 4 7 -1.2356 -3.4374
-16 4 8 0.9905 -1.2527
-16 4 9 0.1500 1.3025
-16 4 10 -3.3028 -0.1669
-16 4 11 -2.1680 2.4873
-16 4 12 -0.2066 0.7239
-16 4 13 2.2724 -1.7013
-16 4 14 -1.6225 -0.2349
-16 4 15 1.1842 -2.7089
-16 4 16 -0.4499 -0.3897
-16 4 17 -0.5955 0.9642
-16 4 18 -1.5646 1.2254
-16 4 19 2.7158 0.0185
-16 6 1 -2.3899 0.0914
-16 6 2 6.8219 1.5572
-16 6 3 1.0999 -1.5808
-16 6 4 -3.4400 -2.1219
-16 6 5 1.1796 1.0489
-16 6 6 1.6413 -0.5800
-16 6 7 3.5171 1.1429
-16 6 8 0.6402 1.7143
-16 6 9 0.2401 -0.1928
-16 6 10 -0.9763 0.4721
-16 6 11 -2.4366 -0.9772
-16 6 12 -1.3784 -1.4525
-16 6 13 1.3353 0.3266
-16 6 14 0.7728 -0.5704
-16 6 15 -0.2145 0.6828
-16 6 16 -0.2074 1.1948
-16 6 17 0.6214 -0.1998
-16 6 18 -0.2337 0.9416
-16 8 1 0.0296 -0.2744
-16 8 2 6.0790 -0.6831
-16 8 3 0.8887 0.0897
-16 8 4 -2.3099 0.7194
-16 8 5 -0.0227 0.1568
-16 8 6 -3.3490 0.1183
-16 8 7 -0.3896 0.2488
-16 8 8 1.4587 -0.2509
-16 8 9 0.4235 -0.0111
-16 8 10 2.1187 0.0979
-16 8 11 -0.7571 0.0197
-16 8 12 -1.7885 -0.1618
-16 8 13 1.0177 0.3912
-16 8 14 1.0710 -0.1352
-16 8 15 1.3959 -0.2467
-16 8 16 -0.4300 -0.4556
-16 8 17 1.5283 0.1511
-16 8 18 0.0249 -0.9311
-16 10 1 1.1990 0.6953
-16 10 2 1.1961 0.6355
-16 10 3 3.0132 -1.0451
-16 10 4 1.1071 0.7984
-16 10 5 0.7638 0.3647
-16 10 6 -2.6614 -0.2160
-16 10 7 -2.6197 1.1841
-16 10 8 -1.1885 -0.4827
-16 10 9 -5.2271 -0.8558
-16 10 10 0.9830 -0.2162
-16 10 11 1.6775 -1.5161
-16 10 12 -0.9019 0.3340
-16 10 13 0.4299 0.8808
-16 10 14 -0.2084 0.3961
-16 10 15 -0.8338 0.8019
-16 10 16 0.2848 -0.2862
-16 10 17 1.2992 -0.9296
-16 12 1 5.7949 -0.0704
-16 12 2 -1.2877 -0.4520
-16 12 3 2.4626 1.5376
-16 12 4 2.2451 0.1572
-16 12 5 -1.1786 -1.0499
-16 12 6 -1.4424 0.6413
-16 12 7 0.2146 -1.2718
-16 12 8 4.1345 -0.8554
-16 12 9 -6.5391 0.5714
-16 12 10 -0.1130 0.0786
-16 12 11 1.8664 0.8148
-16 12 12 -0.6343 0.4535
-16 12 13 -0.0949 -0.5771
-16 12 14 1.0101 -0.1694
-16 12 15 -1.5057 -1.0112
-16 12 16 1.3963 0.2691
-16 14 1 1.0056 0.4769
-16 14 2 0.6240 0.5115
-16 14 3 2.7595 -0.7853
-16 14 4 -1.9494 -0.7610
-16 14 5 -3.5983 0.4751
-16 14 6 -1.1623 -0.0651
-16 14 7 0.4911 0.0907
-16 14 8 2.4231 0.6216
-16 14 9 -4.4219 0.2474
-16 14 10 -0.2690 0.3001
-16 14 11 1.9133 0.3843
-16 14 12 -0.8828 -0.2885
-16 14 13 0.0487 -0.4428
-16 14 14 1.3554 -0.2759
-16 14 15 -1.6621 0.1577
-16 16 1 1.4796 -0.5087
-16 16 2 -0.3785 -0.4272
-16 16 3 2.0013 0.2123
-16 16 4 -4.0902 -0.4309
-16 16 5 -1.9217 -0.0138
-16 16 6 -1.1757 0.2747
-16 16 7 3.1764 -0.4198
-16 16 8 3.5651 0.9472
-16 16 9 -2.0517 0.3598
-16 16 10 -0.3984 0.0622
-16 16 11 0.8449 0.3668
-16 16 12 -1.9747 -0.8172
-16 16 13 1.6563 -0.5360
-16 16 14 2.7271 0.0438
-16 18 1 2.1978 0.0804
-16 18 2 4.6810 0.1910
-16 18 3 -2.4391 -1.0045
-16 18 4 -3.1977 0.4364
-16 18 5 2.5522 0.3635
-16 18 6 -1.2577 -0.7251
-16 18 7 -0.9893 0.6926
-16 18 8 3.4092 -0.1483
-16 18 9 3.7074 -0.0068
-16 18 10 -0.1680 -0.7852
-16 18 11 2.5884 -2.4573
-16 18 12 -0.5476 -0.2595
-16 20 1 -1.1499 0.1108
-16 20 2 3.3637 -0.2451
-16 20 3 -1.2860 1.4991
-16 20 4 -1.5920 0.2129
-16 20 5 6.6048 -0.5955
-16 20 6 -0.4988 0.5066
-16 20 7 -1.2050 -0.8258
-16 20 8 -0.5494 -1.1495
-16 20 9 2.6351 0.7908
-16 20 10 -0.2291 0.5274
-16 22 1 2.1946 0.3214
-16 22 2 -1.9939 0.4854
-16 22 3 0.1912 -0.4159
-16 22 4 -0.3295 1.9733
-16 22 5 2.2037 -0.5551
-16 22 6 -0.4501 0.5667
-16 22 7 -1.2906 -0.1982
-15 1 1 -1.9239 -3.9439
-15 1 2 -10.7698 2.9518
-15 1 3 -1.3661 4.0904
-15 1 4 2.8487 -10.4773
-15 1 5 -1.0170 -2.9517
-15 1 6 7.4366 -2.6190
-15 1 7 0.7687 -5.6741
-15 1 8 -7.8196 8.8906
-15 1 9 2.1412 2.3813
-15 1 10 1.8981 2.5070
-15 1 11 -0.9267 4.1090
-15 1 12 -1.5148 -7.3755
-15 1 13 -0.2862 -2.5962
-15 1 14 1.1715 -2.0075
-15 1 15 0.9452 -3.6123
-15 1 16 0.4508 6.2282
-15 1 17 -1.4820 1.1056
-15 1 18 0.8234 1.2778
-15 1 19 -2.9575 1.5556
-15 3 1 -2.5136 -0.6309
-15 3 2 -7.8616 -0.2343
-15 3 3 -2.5872 -4.0689
-15 3 4 -0.2521 1.4789
-15 3 5 -2.2682 2.1931
-15 3 6 6.5302 0.2987
-15 3 7 3.4766 3.2864
-15 3 8 -7.6003 -0.5217
-15 3 9 -0.3219 -1.7514
-15 3 10 4.9633 -0.2271
-15 3 11 0.4065 -2.3469
-15 3 12 -1.3887 0.7266
-15 3 13 -1.7987 1.4049
-15 3 14 1.3341 0.3975
-15 3 15 -1.2161 2.4811
-15 3 16 1.1710 -0.0727
-15 3 17 0.8173 -0.9657
-15 3 18 0.5383 -0.7347
-15 3 19 -4.0427 -0.7088
-15 5 1 0.7640 0.9986
-15 5 2 -6.4436 0.2087
-15 5 3 -0.6608 1.1008
-15 5 4 -1.4978 0.2453
-15 5 5 -3.3635 0.5862
-15 5 6 3.4229 -0.3944
-15 5 7 1.2362 0.5259
-15 5 8 -2.0423 0.6534
-15 5 9 -1.6268 -0.2915
-15 5 10 3.9170 0.3769
-15 5 11 1.9023 -0.1439
-15 5 12 1.1136 -0.5553
-15 5 13 -0.9854 0.1594
-15 5 14 1.3331 0.0324
-15 5 15 0.6367 0.4508
-15 5 16 -2.7919 0.3154
-15 5 17 1.2556 0.4165
-15 5 18 0.9356 -0.8561
-15 5 19 -1.8072 -0.6904
-15 7 1 -1.9595 -0.1186
-15 7 2 -7.0386 -1.0506
-15 7 3 0.6040 -0.0480
-15 7 4 -0.4518 2.0149
-15 7 5 -2.2956 -0.8497
-15 7 6 2.2369 0.4343
-15 7 7 -0.9762 -0.1146
-15 7 8 -3.6557 -2.2114
-15 7 9 -1.5922 -0.3437
-15 7 10 1.0463 -0.4914
-15 7 11 1.8003 -0.0194
-15 7 12 1.6288 1.8160
-15 7 13 -0.2640 -0.1519
-15 7 14 -0.3502 0.4560
-15 7 15 0.4854 -0.2727
-15 7 16 -1.4690 -1.2868
-15 7 17 0.2658 0.0976
-15 7 18 1.8359 0.5023
-15 7 19 -2.6069 -2.1181
-15 9 1 -1.1546 -0.4526
-15 9 2 -4.2438 0.7789
-15 9 3 1.2968 1.3588
-15 9 4 0.5066 -2.0466
-15 9 5 -2.5592 -0.3719
-15 9 6 2.3734 -0.1522
-15 9 7 3.2686 -1.1004
-15 9 8 -0.7341 1.0969
-15 9 9 1.7128 0.8874
-15 9 10 -0.5925 0.5260
-15 9 11 -0.5515 1.0395
-15 9 12 0.6547 -0.8224
-15 9 13 -1.6842 -0.5006
-15 9 14 0.5916 -0.5166
-15 9 15 -0.1603 -0.9951
-15 9 16 -1.9116 1.0329
-15 9 17 0.2307 0.6879
-15 9 18 2.0764 0.9430
-15 11 1 -4.0436 -0.0620
-15 11 2 1.6230 -0.6016
-15 11 3 -1.3649 -1.0834
-15 11 4 -1.7091 0.3708
-15 11 5 -3.0147 0.2790
-15 11 6 1.2789 -0.1300
-15 11 7 1.5765 0.7844
-15 11 8 -2.0284 0.0216
-15 11 9 8.0286 -0.0592
-15 11 10 1.2649 -0.1312
-15 11 11 0.4445 0.1270
-15 11 12 0.8244 -0.0137
-15 11 13 -2.9727 0.2229
-15 11 14 -0.8455 0.1447
-15 11 15 2.5422 0.1285
-15 11 16 -1.6863 -0.5243
-15 11 17 2.0504 0.4060
-15 13 1 -4.8660 -0.2544
-15 13 2 1.3814 0.6102
-15 13 3 -0.6746 -0.1087
-15 13 4 -2.3076 -0.2304
-15 13 5 -2.1639 0.6267
-15 13 6 1.6846 -0.5114
-15 13 7 1.9994 0.6820
-15 13 8 -3.0520 0.8426
-15 13 9 5.4085 -0.3947
-15 13 10 0.0516 0.2198
-15 13 11 -1.1611 -0.8503
-15 13 12 2.1067 -0.9070
-15 13 13 -1.4012 0.2287
-15 13 14 -2.3693 0.1690
-15 13 15 2.2163 0.7806
-15 13 16 -1.2818 0.6761
-15 15 1 -0.5030 0.3518
-15 15 2 -1.8042 -0.6095
-15 15 3 -2.5092 -0.0173
-15 15 4 3.0345 1.3362
-15 15 5 0.5434 -0.4962
-15 15 6 1.1558 0.2873
-15 15 7 -1.1396 0.2930
-15 15 8 2.6908 -1.6473
-15 15 9 4.3008 -0.3192
-15 15 10 -0.7027 -0.2955
-15 15 11 -1.5408 -0.6297
-15 15 12 1.7958 0.9043
-15 15 13 -1.0798 0.1530
-15 15 14 -2.1178 0.3155
-15 15 15 1.1771 -0.3926
-15 17 1 -2.9095 0.2461
-15 17 2 -4.0902 0.7515
-15 17 3 -1.0075 0.6440
-15 17 4 3.0887 -0.9112
-15 17 5 2.0701 0.1256
-15 17 6 1.0475 0.3770
-15 17 7 -3.0249 -0.3859
-15 17 8 0.8053 0.0142
-15 17 9 1.0841 0.2070
-15 17 10 -1.1166 0.3009
-15 17 11 -2.9182 0.3285
-15 17 12 1.4042 0.4062
-15 17 13 -1.1316 0.7636
-15 17 14 -2.3301 -0.5052
-15 19 1 -0.1783 0.1235
-15 19 2 -7.2062 -0.7943
-15 19 3 2.0777 -0.3942
-15 19 4 0.8931 0.3592
-15 19 5 -2.4919 -0.2821
-15 19 6 1.4674 0.2430
-15 19 7 -2.3217 -0.0408
-15 19 8 1.6969 0.6964
-15 19 9 -1.3602 -0.0074
-15 19 10 0.1023 -0.4419
-15 19 11 -3.6956 1.6689
-15 19 12 -1.8145 -0.3031
-15 21 1 1.0913 -0.4584
-15 21 2 -1.0246 -0.3435
-15 21 3 -0.9896 -0.4997
-15 21 4 0.0579 -0.9454
-15 21 5 -6.1031 1.2627
-15 21 6 -0.0399 -1.2097
-15 21 7 -1.3350 0.5814
-15 21 8 -0.9121 2.0780
-15 21 9 0.3820 -0.2796
-15 21 10 0.3616 -1.0708
-15 23 1 1.1749 0.3838
-15 23 2 2.3620 -1.7809
-15 23 3 -1.0543 1.0412
-15 23 4 -3.3377 -0.1695
-15 23 5 -1.7514 -0.5056
-15 23 6 0.3725 -0.6380
-14 0 2 -4.9790 -6.1974
-14 0 4 7.7303 19.8561
-14 0 6 -12.0504 5.1619
-14 0 8 6.9296 -17.0198
-14 0 10 0.3765 -4.1451
-14 0 12 -1.0783 14.3606
-14 0 14 0.4375 3.5747
-14 0 16 1.3465 -11.4381
-14 0 18 1.2710 -2.8553
-14 0 20 -1.0031 6.8052
-14 2 1 6.6643 4.2926
-14 2 2 -3.8189 0.4725
-14 2 3 0.8758 0.0454
-14 2 4 10.4472 1.2220
-14 2 5 0.5522 1.2008
-14 2 6 -11.0479 -0.1599
-14 2 7 -1.3390 2.1491
-14 2 8 8.1710 -0.8548
-14 2 9 -2.7618 -0.6046
-14 2 10 -2.5660 -0.3473
-14 2 11 2.0569 -1.4914
-14 2 12 -0.3033 0.7376
-14 2 13 0.0612 0.9671
-14 2 14 0.6890 0.2687
-14 2 15 0.2806 1.1418
-14 2 16 -1.3106 -0.7251
-14 2 17 0.0364 -0.6179
-14 2 18 2.2327 -1.0163
-14 2 19 3.1986 -0.5958
-14 2 20 1.0540 1.8903
-14 4 1 4.8243 -2.0161
-14 4 2 -2.9535 -1.1921
-14 4 3 -1.3898 2.7565
-14 4 4 11.0035 0.0732
-14 4 5 2.9851 -2.8008
-14 4 6 -8.2400 0.4962
-14 4 7 -2.5865 -4.0796
-14 4 8 2.6348 -1.1457
-14 4 9 1.3804 1.7134
-14 4 10 -2.9572 -0.3154
-14 4 11 1.2891 2.8890
-14 4 12 -1.7749 0.8815
-14 4 13 0.6867 -1.7326
-14 4 14 -0.1889 -0.0061
-14 4 15 1.3489 -2.4033
-14 4 16 2.0186 -0.5666
-14 4 17 -2.6751 0.5269
-14 4 18 2.0697 -0.0795
-14 4 19 2.1598 1.0139
-14 4 20 1.2524 1.8270
-14 6 1 4.2320 0.1894
-14 6 2 -0.2546 1.4671
-14 6 3 -1.9056 -1.6097
-14 6 4 7.9104 -2.3414
-14 6 5 2.1794 1.2079
-14 6 6 -4.4436 -0.5917
-14 6 7 -0.2248 1.0082
-14 6 8 -0.1158 2.2812
-14 6 9 0.4511 -0.2963
-14 6 10 -1.1047 0.3649
-14 6 11 0.0637 -0.5562
-14 6 12 -3.1664 -1.5868
-14 6 13 -0.8925 0.3612
-14 6 14 0.0217 -0.2705
-14 6 15 -1.8056 0.9926
-14 6 16 2.4280 1.5933
-14 6 17 -1.8321 -0.5693
-14 6 18 0.3936 -0.0246
-14 6 19 2.7819 0.5228
-14 8 1 5.1307 -0.2350
-14 8 2 1.1560 -0.8808
-14 8 3 -2.9778 0.3036
-14 8 4 6.0083 0.7628
-14 8 5 1.7297 0.2586
-14 8 6 -2.1362 -0.0129
-14 8 7 -1.0211 -0.0816
-14 8 8 1.6705 0.2865
-14 8 9 0.9127 -0.1887
-14 8 10 0.9810 0.0691
-14 8 11 1.1304 0.4602
-14 8 12 -1.8659 -0.2889
-14 8 13 -0.3861 -0.2208
-14 8 14 -0.2646 0.2516
-14 8 15 1.2411 0.2349
-14 8 16 1.3042 -0.1691
-14 8 17 -1.9862 0.1947
-14 8 18 -2.4604 -0.7821
-14 8 19 3.0184 0.6134
-14 10 1 0.6239 0.4905
-14 10 2 -0.9772 0.4579
-14 10 3 -3.4659 -0.8509
-14 10 4 0.7480 0.9098
-14 10 5 1.8304 0.5488
-14 10 6 -0.6966 -0.2500
-14 10 7 -0.7556 1.1485
-14 10 8 -0.2084 -0.3996
-14 10 9 -4.2093 -0.9973
-14 10 10 -0.4994 -0.1439
-14 10 11 -0.8338 -1.2845
-14 10 12 0.0357 0.2466
-14 10 13 2.3783 0.2728
-14 10 14 -0.3565 0.2246
-14 10 15 0.8208 0.9763
-14 10 16 2.2276 -0.0932
-14 10 17 -3.0203 -0.5883
-14 10 18 -1.2047 0.0169
-14 12 1 4.2621 -0.4077
-14 12 2 -2.7650 -0.6900
-14 12 3 -1.3699 1.6207
-14 12 4 2.9883 0.0341
-14 12 5 2.9447 -1.1167
-14 12 6 -0.6989 0.5652
-14 12 7 -0.7799 -1.4764
-14 12 8 2.9365 -0.9228
-14 12 9 -4.5282 0.6660
-14 12 10 -1.2343 -0.0515
-14 12 11 -2.7816 0.9476
-14 12 12 -2.3608 0.7972
-14 12 13 2.1830 -0.2570
-14 12 14 1.9409 -0.1265
-14 12 15 -0.7232 -1.2608
-14 12 16 1.1461 -0.4324
-14 12 17 -3.6970 0.1999
-14 14 1 2.8538 0.1446
-14 14 2 1.1620 0.4941
-14 14 3 -2.5746 -0.8256
-14 14 4 1.6367 -0.7009
-14 14 5 3.8039 0.2163
-14 14 6 -0.3259 -0.3488
-14 14 7 -2.2396 0.1679
-14 14 8 -3.1035 0.5067
-14 14 9 -0.5808 0.2115
-14 14 10 -0.4325 -0.2351
-14 14 11 0.1953 -0.0259
-14 14 12 -1.2153 0.0304
-14 14 13 0.8769 0.4227
-14 14 14 1.4428 -0.0052
-14 14 15 -0.4903 0.5323
-14 14 16 -0.1112 -0.3170
-14 16 1 1.7145 -0.6854
-14 16 2 3.3977 -0.5354
-14 16 3 2.5242 0.3129
-14 16 4 -0.3043 -0.0934
-14 16 5 -1.1265 -0.0574
-14 16 6 0.5146 -0.2283
-14 16 7 0.3961 -0.2123
-14 16 8 -6.4033 0.8529
-14 16 9 -0.8158 -0.0352
-14 16 10 -0.6722 0.1863
-14 16 11 0.8611 0.4612
-14 16 12 0.0362 -0.7770
-14 16 13 0.9438 -0.2969
-14 16 14 0.2252 -0.0427
-14 16 15 -0.0367 0.3302
-14 18 1 0.6002 0.2183
-14 18 2 4.0304 0.3134
-14 18 3 0.2615 -0.8985
-14 18 4 3.2467 0.6612
-14 18 5 -4.2022 0.3510
-14 18 6 0.5380 -0.5034
-14 18 7 3.0680 1.1948
-14 18 8 -5.6961 -0.6751
-14 18 9 0.3098 -1.0107
-14 18 10 -1.3178 -0.0975
-14 18 11 3.7288 -0.8193
-14 18 12 1.9770 0.3425
-14 18 13 1.5022 -1.0985
-14 18 14 -0.3962 0.5067
-14 20 1 -2.9928 0.2048
-14 20 2 3.7757 0.2734
-14 20 3 -0.0217 0.9946
-14 20 4 1.7995 -0.0414
-14 20 5 1.4491 -0.6784
-14 20 6 0.2433 0.6437
-14 20 7 5.8323 -0.1576
-14 20 8 -1.9182 -0.8635
-14 20 9 -1.6877 -0.3278
-14 20 10 -1.8724 0.3946
-14 20 11 2.2078 -0.2592
-14 20 12 2.8600 2.1551
-14 22 1 -2.3147 0.4405
-14 22 2 -1.7524 0.8159
-14 22 3 1.3263 -1.1260
-14 22 4 2.7449 0.4073
-14 22 5 2.7461 -0.3742
-14 22 6 2.9661 0.2855
-14 22 7 2.7508 -0.3255
-14 22 8 2.2219 -0.9471
-14 22 9 -1.6929 0.1743
-14 24 1 -3.2636 -0.1422
-14 24 2 -1.1694 -0.1624
-14 24 3 -3.5120 -0.3180
-14 24 4 4.2106 -1.7260
-14 24 5 3.6033 0.6326
-13 1 1 -4.1676 -3.8614
-13 1 2 17.6863 2.5808
-13 1 3 0.0874 4.1634
-13 1 4 -11.8546 -11.4186
-13 1 5 1.9124 -3.5202
-13 1 6 5.4987 -2.3648
-13 1 7 -0.4452 -6.0856
-13 1 8 -1.5030 9.4265
-13 1 9 3.7326 2.8605
-13 1 10 -1.9860 2.2309
-13 1 11 -1.6614 4.4548
-13 1 12 3.2671 -8.0356
-13 1 13 0.7807 -2.8532
-13 1 14 -1.2280 -1.7069
-13 1 15 0.7868 -3.5799
-13 1 16 -0.5380 5.9623
-13 1 17 -0.9171 2.1578
-13 1 18 -4.9931 2.3581
-13 1 19 -1.4296 2.3133
-13 1 20 1.0359 -4.6853
-13 3 1 -8.3382 -0.4000
-13 3 2 12.2155 -0.2981
-13 3 3 2.1289 -4.2435
-13 3 4 -14.5932 1.5664
-13 3 5 0.0897 2.3828
-13 3 6 3.3071 0.4065
-13 3 7 -1.0554 3.5639
-13 3 8 0.0201 -0.8178
-13 3 9 2.3330 -1.7470
-13 3 10 0.3523 -0.2820
-13 3 11 -3.1942 -2.7581
-13 3 12 3.0127 0.6569
-13 3 13 0.0106 1.7034
-13 3 14 -1.5850 0.4531
-13 3 15 -1.7079 2.2637
-13 3 16 0.8589 -0.8968
-13 3 17 1.4688 -0.8676
-13 3 18 -5.6189 0.4634
-13 3 19 -2.1641 -0.9646
-13 3 20 -1.1122 -0.4554
-13 5 1 -5.2796 1.3617
-13 5 2 7.9056 0.2831
-13 5 3 4.7730 1.0055
-13 5 4 -9.0003 0.1263
-13 5 5 -0.0014 0.5408
-13 5 6 1.1369 -0.2109
-13 5 7 -1.4476 0.4348
-13 5 8 6.0275 0.5732
-13 5 9 1.5005 0.0180
-13 5 10 -1.4048 0.2016
-13 5 11 -2.4683 -0.5535
-13 5 12 4.2077 -0.5997
-13 5 13 0.5659 0.3253
-13 5 14 -1.0776 0.0807
-13 5 15 0.2691 0.0756
-13 5 16 -1.7017 -0.0261
-13 5 17 1.6228 0.1261
-13 5 18 -4.7657 -0.1176
-13 5 19 -2.0417 0.1460
-13 5 20 1.2273 -0.1009
-13 7 1 -8.2211 0.1212
-13 7 2 3.7122 -0.8271
-13 7 3 0.8628 -0.2858
-13 7 4 -9.5774 2.1281
-13 7 5 2.4037 -0.9898
-13 7 6 0.3083 0.7043
-13 7 7 -0.6137 -0.2646
-13 7 8 3.7942 -2.6960
-13 7 9 1.7403 -0.0255
-13 7 10 -2.2457 -0.8902
-13 7 11 -2.0134 -0.3872
-13 7 12 3.8762 1.9688
-13 7 13 2.1403 -0.0114
-13 7 14 -0.4667 0.2204
-13 7 15 0.3321 -0.2130
-13 7 16 1.5822 -1.4760
-13 7 17 1.8440 -0.5099
-13 7 18 -1.1474 -0.2535
-13 7 19 -3.2327 -0.0059
-13 9 1 -2.7275 -0.1146
-13 9 2 3.2931 0.8445
-13 9 3 3.4957 1.1169
-13 9 4 -7.1343 -2.1936
-13 9 5 0.6539 -0.3714
-13 9 6 -0.7396 -0.1248
-13 9 7 0.3146 -1.4043
-13 9 8 2.5476 1.4124
-13 9 9 0.0543 0.9983
-13 9 10 -1.4510 0.2445
-13 9 11 -1.9972 0.9314
-13 9 12 -0.3486 -0.7336
-13 9 13 0.8625 -0.4470
-13 9 14 1.0416 -0.4606
-13 9 15 -3.2141 -0.6953
-13 9 16 -0.4699 0.9147
-13 9 17 1.4974 0.2256
-13 9 18 0.6153 0.2663
-13 9 19 -0.5651 0.7143
-13 11 1 1.6666 0.1214
-13 11 2 3.0606 -0.5151
-13 11 3 3.1020 -1.0704
-13 11 4 -1.6862 0.2969
-13 11 5 0.7796 0.3440
-13 11 6 -0.3147 -0.0152
-13 11 7 0.0655 0.2081
-13 11 8 0.4135 0.2339
-13 11 9 2.2728 -0.2277
-13 11 10 1.3816 -0.3009
-13 11 11 2.8296 0.1743
-13 11 12 -0.5066 0.0572
-13 11 13 -0.1823 -0.0299
-13 11 14 0.4999 0.1373
-13 11 15 -1.3993 0.5047
-13 11 16 -1.3020 -0.2572
-13 11 17 1.8765 -0.0258
-13 11 18 -0.3994 -0.2009
-13 13 1 -3.0611 -0.0953
-13 13 2 1.4121 0.6605
-13 13 3 4.6527 0.2624
-13 13 4 -4.2703 -0.2673
-13 13 5 -2.4022 0.8462
-13 13 6 -1.0315 -0.2266
-13 13 7 1.5816 0.5631
-13 13 8 0.3730 1.0478
-13 13 9 -1.3543 -0.6467
-13 13 10 1.9688 0.4463
-13 13 11 1.1525 -0.3829
-13 13 12 0.4923 -0.8796
-13 13 13 0.3939 -0.1794
-13 13 14 0.1523 -0.3369
-13 13 15 -0.4359 0.1734
-13 13 16 0.3866 1.0108
-13 13 17 1.3009 0.3199
-13 15 1 -2.8940 0.3477
-13 15 2 -2.9237 -0.5986
-13 15 3 1.8963 0.0989
-13 15 4 -1.8389 1.2334
-13 15 5 -1.3223 -0.4410
-13 15 6 -1.3557 0.5313
-13 15 7 1.4970 0.1943
-13 15 8 5.4190 -1.4780
-13 15 9 -2.0262 -0.3173
-13 15 10 2.7528 -0.1368
-13 15 11 0.0488 0.1647
-13 15 12 -1.5858 1.0140
-13 15 13 -1.1225 0.0842
-13 15 14 0.8070 0.2419
-13 15 15 0.1120 -0.8247
-13 15 16 0.9769 -0.7898
-13 17 1 -0.8456 -0.0497
-13 17 2 -0.1922 0.7030
-13 17 3 -4.5703 0.5125
-13 17 4 -5.9898 -0.8697
-13 17 5 5.2671 -0.0113
-13 17 6 -2.9443 -0.0994
-13 17 7 1.2474 -0.6477
-13 17 8 6.6410 0.3891
-13 17 9 -1.9403 0.7495
-13 17 10 2.5721 0.2996
-13 17 11 -0.6591 0.3009
-13 17 12 -1.5978 -0.0386
-13 17 13 -1.8431 0.2222
-13 17 14 2.4608 -0.1382
-13 17 15 -0.7059 0.4808
-13 19 1 3.6747 -0.2519
-13 19 2 0.4610 -0.6030
-13 19 3 -0.4208 -0.4018
-13 19 4 -5.7499 0.1169
-13 19 5 5.0238 -0.2352
-13 19 6 -2.2453 -0.0078
-13 19 7 -3.5984 -0.9939
-13 19 8 6.3117 0.1786
-13 19 9 -0.3605 0.8537
-13 19 10 2.8647 0.1769
-13 19 11 -1.0926 0.6139
-13 19 12 -2.7636 -1.3485
-13 19 13 -2.5942 0.4766
-13 21 1 3.3629 -0.5848
-13 21 2 0.5717 0.6511
-13 21 3 -2.3028 0.0124
-13 21 4 -0.8051 -0.5648
-13 21 5 0.5919 0.8133
-13 21 6 -4.3833 -0.0908
-13 21 7 -4.3942 0.4522
-13 21 8 -0.9780 0.1492
-13 21 9 0.6598 -0.3324
-13 21 10 0.3881 0.4367
-13 21 11 1.2496 -0.5637
-13 23 1 0.0281 0.2747
-13 23 2 2.0325 0.0377
-13 23 3 1.9563 0.5399
-13 23 4 -4.2325 1.9205
-13 23 5 -0.1525 -0.6324
-13 23 6 -4.0572 0.3146
-13 23 7 -2.8515 0.6483
-13 23 8 -0.8692 0.5842
-13 25 1 0.1190 -0.4180
-13 25 2 -0.4268 1.0823
-13 25 3 6.3269 -0.8072
-13 25 4 -1.4155 3.1805
-12 0 2 -16.8334 -5.5832
-12 0 4 0.1892 21.4280
-12 0 6 6.4101 4.6871
-12 0 8 -5.4921 -18.3692
-12 0 10 5.1141 -3.7430
-12 0 12 -3.3413 15.5315
-12 0 14 0.3175 3.0736
-12 0 16 2.0339 -12.1752
-12 0 18 4.7050 -2.5348
-12 0 20 0.3698 8.7922
-12 2 1 5.0208 4.5201
-12 2 2 -11.6027 0.7263
-12 2 3 -0.6422 -0.0188
-12 2 4 5.0645 1.2886
-12 2 5 -4.1897 1.3644
-12 2 6 6.8658 -0.0537
-12 2 7 2.7549 2.4802
-12 2 8 -4.7895 -0.8813
-12 2 9 -5.4493 -0.8692
-12 2 10 2.0648 -0.1697
-12 2 11 1.9517 -1.6036
-12 2 12 -2.6294 0.8536
-12 2 13 -0.5726 0.9938
-12 2 14 0.8238 0.0193
-12 2 15 -1.0622 1.0700
-12 2 16 -1.3017 -0.4293
-12 2 17 1.0020 -0.8627
-12 2 18 5.4627 -0.3384
-12 2 19 1.4445 -1.1593
-12 2 20 1.7909 0.0460
-12 4 1 4.4538 -2.1714
-12 4 2 -6.0555 -1.1742
-12 4 3 -4.9213 2.7864
-12 4 4 2.8991 0.1550
-12 4 5 -1.7109 -3.2205
-12 4 6 8.3556 0.5800
-12 4 7 6.5206 -4.0493
-12 4 8 -7.4551 -1.4957
-12 4 9 -3.1868 1.8254
-12 4 10 1.3528 -0.3368
-12 4 11 2.5752 3.0101
-12 4 12 -2.1156 1.0323
-12 4 13 0.6933 -1.8661
-12 4 14 1.3287 -0.1573
-12 4 15 0.7514 -2.4931
-12 4 16 -0.0307 -0.8198
-12 4 17 0.0607 1.2148
-12 4 18 5.7187 0.4674
-12 4 19 1.0885 1.4592
-12 4 20 1.0973 0.0645
-12 6 1 3.2701 0.0306
-12 6 2 -0.9463 1.2683
-12 6 3 -1.8842 -1.6554
-12 6 4 -1.8590 -2.4052
-12 6 5 -7.5700 1.3681
-12 6 6 5.8725 -0.5587
-12 6 7 5.3359 1.4278
-12 6 8 -8.2357 2.3384
-12 6 9 -5.1567 -0.3662
-12 6 10 1.6582 0.5098
-12 6 11 1.0658 -0.7620
-12 6 12 -2.4034 -1.4819
-12 6 13 -1.0095 0.5997
-12 6 14 0.6176 -0.2240
-12 6 15 -1.8032 0.8070
-12 6 16 -2.7281 1.2414
-12 6 17 0.5048 0.0381
-12 6 18 4.6739 0.7001
-12 6 19 1.9655 -0.6475
-12 6 20 -2.5617 -1.0254
-12 8 1 5.7752 -0.5283
-12 8 2 0.0997 -0.8701
-12 8 3 3.8881 0.2294
-12 8 4 6.3897 0.4890
-12 8 5 -5.3784 0.2020
-12 8 6 3.6882 0.1298
-12 8 7 0.9254 -0.0631
-12 8 8 -4.0557 0.0367
-12 8 9 -1.3854 0.0981
-12 8 10 0.3331 0.1607
-12 8 11 1.9869 0.2737
-12 8 12 -0.1401 -0.0896
-12 8 13 -1.7995 0.1666
-12 8 14 -0.9552 0.1879
-12 8 15 1.2026 -0.1147
-12 8 16 -4.1641 -0.2702
-12 8 17 -0.9523 0.3640
-12 8 18 0.3979 0.1784
-12 8 19 1.2815 -0.0245
-12 10 1 -4.5670 0.5706
-12 10 2 -1.4056 0.7295
-12 10 3 -1.3212 -0.8988
-12 10 4 3.5622 0.8455
-12 10 5 -0.6822 0.5084
-12 10 6 1.9601 -0.0845
-12 10 7 -2.1776 1.6819
-12 10 8 -2.1357 -0.8445
-12 10 9 0.9246 -0.7209
-12 10 10 -1.7721 -0.1080
-12 10 11 0.3225 -1.4809
-12 10 12 3.4095 0.2182
-12 10 13 -1.2603 0.6804
-12 10 14 -1.6768 0.0537
-12 10 15 1.7903 0.6299
-12 10 16 0.5701 -0.0612
-12 10 17 1.1742 -0.4632
-12 10 18 0.6960 -0.2285
-12 10 19 -0.5196 -0.3357
-12 12 1 -3.7208 -0.2067
-12 12 2 -2.0866 -0.5890
-12 12 3 -2.6199 1.1924
-12 12 4 2.9604 0.0534
-12 12 5 1.0628 -1.1977
-12 12 6 1.4634 0.4404
-12 12 7 -3.6022 -1.2933
-12 12 8 -0.0986 -0.9418
-12 12 9 0.4763 0.9735
-12 12 10 -3.2591 0.1026
-12 12 11 -0.7428 1.0790
-12 12 12 1.3346 0.6195
-12 12 13 -2.2402 -0.2741
-12 12 14 -1.7967 0.1226
-12 12 15 -0.1742 -0.8675
-12 12 16 -0.5379 -0.5122
-12 12 17 1.0013 0.0726
-12 12 18 0.1264 -0.0097
-12 14 1 3.4640 0.3188
-12 14 2 0.8688 0.5553
-12 14 3 -5.4061 -1.0839
-12 14 4 2.7600 -0.7857
-12 14 5 1.7231 0.2054
-12 14 6 2.1933 -0.4149
-12 14 7 0.0691 -0.0264
-12 14 8 -1.6294 0.4530
-12 14 9 1.2653 0.3001
-12 14 10 -3.0869 -0.1987
-12 14 11 1.7493 -0.1815
-12 14 12 1.8154 -0.2840
-12 14 13 0.1313 -0.1305
-12 14 14 -1.3375 0.1103
-12 14 15 -0.3269 0.7694
-12 14 16 -1.4126 0.1706
-12 14 17 0.1348 -0.2572
-12 16 1 3.1189 -0.4736
-12 16 2 3.2176 -0.4574
-12 16 3 4.2129 0.3744
-12 16 4 2.9774 -0.3618
-12 16 5 -3.7392 0.2928
-12 16 6 1.9338 0.0583
-12 16 7 -0.9476 -0.5809
-12 16 8 -2.8629 0.9511
-12 16 9 1.2103 0.0507
-12 16 10 -1.5906 0.0787
-12 16 11 -0.3159 0.1343
-12 16 12 0.5408 -0.6547
-12 16 13 2.1580 -0.1155
-12 16 14 -1.0766 -0.5066
-12 16 15 0.1513 -0.9759
-12 16 16 -1.8767 0.4936
-12 18 1 -1.9841 0.3537
-12 18 2 -2.5385 0.3735
-12 18 3 4.5644 -0.4904
-12 18 4 7.7905 0.4538
-12 18 5 -6.2124 0.5796
-12 18 6 3.2790 0.0495
-12 18 7 -1.6916 1.3329
-12 18 8 -6.6188 -0.3014
-12 18 9 2.4129 -0.9688
-12 18 10 -0.5384 -0.4617
-12 18 11 -0.0425 -0.9828
-12 18 12 0.1260 0.3226
-12 18 13 2.5043 0.6579
-12 18 14 -3.2902 0.2654
-12 18 15 1.6464 -1.8745
-12 20 1 -4.5902 0.0150
-12 20 2 -1.1389 -0.5328
-12 20 3 0.3313 1.1151
-12 20 4 0.4509 0.2522
-12 20 5 -1.4747 -0.3057
-12 20 6 2.7571 0.1886
-12 20 7 0.2452 0.0466
-12 20 8 -3.0649 0.1199
-12 20 9 1.7224 0.1106
-12 20 10 -0.6589 0.3254
-12 20 11 -2.6645 0.5345
-12 20 12 1.5386 1.4394
-12 20 13 0.4918 0.6483
-12 22 1 0.4933 0.1491
-12 22 2 -1.0471 -0.2250
-12 22 3 1.9310 -0.6391
-12 22 4 -0.1176 -0.5435
-12 22 5 -1.2782 0.0754
-12 22 6 6.3199 -0.4837
-12 22 7 -0.5168 -0.8768
-12 22 8 1.1368 -1.0633
-12 22 9 3.3286 1.1886
-12 22 10 2.7964 0.5391
-12 22 11 -2.6441 1.5042
-12 24 1 2.9096 -0.8126
-12 24 2 0.4659 -0.0859
-12 24 3 -3.5902 0.8812
-12 24 4 3.2909 -3.2101
-12 24 5 0.8408 0.3296
-12 24 6 0.7762 0.3218
-12 24 7 2.0947 -0.2442
-11 1 1 0.8231 -4.1810
-11 1 2 2.6034 2.2458
-11 1 3 -1.1435 4.2435
-11 1 4 9.6547 -12.1923
-11 1 5 5.0402 -4.0807
-11 1 6 -10.9884 -2.2910
-11 1 7 -0.7594 -6.3046
-11 1 8 5.6334 10.0641
-11 1 9 3.9141 3.1710
-11 1 10 -3.0694 1.9126
-11 1 11 -0.0254 4.5894
-11 1 12 -0.5221 -8.4593
-11 1 13 0.4094 -2.9531
-11 1 14 0.9802 -1.5923
-11 1 15 2.1614 -3.5857
-11 1 16 -1.6768 6.7367
-11 1 17 -1.2968 2.5301
-11 1 18 -1.9238 1.0306
-11 1 19 -0.2101 2.8048
-11 1 20 -3.8018 -4.4956
-11 1 21 1.8018 -2.1100
-11 3 1 -0.4418 -0.8048
-11 3 2 -0.9979 -0.1775
-11 3 3 -0.9095 -4.3094
-11 3 4 1.7280 1.7545
-11 3 5 3.6586 2.8280
-11 3 6 -10.8105 0.1053
-11 3 7 -6.2361 3.8381
-11 3 8 4.7005 -0.7649
-11 3 9 4.1722 -2.1798
-11 3 10 0.9265 -0.1597
-11 3 11 -0.6046 -2.8475
-11 3 12 -1.5785 0.8767
-11 3 13 -1.3807 1.7469
-11 3 14 0.2252 0.2547
-11 3 15 0.9970 2.5233
-11 3 16 1.0801 -0.1658
-11 3 17 -1.1093 -1.3589
-11 3 18 -2.9729 -0.7028
-11 3 19 0.0151 -1.9244
-11 3 20 -3.6791 1.0018
-11 3 21 0.1777 1.6748
-11 5 1 5.8216 1.3304
-11 5 2 -3.5712 0.4904
-11 5 3 3.4320 0.9467
-11 5 4 9.8171 0.0714
-11 5 5 7.0548 0.6189
-11 5 6 -9.9401 -0.4195
-11 5 7 -10.3046 0.5212
-11 5 8 4.9190 0.7835
-11 5 9 3.7288 -0.3046
-11 5 10 1.2396 0.4182
-11 5 11 0.5278 -0.1893
-11 5 12 -2.5440 -0.5377
-11 5 13 -1.6188 0.1805
-11 5 14 -0.0898 -0.1285
-11 5 15 1.4150 0.2340
-11 5 16 1.1889 0.6933
-11 5 17 -2.8035 -0.2259
-11 5 18 -4.2700 -0.2025
-11 5 19 0.4512 -0.6052
-11 5 20 -0.6546 -0.7469
-11 7 1 2.7079 0.1693
-11 7 2 -8.1014 -0.6765
-11 7 3 -6.8366 -0.0587
-11 7 4 8.3530 2.4694
-11 7 5 12.4914 -1.1457
-11 7 6 -4.4722 0.5306
-11 7 7 -5.3938 0.0290
-11 7 8 2.4179 -3.0477
-11 7 9 4.1816 -0.4046
-11 7 10 2.8414 -0.6440
-11 7 11 1.8823 -0.1443
-11 7 12 -1.6180 1.8646
-11 7 13 -0.1598 -0.0994
-11 7 14 1.4386 0.1495
-11 7 15 1.7735 -0.2621
-11 7 16 6.8416 -1.4808
-11 7 17 0.3191 -0.3149
-11 7 18 -1.7078 -0.3736
-11 7 19 -0.5233 0.0639
-11 7 20 1.3715 1.0211
-11 9 1 3.6007 -0.1353
-11 9 2 -6.0273 0.5729
-11 9 3 -7.8410 1.2641
-11 9 4 -1.4207 -1.9525
-11 9 5 2.2078 -0.3999
-11 9 6 -2.5134 -0.1228
-11 9 7 1.0741 -1.2480
-11 9 8 -1.0881 1.5742
-11 9 9 -1.5479 0.8615
-11 9 10 3.6908 0.6200
-11 9 11 0.0144 1.0139
-11 9 12 -2.9614 -0.9652
-11 9 13 -0.4653 -0.5828
-11 9 14 1.5376 -0.2053
-11 9 15 -0.8404 -0.7435
-11 9 16 2.5495 0.6678
-11 9 17 1.0794 0.5975
-11 9 18 1.6421 0.4288
-11 9 19 0.0907 -0.1678
-11 9 20 -0.9773 0.3500
-11 11 1 12.2756 -0.2691
-11 11 2 -2.3322 -0.7288
-11 11 3 -0.8067 -1.0757
-11 11 4 -0.4898 0.1729
-11 11 5 -4.6403 0.2890
-11 11 6 -0.2153 0.0695
-11 11 7 7.1406 0.0424
-11 11 8 -1.3640 0.0289
-11 11 9 -1.2844 -0.1647
-11 11 10 3.5938 -0.2835
-11 11 11 0.3225 -0.1386
-11 11 12 -1.6904 0.0431
-11 11 13 1.2498 0.0510
-11 11 14 0.7452 0.1516
-11 11 15 0.8319 0.2750
-11 11 16 -0.0617 -0.2054
-11 11 17 -1.9733 -0.0815
-11 11 18 0.3868 -0.2808
-11 11 19 -1.1990 -0.2770
-11 13 1 3.3922 -0.1554
-11 13 2 1.2951 0.5373
-11 13 3 3.0034 0.3145
-11 13 4 -2.4805 -0.2100
-11 13 5 -5.6930 0.7964
-11 13 6 -2.0027 -0.3790
-11 13 7 3.4344 0.7915
-11 13 8 0.0549 1.0465
-11 13 9 0.9226 -0.4583
-11 13 10 2.7083 0.2171
-11 13 11 -2.2196 -0.8492
-11 13 12 0.2197 -0.8355
-11 13 13 1.5304 0.2470
-11 13 14 1.1174 -0.3724
-11 13 15 0.7599 0.0431
-11 13 16 1.8148 0.5195
-11 13 17 -0.4136 0.1745
-11 13 18 0.5800 -0.2521
-11 15 1 -4.2107 0.2721
-11 15 2 -4.3337 -0.5539
-11 15 3 0.6282 -0.0627
-11 15 4 -0.1571 1.2756
-11 15 5 0.4580 -0.6626
-11 15 6 -0.1491 0.3893
-11 15 7 -2.6081 0.4936
-11 15 8 -0.5216 -1.6841
-11 15 9 1.2771 -0.1887
-11 15 10 -0.1793 -0.2854
-11 15 11 -1.2345 -0.1191
-11 15 12 0.4846 0.9951
-11 15 13 -1.6707 0.3568
-11 15 14 -0.7566 0.5061
-11 15 15 0.0598 0.4645
-11 15 16 0.6463 -0.8031
-11 15 17 -0.1503 -0.7510
-11 17 1 -1.4883 0.0968
-11 17 2 -3.9297 0.5810
-11 17 3 -8.2469 0.4838
-11 17 4 -5.3858 -0.7684
-11 17 5 5.0368 -0.4495
-11 17 6 0.0231 -0.0636
-11 17 7 1.4584 -0.3424
-11 17 8 2.5748 -0.0167
-11 17 9 -1.1425 0.5985
-11 17 10 -3.3272 0.2537
-11 17 11 -0.0336 0.3289
-11 17 12 2.5881 0.0322
-11 17 13 -1.8541 -0.9595
-11 17 14 1.0891 0.1208
-11 17 15 -1.0776 1.9272
-11 17 16 2.5132 0.6853
-11 19 1 3.3452 0.1528
-11 19 2 0.4493 -0.6017
-11 19 3 0.1570 -0.6926
-11 19 4 -4.4644 -0.1202
-11 19 5 0.5383 -0.4062
-11 19 6 0.8602 0.0769
-11 19 7 1.7476 -1.0353
-11 19 8 5.4922 -0.0955
-11 19 9 -1.3124 0.5931
-11 19 10 -1.4666 -0.5063
-11 19 11 0.2378 0.2243
-11 19 12 1.2210 -0.1342
-11 19 13 -0.9556 -1.0017
-11 19 14 1.4823 -0.2207
-11 21 1 1.5997 -0.1805
-11 21 2 -0.7158 0.6725
-11 21 3 0.9347 -0.0567
-11 21 4 2.5912 -0.4571
-11 21 5 -2.7289 0.5549
-11 21 6 -1.5843 -0.3579
-11 21 7 4.3855 0.4886
-11 21 8 -0.1868 1.2170
-11 21 9 -3.4228 -0.7678
-11 21 10 -1.5363 -1.0965
-11 21 11 3.0925 -1.7308
-11 21 12 -1.1135 -1.5269
-11 23 1 -3.4140 0.3747
-11 23 2 -0.8836 -0.6617
-11 23 3 0.8842 -0.0820
-11 23 4 -1.8129 1.4216
-11 23 5 0.0152 -0.3762
-11 23 6 -3.2129 0.0795
-11 23 7 1.6037 0.6507
-11 23 8 1.5598 2.5331
-11 23 9 -3.7378 -0.8191
-11 23 10 -3.4593 -1.5911
-11 25 1 -0.6459 0.6301
-11 25 2 -3.0729 -0.6786
-11 25 3 0.3784 -0.0763
-11 25 4 -0.3133 0.3564
-11 25 5 -2.5418 -0.0938
-11 25 6 2.2469 0.0377
-10 0 2 7.8733 -4.9645
-10 0 4 -13.2523 22.7662
-10 0 6 3.6362 4.1100
-10 0 8 1.0110 -19.4953
-10 0 10 1.2453 -3.2386
-10 0 12 3.6839 16.4394
-10 0 14 -1.4188 2.7432
-10 0 16 3.5758 -12.8835
-10 0 18 0.6611 -1.9197
-10 0 20 3.7354 9.8661
-10 2 1 -4.7036 4.9948
-10 2 2 7.0444 0.5365
-10 2 3 5.6603 0.0804
-10 2 4 -2.8262 1.3370
-10 2 5 -5.4338 1.5650
-10 2 6 1.2282 0.0201
-10 2 7 -0.1668 2.3502
-10 2 8 0.9496 -0.7565
-10 2 9 -3.3758 -0.9381
-10 2 10 -2.0005 -0.0656
-10 2 11 -1.3530 -1.3827
-10 2 12 3.5667 0.6920
-10 2 13 0.8661 1.1002
-10 2 14 -1.4172 0.1611
-10 2 15 -2.1669 1.1322
-10 2 16 -0.1918 -0.8046
-10 2 17 0.5892 -0.8590
-10 2 18 1.2780 -0.0912
-10 2 19 -1.0432 -0.6419
-10 2 20 3.5025 0.4242
-10 2 21 -1.1770 0.5128
-10 4 1 -9.1089 -2.1675
-10 4 2 2.7413 -1.2897
-10 4 3 1.4302 3.0938
-10 4 4 1.1961 0.1215
-10 4 5 -0.2056 -3.6286
-10 4 6 3.1779 0.5439
-10 4 7 5.6611 -4.5269
-10 4 8 1.5500 -1.6095
-10 4 9 0.2552 2.1626
-10 4 10 -3.6457 -0.3685
-10 4 11 -1.4295 3.0097
-10 4 12 4.8322 0.7336
-10 4 13 3.0295 -1.9743
-10 4 14 -0.2088 -0.0386
-10 4 15 -0.0601 -2.5379
-10 4 16 -0.3627 -1.0295
-10 4 17 1.8095 1.4913
-10 4 18 2.1347 -0.0747
-10 4 19 -1.5965 2.6106
-10 4 20 2.9240 0.8441
-10 4 21 2.8404 -1.9914
-10 6 1 -16.8813 0.0495
-10 6 2 5.1047 1.1811
-10 6 3 -0.3553 -1.5103
-10 6 4 -12.2087 -2.4260
-10 6 5 -9.6298 1.6526
-10 6 6 0.7725 -0.5011
-10 6 7 6.2340 1.1509
-10 6 8 1.0331 2.7312
-10 6 9 -0.6575 -0.4313
-10 6 10 -3.1597 0.4877
-10 6 11 -3.9476 -0.8831
-10 6 12 4.6537 -1.7988
-10 6 13 2.0965 0.3697
-10 6 14 -1.1492 -0.1412
-10 6 15 -1.5509 0.9246
-10 6 16 -4.8552 1.6833
-10 6 17 1.8273 -0.1090
-10 6 18 2.5271 -0.1525
-10 6 19 -1.2439 -0.7127
-10 6 20 1.4879 -0.0984
-10 6 21 4.6489 -0.0673
-10 8 1 -7.6224 -0.6559
-10 8 2 9.6144 -0.8585
-10 8 3 11.9456 0.0068
-10 8 4 -7.7063 0.4695
-10 8 5 -8.1239 0.3056
-10 8 6 -1.6337 -0.1645
-10 8 7 1.5914 -0.3861
-10 8 8 2.9688 0.2806
-10 8 9 0.2879 -0.0778
-10 8 10 -3.6795 -0.0047
-10 8 11 -3.4800 0.4073
-10 8 12 1.6884 -0.0424
-10 8 13 2.4902 -0.1866
-10 8 14 -2.2712 -0.0401
-10 8 15 0.1070 0.0728
-10 8 16 -6.5359 0.3548
-10 8 17 -4.4694 -0.0427
-10 8 18 -2.5032 -0.1017
-10 8 19 -1.1054 0.4710
-10 8 20 0.9934 -0.8045
-10 10 1 -12.9711 0.7793
-10 10 2 8.5953 0.7212
-10 10 3 6.8062 -0.6337
-10 10 4 -1.5847 1.1406
-10 10 5 4.0825 0.5246
-10 10 6 -1.9075 -0.4744
-10 10 7 -4.1009 1.8259
-10 10 8 4.2467 -0.6966
-10 10 9 3.0933 -1.2381
-10 10 10 -1.5979 -0.2760
-10 10 11 -1.2620 -1.4044
-10 10 12 -0.3201 0.2404
-10 10 13 2.3192 0.5278
-10 10 14 0.2946 -0.0735
-10 10 15 0.0847 0.7324
-10 10 16 0.1490 -0.1069
-10 10 17 -1.7287 -0.5437
-10 10 18 -3.2136 -0.2503
-10 10 19 0.1107 -0.0229
-10 12 1 -15.1283 -0.1809
-10 12 2 2.2249 -0.5435
-10 12 3 1.8661 1.4971
-10 12 4 -0.2767 0.2488
-10 12 5 10.2330 -1.1719
-10 12 6 -0.9637 0.5872
-10 12 7 -8.0251 -1.3641
-10 12 8 0.4818 -0.8229
-10 12 9 -0.5173 0.7662
-10 12 10 -0.5121 0.1563
-10 12 11 0.1098 1.2391
-10 12 12 -3.5302 0.7808
-10 12 13 -0.8535 -0.3723
-10 12 14 0.5990 0.1848
-10 12 15 -0.7312 -0.6401
-10 12 16 -1.3600 -0.5112
-10 12 17 -0.0574 0.2080
-10 12 18 -1.2393 0.9860
-10 12 19 0.9419 0.0310
-10 14 1 -2.1605 0.2535
-10 14 2 -0.9029 0.5639
-10 14 3 -1.1220 -0.6162
-10 14 4 0.8203 -0.9125
-10 14 5 6.5838 0.1909
-10 14 6 0.2956 0.1186
-10 14 7 0.0443 -0.0651
-10 14 8 0.1127 0.4159
-10 14 9 -1.8140 0.1220
-10 14 10 0.7376 -0.1336
-10 14 11 1.0862 -0.0745
-10 14 12 -2.7100 -0.2174
-10 14 13 0.2876 -0.2734
-10 14 14 0.6661 0.0380
-10 14 15 0.5573 0.2633
-10 14 16 0.5338 0.4924
-10 14 17 -1.5411 0.1418
-10 14 18 -0.4200 0.3769
-10 16 1 2.0985 -0.5174
-10 16 2 6.3583 -0.6878
-10 16 3 5.4704 0.2947
-10 16 4 2.5086 -0.0311
-10 16 5 -1.3904 0.3902
-10 16 6 -3.7686 -0.0936
-10 16 7 0.2009 -0.5447
-10 16 8 1.1138 1.2110
-10 16 9 0.7465 0.1005
-10 16 10 4.2175 0.2081
-10 16 11 -0.1976 0.4758
-10 16 12 -2.4620 -0.5486
-10 16 13 1.1627 -0.0341
-10 16 14 0.4592 -0.3262
-10 16 15 0.9978 -0.9618
-10 16 16 1.5179 -0.4884
-10 16 17 1.7332 0.2658
-10 18 1 -0.4746 0.0869
-10 18 2 3.2898 0.4623
-10 18 3 4.6199 -0.6633
-10 18 4 8.6650 0.7219
-10 18 5 -1.1315 0.5385
-10 18 6 -3.8096 -0.4680
-10 18 7 -0.9228 1.3473
-10 18 8 -4.5980 -0.2128
-10 18 9 1.0204 -0.9823
-10 18 10 3.7102 0.0343
-10 18 11 1.7092 -0.8098
-10 18 12 -2.1996 -0.2705
-10 18 13 2.0532 1.0467
-10 18 14 -2.5178 0.2327
-10 18 15 -0.2515 -0.5339
-10 20 1 -2.2987 -0.2256
-10 20 2 0.8076 -0.1247
-10 20 3 -4.6275 0.9249
-10 20 4 2.2325 0.3696
-10 20 5 3.3538 -0.4785
-10 20 6 -4.4586 0.3891
-10 20 7 -0.4499 0.0113
-10 20 8 -1.7497 -0.4478
-10 20 9 -0.5681 0.0655
-10 20 10 -0.4958 0.8055
-10 20 11 -0.2951 1.0787
-10 20 12 -0.9649 1.3212
-10 20 13 -0.7566 0.3710
-10 20 14 1.6448 -0.0415
-10 22 1 2.6091 0.7359
-10 22 2 -0.3524 0.3426
-10 22 3 -3.0845 -0.5945
-10 22 4 0.8665 -0.2749
-10 22 5 1.3826 -0.4712
-10 22 6 0.7910 0.2797
-10 22 7 -2.6557 -0.3649
-10 22 8 0.2330 -1.6568
-10 22 9 2.8781 0.8179
-10 22 10 2.0018 0.2956
-10 22 11 -1.2058 1.0141
-10 22 12 0.0938 2.4065
-10 24 1 2.4136 -0.1322
-10 24 2 3.4170 -0.5526
-10 24 3 -3.0337 0.2301
-10 24 4 2.1520 0.9738
-10 24 5 1.1938 0.1378
-10 24 6 -0.8705 -0.2281
-10 24 7 1.1846 -0.1893
-10 24 8 -3.2629 -0.6039
-10 24 9 0.6443 -0.1325
-10 26 1 -2.8431 -0.0606
-10 26 2 3.4478 0.0357
-10 26 3 3.1390 -1.7440
-10 26 4 -1.7192 3.2388
-9 1 1 3.4595 -4.2920
-9 1 2 -9.5124 2.1984
-9 1 3 -3.1609 4.2950
-9 1 4 0.8453 -12.9164
-9 1 5 3.6807 -4.5776
-9 1 6 8.5560 -1.9250
-9 1 7 3.0134 -6.5773
-9 1 8 -7.8279 10.5410
-9 1 9 1.2070 3.6416
-9 1 10 0.4052 1.5639
-9 1 11 1.4958 4.5627
-9 1 12 -2.3612 -8.9956
-9 1 13 -0.0680 -3.2400
-9 1 14 0.6650 -1.3386
-9 1 15 1.1741 -3.8457
-9 1 16 -1.1710 6.9225
-9 1 17 -0.0607 2.7636
-9 1 18 -3.3138 1.3120
-9 1 19 1.1090 2.6491
-9 1 20 -0.1870 -5.7311
-9 1 21 1.3790 -2.0861
-9 3 1 4.0088 -0.9699
-9 3 2 -2.9236 -0.1168
-9 3 3 -5.4244 -4.4294
-9 3 4 -13.4658 1.8907
-9 3 5 -4.4191 3.2683
-9 3 6 9.1991 0.2398
-9 3 7 4.7881 3.8513
-9 3 8 -5.7708 -0.8401
-9 3 9 -1.6448 -2.2718
-9 3 10 3.1533 -0.2509
-9 3 11 1.9209 -2.9664
-9 3 12 -1.7972 0.8756
-9 3 13 -2.0653 1.9082
-9 3 14 0.3349 0.3978
-9 3 15 -0.8405 2.3214
-9 3 16 1.2834 -0.5093
-9 3 17 0.7966 -1.6018
-9 3 18 -2.1163 -0.1463
-9 3 19 1.2182 -2.0733
-9 3 20 -0.8944 0.6090
-9 3 21 0.4552 1.1092
-9 5 1 15.3527 1.4631
-9 5 2 3.1160 0.2421
-9 5 3 7.0065 0.6923
-9 5 4 -5.2453 0.0520
-9 5 5 -6.7516 0.6186
-9 5 6 3.7246 -0.3087
-9 5 7 1.9262 0.5607
-9 5 8 -3.2120 0.8869
-9 5 9 -5.9491 0.0155
-9 5 10 1.0789 0.1921
-9 5 11 2.2921 -0.0992
-9 5 12 -3.7098 -0.4210
-9 5 13 -2.2693 0.3542
-9 5 14 -0.5511 0.0454
-9 5 15 -1.5446 0.2956
-9 5 16 1.0227 0.2004
-9 5 17 -1.9935 -0.3767
-9 5 18 -1.4825 0.2909
-9 5 19 0.4664 -0.1425
-9 5 20 -3.4887 -0.8981
-9 5 21 -2.5848 0.1876
-9 7 1 13.4946 0.0676
-9 7 2 -0.6745 -0.7729
-9 7 3 1.7751 0.0162
-9 7 4 10.4551 2.2588
-9 7 5 4.0325 -1.2955
-9 7 6 5.9283 0.5207
-9 7 7 2.2898 -0.0699
-9 7 8 0.3907 -3.2269
-9 7 9 -2.3969 -0.0785
-9 7 10 -0.2806 -0.8280
-9 7 11 3.9332 -0.1470
-9 7 12 -1.6022 1.9891
-9 7 13 -1.9279 0.1512
-9 7 14 1.8608 0.2318
-9 7 15 -0.6875 -0.1051
-9 7 16 6.9976 -2.0380
-9 7 17 2.7414 -0.3688
-9 7 18 1.4382 -0.4585
-9 7 19 1.2847 0.8104
-9 7 20 -3.3065 1.5788
-9 7 21 -3.7203 -0.6454
-9 9 1 3.9680 -0.0777
-9 9 2 -6.0114 0.7679
-9 9 3 -7.8325 1.2762
-9 9 4 4.8173 -2.2386
-9 9 5 1.2767 -0.3403
-9 9 6 3.7463 0.2193
-9 9 7 1.2455 -1.4819
-9 9 8 -1.1839 1.8138
-9 9 9 -2.7829 1.2939
-9 9 10 -1.4326 0.5321
-9 9 11 1.6803 1.2115
-9 9 12 1.7866 -0.9182
-9 9 13 -3.5870 -0.5536
-9 9 14 1.2712 -0.0735
-9 9 15 -1.4962 -0.4965
-9 9 16 2.4098 0.7401
-9 9 17 5.9062 0.6537
-9 9 18 5.1623 0.6480
-9 9 19 2.1009 -0.1670
-9 9 20 -1.1256 -0.8624
-9 11 1 15.1494 -0.4638
-9 11 2 -7.2712 -0.4648
-9 11 3 -3.6142 -1.4001
-9 11 4 2.6790 -0.1609
-9 11 5 -6.9148 0.4226
-9 11 6 2.9049 0.0947
-9 11 7 4.6241 -0.0307
-9 11 8 0.3321 0.0113
-9 11 9 -1.6180 -0.1034
-9 11 10 -3.1179 -0.2579
-9 11 11 0.4444 0.1133
-9 11 12 3.9225 0.0738
-9 11 13 -1.7738 0.0178
-9 11 14 -1.0632 0.0816
-9 11 15 0.3683 0.2353
-9 11 16 -0.2578 0.1368
-9 11 17 0.9679 -0.0170
-9 11 18 2.3698 -0.1413
-9 11 19 -0.2825 0.3284
-9 13 1 12.4067 -0.1397
-9 13 2 0.5498 0.4230
-9 13 3 -3.9473 -0.0188
-9 13 4 1.3918 0.0614
-9 13 5 -10.0839 0.7949
-9 13 6 -0.6995 -0.8944
-9 13 7 4.2583 0.8960
-9 13 8 2.7543 1.1504
-9 13 9 1.7053 -0.6517
-9 13 10 -0.9923 0.3389
-9 13 11 0.4787 -0.5056
-9 13 12 4.2014 -0.9202
-9 13 13 0.1574 0.1825
-9 13 14 0.3017 -0.2367
-9 13 15 -0.3569 -0.0045
-9 13 16 0.5197 0.2411
-9 13 17 2.9554 0.2097
-9 13 18 0.5210 -0.3867
-9 13 19 0.7875 -0.1713
-9 15 1 3.3684 0.0979
-9 15 2 -0.0309 -0.4286
-9 15 3 -2.6568 -0.4082
-9 15 4 -1.1524 1.3416
-9 15 5 -4.2118 -0.5047
-9 15 6 2.4922 -0.0154
-9 15 7 1.0746 0.2826
-9 15 8 -1.0837 -1.8284
-9 15 9 -0.9843 -0.3928
-9 15 10 -1.5711 -0.2115
-9 15 11 1.0239 -0.2358
-9 15 12 1.5817 1.1064
-9 15 13 -0.6026 0.6592
-9 15 14 0.0400 0.3262
-9 15 15 -1.1793 0.0705
-9 15 16 -4.7273 -0.3495
-9 15 17 1.0927 -0.3300
-9 15 18 0.8283 -0.1478
-9 17 1 0.3638 0.2106
-9 17 2 -4.6262 0.7235
-9 17 3 -6.3906 0.8330
-9 17 4 -7.1856 -0.8757
-9 17 5 -0.2109 -0.3276
-9 17 6 4.6543 0.1989
-9 17 7 3.5445 -0.4481
-9 17 8 1.8479 0.0664
-9 17 9 -3.1499 0.3846
-9 17 10 -2.8445 0.1232
-9 17 11 -0.8406 0.1395
-9 17 12 0.0004 0.1250
-9 17 13 -1.6972 -0.2473
-9 17 14 4.1217 -0.3210
-9 17 15 -0.9248 -0.8476
-9 17 16 -3.1584 1.0519
-9 19 1 0.3619 0.1978
-9 19 2 -1.3313 -0.9051
-9 19 3 0.8536 -0.4440
-9 19 4 -7.3230 -0.1699
-9 19 5 -0.2849 -0.1869
-9 19 6 3.6672 0.4100
-9 19 7 -2.5038 -0.5823
-9 19 8 4.3576 0.0259
-9 19 9 0.9022 0.4429
-9 19 10 1.5081 -0.3278
-9 19 11 -1.4643 0.4328
-9 19 12 -0.2098 0.1475
-9 19 13 -3.7276 0.2598
-9 19 14 2.6445 0.0463
-9 19 15 3.0017 -0.0164
-9 21 1 -1.0916 -0.5438
-9 21 2 1.6126 0.1470
-9 21 3 4.0184 0.2162
-9 21 4 -0.9939 -0.1788
-9 21 5 1.7364 0.7604
-9 21 6 1.3673 -0.4086
-9 21 7 -2.8156 0.6335
-9 21 8 -1.5305 0.7299
-9 21 9 0.1510 -0.6049
-9 21 10 2.8420 0.6250
-9 21 11 1.9545 -0.5250
-9 21 12 0.6723 -2.8541
-9 21 13 1.3311 0.1904
-9 23 1 -6.1256 -0.8778
-9 23 2 1.3067 0.0770
-9 23 3 4.9407 -0.4404
-9 23 4 -3.3913 0.1319
-9 23 5 3.2988 0.3427
-9 23 6 -0.4769 0.4499
-9 23 7 -2.6982 0.1729
-9 23 8 0.9948 -0.9140
-9 23 9 -1.9113 -0.2866
-9 23 10 -1.0792 0.8972
-9 23 11 -0.0881 0.6763
-9 25 1 -0.4169 -0.3017
-9 25 2 -4.9449 2.0970
-9 25 3 2.1186 1.0133
-9 25 4 -0.3145 -3.1401
-9 25 5 -1.0875 -0.7629
-9 25 6 2.3665 0.4070
-9 25 7 -1.5638 0.2350
-9 25 8 2.3681 -2.9971
-8 0 2 -1.0018 -4.5691
-8 0 4 3.9393 24.0000
-8 0 6 -6.8989 3.3724
-8 0 8 8.7598 -20.5925
-8 0 10 2.9965 -2.6999
-8 0 12 -0.2890 17.3600
-8 0 14 0.0854 2.3425
-8 0 16 1.4097 -13.5728
-8 0 18 4.8411 -1.7063
-8 0 20 -1.8267 10.3921
-8 0 22 3.7353 0.7774
-8 2 1 3.6592 5.4127
-8 2 2 -1.1855 0.5231
-8 2 3 2.0209 0.0724
-8 2 4 12.0877 1.3869
-8 2 5 1.7566 1.5003
-8 2 6 -10.8998 0.0077
-8 2 7 -6.6699 2.7048
-8 2 8 6.0598 -0.8671
-8 2 9 0.3438 -0.9772
-8 2 10 0.5784 -0.0424
-8 2 11 -1.5677 -1.4780
-8 2 12 -1.7227 0.9676
-8 2 13 0.2397 1.1602
-8 2 14 -0.6826 0.1863
-8 2 15 0.1720 1.3515
-8 2 16 -1.3857 -0.8246
-8 2 17 -0.9449 -0.8113
-8 2 18 3.3065 -0.1146
-8 2 19 -0.8589 -1.1536
-8 2 20 -2.0743 0.6211
-8 2 21 -2.7902 0.8668
-8 4 1 2.5085 -2.2658
-8 4 2 -2.3575 -1.0697
-8 4 3 -7.2806 2.9437
-8 4 4 18.0870 -0.0774
-8 4 5 17.0308 -4.0186
-8 4 6 -4.4563 0.4343
-8 4 7 -9.0571 -4.4025
-8 4 8 2.9276 -1.8309
-8 4 9 5.9507 2.2911
-8 4 10 -0.1458 -0.3323
-8 4 11 0.0213 2.8984
-8 4 12 -0.5846 0.9655
-8 4 13 0.9633 -2.1666
-8 4 14 0.4737 -0.1394
-8 4 15 3.2553 -2.5399
-8 4 16 0.6715 -1.0256
-8 4 17 -0.2611 1.7286
-8 4 18 -0.2239 0.3977
-8 4 19 1.4600 2.1188
-8 4 20 1.2331 0.2994
-8 4 21 -1.3958 -1.2520
-8 6 1 -5.6327 0.3739
-8 6 2 -3.9387 1.4342
-8 6 3 -19.0917 -1.5352
-8 6 4 -1.2988 -2.4402
-8 6 5 11.8575 1.7585
-8 6 6 -1.8515 -0.1740
-8 6 7 -7.7152 1.3407
-8 6 8 -2.9134 2.7525
-8 6 9 6.1080 -0.5561
-8 6 10 3.1860 0.4375
-8 6 11 -0.4062 -1.1116
-8 6 12 1.4215 -1.7652
-8 6 13 0.0485 0.4804
-8 6 14 -0.0250 0.0431
-8 6 15 2.1418 0.6551
-8 6 16 -1.7437 1.5676
-8 6 17 1.1429 -0.0003
-8 6 18 -2.3055 0.5545
-8 6 19 1.3417 -1.5664
-8 6 20 5.2210 -0.9977
-8 6 21 1.6526 0.5498
-8 8 1 7.3198 -0.4974
-8 8 2 -2.6335 -0.8231
-8 8 3 -4.4350 -0.2124
-8 8 4 -9.6662 0.5994
-8 8 5 -0.1279 0.3321
-8 8 6 -3.1593 0.0257
-8 8 7 -5.4635 -0.1673
-8 8 8 -5.6227 0.0845
-8 8 9 0.9890 0.0969
-8 8 10 2.5836 -0.0190
-8 8 11 0.1811 0.0972
-8 8 12 -1.3566 -0.0238
-8 8 13 0.9408 0.0489
-8 8 14 -2.3123 0.1588
-8 8 15 1.9804 -0.2682
-8 8 16 -4.4510 -0.0172
-8 8 17 -4.9026 0.1171
-8 8 18 -5.8247 0.0970
-8 8 19 -2.2245 0.1155
-8 8 20 2.3374 -0.6829
-8 8 21 3.1659 -0.4659
-8 10 1 3.8747 0.9253
-8 10 2 2.9420 0.3895
-8 10 3 1.1131 -0.6053
-8 10 4 -2.9317 1.1398
-8 10 5 -0.4397 0.4047
-8 10 6 -0.5568 -0.4127
-8 10 7 -0.8011 1.8288
-8 10 8 -3.7131 -0.8578
-8 10 9 2.0457 -1.1407
-8 10 10 2.8499 -0.3255
-8 10 11 2.4369 -1.6362
-8 10 12 -1.4649 0.0930
-8 10 13 1.6558 0.7568
-8 10 14 -0.7524 0.0403
-8 10 15 0.3536 0.4995
-8 10 16 0.9093 -0.5344
-8 10 17 -2.4149 -0.6442
-8 10 18 -4.2116 -1.2605
-8 10 19 -1.0268 -0.7493
-8 10 20 -0.5635 2.7513
-8 12 1 -10.6161 0.0464
-8 12 2 5.5221 -0.6570
-8 12 3 3.5415 1.3957
-8 12 4 -6.0097 0.2497
-8 12 5 5.6476 -1.2632
-8 12 6 1.2482 0.6072
-8 12 7 -2.6626 -1.5446
-8 12 8 -4.8958 -0.9204
-8 12 9 -1.5619 1.0495
-8 12 10 0.4679 0.0568
-8 12 11 1.1676 1.1495
-8 12 12 -1.0617 0.9051
-8 12 13 0.0223 -0.3066
-8 12 14 -0.8855 -0.0472
-8 12 15 -1.0530 -0.5843
-8 12 16 -1.1610 -0.3069
-8 12 17 -1.6456 -0.0773
-8 12 18 -0.2365 -0.1311
-8 12 19 1.3209 0.3780
-8 14 1 -8.4171 0.4699
-8 14 2 0.1024 0.6774
-8 14 3 6.0771 -0.3490
-8 14 4 -3.6545 -1.2953
-8 14 5 5.7609 0.1626
-8 14 6 2.3301 0.2817
-8 14 7 -1.5412 0.0404
-8 14 8 -1.6785 0.4492
-8 14 9 -1.9519 0.1500
-8 14 10 -2.3701 -0.1647
-8 14 11 -0.9138 -0.1542
-8 14 12 -0.6048 -0.3251
-8 14 13 0.3357 -0.1798
-8 14 14 -1.1190 -0.3120
-8 14 15 -0.4194 0.1207
-8 14 16 2.2606 0.4745
-8 14 17 -4.6280 -0.1280
-8 14 18 -0.8384 -0.5070
-8 16 1 -4.4078 -0.6427
-8 16 2 2.2930 -0.6503
-8 16 3 3.9396 0.3078
-8 16 4 1.7281 -0.2956
-8 16 5 2.6651 0.3495
-8 16 6 -3.1204 0.1385
-8 16 7 -4.8524 -0.3599
-8 16 8 0.0320 1.1352
-8 16 9 1.9637 0.3798
-8 16 10 -0.0548 0.2395
-8 16 11 -0.1593 0.7135
-8 16 12 1.0972 -0.5444
-8 16 13 0.4303 -0.4127
-8 16 14 -2.0790 -0.0122
-8 16 15 1.3749 0.1600
-8 16 16 4.9649 -0.8574
-8 16 17 0.6616 -0.5644
-8 18 1 1.7923 -0.1465
-8 18 2 3.4658 0.6753
-8 18 3 3.3570 -0.9390
-8 18 4 5.0139 0.2927
-8 18 5 0.6355 0.5690
-8 18 6 -0.5627 -0.4168
-8 18 7 -2.4903 0.9597
-8 18 8 -5.6084 -0.4669
-8 18 9 1.1176 -0.6158
-8 18 10 -1.0349 -0.1153
-8 18 11 1.7268 -1.1758
-8 18 12 2.5484 -0.5038
-8 18 13 3.8881 0.0576
-8 18 14 -6.6062 0.2078
-8 18 15 -0.0725 1.4256
-8 18 16 3.2568 0.9401
-8 20 1 1.5453 -0.2002
-8 20 2 1.4591 0.1969
-8 20 3 -1.2003 0.4874
-8 20 4 -0.8915 0.4559
-8 20 5 -3.7520 -0.1821
-8 20 6 1.8197 0.0429
-8 20 7 4.9403 -0.8528
-8 20 8 -1.2740 -0.4224
-8 20 9 -0.9780 0.4023
-8 20 10 -5.4395 -0.0672
-8 20 11 -1.5486 0.0969
-8 20 12 1.1305 0.7181
-8 20 13 2.6611 -1.1007
-8 20 14 -0.4306 0.0132
-8 22 1 5.4131 1.0173
-8 22 2 -2.8478 0.4662
-8 22 3 -1.4985 -0.3601
-8 22 4 -1.0796 -0.6230
-8 22 5 -8.5568 -0.4121
-8 22 6 2.7535 -0.3770
-8 22 7 4.4044 -0.2303
-8 22 8 3.1046 0.2442
-8 22 9 3.3898 0.1467
-8 22 10 -3.1392 -1.1826
-8 22 11 -2.5332 -1.1803
-8 22 12 -0.4681 1.2654
-8 22 13 -2.0671 -0.5275
-8 24 1 5.9867 0.2224
-8 24 2 1.0111 -1.0981
-8 24 3 -5.0617 0.9484
-8 24 4 2.4836 0.6763
-8 24 5 -3.8850 0.1279
-8 24 6 -1.5084 -0.3742
-8 24 7 3.3458 -0.1593
-8 24 8 -0.3361 3.8336
-8 24 9 2.0988 -0.2552
-8 24 10 -1.1312 -0.6370
-8 26 1 -0.0326 0.7445
-8 26 2 3.2778 -0.5584
-8 26 3 0.4942 -1.3298
-8 26 4 1.2900 0.5363
-8 26 5 0.4157 1.9022
-8 26 6 -1.7215 0.5576
-7 1 1 -5.3778 -4.3511
-7 1 2 15.8928 1.6868
-7 1 3 -0.9331 4.1105
-7 1 4 -2.4486 -13.4526
-7 1 5 2.4696 -5.0085
-7 1 6 -3.0150 -1.5388
-7 1 7 0.8050 -6.5915
-7 1 8 -1.6193 11.1627
-7 1 9 0.5035 3.8268
-7 1 10 -4.2167 1.2761
-7 1 11 0.2876 4.6167
-7 1 12 0.8297 -9.3856
-7 1 13 0.3332 -3.6283
-7 1 14 1.1774 -1.3407
-7 1 15 0.8671 -3.7423
-7 1 16 -1.0250 7.5450
-7 1 17 -0.2502 2.9693
-7 1 18 -1.8285 0.9452
-7 1 19 0.4485 2.9186
-7 1 20 -0.1846 -6.0230
-7 1 21 2.1858 -1.7808
-7 1 22 2.8851 -0.6306
-7 3 1 -11.1448 -1.0234
-7 3 2 5.8203 -0.1403
-7 3 3 2.6611 -4.2964
-7 3 4 -11.2703 1.9926
-7 3 5 -7.5904 3.5203
-7 3 6 -0.4979 0.1747
-7 3 7 4.7310 3.8200
-7 3 8 0.4344 -0.8089
-7 3 9 0.0401 -2.6760
-7 3 10 -0.0641 -0.1767
-7 3 11 -1.4299 -2.9776
-7 3 12 1.8842 0.9031
-7 3 13 0.3656 2.0823
-7 3 14 1.6395 0.1932
-7 3 15 -1.1561 2.2642
-7 3 16 0.2506 -0.2918
-7 3 17 0.9777 -1.6705
-7 3 18 1.0050 -0.6782
-7 3 19 -1.2634 -1.8394
-7 3 20 0.8220 0.8629
-7 3 21 3.0903 1.1621
-7 3 22 3.5743 0.3852
-7 5 1 -8.0145 1.5858
-7 5 2 -2.6432 0.3207
-7 5 3 18.8952 0.9460
-7 5 4 -7.4683 0.3322
-7 5 5 -16.6446 0.6360
-7 5 6 -7.5307 -0.3921
-7 5 7 3.4334 0.6744
-7 5 8 1.8249 0.8791
-7 5 9 -3.6988 -0.1951
-7 5 10 -0.6265 0.3361
-7 5 11 -2.9470 -0.0330
-7 5 12 -1.6655 -0.4615
-7 5 13 1.0140 0.3359
-7 5 14 0.3125 -0.1241
-7 5 15 -2.2754 0.3009
-7 5 16 -3.1506 0.5842
-7 5 17 -2.0311 -0.1624
-7 5 18 3.6703 -0.2331
-7 5 19 -3.1620 -0.2750
-7 5 20 -2.9780 -0.6319
-7 5 21 0.4181 0.5181
-7 7 1 -15.2577 -0.3250
-7 7 2 0.8516 -0.8991
-7 7 3 16.9869 0.0542
-7 7 4 10.2094 2.2716
-7 7 5 -5.0651 -1.3940
-7 7 6 -2.0711 0.1405
-7 7 7 3.7556 -0.0330
-7 7 8 5.6055 -3.4701
-7 7 9 0.7738 -0.5138
-7 7 10 -0.9783 -0.5052
-7 7 11 -2.7122 -0.0916
-7 7 12 -1.2386 2.0373
-7 7 13 1.3922 -0.0221
-7 7 14 1.6983 -0.1846
-7 7 15 -1.1237 -0.1980
-7 7 16 1.5010 -1.6955
-7 7 17 -0.2597 -0.2997
-7 7 18 5.8194 -0.6000
-7 7 19 0.1588 0.5120
-7 7 20 -3.6751 1.8313
-7 7 21 -2.4844 0.5885
-7 9 1 -22.5144 -0.0306
-7 9 2 4.3448 0.6824
-7 9 3 1.2154 1.4017
-7 9 4 5.6429 -2.0401
-7 9 5 5.4839 -0.5974
-7 9 6 -1.5392 0.1211
-7 9 7 2.1320 -1.3124
-7 9 8 4.8767 1.6946
-7 9 9 1.2134 1.0708
-7 9 10 2.4535 0.6679
-7 9 11 -5.0501 1.1212
-7 9 12 0.0350 -0.8020
-7 9 13 1.4798 -0.8071
-7 9 14 2.3980 -0.2868
-7 9 15 -0.9950 -0.5055
-7 9 16 -0.0306 1.0693
-7 9 17 2.9548 0.6591
-7 9 18 6.0542 1.1649
-7 9 19 2.3700 0.1101
-7 9 20 0.7227 -0.9631
-7 11 1 -5.2298 -0.6134
-7 11 2 -2.4848 -0.2790
-7 11 3 1.4424 -1.2397
-7 11 4 4.5637 -0.2649
-7 11 5 1.4800 0.6050
-7 11 6 -2.1226 0.2315
-7 11 7 -0.5079 0.1676
-7 11 8 3.6030 -0.0493
-7 11 9 0.4849 -0.1029
-7 11 10 2.9556 -0.1356
-7 11 11 -5.8119 -0.2862
-7 11 12 -3.0102 -0.0026
-7 11 13 1.7025 -0.0297
-7 11 14 1.0323 0.1128
-7 11 15 1.3354 0.2071
-7 11 16 -0.7197 0.0131
-7 11 17 0.2117 0.1606
-7 11 18 1.1793 0.5049
-7 11 19 -1.8686 0.6921
-7 11 20 0.5029 -1.0081
-7 13 1 4.0838 -0.2526
-7 13 2 -7.3779 0.5437
-7 13 3 -5.2307 0.1380
-7 13 4 10.3662 -0.1279
-7 13 5 -3.7048 0.9236
-7 13 6 -4.5272 -0.3815
-7 13 7 0.3440 0.7444
-7 13 8 2.2730 1.3907
-7 13 9 4.6317 -0.3195
-7 13 10 5.9039 0.2244
-7 13 11 -1.9307 -0.5904
-7 13 12 -2.0627 -1.2121
-7 13 13 0.8376 -0.0436
-7 13 14 1.2019 0.2295
-7 13 15 2.3184 0.2022
-7 13 16 1.2352 0.1678
-7 13 17 4.3675 0.2706
-7 13 18 -0.0063 0.3152
-7 13 19 -2.5966 -1.5940
-7 15 1 5.4376 0.1867
-7 15 2 -4.3674 -0.5079
-7 15 3 -4.6632 -0.6070
-7 15 4 3.7570 1.4055
-7 15 5 -2.6853 -0.4374
-7 15 6 -0.7236 0.0873
-7 15 7 0.9859 0.0504
-7 15 8 0.0427 -1.6640
-7 15 9 2.9007 -0.2275
-7 15 10 3.3635 -0.3935
-7 15 11 0.1251 -0.3211
-7 15 12 -0.0685 0.9975
-7 15 13 0.2111 0.2980
-7 15 14 -1.3966 0.3932
-7 15 15 1.6620 0.4845
-7 15 16 -1.9766 0.0975
-7 15 17 2.2399 -0.2254
-7 15 18 2.6457 0.1998
-7 17 1 0.0090 0.7358
-7 17 2 -3.9370 0.4729
-7 17 3 -2.5519 1.0160
-7 17 4 -0.2317 -0.3516
-7 17 5 -2.2711 -0.4368
-7 17 6 1.7165 -0.1585
-7 17 7 5.1188 -0.5028
-7 17 8 4.8389 0.3598
-7 17 9 0.9744 0.2269
-7 17 10 -0.0958 0.1712
-7 17 11 -1.6501 0.2378
-7 17 12 -1.4656 -0.2297
-7 17 13 -0.4155 -0.4265
-7 17 14 2.3478 -0.3902
-7 17 15 -2.0606 -0.7751
-7 17 16 -1.3195 0.2264
-7 17 17 -1.6329 0.8942
-7 19 1 -5.6783 0.2701
-7 19 2 -4.7573 -0.9030
-7 19 3 -1.1075 -0.1551
-7 19 4 2.0588 -0.2130
-7 19 5 0.6049 -0.2199
-7 19 6 -3.0283 0.2039
-7 19 7 -0.3414 -0.1370
-7 19 8 6.4893 0.2683
-7 19 9 1.7994 0.1822
-7 19 10 2.7314 -0.1792
-7 19 11 -0.8551 0.8825
-7 19 12 -2.3475 0.8624
-7 19 13 -3.1866 0.3232
-7 19 14 3.5482 0.4606
-7 19 15 1.9086 1.3842
-7 19 16 -2.1792 -2.5473
-7 21 1 -3.1149 -0.3913
-7 21 2 -2.5562 0.3249
-7 21 3 -0.4896 0.6760
-7 21 4 7.4929 -0.5761
-7 21 5 6.6643 0.3174
-7 21 6 -4.1933 -0.2505
-7 21 7 -3.7330 0.7708
-7 21 8 -2.5044 1.3124
-7 21 9 -1.6256 -0.1955
-7 21 10 5.1115 0.2788
-7 21 11 2.4079 0.2736
-7 21 12 -0.2885 -0.4634
-7 21 13 1.1967 0.6599
-7 21 14 -1.3051 -0.7164
-7 23 1 -6.2289 -0.4299
-7 23 2 0.6533 -0.5054
-7 23 3 2.3318 -0.8709
-7 23 4 1.0348 0.9363
-7 23 5 7.5271 0.1758
-7 23 6 -0.2714 0.4844
-7 23 7 -2.8549 -0.1985
-7 23 8 -3.7173 -1.9013
-7 23 9 -5.4626 0.7542
-7 23 10 2.4859 0.0604
-7 23 11 -0.0634 1.2148
-7 23 12 0.4836 2.5357
-7 25 1 -2.4221 0.2789
-7 25 2 -2.8877 0.0423
-7 25 3 3.7408 0.2444
-7 25 4 -1.9327 0.0916
-7 25 5 -0.0029 -1.0604
-7 25 6 2.9475 -0.5250
-7 25 7 -0.2175 -0.2047
-7 25 8 -0.7015 -4.3361
-7 25 9 -1.7383 -0.2712
-7 27 1 -0.7789 -1.5533
-7 27 2 -0.7142 -1.5604
-7 27 3 -0.6905 -0.8752
-7 27 4 -4.5008 3.0259
-6 0 2 -3.9827 -3.2314
-6 0 4 -12.8963 24.9306
-6 0 6 15.4524 2.3688
-6 0 8 -3.2687 -21.4599
-6 0 10 3.4845 -2.0401
-6 0 12 2.5430 18.0863
-6 0 14 -1.3230 1.8044
-6 0 16 3.0426 -14.3137
-6 0 18 -0.6262 -1.2741
-6 0 20 4.8847 10.8580
-6 0 22 -10.0003 0.6671
-6 2 1 3.5019 5.3660
-6 2 2 -2.5057 0.9758
-6 2 3 9.7277 0.3264
-6 2 4 -5.2879 1.6882
-6 2 5 -6.8198 1.7877
-6 2 6 8.3655 -0.0818
-6 2 7 3.2622 2.6109
-6 2 8 -4.3244 -0.9593
-6 2 9 -2.6371 -1.1715
-6 2 10 0.5376 0.0618
-6 2 11 1.7828 -1.3875
-6 2 12 1.0328 0.8830
-6 2 13 -0.2019 1.4307
-6 2 14 -2.0500 0.1460
-6 2 15 -1.7778 1.3251
-6 2 16 -0.4968 -0.8226
-6 2 17 0.1531 -1.0797
-6 2 18 -1.2602 -0.1040
-6 2 19 0.1908 -1.1793
-6 2 20 2.3114 0.8774
-6 2 21 -2.3861 0.6957
-6 2 22 -10.9464 0.0288
-6 4 1 -4.5218 -2.7578
-6 4 2 5.9877 -1.3923
-6 4 3 -0.7618 2.6795
-6 4 4 7.0797 -0.0626
-6 4 5 1.3533 -4.1655
-6 4 6 10.7580 0.2534
-6 4 7 5.5592 -4.4674
-6 4 8 -2.1479 -1.8498
-6 4 9 -3.3144 2.5654
-6 4 10 -3.7406 -0.1952
-6 4 11 3.7058 3.0640
-6 4 12 2.8104 0.9159
-6 4 13 -0.8635 -2.3754
-6 4 14 -1.5602 -0.3774
-6 4 15 0.3641 -2.4879
-6 4 16 1.3481 -0.9466
-6 4 17 0.4245 1.6415
-6 4 18 -2.4614 0.2095
-6 4 19 1.7572 2.5587
-6 4 20 0.8262 0.5454
-6 4 21 -0.4127 -1.4909
-6 4 22 -5.2274 -0.6424
-6 6 1 8.7653 0.0951
-6 6 2 7.2076 1.1774
-6 6 3 -10.8963 -1.4829
-6 6 4 -0.4563 -2.6579
-6 6 5 0.6557 1.6644
-6 6 6 8.7102 -0.0689
-6 6 7 10.1387 1.1802
-6 6 8 0.3050 2.9202
-6 6 9 -2.8739 -0.4848
-6 6 10 -2.3291 0.3259
-6 6 11 3.1935 -0.8203
-6 6 12 5.3054 -1.8333
-6 6 13 -0.8107 0.4309
-6 6 14 -1.2176 -0.0160
-6 6 15 -0.2812 0.9245
-6 6 16 2.0485 1.7399
-6 6 17 3.4288 -0.2952
-6 6 18 -3.1445 -0.0459
-6 6 19 0.9968 -0.8174
-6 6 20 2.3725 -0.7417
-6 6 21 2.0666 -0.0619
-6 8 1 23.5911 -0.5620
-6 8 2 -1.0660 -0.5049
-6 8 3 1.1366 -0.1893
-6 8 4 -7.5809 0.6812
-6 8 5 -10.6712 0.6596
-6 8 6 0.0874 -0.0288
-6 8 7 3.0134 -0.2229
-6 8 8 0.1683 0.3587
-6 8 9 -5.3206 0.1673
-6 8 10 -6.0588 -0.0085
-6 8 11 4.1030 0.4779
-6 8 12 1.4987 -0.0855
-6 8 13 -2.0425 0.0427
-6 8 14 -2.4760 0.1269
-6 8 15 0.1334 0.1183
-6 8 16 -1.0122 0.1730
-6 8 17 -0.5848 0.0872
-6 8 18 -4.6233 -0.1885
-6 8 19 -2.8524 0.6493
-6 8 20 0.0144 -0.7824
-6 8 21 1.5306 -1.2858
-6 10 1 14.7440 0.7159
-6 10 2 -4.9027 0.6224
-6 10 3 3.0712 -0.7081
-6 10 4 0.6769 1.1184
-6 10 5 -10.0803 0.6379
-6 10 6 -0.3678 -0.4734
-6 10 7 1.4366 1.6649
-6 10 8 0.2485 -0.5707
-6 10 9 -0.8127 -1.4350
-6 10 10 -7.3591 -0.2807
-6 10 11 6.9057 -1.1700
-6 10 12 2.7144 0.0465
-6 10 13 -3.4919 0.8368
-6 10 14 -1.7744 0.0662
-6 10 15 -0.3443 0.6965
-6 10 16 1.9475 -0.4330
-6 10 17 -0.8957 -0.7983
-6 10 18 -2.2474 -0.5149
-6 10 19 -0.8415 -1.2674
-6 10 20 -1.1672 -0.2662
-6 12 1 2.3958 -0.0097
-6 12 2 4.3622 -0.8104
-6 12 3 -2.3103 1.2566
-6 12 4 -7.8625 0.7886
-6 12 5 1.0069 -1.5756
-6 12 6 0.6225 0.2088
-6 12 7 1.0607 -1.3721
-6 12 8 1.2671 -1.1228
-6 12 9 -3.1713 0.7721
-6 12 10 -6.8205 0.1316
-6 12 11 5.5845 1.2510
-6 12 12 4.0938 1.2132
-6 12 13 -2.2971 -0.3215
-6 12 14 -0.5541 -0.0272
-6 12 15 -2.0556 -0.4883
-6 12 16 -0.4239 -0.3746
-6 12 17 -1.5407 0.1675
-6 12 18 0.6247 1.0252
-6 12 19 2.1611 0.7840
-6 12 20 0.6069 -2.5982
-6 14 1 1.2659 0.4124
-6 14 2 8.8775 0.4352
-6 14 3 3.6880 -0.2990
-6 14 4 -7.4207 -0.9386
-6 14 5 3.0059 -0.0405
-6 14 6 2.6249 -0.1609
-6 14 7 1.3271 0.2129
-6 14 8 1.1756 0.1253
-6 14 9 -4.5376 -0.1358
-6 14 10 -6.0189 0.0117
-6 14 11 0.8531 -0.3711
-6 14 12 -0.2786 -0.1605
-6 14 13 -0.7831 -0.0479
-6 14 14 1.7543 -0.2681
-6 14 15 -4.0524 -0.0817
-6 14 16 -0.4880 -0.0791
-6 14 17 -3.1775 0.3239
-6 14 18 -1.9888 0.0152
-6 14 19 1.3266 0.8059
-6 16 1 -2.1830 -0.9014
-6 16 2 3.4381 -0.5781
-6 16 3 1.1585 0.2674
-6 16 4 -0.6242 -0.2668
-6 16 5 2.7116 0.3225
-6 16 6 -2.4490 0.1506
-6 16 7 -0.9320 -0.3107
-6 16 8 -3.2118 0.8527
-6 16 9 -3.3837 0.3752
-6 16 10 -0.2532 0.2622
-6 16 11 0.5849 0.8559
-6 16 12 -1.5380 -0.1373
-6 16 13 -1.7192 -0.2922
-6 16 14 3.9027 0.3080
-6 16 15 -1.0389 -0.2904
-6 16 16 -1.6444 -0.4204
-6 16 17 2.6446 0.3550
-6 16 18 -2.8440 0.1825
-6 18 1 6.3890 -0.3022
-6 18 2 1.4314 0.5821
-6 18 3 1.8293 -0.9615
-6 18 4 -0.1354 0.0601
-6 18 5 1.5421 0.3006
-6 18 6 -1.5199 -0.1243
-6 18 7 -3.0771 1.1152
-6 18 8 -9.1809 -0.3163
-6 18 9 -3.3308 -0.8142
-6 18 10 0.5832 -0.3131
-6 18 11 1.8723 -1.0678
-6 18 12 1.2597 -0.2089
-6 18 13 0.0913 0.6587
-6 18 14 -1.2640 -0.1251
-6 18 15 0.9773 0.1042
-6 18 16 -0.1132 2.0558
-6 20 1 5.2780 -0.0644
-6 20 2 3.9815 -0.4754
-6 20 3 -0.4113 0.4385
-6 20 4 -4.8833 1.0513
-6 20 5 -1.0251 -0.4721
-6 20 6 1.0502 0.3635
-6 20 7 1.5690 -0.8170
-6 20 8 -4.2703 -0.7986
-6 20 9 -2.4236 0.3112
-6 20 10 -2.1956 0.2198
-6 20 11 -0.0030 0.1764
-6 20 12 0.9947 -0.3583
-6 20 13 0.5662 -0.0241
-6 20 14 0.1176 -0.4938
-6 20 15 -4.1522 -3.8238
-6 22 1 3.4641 0.8146
-6 22 2 2.0942 -0.0548
-6 22 3 -1.0928 -0.5812
-6 22 4 -6.0907 -0.4559
-6 22 5 -5.5249 -0.3083
-6 22 6 -0.3600 0.1107
-6 22 7 2.4368 -0.0163
-6 22 8 3.7104 -0.7809
-6 22 9 3.0848 -0.5992
-6 22 10 -2.2933 -0.0078
-6 22 11 0.0003 -1.0723
-6 22 12 -1.4827 -1.6843
-6 22 13 -2.2137 -0.2061
-6 24 1 2.7031 -0.4608
-6 24 2 2.2823 -0.1275
-6 24 3 -5.1769 0.9613
-6 24 4 0.6139 -0.1961
-6 24 5 -1.5540 0.0773
-6 24 6 -3.6956 0.0609
-6 24 7 1.8021 0.0728
-6 24 8 2.5307 2.9329
-6 24 9 3.3176 -0.3166
-6 24 10 -1.2714 0.3453
-6 24 11 1.9369 0.5078
-6 26 1 1.3383 -0.1051
-6 26 2 2.5617 1.5765
-6 26 3 -2.8196 -0.1833
-6 26 4 2.0687 -2.1805
-6 26 5 2.1211 0.9257
-6 26 6 -1.1137 0.3042
-6 26 7 -0.6791 1.5269
-5 1 1 -1.7791 -4.1553
-5 1 2 -54.9630 0.6292
-5 1 3 -18.8992 3.9938
-5 1 4 21.5917 -13.8882
-5 1 5 8.1629 -5.3750
-5 1 6 -9.1716 -0.8747
-5 1 7 -3.6060 -6.5416
-5 1 8 2.2750 11.5024
-5 1 9 0.2684 4.4419
-5 1 10 -0.2353 0.8977
-5 1 11 -0.7467 4.7031
-5 1 12 -2.9934 -9.8314
-5 1 13 -0.7587 -4.1576
-5 1 14 0.2383 -0.7886
-5 1 15 1.9230 -3.7996
-5 1 16 -0.8102 7.6681
-5 1 17 -0.5485 3.3937
-5 1 18 -0.3368 0.8782
-5 1 19 -0.0911 2.9464
-5 1 20 -4.8531 -6.4200
-5 1 21 1.0109 -1.8360
-5 1 22 13.1720 -0.3548
-5 3 1 30.2903 -1.2144
-5 3 2 -29.8015 -0.1301
-5 3 3 -24.7972 -4.3847
-5 3 4 -1.0252 1.5159
-5 3 5 12.9819 3.7829
-5 3 6 -3.8011 0.2566
-5 3 7 -6.4328 3.6079
-5 3 8 2.8745 -0.8112
-5 3 9 4.7907 -2.7277
-5 3 10 4.1610 -0.2209
-5 3 11 -2.0802 -2.9958
-5 3 12 -2.3640 0.7808
-5 3 13 -0.5270 2.2101
-5 3 14 0.4000 0.5728
-5 3 15 1.6753 2.3251
-5 3 16 2.7284 -0.6308
-5 3 17 0.5506 -1.8922
-5 3 18 0.1380 -0.3065
-5 3 19 0.0520 -1.9013
-5 3 20 -2.0014 0.8860
-5 3 21 -0.0083 1.0541
-5 3 22 11.7789 0.3241
-5 5 1 31.3109 2.3571
-5 5 2 -12.0344 0.6749
-5 5 3 -9.6372 0.9828
-5 5 4 -12.5857 0.5940
-5 5 5 9.7614 0.9741
-5 5 6 -8.1617 -0.2846
-5 5 7 -16.6198 0.6259
-5 5 8 -2.8398 1.0238
-5 5 9 4.2478 -0.1055
-5 5 10 5.1686 0.1996
-5 5 11 -0.9051 -0.2493
-5 5 12 -6.2636 -0.6195
-5 5 13 -0.6405 0.4628
-5 5 14 0.2840 0.3085
-5 5 15 0.7071 0.4269
-5 5 16 -0.6752 0.3577
-5 5 17 -1.7035 -0.3013
-5 5 18 -0.6717 0.3700
-5 5 19 -0.2362 -0.4580
-5 5 20 -1.1854 -0.6645
-5 5 21 -2.0670 0.1881
-5 5 22 3.0268 -0.0320
-5 7 1 -6.8551 0.0439
-5 7 2 -4.7095 -0.9568
-5 7 3 -8.9920 -0.1555
-5 7 4 -2.2713 2.3348
-5 7 5 14.7248 -1.1451
-5 7 6 1.0424 0.1069
-5 7 7 -15.4165 -0.1673
-5 7 8 -6.8779 -3.3840
-5 7 9 4.6824 -0.3412
-5 7 10 4.2099 -0.5647
-5 7 11 -0.5566 -0.3452
-5 7 12 -4.3515 1.9883
-5 7 13 -1.2384 0.0323
-5 7 14 0.8963 0.0720
-5 7 15 1.3412 -0.3159
-5 7 16 1.4856 -2.1412
-5 7 17 -2.2350 -0.3581
-5 7 18 -0.1459 -0.1429
-5 7 19 1.7538 0.1485
-5 7 20 -0.5340 1.6867
-5 7 21 -1.0988 0.1920
-5 9 1 -11.1256 0.1393
-5 9 2 0.2251 0.2357
-5 9 3 -14.1755 1.5947
-5 9 4 -3.3230 -2.1229
-5 9 5 18.7145 -1.0814
-5 9 6 6.6911 0.1620
-5 9 7 -3.6905 -1.3993
-5 9 8 -3.5380 1.6066
-5 9 9 2.3958 1.3956
-5 9 10 7.6382 0.3339
-5 9 11 -2.4429 0.9759
-5 9 12 -0.8524 -0.8707
-5 9 13 1.4694 -0.9038
-5 9 14 2.1448 -0.0409
-5 9 15 0.3062 -0.7104
-5 9 16 0.8966 0.8540
-5 9 17 1.3465 0.8663
-5 9 18 0.4293 0.3553
-5 9 19 3.4361 0.3621
-5 9 20 0.8565 -0.3837
-5 9 21 1.1072 -0.0397
-5 11 1 0.3294 -0.5309
-5 11 2 3.5667 -0.5720
-5 11 3 1.0676 -1.1187
-5 11 4 -3.6304 -0.3791
-5 11 5 5.6683 0.5945
-5 11 6 6.7604 0.0601
-5 11 7 -2.9214 0.1021
-5 11 8 -2.7151 -0.0659
-5 11 9 0.8986 -0.0336
-5 11 10 4.4827 -0.3032
-5 11 11 -4.3585 -0.1059
-5 11 12 -3.0929 -0.0443
-5 11 13 0.9452 -0.0065
-5 11 14 0.9577 -0.0489
-5 11 15 0.9895 0.0304
-5 11 16 -1.2736 0.0508
-5 11 17 0.3573 0.1714
-5 11 18 -1.3219 -1.3015
-5 11 19 0.8058 0.7644
-5 11 20 -0.6235 2.5875
-5 13 1 -4.4980 -0.1840
-5 13 2 -3.6429 0.6857
-5 13 3 4.4792 0.1897
-5 13 4 5.5353 -0.3180
-5 13 5 -3.2827 1.0103
-5 13 6 2.0781 -0.2346
-5 13 7 -1.5219 0.6984
-5 13 8 -4.5743 1.4829
-5 13 9 2.6552 -0.4810
-5 13 10 4.9225 0.1413
-5 13 11 -1.8796 -0.1094
-5 13 12 -0.5966 -1.1492
-5 13 13 -0.2358 0.2340
-5 13 14 -0.1828 -0.0597
-5 13 15 2.5650 0.1008
-5 13 16 -0.2365 0.6651
-5 13 17 1.7335 -0.5836
-5 13 18 0.1428 -0.8251
-5 13 19 0.5169 -1.0852
-5 15 1 -2.8926 0.0302
-5 15 2 -2.9858 -0.3445
-5 15 3 0.5496 -0.5373
-5 15 4 -0.4620 1.3420
-5 15 5 -3.9423 -0.3819
-5 15 6 0.4804 0.2576
-5 15 7 -2.3299 0.3505
-5 15 8 -0.0539 -1.6125
-5 15 9 1.2292 -0.4924
-5 15 10 1.9940 -0.3434
-5 15 11 0.8217 -0.3531
-5 15 12 2.9286 1.1668
-5 15 13 1.3513 0.8690
-5 15 14 -3.2472 -0.0116
-5 15 15 4.0649 0.4342
-5 15 16 0.8588 -0.2370
-5 15 17 -1.7186 -0.9190
-5 15 18 3.5403 -0.2488
-5 17 1 -1.4321 0.6459
-5 17 2 3.4080 0.5456
-5 17 3 -0.8502 1.0626
-5 17 4 -0.5883 -0.2942
-5 17 5 -2.4203 -0.4088
-5 17 6 3.2144 -0.0331
-5 17 7 1.5223 -0.5396
-5 17 8 6.6641 0.2683
-5 17 9 2.3524 0.5113
-5 17 10 -0.5270 0.2389
-5 17 11 -0.4317 -0.3184
-5 17 12 0.4974 -0.5076
-5 17 13 2.2920 -0.0422
-5 17 14 -2.0527 -0.5405
-5 17 15 -0.5970 -0.6135
-5 17 16 2.1688 -1.1750
-5 17 17 -3.4861 -0.8921
-5 19 1 -6.8749 0.0974
-5 19 2 2.1368 -0.5959
-5 19 3 -1.7859 -0.6314
-5 19 4 -1.3811 -0.2447
-5 19 5 0.0089 0.1943
-5 19 6 2.7445 0.2203
-5 19 7 1.3769 -0.3234
-5 19 8 9.6312 -0.3985
-5 19 9 2.8234 0.4580
-5 19 10 0.2719 0.0146
-5 19 11 -0.1341 0.3555
-5 19 12 -2.3861 0.7356
-5 19 13 -0.8923 -0.4234
-5 19 14 1.2945 0.8944
-5 19 15 1.7842 1.4431
-5 19 16 -2.3155 -2.1413
-5 21 1 -2.2635 -0.5162
-5 21 2 -1.4107 1.0046
-5 21 3 1.9037 0.2723
-5 21 4 3.8896 -0.7692
-5 21 5 2.0091 0.3805
-5 21 6 3.0636 -0.4571
-5 21 7 -2.3059 0.8295
-5 21 8 2.4406 1.2703
-5 21 9 1.2123 -0.3464
-5 21 10 0.8424 0.1091
-5 21 11 0.4878 0.0317
-5 21 12 0.0784 0.1278
-5 21 13 -0.2896 -0.7442
-5 21 14 0.8351 -0.1250
-5 23 1 -2.1133 -0.4212
-5 23 2 -2.5117 0.1005
-5 23 3 3.3529 -0.8023
-5 23 4 2.0734 0.8044
-5 23 5 3.8379 0.3278
-5 23 6 4.2977 0.2305
-5 23 7 -3.1698 0.2452
-5 23 8 -1.0921 -1.1142
-5 23 9 -2.1748 0.3135
-5 23 10 -0.0286 -0.1895
-5 23 11 -1.6590 0.6526
-5 23 12 2.0857 3.6769
-5 25 1 -0.3107 0.8522
-5 25 2 -3.8081 0.3151
-5 25 3 4.8899 0.1036
-5 25 4 0.2398 0.1712
-5 25 5 -0.9855 -0.2448
-5 25 6 2.6333 -0.2531
-5 25 7 -3.2228 -0.7666
-5 25 8 -1.6383 -1.4421
-5 25 9 0.6469 -1.0689
-5 27 1 -3.5971 0.4780
-5 27 2 -2.7607 -1.2870
-5 27 3 2.7861 -2.2307
-5 27 4 -1.8984 3.3845
-5 27 5 -0.3242 0.9675
-4 0 2 122.2516 -2.4763
-4 0 4 -20.4934 25.1443
-4 0 6 -2.8589 1.3347
-4 0 8 6.2063 -21.9468
-4 0 10 0.4321 -1.3190
-4 0 12 1.5700 18.6995
-4 0 14 0.9803 1.1557
-4 0 16 1.0340 -14.8278
-4 0 18 3.0738 -0.7484
-4 0 20 1.9124 11.2500
-4 0 22 -8.5675 0.4153
-4 2 1 -9.5654 6.0278
-4 2 2 87.2464 0.9569
-4 2 3 44.8620 0.6145
-4 2 4 -0.2478 2.0143
-4 2 5 -12.8142 1.5268
-4 2 6 -8.1174 -0.1132
-4 2 7 1.6036 2.5717
-4 2 8 2.8865 -0.9685
-4 2 9 0.4843 -1.3038
-4 2 10 -0.7138 -0.0937
-4 2 11 -0.2035 -1.5414
-4 2 12 0.1127 1.1699
-4 2 13 2.2737 1.4658
-4 2 14 1.1784 0.0662
-4 2 15 -2.1449 1.2447
-4 2 16 -2.5148 -0.8453
-4 2 17 0.0049 -0.9498
-4 2 18 1.8257 -0.1332
-4 2 19 -0.0393 -1.2499
-4 2 20 1.5410 0.6707
-4 2 21 -0.2092 0.8060
-4 2 22 -9.7593 0.1017
-4 4 1 -74.2641 -2.2409
-4 4 2 29.6694 -1.4049
-4 4 3 28.1559 2.8191
-4 4 4 21.0000 -0.0168
-4 4 5 -11.0988 -4.5065
-4 4 6 -3.2498 0.2155
-4 4 7 5.0676 -4.2593
-4 4 8 2.5357 -1.8559
-4 4 9 -2.4645 2.8002
-4 4 10 -4.5134 -0.2698
-4 4 11 -2.1492 3.0278
-4 4 12 2.0023 1.1073
-4 4 13 1.4738 -2.6173
-4 4 14 0.9514 -0.3579
-4 4 15 -0.3712 -2.8288
-4 4 16 -2.0180 -1.1243
-4 4 17 -0.8876 2.1668
-4 4 18 1.8006 0.1725
-4 4 19 -0.9028 2.3990
-4 4 20 0.7264 0.1670
-4 4 21 1.7504 -1.3569
-4 4 22 -4.6822 -0.1635
-4 6 1 -34.6563 -0.6940
-4 6 2 3.5474 1.1454
-4 6 3 16.8070 -1.2869
-4 6 4 17.5918 -3.2915
-4 6 5 -8.7303 1.2344
-4 6 6 -1.0343 0.0804
-4 6 7 15.4734 1.1047
-4 6 8 9.3439 2.7535
-4 6 9 0.6878 -0.5679
-4 6 10 -1.1224 0.1548
-4 6 11 -3.5414 -0.8689
-4 6 12 4.0943 -1.8889
-4 6 13 3.5522 0.4754
-4 6 14 0.7463 0.0991
-4 6 15 -0.8968 0.5818
-4 6 16 -0.2554 1.7030
-4 6 17 1.7039 -0.1997
-4 6 18 2.8430 -0.0708
-4 6 19 -0.2664 -1.0158
-4 6 20 0.5605 -1.2305
-4 6 21 0.9295 0.5132
-4 6 22 1.1891 0.6096
-4 8 1 4.6718 -0.6607
-4 8 2 7.7851 -0.4063
-4 8 3 17.6350 -0.2044
-4 8 4 8.1534 0.6681
-4 8 5 -15.4039 0.6713
-4 8 6 -10.0431 -0.0180
-4 8 7 5.7523 -0.1103
-4 8 8 6.6655 0.2211
-4 8 9 0.3491 0.1376
-4 8 10 -2.3677 0.0842
-4 8 11 -1.8468 0.2724
-4 8 12 0.2233 -0.0661
-4 8 13 2.5993 0.0858
-4 8 14 -0.2574 0.0569
-4 8 15 -0.9167 0.0625
-4 8 16 -3.4519 0.2652
-4 8 17 -0.0938 -0.0104
-4 8 18 2.1547 0.1189
-4 8 19 -2.4103 0.4199
-4 8 20 0.0117 -0.1666
-4 8 21 -2.0406 0.0718
-4 10 1 -2.7747 0.7824
-4 10 2 3.5321 0.9462
-4 10 3 8.6353 -1.0116
-4 10 4 11.8852 0.9282
-4 10 5 -12.4650 1.0155
-4 10 6 -12.5897 -0.1676
-4 10 7 1.7381 1.6585
-4 10 8 -1.3366 -0.5747
-4 10 9 -0.0571 -1.4394
-4 10 10 -1.5724 -0.0544
-4 10 11 -0.9744 -1.4917
-4 10 12 0.6851 0.1134
-4 10 13 1.8905 0.8993
-4 10 14 -1.5246 0.0139
-4 10 15 -0.6812 0.7928
-4 10 16 -0.8858 -0.3981
-4 10 17 -1.3156 -1.1686
-4 10 18 2.4061 0.0862
-4 10 19 -2.7643 -1.6091
-4 10 20 0.8606 0.2161
-4 10 21 -0.7633 1.9372
-4 12 1 -2.5686 0.1175
-4 12 2 -4.2925 -0.5210
-4 12 3 -9.1419 1.1913
-4 12 4 2.8017 0.5934
-4 12 5 -0.5948 -1.4218
-4 12 6 -9.2793 0.3956
-4 12 7 3.7779 -1.3199
-4 12 8 3.4137 -1.0338
-4 12 9 -2.5142 1.0663
-4 12 10 0.1809 0.2788
-4 12 11 0.6422 0.8363
-4 12 12 1.0464 1.0387
-4 12 13 3.9043 -0.5018
-4 12 14 -0.1642 0.0704
-4 12 15 -0.4274 -0.5289
-4 12 16 0.6835 -0.4745
-4 12 17 -0.2805 0.6761
-4 12 18 1.9274 0.9079
-4 12 19 -1.6641 1.2048
-4 12 20 0.4233 -1.1704
-4 14 1 8.3402 0.5379
-4 14 2 -1.6946 0.3748
-4 14 3 -5.7115 -0.4643
-4 14 4 0.0077 -1.2913
-4 14 5 2.6217 0.1027
-4 14 6 -1.6837 -0.2628
-4 14 7 3.2170 -0.0664
-4 14 8 4.3260 0.4772
-4 14 9 0.8155 0.2961
-4 14 10 -1.7774 -0.1051
-4 14 11 -1.0812 -0.5242
-4 14 12 -2.5473 -0.5628
-4 14 13 1.0052 -0.3732
-4 14 14 -0.3135 -0.2135
-4 14 15 -2.0157 -0.2391
-4 14 16 1.1551 0.0009
-4 14 17 0.1724 0.7683
-4 14 18 -2.1826 -0.4319
-4 14 19 -1.2273 -1.2878
-4 16 1 1.1251 -0.5103
-4 16 2 -3.7232 -0.6618
-4 16 3 -2.1692 0.1017
-4 16 4 -0.5638 -0.3298
-4 16 5 4.4246 0.3680
-4 16 6 -0.2413 -0.1373
-4 16 7 2.7667 -0.5609
-4 16 8 -0.7989 0.8408
-4 16 9 0.2261 0.5863
-4 16 10 0.3064 0.2165
-4 16 11 -0.8696 1.0689
-4 16 12 -2.2527 -0.3772
-4 16 13 -2.2115 -0.7825
-4 16 14 0.4080 0.3829
-4 16 15 -1.1493 -0.3052
-4 16 16 -0.8575 1.0302
-4 16 17 2.6158 0.5780
-4 16 18 -3.1262 0.1351
-4 18 1 3.0591 -0.1511
-4 18 2 -4.6263 0.5896
-4 18 3 4.0422 -0.8736
-4 18 4 -1.9316 0.0156
-4 18 5 -0.9054 0.4415
-4 18 6 -1.4614 -0.3479
-4 18 7 -2.4464 1.3177
-4 18 8 -6.5279 -0.0583
-4 18 9 -0.9860 -1.2580
-4 18 10 -0.9049 -0.2741
-4 18 11 -0.7144 -0.5788
-4 18 12 2.4838 -0.2297
-4 18 13 -0.4228 0.4672
-4 18 14 -2.2329 -0.0418
-4 18 15 1.3124 0.7852
-4 18 16 2.2913 2.0862
-4 18 17 -0.1624 2.1840
-4 20 1 1.3904 -0.0073
-4 20 2 -1.1130 -0.2696
-4 20 3 1.1765 1.0290
-4 20 4 0.1236 1.0272
-4 20 5 -1.7686 -0.2313
-4 20 6 -3.0907 0.1137
-4 20 7 -0.3208 -0.6347
-4 20 8 -7.5992 -0.1428
-4 20 9 -1.2665 0.4363
-4 20 10 -0.6575 0.1580
-4 20 11 -1.8268 0.6314
-4 20 12 3.3881 -0.1638
-4 20 13 2.5558 0.5049
-4 20 14 -2.6526 -0.5069
-4 20 15 -1.7679 -1.1586
-4 22 1 0.2222 0.8543
-4 22 2 1.8815 -0.0627
-4 22 3 -0.9232 -0.0981
-4 22 4 -3.9651 -0.4883
-4 22 5 -4.2917 -0.1000
-4 22 6 -4.1212 -0.0823
-4 22 7 1.6436 -0.2809
-4 22 8 -2.3930 -0.4185
-4 22 9 0.5176 0.1669
-4 22 10 -0.8155 -0.0284
-4 22 11 0.0433 -0.7158
-4 22 12 -0.2305 -1.2494
-4 22 13 0.0934 0.5689
-4 24 1 -1.2523 -0.4095
-4 24 2 4.4301 -0.5455
-4 24 3 -1.9474 1.0928
-4 24 4 -1.2983 -0.0084
-4 24 5 -2.5673 -0.2947
-4 24 6 -3.1493 0.0528
-4 24 7 4.3637 -0.5848
-4 24 8 -0.9371 0.9113
-4 24 9 -0.2279 1.1633
-4 24 10 0.1141 0.3508
-4 24 11 1.4689 0.5294
-4 26 1 1.7230 -0.9201
-4 26 2 3.3400 0.5192
-4 26 3 -1.6183 -0.1504
-4 26 4 -1.5243 -2.2638
-4 26 5 -0.9985 -0.1666
-4 26 6 -0.5287 0.2696
-4 26 7 4.3364 2.3135
-4 26 8 3.6826 -1.8938
-3 1 1 -38.4452 -3.9674
-3 1 2 -79.7407 1.1988
-3 1 3 -39.2555 3.7976
-3 1 4 -11.0707 -13.8225
-3 1 5 7.1499 -5.3794
-3 1 6 16.4476 -0.4684
-3 1 7 -0.1143 -6.0606
-3 1 8 -12.0467 11.7456
-3 1 9 -3.3084 4.6035
-3 1 10 -3.1532 0.6554
-3 1 11 0.6725 4.7434
-3 1 12 0.6356 -10.0818
-3 1 13 -2.0964 -4.2281
-3 1 14 -0.8297 -0.6530
-3 1 15 1.1627 -3.6635
-3 1 16 -0.3784 8.0425
-3 1 17 -0.5795 3.4243
-3 1 18 -1.9174 0.5756
-3 1 19 -0.4108 2.9159
-3 1 20 1.2845 -6.4293
-3 1 21 0.3832 -1.8981
-3 1 22 4.6487 -0.1394
-3 3 1 31.3757 -2.8164
-3 3 2 -34.5785 0.0455
-3 3 3 -42.5524 -4.7385
-3 3 4 -33.6041 1.3688
-3 3 5 6.9007 3.9687
-3 3 6 16.9600 0.0711
-3 3 7 5.7245 3.5303
-3 3 8 -5.2716 -0.9591
-3 3 9 -1.6253 -3.0081
-3 3 10 -0.3749 0.0272
-3 3 11 2.5053 -2.9545
-3 3 12 2.0230 0.8116
-3 3 13 -2.0020 2.4574
-3 3 14 -0.9461 0.1042
-3 3 15 0.5897 2.5026
-3 3 16 1.7409 -0.4689
-3 3 17 0.4125 -2.1646
-3 3 18 -0.6298 -0.2141
-3 3 19 1.0011 -2.0264
-3 3 20 0.9958 0.9344
-3 3 21 -0.9091 1.3199
-3 3 22 2.7337 0.2289
-3 5 1 81.8973 2.1127
-3 5 2 2.8667 0.4113
-3 5 3 -15.0037 0.8170
-3 5 4 -25.9164 1.0173
-3 5 5 -4.9119 0.8227
-3 5 6 5.3892 -0.2817
-3 5 7 0.3234 0.8025
-3 5 8 -7.1156 0.9228
-3 5 9 -3.7239 -0.2335
-3 5 10 0.2812 0.3163
-3 5 11 5.6369 -0.2480
-3 5 12 -0.2763 -0.3973
-3 5 13 -2.4408 0.5384
-3 5 14 -0.2904 -0.0351
-3 5 15 -0.7579 0.6285
-3 5 16 -1.5179 0.5603
-3 5 17 0.3164 -0.1179
-3 5 18 -1.9748 0.1445
-3 5 19 0.5233 -0.3657
-3 5 20 1.1919 -0.3015
-3 5 21 -1.3647 0.2553
-3 5 22 -3.7404 -0.2758
-3 7 1 14.3734 0.6260
-3 7 2 -0.8726 -0.7251
-3 7 3 -12.3423 -0.3067
-3 7 4 -14.4314 2.7899
-3 7 5 -4.5939 -0.9528
-3 7 6 6.2376 0.0662
-3 7 7 -1.6331 0.0749
-3 7 8 -10.0385 -3.3925
-3 7 9 -6.8248 -0.4316
-3 7 10 -3.4812 -0.3068
-3 7 11 2.9772 -0.1831
-3 7 12 1.0493 2.3709
-3 7 13 -4.2768 0.1261
-3 7 14 -1.1637 -0.1622
-3 7 15 0.1998 -0.2424
-3 7 16 0.2078 -2.1148
-3 7 17 -0.8872 -0.0413
-3 7 18 -2.1044 -0.4130
-3 7 19 -0.1597 0.2057
-3 7 20 0.3889 1.8928
-3 7 21 1.3402 0.0007
-3 9 1 -3.5283 0.1882
-3 9 2 -14.2702 0.4668
-3 9 3 -10.4487 1.6970
-3 9 4 -14.3582 -2.0477
-3 9 5 5.9351 -1.3404
-3 9 6 12.8382 0.1900
-3 9 7 4.8746 -1.2657
-3 9 8 2.9606 1.5549
-3 9 9 -2.7218 1.3136
-3 9 10 -0.8574 0.3126
-3 9 11 2.4197 1.0772
-3 9 12 1.6985 -0.8251
-3 9 13 -2.0905 -0.7688
-3 9 14 0.4072 -0.0483
-3 9 15 0.1945 -0.7695
-3 9 16 2.7039 0.9732
-3 9 17 1.6523 1.0722
-3 9 18 -1.9729 0.3800
-3 9 19 1.9000 0.6619
-3 9 20 -0.6193 -1.6703
-3 9 21 2.4393 -1.3810
-3 11 1 5.6924 -0.6726
-3 11 2 -1.2595 -0.7105
-3 11 3 3.6152 -1.1069
-3 11 4 -12.1006 -0.1901
-3 11 5 3.6883 0.4203
-3 11 6 12.2442 -0.0680
-3 11 7 -2.3998 0.0534
-3 11 8 4.7238 -0.0452
-3 11 9 4.0244 -0.0193
-3 11 10 -3.8327 -0.3845
-3 11 11 1.6193 -0.0564
-3 11 12 0.0233 0.0227
-3 11 13 -5.0022 0.0811
-3 11 14 -0.2616 0.0062
-3 11 15 0.1009 0.0672
-3 11 16 0.6344 -0.0109
-3 11 17 0.7111 0.0413
-3 11 18 -2.5201 -0.0551
-3 11 19 1.3170 0.2281
-3 11 20 -0.8553 0.1112
-3 13 1 -2.6175 -0.2949
-3 13 2 7.2911 0.5580
-3 13 3 10.0920 0.1785
-3 13 4 0.7708 -0.1960
-3 13 5 2.0347 0.8051
-3 13 6 5.1854 -0.1346
-3 13 7 -4.2989 0.5959
-3 13 8 -4.3322 1.2858
-3 13 9 2.0809 -0.4598
-3 13 10 -1.5435 0.1584
-3 13 11 -0.5332 -0.2272
-3 13 12 2.0853 -1.0013
-3 13 13 -3.8837 0.1408
-3 13 14 -0.7391 0.1644
-3 13 15 -1.0730 0.3898
-3 13 16 -0.4197 0.7769
-3 13 17 -0.2124 -0.7519
-3 13 18 -0.3938 0.9698
-3 13 19 0.2727 -1.1394
-3 13 20 1.7423 -3.4314
-3 15 1 -6.4405 -0.1031
-3 15 2 4.2746 -0.2926
-3 15 3 4.7540 -0.4445
-3 15 4 1.4940 1.5311
-3 15 5 -2.3665 -0.2268
-3 15 6 -0.2804 0.4098
-3 15 7 -6.1611 0.4901
-3 15 8 -3.1665 -1.7504
-3 15 9 -1.2957 -0.8515
-3 15 10 -2.4553 -0.0091
-3 15 11 0.5673 -0.1465
-3 15 12 3.6517 1.2158
-3 15 13 0.9156 0.5029
-3 15 14 2.2524 0.2103
-3 15 15 0.4613 0.6635
-3 15 16 -0.3153 -0.6690
-3 15 17 -1.0174 0.1111
-3 15 18 2.5693 0.1933
-3 15 19 0.1817 3.7077
-3 17 1 -0.0489 0.4458
-3 17 2 1.9548 0.6429
-3 17 3 -1.2311 1.1738
-3 17 4 8.0039 -0.4332
-3 17 5 -1.2086 -0.4536
-3 17 6 -0.8644 0.0529
-3 17 7 -1.9951 -0.5617
-3 17 8 -1.0122 0.4798
-3 17 9 1.8366 0.3998
-3 17 10 -1.7055 0.2781
-3 17 11 -0.0310 0.0865
-3 17 12 0.1575 -0.3124
-3 17 13 1.5482 -0.3667
-3 17 14 3.5813 -0.6322
-3 17 15 -1.6063 -0.5469
-3 17 16 -1.0137 -1.3008
-3 17 17 1.2597 -0.8334
-3 17 18 1.2108 0.1017
-3 19 1 0.1601 0.0682
-3 19 2 -0.8793 -0.7897
-3 19 3 -6.1317 -0.4932
-3 19 4 2.6563 -0.3407
-3 19 5 3.7122 -0.1019
-3 19 6 0.6599 0.1217
-3 19 7 2.1851 -0.7852
-3 19 8 5.0623 -0.3958
-3 19 9 0.9905 0.5988
-3 19 10 0.2562 -0.0577
-3 19 11 1.7059 0.2049
-3 19 12 -4.3130 0.8244
-3 19 13 -2.1613 -0.4082
-3 19 14 3.8283 0.2595
-3 19 15 -1.7135 -0.2405
-3 19 16 -4.7657 0.3675
-3 21 1 3.7313 -0.5583
-3 21 2 -1.8540 0.4631
-3 21 3 -1.5959 0.0078
-3 21 4 4.1287 -0.9010
-3 21 5 2.6562 0.0823
-3 21 6 2.8326 -0.3903
-3 21 7 1.0923 0.1080
-3 21 8 3.9580 1.1274
-3 21 9 0.9800 -0.4401
-3 21 10 1.1078 -0.2017
-3 21 11 0.4632 -0.5454
-3 21 12 -2.3840 -0.6060
-3 21 13 -2.2887 -0.6478
-3 21 14 2.4812 -0.3010
-3 21 15 -1.2782 -1.2356
-3 23 1 2.2540 -0.3385
-3 23 2 -3.9590 -0.5399
-3 23 3 -1.8919 -1.0523
-3 23 4 3.1588 0.7294
-3 23 5 3.8313 0.4679
-3 23 6 2.8991 0.1852
-3 23 7 0.2999 0.3393
-3 23 8 2.3117 -0.5233
-3 23 9 -0.6775 -0.6459
-3 23 10 2.2288 -0.3768
-3 23 11 -1.6237 0.0365
-3 23 12 0.4790 1.3634
-3 23 13 1.9602 0.4871
-3 25 1 3.3442 0.5830
-3 25 2 -3.1311 0.2300
-3 25 3 -0.6821 0.3187
-3 25 4 1.2788 0.4921
-3 25 5 0.8276 -0.1217
-3 25 6 1.2544 -0.9892
-3 25 7 -5.0363 -0.2611
-3 25 8 -1.0319 1.9722
-3 25 9 2.4542 -2.0011
-3 25 10 -0.0680 -0.3492
-3 27 1 -2.8455 1.2560
-3 27 2 -1.3408 -0.8799
-3 27 3 1.0669 -0.1682
-3 27 4 -1.0164 3.8421
-3 27 5 2.4391 1.0987
-3 27 6 1.3510 0.0284
-2 0 2 -52.7605 -2.7175
-2 0 4 21.8590 25.2016
-2 0 6 -13.4137 0.4430
-2 0 8 12.6584 -22.4158
-2 0 10 6.4647 -0.6020
-2 0 12 0.0330 19.0006
-2 0 14 0.7286 0.4551
-2 0 16 1.7597 -15.2383
-2 0 18 -0.9869 -0.2505
-2 0 20 -2.0475 11.4676
-2 0 22 -4.6632 -0.0017
-2 2 1 94.2831 5.7518
-2 2 2 -45.1440 0.5062
-2 2 3 53.8484 0.5541
-2 2 4 43.4433 1.8908
-2 2 5 -9.0619 1.5649
-2 2 6 -17.7193 0.0417
-2 2 7 -3.1751 2.5014
-2 2 8 7.2275 -1.0421
-2 2 9 4.3193 -1.4971
-2 2 10 6.1287 -0.0958
-2 2 11 0.2866 -1.5217
-2 2 12 -2.0237 1.1092
-2 2 13 1.9665 1.4877
-2 2 14 1.0122 0.2010
-2 2 15 -0.9635 1.1753
-2 2 16 -0.0979 -0.7338
-2 2 17 1.1841 -1.0336
-2 2 18 -1.3395 -0.4186
-2 2 19 -0.0679 -0.9956
-2 2 20 -1.8825 0.8051
-2 2 21 -0.0329 0.6829
-2 2 22 -3.5368 0.0499
-2 4 1 -50.6568 -0.2040
-2 4 2 -35.9822 -1.0627
-2 4 3 10.1439 3.0604
-2 4 4 35.3348 0.3166
-2 4 5 8.9050 -4.1751
-2 4 6 -11.9641 0.1904
-2 4 7 -10.6383 -3.9813
-2 4 8 1.4177 -1.7468
-2 4 9 1.4516 2.9946
-2 4 10 0.9636 -0.1374
-2 4 11 -2.3382 3.0973
-2 4 12 -2.0102 1.0618
-2 4 13 0.0142 -2.7417
-2 4 14 -0.0943 -0.3472
-2 4 15 0.8843 -2.6319
-2 4 16 0.3624 -0.8453
-2 4 17 -0.1391 1.9146
-2 4 18 0.6068 0.0049
-2 4 19 -1.5379 2.4525
-2 4 20 -2.8396 0.5168
-2 4 21 1.4192 -1.5391
-2 4 22 2.8351 -0.2271
-2 6 1 -50.5407 -0.9857
-2 6 2 -22.1134 0.9732
-2 6 3 -0.3657 -1.3334
-2 6 4 12.3062 -3.5141
-2 6 5 23.4668 1.4419
-2 6 6 -0.3581 0.1317
-2 6 7 -5.1586 0.9501
-2 6 8 7.4232 2.7447
-2 6 9 6.8839 -0.7276
-2 6 10 3.9524 0.0596
-2 6 11 -2.3971 -0.7573
-2 6 12 -2.0475 -2.0734
-2 6 13 2.4658 0.4237
-2 6 14 -0.0666 -0.0916
-2 6 15 1.5280 0.7791
-2 6 16 3.1777 1.9308
-2 6 17 0.5012 -0.8372
-2 6 18 1.7354 0.0375
-2 6 19 0.4487 -1.0185
-2 6 20 -2.3535 -1.4264
-2 6 21 0.4839 0.4421
-2 6 22 6.1092 0.4303
-2 8 1 1.9419 -1.0605
-2 8 2 4.0660 -0.9831
-2 8 3 3.3066 -0.1305
-2 8 4 12.8112 0.5532
-2 8 5 12.8539 0.5925
-2 8 6 -4.0991 -0.1691
-2 8 7 -8.6965 -0.2066
-2 8 8 2.0223 0.3064
-2 8 9 6.7330 0.1182
-2 8 10 3.4072 0.0121
-2 8 11 1.3405 0.4587
-2 8 12 -3.2404 -0.2498
-2 8 13 0.7057 -0.1733
-2 8 14 0.6526 -0.0651
-2 8 15 0.9329 0.1671
-2 8 16 -0.0097 0.1549
-2 8 17 -0.3061 -0.0459
-2 8 18 0.7070 0.2250
-2 8 19 -0.2100 0.4514
-2 8 20 -0.4603 0.0822
-2 8 21 -1.8458 -0.0105
-2 10 1 1.4372 0.4093
-2 10 2 8.9593 0.6099
-2 10 3 1.9588 -0.9415
-2 10 4 16.8204 0.9117
-2 10 5 1.0915 1.1352
-2 10 6 -9.3422 -0.2630
-2 10 7 -5.5196 1.5680
-2 10 8 -10.4341 -0.5550
-2 10 9 -2.6308 -1.5247
-2 10 10 2.9159 -0.0794
-2 10 11 -0.9357 -1.2794
-2 10 12 -1.5812 0.0645
-2 10 13 0.6854 0.7811
-2 10 14 -0.3955 0.0352
-2 10 15 -0.0080 0.8071
-2 10 16 -0.7923 -0.6156
-2 10 17 -1.9404 -0.8877
-2 10 18 1.0287 -0.4536
-2 10 19 -0.7835 -1.2902
-2 10 20 0.2633 0.9225
-2 10 21 -0.5942 2.2580
-2 12 1 -6.6819 0.2728
-2 12 2 -5.2317 -0.5393
-2 12 3 -7.3109 1.4763
-2 12 4 2.1260 0.9439
-2 12 5 -2.0741 -1.3960
-2 12 6 -5.1912 0.2823
-2 12 7 1.8996 -1.1656
-2 12 8 -1.8340 -1.2111
-2 12 9 -6.6663 0.7672
-2 12 10 4.3164 0.3108
-2 12 11 2.9021 1.1082
-2 12 12 -2.2016 0.9130
-2 12 13 3.9523 -0.4906
-2 12 14 3.0632 0.0219
-2 12 15 0.5767 -0.5637
-2 12 16 -0.4569 -0.6627
-2 12 17 0.5529 0.9321
-2 12 18 1.4370 -0.4306
-2 12 19 1.0185 2.1696
-2 12 20 -1.6217 1.6096
-2 14 1 3.4165 0.4129
-2 14 2 -7.0258 0.4017
-2 14 3 -5.2702 -0.3387
-2 14 4 -5.0766 -1.0756
-2 14 5 -3.6293 -0.0168
-2 14 6 -0.5432 -0.1240
-2 14 7 4.7634 0.0246
-2 14 8 2.2606 0.4060
-2 14 9 0.0900 0.0817
-2 14 10 3.7411 -0.4442
-2 14 11 2.5444 -0.3577
-2 14 12 -3.2708 -0.3231
-2 14 13 0.4201 -0.0849
-2 14 14 0.1954 -0.2490
-2 14 15 0.8569 -0.0612
-2 14 16 -0.9865 -0.4174
-2 14 17 1.5217 -0.2773
-2 14 18 -0.3472 -0.9423
-2 14 19 0.8304 -2.1058
-2 16 1 1.9687 -0.5218
-2 16 2 -2.5964 -0.6679
-2 16 3 -2.1614 0.3061
-2 16 4 -6.2415 -0.2430
-2 16 5 2.4999 0.0193
-2 16 6 -0.0042 -0.0229
-2 16 7 7.1277 -0.6695
-2 16 8 3.4172 0.8230
-2 16 9 -2.5048 0.8398
-2 16 10 6.5579 -0.1882
-2 16 11 0.8713 0.4075
-2 16 12 -2.3832 -0.2433
-2 16 13 -1.4684 -0.2011
-2 16 14 -3.9743 0.4211
-2 16 15 -0.1806 -0.2517
-2 16 16 -1.6235 0.7188
-2 16 17 -0.1034 -0.5286
-2 16 18 0.6508 0.6628
-2 18 1 -1.0056 -0.1854
-2 18 2 1.4466 0.3947
-2 18 3 6.2484 -1.0940
-2 18 4 -5.7614 0.1618
-2 18 5 -3.2360 0.4917
-2 18 6 -0.2476 -0.0298
-2 18 7 0.3533 1.2872
-2 18 8 1.6884 -0.0337
-2 18 9 -3.3636 -1.0891
-2 18 10 2.5630 -0.4092
-2 18 11 -0.2983 -1.1289
-2 18 12 2.3812 -0.4472
-2 18 13 0.3284 0.8016
-2 18 14 -3.9998 0.4586
-2 18 15 2.0727 0.6367
-2 18 16 1.6472 -0.0332
-2 18 17 -3.4430 3.0005
-2 20 1 -6.8382 0.2102
-2 20 2 2.1956 -0.3236
-2 20 3 5.4309 0.7522
-2 20 4 -1.4796 1.1217
-2 20 5 -2.3977 -0.2814
-2 20 6 -1.9883 0.4363
-2 20 7 -0.7218 0.0673
-2 20 8 -2.4200 -0.3694
-2 20 9 -2.8372 0.2888
-2 20 10 1.3526 0.2590
-2 20 11 -0.5026 0.7093
-2 20 12 3.1990 0.4491
-2 20 13 3.7982 0.2064
-2 20 14 -1.1186 0.0725
-2 20 15 2.6694 0.5515
-2 22 1 -4.7146 0.8763
-2 22 2 1.9058 0.2200
-2 22 3 3.4774 -0.1144
-2 22 4 -5.0791 -0.2055
-2 22 5 -2.3476 -0.4176
-2 22 6 -3.2394 0.0977
-2 22 7 -3.2432 0.5847
-2 22 8 -0.3847 -0.5390
-2 22 9 -1.5720 -0.1205
-2 22 10 -2.3667 0.1268
-2 22 11 2.5069 0.0455
-2 22 12 -0.6071 1.0402
-2 22 13 1.4058 0.1666
-2 22 14 -0.1172 -0.2356
-2 24 1 -4.7778 -0.3396
-2 24 2 2.3263 -0.0674
-2 24 3 2.2739 0.9886
-2 24 4 0.5494 0.0535
-2 24 5 0.3054 -0.4588
-2 24 6 -1.5672 0.3378
-2 24 7 0.2996 -0.8914
-2 24 8 -1.5508 -0.1349
-2 24 9 -0.4216 1.5627
-2 24 10 -1.6362 -0.0848
-2 24 11 0.9164 1.0740
-2 26 1 -1.0165 -0.2581
-2 26 2 -2.0984 0.2816
-2 26 3 -0.0807 -1.5492
-2 26 4 1.3463 -2.3786
-2 26 5 -0.5937 0.0341
-2 26 6 -1.2638 1.0120
-2 26 7 4.2160 1.9691
-2 26 8 3.3102 -3.7904
-2 28 1 0.8816 -2.2014
-2 28 2 -0.3608 -0.1177
-1 1 2 154.9503 0.4073
-1 1 3 -43.8184 4.3520
-1 1 4 -12.8531 -13.7562
-1 1 5 9.8601 -5.5498
-1 1 6 0.2314 -0.1154
-1 1 7 -1.2173 -6.0770
-1 1 8 -1.3002 12.0508
-1 1 9 -3.3045 5.0794
-1 1 10 -9.0530 0.1779
-1 1 11 -1.9574 4.6995
-1 1 12 1.1713 -10.2075
-1 1 13 -1.2557 -4.2874
-1 1 14 -1.9646 -0.1359
-1 1 15 0.6415 -3.5895
-1 1 16 -0.5902 8.0263
-1 1 17 -0.9427 3.4676
-1 1 18 2.6500 0.4527
-1 1 19 -0.5865 2.7737
-1 1 20 1.4362 -6.3843
-1 1 21 0.3257 -1.9088
-1 1 22 7.0114 0.0159
-1 3 1 -95.2101 -3.6931
-1 3 2 93.2083 -0.2847
-1 3 3 -25.1497 -4.5787
-1 3 4 -37.2005 1.0552
-1 3 5 2.2613 3.9670
-1 3 6 6.7019 -0.0986
-1 3 7 6.4423 3.0877
-1 3 8 6.5608 -0.9581
-1 3 9 0.3393 -3.1632
-1 3 10 -4.8423 -0.1114
-1 3 11 -4.1334 -2.8602
-1 3 12 2.4685 0.7509
-1 3 13 0.8213 2.5125
-1 3 14 -1.7695 0.2482
-1 3 15 0.5564 2.2308
-1 3 16 1.9445 -0.8676
-1 3 17 -1.0461 -2.2162
-1 3 18 0.6591 -0.0780
-1 3 19 0.7460 -1.9450
-1 3 20 1.6733 0.9047
-1 3 21 -0.6086 1.4193
-1 3 22 2.8236 -0.0334
-1 5 1 50.9507 0.6158
-1 5 2 48.4488 0.3515
-1 5 3 16.7560 0.7527
-1 5 4 -6.2292 0.2648
-1 5 5 -22.9647 0.5398
-1 5 6 -3.4559 -0.3462
-1 5 7 6.5743 0.5283
-1 5 8 5.0969 1.0514
-1 5 9 1.7657 -0.2130
-1 5 10 -0.2069 0.1693
-1 5 11 -0.7227 -0.2983
-1 5 12 1.0870 -0.7398
-1 5 13 0.9350 0.3764
-1 5 14 0.2025 0.3531
-1 5 15 -1.9284 0.3358
-1 5 16 -0.0415 0.3217
-1 5 17 0.1445 0.1042
-1 5 18 -2.0833 0.0896
-1 5 19 0.5966 0.0136
-1 5 20 2.2548 -0.5158
-1 5 21 -0.9618 -0.0495
-1 5 22 -3.0929 -0.0770
-1 7 1 16.3032 0.8618
-1 7 2 19.6431 -0.1742
-1 7 3 5.6986 -0.0938
-1 7 4 -0.7758 2.9004
-1 7 5 -24.4421 -0.6246
-1 7 6 -11.1014 -0.0951
-1 7 7 2.0987 -0.1007
-1 7 8 -3.7715 -3.2164
-1 7 9 -4.3887 -0.1884
-1 7 10 -3.0727 -0.1931
-1 7 11 -3.8562 -0.2525
-1 7 12 2.3717 2.1937
-1 7 13 -0.3349 0.0157
-1 7 14 -0.4286 0.1146
-1 7 15 -2.0129 -0.3043
-1 7 16 -1.9045 -2.0433
-1 7 17 -0.7838 -0.0890
-1 7 18 -1.1534 -0.2805
-1 7 19 -0.3991 0.3740
-1 7 20 0.7202 1.7619
-1 7 21 0.1567 -0.0123
-1 9 1 -5.1251 0.6488
-1 9 2 -0.3498 0.7084
-1 9 3 -1.0664 1.7039
-1 9 4 -12.0060 -1.9528
-1 9 5 -7.7375 -1.2393
-1 9 6 -1.1402 0.2761
-1 9 7 6.9880 -1.2796
-1 9 8 6.4944 1.5058
-1 9 9 -1.3591 1.2950
-1 9 10 -0.2306 0.2678
-1 9 11 -2.5251 0.9076
-1 9 12 1.4066 -0.9734
-1 9 13 3.0719 -0.8655
-1 9 14 0.9531 0.0121
-1 9 15 -0.5798 -0.6789
-1 9 16 -0.1004 1.2680
-1 9 17 1.5303 0.6101
-1 9 18 -0.0294 0.3289
-1 9 19 0.8582 0.4426
-1 9 20 0.1936 -1.6313
-1 9 21 1.2367 -1.2428
-1 11 1 5.7088 -0.4114
-1 11 2 -0.0370 -0.5365
-1 11 3 0.3410 -1.2246
-1 11 4 -7.0596 -0.3713
-1 11 5 -2.6996 0.4293
-1 11 6 2.1611 0.0006
-1 11 7 4.0600 0.1714
-1 11 8 7.8957 0.0220
-1 11 9 6.7112 -0.1546
-1 11 10 -2.8400 -0.3959
-1 11 11 -2.5597 0.0572
-1 11 12 1.5518 0.1618
-1 11 13 -0.8559 0.0351
-1 11 14 -0.7624 -0.0361
-1 11 15 1.2543 0.0507
-1 11 16 -0.7878 0.1400
-1 11 17 0.8300 -0.3066
-1 11 18 -0.5609 -0.2228
-1 11 19 -0.8110 -0.6146
-1 11 20 1.2832 0.6486
-1 13 1 9.2998 -0.4305
-1 13 2 5.9941 0.4957
-1 13 3 3.9730 -0.0796
-1 13 4 9.5335 -0.7688
-1 13 5 4.0271 0.7474
-1 13 6 -1.9113 -0.3442
-1 13 7 1.3042 0.6823
-1 13 8 0.8096 1.5101
-1 13 9 2.1276 -0.2690
-1 13 10 -2.0508 0.1457
-1 13 11 -6.6311 -0.4157
-1 13 12 1.0100 -0.9469
-1 13 13 -1.8705 0.3307
-1 13 14 -3.4538 -0.0060
-1 13 15 0.0866 0.1017
-1 13 16 0.7259 1.0217
-1 13 17 -2.0673 -0.4963
-1 13 18 -0.5189 0.3250
-1 13 19 -1.9218 -1.3364
-1 13 20 2.6909 -4.5374
-1 15 1 -1.5900 0.1390
-1 15 2 4.8876 -0.5475
-1 15 3 1.8755 -0.7013
-1 15 4 5.5076 1.4929
-1 15 5 1.2329 0.0256
-1 15 6 -0.2811 -0.0081
-1 15 7 -5.4687 0.4275
-1 15 8 0.0976 -1.7399
-1 15 9 -0.0270 -0.5018
-1 15 10 -5.4568 0.2122
-1 15 11 -1.7693 -0.1674
-1 15 12 0.6288 0.9768
-1 15 13 0.0827 0.6498
-1 15 14 1.5574 0.0084
-1 15 15 1.1205 0.1080
-1 15 16 3.0598 -0.4415
-1 15 17 -2.0740 0.9177
-1 15 18 -1.4103 -0.5857
-1 15 19 1.1665 4.7476
-1 17 1 0.3335 0.5390
-1 17 2 2.8001 0.4674
-1 17 3 -2.1341 0.9555
-1 17 4 3.4699 -0.3767
-1 17 5 -0.2613 -0.4727
-1 17 6 1.0277 -0.0498
-1 17 7 -3.2571 -0.3308
-1 17 8 -5.0058 0.0684
-1 17 9 3.7103 0.4889
-1 17 10 -4.6052 0.2619
-1 17 11 -0.1198 0.3633
-1 17 12 -0.7575 -0.1841
-1 17 13 0.5477 -0.4289
-1 17 14 2.7264 -0.6078
-1 17 15 0.8437 -0.2630
-1 17 16 3.2494 -0.6600
-1 17 17 1.3764 -1.3692
-1 17 18 -4.6163 0.0702
-1 19 1 6.1959 0.0589
-1 19 2 0.3849 -0.6356
-1 19 3 -7.2075 -0.1519
-1 19 4 -2.5644 -0.0969
-1 19 5 2.3468 -0.2836
-1 19 6 1.5139 0.0287
-1 19 7 0.1734 -0.5137
-1 19 8 -0.8627 -0.5674
-1 19 9 2.1601 0.4337
-1 19 10 -2.3770 -0.0568
-1 19 11 1.8515 0.4939
-1 19 12 -3.3136 0.4585
-1 19 13 -2.6090 -0.1887
-1 19 14 0.8035 0.1208
-1 19 15 -1.7672 0.2040
-1 19 16 0.3569 2.5105
-1 21 1 9.6480 -0.8354
-1 21 2 1.0298 0.7316
-1 21 3 -4.1645 0.1871
-1 21 4 3.0236 -0.8594
-1 21 5 0.3388 0.1922
-1 21 6 3.3591 -0.2761
-1 21 7 0.5851 -0.1133
-1 21 8 -1.3510 1.2243
-1 21 9 3.5981 -0.0804
-1 21 10 -1.4204 -0.0259
-1 21 11 -1.4493 -0.2304
-1 21 12 0.0280 -2.2391
-1 21 13 -5.4464 -0.2418
-1 21 14 -1.9615 -0.0562
-1 21 15 -2.8383 -2.1591
-1 23 1 3.3841 -0.1945
-1 23 2 -0.7549 -0.3563
-1 23 3 -3.7130 -0.8596
-1 23 4 0.3357 0.3870
-1 23 5 0.6231 0.7167
-1 23 6 2.6146 0.5653
-1 23 7 3.2235 0.2130
-1 23 8 0.4345 -0.9177
-1 23 9 0.8539 -0.0516
-1 23 10 2.4156 0.3773
-1 23 11 -1.2794 -0.5359
-1 23 12 2.9223 -1.5680
-1 23 13 -2.5430 0.6539
-1 25 1 3.6295 0.3008
-1 25 2 2.2527 0.8338
-1 25 3 -0.2081 0.5514
-1 25 4 -2.5401 0.0296
-1 25 5 -2.3801 0.0219
-1 25 6 -0.6786 -0.6530
-1 25 7 -3.2739 -0.0174
-1 25 8 0.3606 2.1402
-1 25 9 0.1826 -1.1821
-1 25 10 -1.1431 0.9271
-1 27 1 -1.9182 1.1064
-1 27 2 5.3153 0.0088
-1 27 3 3.4498 1.5958
-1 27 4 -3.8543 3.3469
-1 27 5 3.0228 1.5200
-1 27 6 1.0365 0.1197
0 0 4 -50.1840 25.4409
0 0 6 20.9662 -0.3886
0 0 8 -7.5879 -22.7355
0 0 10 8.1360 0.2488
0 0 12 -1.3803 19.2023
0 0 14 0.8380 -0.2850
0 0 16 0.2925 -15.4159
0 0 18 -1.3624 0.2006
0 0 20 -1.6646 11.6030
0 0 22 -8.7479 -0.3930
0 2 2 -81.1839 1.4672
0 2 3 53.7660 -0.5155
0 2 4 -5.9183 1.6834
0 2 5 -12.3480 1.7556
0 2 6 13.5627 0.1221
0 2 7 0.3020 2.3657
0 2 8 -11.5845 -1.0330
0 2 9 1.3955 -1.5974
0 2 10 7.2118 0.1046
0 2 11 6.0201 -1.4977
0 2 12 -2.8644 1.0125
0 2 13 0.7168 1.3796
0 2 14 1.6218 0.0896
0 2 15 -1.3493 1.1809
0 2 16 -1.3045 -0.7241
0 2 17 0.5151 -0.9572
0 2 18 -1.1917 -0.0254
0 2 19 1.0325 -0.9679
0 2 20 -0.5236 0.3583
0 2 21 0.0301 0.6318
0 2 22 -7.1268 0.1795
0 4 1 34.3336 1.6978
0 4 2 -35.1186 -0.8239
0 4 3 -10.6407 3.3481
0 4 4 0.7729 1.1970
0 4 5 8.2688 -4.0641
0 4 6 10.3064 0.2184
0 4 7 -3.4984 -3.8392
0 4 8 -16.8808 -1.6346
0 4 9 -6.8925 3.4139
0 4 10 -1.5812 0.0652
0 4 11 5.5024 3.0078
0 4 12 -0.6418 1.0974
0 4 13 -2.4417 -2.7096
0 4 14 1.0310 -0.1945
0 4 15 -0.0436 -2.4070
0 4 16 -3.4447 -0.9410
0 4 17 -0.5561 2.2697
0 4 18 0.4110 0.4713
0 4 19 -0.0597 2.0625
0 4 20 0.3353 0.3792
0 4 21 0.3305 -1.5628
0 4 22 -1.5549 -0.1385
0 6 0 61.8673 2.1594
0 6 1 -28.7671 -0.3848
0 6 2 -23.3742 0.5665
0 6 3 -16.3113 -1.4686
0 6 4 -19.6418 -3.0659
0 6 5 19.7302 1.2844
0 6 6 22.0013 0.3598
0 6 7 6.8250 0.9402
0 6 8 -3.9865 2.5636
0 6 9 -4.2711 -0.7916
0 6 10 -2.1211 -0.0845
0 6 11 2.9174 -0.9873
0 6 12 0.2038 -1.9418
0 6 13 -0.0944 0.8110
0 6 14 0.0948 0.2704
0 6 15 2.1474 0.7481
0 6 16 -0.1633 1.6066
0 6 17 0.1005 -0.5418
0 6 18 0.8714 -0.1305
0 6 19 0.4168 -1.4395
0 6 20 1.2434 -1.2728
0 6 21 -0.2655 0.7216
0 6 22 0.7870 0.3297
0 8 0 7.8560 -1.5382
0 8 1 1.7448 -0.8358
0 8 2 -11.5402 -0.9560
0 8 3 -0.3387 -0.2701
0 8 4 -5.4764 0.3296
0 8 5 6.6875 0.0871
0 8 6 16.6480 -0.1313
0 8 7 5.4520 -0.0881
0 8 8 2.1685 0.2148
0 8 9 2.2991 0.1405
0 8 10 -1.8679 -0.0045
0 8 11 4.7931 0.3102
0 8 12 0.0923 -0.0353
0 8 13 -1.9292 0.2014
0 8 14 0.2241 0.1452
0 8 15 0.6292 -0.0032
0 8 16 -0.0955 -0.0149
0 8 17 0.3869 0.3589
0 8 18 0.3720 -0.1842
0 8 19 -0.5227 0.4156
0 8 20 1.1298 0.3570
0 8 21 -0.5756 -0.0574
0 10 0 -9.8279 0.2686
0 10 1 2.5356 -0.0777
0 10 2 0.2572 0.7003
0 10 3 4.2970 -1.0860
0 10 4 5.0078 0.7967
0 10 5 1.1125 1.1389
0 10 6 1.5058 -0.2546
0 10 7 -3.8036 1.5021
0 10 8 -6.4563 -0.4504
0 10 9 -1.8684 -1.1763
0 10 10 -1.7871 -0.0903
0 10 11 0.1051 -1.4921
0 10 12 0.4242 0.3479
0 10 13 -1.8398 1.0615
0 10 14 -1.8524 -0.0122
0 10 15 -1.4574 0.7098
0 10 16 0.3252 -0.4900
0 10 17 -2.0688 -0.7761
0 10 18 0.2648 -0.1674
0 10 19 -0.6337 -0.8477
0 10 20 -0.5725 0.4416
0 10 21 -0.4657 2.0872
0 12 0 -2.5590 -0.7961
0 12 1 -14.0423 0.4960
0 12 2 0.8311 -0.5439
0 12 3 -0.5973 1.5326
0 12 4 -7.4871 1.1824
0 12 5 1.4831 -1.3175
0 12 6 3.3493 0.2478
0 12 7 -6.2081 -1.4217
0 12 8 -2.5897 -1.1248
0 12 9 -2.6389 1.2120
0 12 10 -0.5671 0.4399
0 12 11 5.5068 0.8133
0 12 12 0.8591 0.7973
0 12 13 2.5418 -0.6322
0 12 14 1.7811 -0.1256
0 12 15 -1.2865 -0.6183
0 12 16 1.5568 -0.3412
0 12 17 0.3291 0.8756
0 12 18 0.5418 0.8491
0 12 19 2.0450 2.4793
0 12 20 -1.2689 0.8653
0 14 0 12.7335 0.9156
0 14 1 -6.0161 0.2974
0 14 2 -2.4468 0.6519
0 14 3 -0.5457 -0.2024
0 14 4 -11.5697 -0.9308
0 14 5 -5.2444 0.0047
0 14 6 3.7248 0.2135
0 14 7 -0.9068 0.0159
0 14 8 -2.4262 0.3500
0 14 9 2.7279 -0.1016
0 14 10 -1.2710 -0.2067
0 14 11 3.5463 -0.2543
0 14 12 3.5527 -0.2822
0 14 13 2.1744 -0.3888
0 14 14 0.9362 -0.1525
0 14 15 0.2784 0.0206
0 14 16 -0.6214 -0.0097
0 14 17 1.7896 -0.2724
0 14 18 -0.1817 0.4452
0 14 19 0.0840 -2.3977
0 16 0 3.2271 -0.1861
0 16 1 1.1588 -0.6125
0 16 2 -3.1199 -0.1783
0 16 3 0.2955 0.5600
0 16 4 -2.8647 -0.5065
0 16 5 -0.0195 -0.0950
0 16 6 -0.0384 0.0119
0 16 7 3.2468 -0.3611
0 16 8 3.7088 1.0234
0 16 9 -0.4968 0.3202
0 16 10 2.0861 0.2366
0 16 11 -0.8912 0.5606
0 16 12 0.7557 -0.2603
0 16 13 0.5896 -0.3086
0 16 14 -1.0404 0.1052
0 16 15 -1.8570 -0.1999
0 16 16 -3.1864 1.2236
0 16 17 1.0321 -0.0999
0 16 18 3.2261 0.7111
0 18 0 -1.8294 0.0509
0 18 1 -2.5727 -0.2846
0 18 2 -2.2072 0.8386
0 18 3 3.9045 -1.2524
0 18 4 2.9554 -0.1279
0 18 5 -0.1086 0.9646
0 18 6 -0.1933 -0.1777
0 18 7 -2.5499 1.0878
0 18 8 4.7811 0.1922
0 18 9 0.9013 -1.1491
0 18 10 -0.0227 0.0410
0 18 11 -2.3831 -0.8995
0 18 12 1.8716 -0.3225
0 18 13 -0.1235 0.5809
0 18 14 0.2608 -0.0492
0 18 15 -0.8455 0.0036
0 18 16 -2.9771 0.0190
0 18 17 -0.7620 3.6459
0 20 0 -2.0846 -0.5963
0 20 1 -11.1666 0.3138
0 20 2 -1.6517 -0.1126
0 20 3 2.2184 0.3702
0 20 4 1.6558 0.7012
0 20 5 2.9135 0.2560
0 20 6 -1.4732 0.0266
0 20 7 -0.0708 -0.4913
0 20 8 1.2602 -0.6281
0 20 9 0.0761 0.4227
0 20 10 2.8395 0.3092
0 20 11 -2.1409 0.2298
0 20 12 1.2800 1.2189
0 20 13 4.9303 -0.2572
0 20 14 1.5021 -0.1529
0 20 15 1.7289 0.1196
0 20 16 -1.1279 -4.3516
0 22 0 2.1871 0.4621
0 22 1 -5.4566 0.7882
0 22 2 -0.6821 0.0924
0 22 3 2.6365 -0.3727
0 22 4 -3.3559 -0.0736
0 22 5 -0.5816 -0.0792
0 22 6 -3.0390 -0.5258
0 22 7 -2.4837 0.2152
0 22 8 1.8326 -0.4470
0 22 9 -1.4595 -0.6367
0 22 10 -0.1872 -0.3234
0 22 11 1.4951 -0.7354
0 22 12 -1.1500 1.3703
0 22 13 5.8788 0.0086
0 22 14 2.0460 -0.1444
0 24 0 -3.2124 1.5129
0 24 1 -2.7890 -0.5935
0 24 2 1.1916 -0.4806
0 24 3 1.1380 0.9170
0 24 4 2.9513 0.4782
0 24 5 2.3557 -0.5532
0 24 6 1.1146 -0.4989
0 24 7 0.7115 -0.9432
0 24 8 -2.2408 0.4038
0 24 9 -0.1131 0.7864
0 24 10 -1.0351 -0.7821
0 24 11 -2.0617 1.5293
0 26 0 -0.8593 -0.5688
0 26 1 0.2554 -0.3537
0 26 2 -4.0619 -0.4640
0 26 3 -0.3244 -1.5702
0 26 4 -0.4824 -1.7698
0 26 5 -1.2721 -0.5758
0 26 6 3.6361 0.5345
0 26 7 4.3025 2.4265
0 26 8 1.0301 -3.8112
0 28 0 -3.1152 -3.6790
0 28 1 0.8745 -2.8077
0 28 2 -3.5092 -0.2223
0 28 3 -5.0473 -1.7697
1 1 2 -45.0221 -1.1173
1 1 3 -50.5505 5.4745
1 1 4 73.7929 -13.6241
1 1 5 9.4316 -6.1568
1 1 6 -28.1872 0.3385
1 1 7 -1.9915 -5.4943
1 1 8 7.7822 12.0566
1 1 9 -2.3228 5.3758
1 1 10 -4.0828 -0.3707
1 1 11 -2.2810 4.3881
1 1 12 0.4429 -10.1340
1 1 13 -1.8677 -4.3251
1 1 14 2.9766 0.2211
1 1 15 0.7005 -3.3414
1 1 16 -0.5635 8.2095
1 1 17 0.5702 3.8350
1 1 18 0.2794 -0.1498
1 1 19 -1.2080 2.5686
1 1 20 0.3217 -6.3259
1 1 21 -0.1507 -2.2877
1 1 22 8.7259 0.3623
1 3 2 -55.3209 -0.3552
1 3 3 -31.8398 -4.1193
1 3 4 15.9083 1.2196
1 3 5 4.8183 3.6952
1 3 6 -20.0941 -0.1055
1 3 7 0.0480 3.2998
1 3 8 13.3703 -1.2579
1 3 9 1.8159 -3.3786
1 3 10 0.6578 -0.2660
1 3 11 -6.1300 -2.9112
1 3 12 0.8274 1.0808
1 3 13 0.1043 2.6842
1 3 14 1.1745 0.0180
1 3 15 2.0177 2.0889
1 3 16 1.1763 -0.6725
1 3 17 1.2512 -2.3278
1 3 18 1.9667 -0.5845
1 3 19 -1.4158 -1.9418
1 3 20 -1.7090 1.0230
1 3 21 -0.5316 1.5836
1 3 22 3.5393 0.2053
1 5 0 -52.5354 -1.0022
1 5 1 15.1470 -0.6255
1 5 2 -20.6317 0.3542
1 5 3 17.0049 0.3531
1 5 4 30.3151 -0.4922
1 5 5 -9.1871 0.2215
1 5 6 -21.6832 -0.2056
1 5 7 -6.9464 0.8220
1 5 8 10.1547 0.8743
1 5 9 7.1435 -0.3519
1 5 10 7.1023 0.0409
1 5 11 -1.5082 -0.1939
1 5 12 -2.2911 -0.3263
1 5 13 0.7902 0.3334
1 5 14 1.0528 -0.2900
1 5 15 -0.6455 0.2759
1 5 16 1.1217 0.5522
1 5 17 1.3306 -0.2337
1 5 18 2.4884 -0.0565
1 5 19 -0.5378 0.0301
1 5 20 -2.8094 -0.5407
1 5 21 0.9303 0.1247
1 5 22 -1.1325 0.0259
1 7 0 -22.4842 -0.7252
1 7 1 2.8315 0.4380
1 7 2 1.3390 -0.0785
1 7 3 0.5293 0.0352
1 7 4 27.3687 2.9716
1 7 5 -2.1303 -0.2824
1 7 6 -23.3966 0.0228
1 7 7 -16.6185 0.1518
1 7 8 -7.4434 -3.1375
1 7 9 0.0526 -0.1543
1 7 10 3.6857 -0.0775
1 7 11 -2.9563 0.1240
1 7 12 -1.1961 2.5378
1 7 13 -0.9882 -0.1348
1 7 14 -0.5238 -0.5282
1 7 15 -0.3427 -0.2651
1 7 16 -0.4815 -2.0195
1 7 17 -1.3020 -0.2729
1 7 18 1.0090 0.2326
1 7 19 -0.1685 0.3665
1 7 20 -2.8532 1.7888
1 7 21 0.9133 0.1000
1 9 0 9.8045 0.9692
1 9 1 -7.8257 0.5199
1 9 2 -0.6931 0.3553
1 9 3 -7.8831 1.6340
1 9 4 5.6461 -1.9578
1 9 5 7.8333 -1.1036
1 9 6 -3.8721 0.3494
1 9 7 -5.5269 -1.3065
1 9 8 -3.1967 1.5087
1 9 9 -2.9403 1.2544
1 9 10 4.3639 0.2706
1 9 11 -0.6144 0.8332
1 9 12 -1.4330 -1.2753
1 9 13 1.5566 -1.0852
1 9 14 -0.0202 -0.1435
1 9 15 1.3653 -0.6056
1 9 16 1.9696 0.9359
1 9 17 0.8701 0.8106
1 9 18 -0.5409 0.5485
1 9 19 0.7904 0.2339
1 9 20 -0.7460 -1.7481
1 9 21 0.5234 -1.2300
1 11 0 12.4174 -0.0157
1 11 1 5.0523 -0.1926
1 11 2 -7.8484 -0.3740
1 11 3 -4.7964 -1.0767
1 11 4 -0.2448 -0.2970
1 11 5 -1.2342 0.4145
1 11 6 2.1982 0.0379
1 11 7 4.7038 -0.0266
1 11 8 2.1308 -0.1911
1 11 9 0.8901 -0.3618
1 11 10 2.4020 -0.2467
1 11 11 -0.0915 0.0509
1 11 12 -0.2284 -0.1293
1 11 13 -0.7973 0.0184
1 11 14 0.2567 0.2196
1 11 15 0.7450 0.2381
1 11 16 -0.5347 -0.2957
1 11 17 1.6956 0.1256
1 11 18 -1.3965 -0.6113
1 11 19 -0.8806 -0.4397
1 11 20 0.3460 0.4549
1 13 0 -8.2019 0.1302
1 13 1 13.3174 -0.5881
1 13 2 -3.5192 0.4617
1 13 3 -0.2481 -0.1852
1 13 4 11.7400 -0.8726
1 13 5 3.2460 0.7107
1 13 6 -4.4863 -0.2297
1 13 7 4.5813 0.7376
1 13 8 1.4424 1.3812
1 13 9 -3.1022 -0.5020
1 13 10 4.5339 -0.0584
1 13 11 -4.3662 -0.4266
1 13 12 -4.3520 -0.9953
1 13 13 -2.2436 0.3539
1 13 14 -1.4298 0.2231
1 13 15 -2.5846 0.5521
1 13 16 -1.8925 0.3732
1 13 17 -0.1018 -0.5183
1 13 18 -0.4106 -0.5999
1 13 19 -2.4206 -1.0819
1 13 20 -0.9431 -4.6534
1 15 0 -6.9044 -0.8330
1 15 1 -1.0353 0.3715
1 15 2 -1.5029 -0.6302
1 15 3 -2.0971 -0.8039
1 15 4 6.5994 1.6845
1 15 5 5.6792 0.2586
1 15 6 -1.4489 0.0103
1 15 7 -1.6349 0.2012
1 15 8 -1.1711 -1.6483
1 15 9 -3.0148 -0.4478
1 15 10 2.1423 -0.1457
1 15 11 1.7138 -0.1022
1 15 12 -2.0363 0.9227
1 15 13 -1.9656 0.3476
1 15 14 0.6888 0.2641
1 15 15 -1.7289 0.2181
1 15 16 -1.3612 -1.0081
1 15 17 -0.3876 0.2495
1 15 18 0.9794 -0.8015
1 15 19 1.9743 4.3621
1 17 0 1.2687 0.3448
1 17 1 -1.3228 0.4433
1 17 2 -1.5648 0.1112
1 17 3 -1.2096 0.8636
1 17 4 -0.0424 -0.2178
1 17 5 0.2293 -0.4564
1 17 6 0.1583 0.0504
1 17 7 3.4879 -0.5668
1 17 8 -7.2419 0.1652
1 17 9 -2.5266 0.4743
1 17 10 0.9322 -0.1644
1 17 11 1.4848 0.0823
1 17 12 2.0939 -0.2396
1 17 13 1.2393 -0.7280
1 17 14 -0.5536 -0.1182
1 17 15 1.5721 -0.5662
1 17 16 0.1586 -1.1682
1 17 17 -0.5980 -1.3627
1 17 18 -1.9614 0.2940
1 19 0 5.5861 0.0923
1 19 1 5.0435 0.1126
1 19 2 -1.7620 -1.0597
1 19 3 2.1732 0.2190
1 19 4 -4.0050 0.1442
1 19 5 -4.9479 -0.6394
1 19 6 -0.1909 0.0085
1 19 7 4.2462 -0.4715
1 19 8 -1.3942 -0.2132
1 19 9 -4.5101 0.2651
1 19 10 -0.4389 -0.2829
1 19 11 3.1383 0.1737
1 19 12 -0.0977 0.2851
1 19 13 -0.6477 0.1418
1 19 14 -0.7781 0.2030
1 19 15 0.4417 0.2654
1 19 16 0.4186 2.0195
1 21 0 -0.1093 0.5324
1 21 1 7.7641 -0.7583
1 21 2 0.0821 0.4733
1 21 3 4.2525 0.4603
1 21 4 3.9270 -0.8007
1 21 5 -3.9332 -0.2417
1 21 6 1.9014 -0.0498
1 21 7 1.4076 0.3208
1 21 8 -2.0037 1.7373
1 21 9 -0.8517 0.1266
1 21 10 -2.1757 -0.0674
1 21 11 -0.9610 0.3837
1 21 12 -0.1490 -1.2585
1 21 13 -4.1988 -0.1616
1 21 14 -1.5611 -0.6385
1 21 15 -1.9613 -1.6723
1 23 0 2.7314 -1.0099
1 23 1 0.7255 0.1524
1 23 2 -3.0579 -0.3763
1 23 3 0.7867 -0.5686
1 23 4 -1.2345 0.1965
1 23 5 -0.4516 0.4795
1 23 6 0.8016 0.6962
1 23 7 1.9491 0.3768
1 23 8 1.5701 -0.8302
1 23 9 0.7469 0.1889
1 23 10 2.2955 0.1220
1 23 11 -0.7355 0.2875
1 23 12 -0.5339 1.9121
1 23 13 -2.7833 0.4244
1 25 0 2.4556 -0.7854
1 25 1 1.9200 0.5765
1 25 2 -2.5329 0.6438
1 25 3 0.4794 0.4531
1 25 4 1.6198 -0.0192
1 25 5 -3.6548 0.2191
1 25 6 -5.5073 -0.5052
1 25 7 -5.4324 -0.0608
1 25 8 0.8003 2.2175
1 25 9 1.5851 -1.2585
1 25 10 -0.2855 0.5162
1 27 0 3.6426 3.0929
1 27 1 -1.8867 1.4123
1 27 2 1.4676 -0.4746
1 27 3 -1.2664 1.4630
1 27 4 4.2335 3.3256
1 27 5 6.1487 1.7977
1 27 6 -4.2269 0.0910
2 0 4 -86.8905 25.4501
2 0 6 21.4279 -1.3707
2 0 8 1.5815 -22.7276
2 0 10 -0.3188 1.0868
2 0 12 4.1791 19.1825
2 0 14 -5.7583 -0.9489
2 0 16 0.9993 -15.3992
2 0 18 -0.5676 0.7971
2 0 20 2.0121 11.7445
2 0 22 -9.7664 -0.7526
2 2 0 202.6988 -2.7565
2 2 3 66.5059 -1.8967
2 2 4 -36.6271 0.9749
2 2 5 -9.4712 2.0818
2 2 6 19.3757 -0.0135
2 2 7 2.5362 2.0841
2 2 8 0.8334 -0.9169
2 2 9 4.5056 -1.8040
2 2 10 -0.4733 0.1265
2 2 11 1.7685 -1.3852
2 2 12 1.5491 1.0680
2 2 13 2.8296 1.5346
2 2 14 -4.3888 -0.0761
2 2 15 -1.4361 1.2089
2 2 16 1.6357 -0.9170
2 2 17 -1.6065 -1.4198
2 2 18 -2.4501 0.0695
2 2 19 1.5924 -0.9288
2 2 20 2.4260 0.7225
2 2 21 1.1740 0.9525
2 2 22 -5.4859 -0.1951
2 4 0 -31.9122 -0.9724
2 4 1 18.0607 2.4597
2 4 2 89.1979 -0.6486
2 4 3 8.1519 3.6278
2 4 4 -18.8253 1.3145
2 4 5 0.7500 -3.8956
2 4 6 13.1226 -0.0312
2 4 7 1.9868 -3.6021
2 4 8 -3.8971 -1.3973
2 4 9 0.7742 3.4362
2 4 10 -6.4972 0.2521
2 4 11 0.8918 3.0356
2 4 12 3.1419 0.9593
2 4 13 -0.0278 -2.9113
2 4 14 -2.5360 -0.2877
2 4 15 -1.1410 -2.2164
2 4 16 0.5911 -0.8390
2 4 17 -1.7892 2.3817
2 4 18 -5.0934 0.4664
2 4 19 0.6446 2.2531
2 4 20 2.2447 0.6662
2 4 21 0.0962 -1.7879
2 4 22 3.1012 -0.5039
2 6 0 9.2426 2.1239
2 6 1 -15.5355 -0.3176
2 6 2 29.0324 0.6544
2 6 3 -3.6987 -1.3777
2 6 4 -34.1245 -2.8877
2 6 5 2.4822 1.4129
2 6 6 12.8013 0.0297
2 6 7 12.0600 0.7299
2 6 8 7.3336 2.5901
2 6 9 0.9380 -0.9979
2 6 10 -4.7477 -0.1648
2 6 11 -1.3996 -1.1841
2 6 12 2.7715 -2.2933
2 6 13 2.0190 0.5265
2 6 14 -1.3299 0.3206
2 6 15 0.8331 0.8040
2 6 16 2.3020 1.8578
2 6 17 0.5002 -0.4852
2 6 18 -4.0166 -0.2829
2 6 19 -0.1831 -1.1447
2 6 20 2.0643 -1.4043
2 6 21 -1.7609 0.4988
2 6 22 3.2985 0.4243
2 8 0 -10.7514 -0.8691
2 8 1 7.8207 -0.3058
2 8 2 9.4385 -0.7242
2 8 3 10.3778 -0.0679
2 8 4 -14.3828 0.2889
2 8 5 -9.8877 -0.0975
2 8 6 1.0160 -0.4285
2 8 7 10.9611 -0.2868
2 8 8 13.0035 0.1155
2 8 9 5.9271 0.0061
2 8 10 -1.9561 -0.0145
2 8 11 2.6717 0.3437
2 8 12 0.8946 -0.1665
2 8 13 1.0852 -0.0037
2 8 14 1.6151 0.1612
2 8 15 -1.3124 0.0273
2 8 16 -0.7607 0.2751
2 8 17 1.2057 0.0659
2 8 18 -0.4800 -0.0713
2 8 19 0.2124 0.5247
2 8 20 1.3624 -0.0398
2 8 21 -0.5393 -0.1497
2 10 0 -19.1014 0.0401
2 10 1 2.8987 -0.4540
2 10 2 8.6844 0.5391
2 10 3 10.1240 -1.0426
2 10 4 7.5726 0.8513
2 10 5 -6.4889 1.2381
2 10 6 -11.8989 -0.0729
2 10 7 -0.0148 1.9242
2 10 8 0.3563 -0.4730
2 10 9 1.4540 -1.5270
2 10 10 -2.4112 -0.2845
2 10 11 -1.3147 -0.9365
2 10 12 -1.6223 0.6073
2 10 13 -1.1817 1.1322
2 10 14 1.3959 0.1058
2 10 15 -0.4046 0.6097
2 10 16 -2.7445 -0.4475
2 10 17 -1.8779 -1.3558
2 10 18 1.2987 -0.2425
2 10 19 0.4394 -1.1336
2 10 20 0.0318 0.9725
2 10 21 -0.3138 2.3049
2 12 0 -2.4501 -0.4757
2 12 1 -13.8900 0.5930
2 12 2 6.8737 -0.7586
2 12 3 2.6244 1.4513
2 12 4 1.8619 1.0433
2 12 5 1.1121 -1.3870
2 12 6 -1.6511 0.1620
2 12 7 -2.8544 -0.9142
2 12 8 -1.2902 -0.9845
2 12 9 1.1498 0.9927
2 12 10 -1.8425 0.2823
2 12 11 3.3277 1.2104
2 12 12 -0.8345 0.8171
2 12 13 -1.3832 -0.5755
2 12 14 2.2389 -0.1947
2 12 15 2.8760 -0.9572
2 12 16 0.3818 -0.2870
2 12 17 -0.1883 0.4655
2 12 18 3.2282 0.4517
2 12 19 3.2907 1.5493
2 12 20 0.8303 1.6595
2 14 0 10.5914 0.8824
2 14 1 -3.6981 0.1043
2 14 2 2.5879 0.4695
2 14 3 2.9128 -0.1739
2 14 4 -6.7150 -0.9503
2 14 5 -7.1832 -0.0130
2 14 6 1.8335 0.1167
2 14 7 0.0861 -0.0991
2 14 8 -0.9102 0.2428
2 14 9 4.2672 -0.0296
2 14 10 -2.3819 -0.2022
2 14 11 0.5718 -0.1657
2 14 12 2.2536 -0.2996
2 14 13 -0.0449 -0.0922
2 14 14 0.0782 -0.2341
2 14 15 4.9372 -0.1250
2 14 16 2.4207 0.2028
2 14 17 -0.4152 0.3434
2 14 18 0.1309 -0.1577
2 14 19 2.1880 -1.8423
2 16 0 -1.1259 0.0580
2 16 1 3.9088 -0.5235
2 16 2 5.3589 -0.5035
2 16 3 2.7445 0.6325
2 16 4 -0.9645 -0.6415
2 16 5 -3.6812 -0.3163
2 16 6 -2.1549 -0.1225
2 16 7 -1.8686 -0.6878
2 16 8 5.2176 0.8484
2 16 9 3.0358 0.7111
2 16 10 1.5868 0.1153
2 16 11 -1.4457 0.5792
2 16 12 -4.6066 -0.3544
2 16 13 -0.7055 0.0292
2 16 14 -1.0805 -0.0224
2 16 15 0.8287 0.5831
2 16 16 4.2777 0.7404
2 16 17 0.0607 0.4932
2 16 18 -1.5480 0.3530
2 18 0 -4.4459 -0.0428
2 18 1 2.2652 -0.2579
2 18 2 4.9817 0.6494
2 18 3 -2.6707 -1.1150
2 18 4 4.8102 -0.1007
2 18 5 2.1832 0.7824
2 18 6 -1.8288 0.0905
2 18 7 -6.8556 1.0330
2 18 8 1.4452 0.1164
2 18 9 4.3023 -0.8598
2 18 10 0.5001 -0.1315
2 18 11 -0.1440 -0.4781
2 18 12 -3.1197 -0.4316
2 18 13 -2.4824 0.5909
2 18 14 -0.7927 0.3180
2 18 15 -1.2578 1.2687
2 18 16 3.1837 0.3399
2 18 17 0.9835 2.7481
2 20 0 -4.9388 -0.6368
2 20 1 -3.5404 0.1609
2 20 2 1.4381 -0.2563
2 20 3 -10.0648 0.4123
2 20 4 0.8921 0.6593
2 20 5 6.5337 -0.1518
2 20 6 -1.8235 0.2333
2 20 7 -1.0667 -0.3129
2 20 8 -0.5476 -0.6041
2 20 9 1.9035 0.2296
2 20 10 1.9228 0.3079
2 20 11 0.2604 0.4404
2 20 12 -1.1278 0.3432
2 20 13 0.5857 -0.2983
2 20 14 0.3143 0.3801
2 20 15 0.3330 0.0019
2 22 0 -1.0803 0.1154
2 22 1 0.6516 0.5434
2 22 2 0.3530 -0.1046
2 22 3 -6.5587 -0.3852
2 22 4 -1.2748 -0.0066
2 22 5 -0.5480 -0.2345
2 22 6 -3.0171 -0.1086
2 22 7 -2.5632 0.0765
2 22 8 0.1917 -0.6889
2 22 9 -0.5060 -0.7814
2 22 10 -1.4223 -0.0219
2 22 11 4.2323 -1.5663
2 22 12 1.7779 -1.8050
2 22 13 -0.5964 0.7591
2 22 14 1.5663 0.6391
2 24 0 -5.5377 0.8291
2 24 1 -0.2340 -0.7493
2 24 2 4.8016 -0.2153
2 24 3 -3.8132 0.6676
2 24 4 3.1269 0.1969
2 24 5 4.6876 -0.5333
2 24 6 1.8402 0.0365
2 24 7 3.1687 -1.0789
2 24 8 -3.0297 0.3872
2 24 9 -3.2770 1.6280
2 24 10 -2.4060 0.3782
2 24 11 0.3213 1.0465
2 26 0 -2.6190 -1.0348
2 26 1 0.8875 -0.6193
2 26 2 3.2789 0.3713
2 26 3 1.6789 -1.3221
2 26 4 -7.6917 -2.1520
2 26 5 1.1627 -0.3387
2 26 6 5.6158 0.8251
2 26 7 6.1271 1.8227
2 26 8 2.0254 -3.8749
2 28 0 -5.0163 -3.9265
2 28 1 0.3250 -2.6598
2 28 2 1.2632 0.3518
3 1 0 -130.2339 13.4232
3 1 1 -95.3605 6.3308
3 1 2 -117.4569 -0.1246
3 1 3 -46.3279 6.3917
3 1 4 34.8567 -13.2017
3 1 5 6.4132 -6.1600
3 1 6 -4.6079 0.9266
3 1 7 -1.9291 -5.1354
3 1 8 -5.7831 12.0460
3 1 9 -3.9902 5.4868
3 1 10 0.1984 -0.5873
3 1 11 0.9954 4.2621
3 1 12 -4.3549 -10.3289
3 1 13 -2.3181 -4.7588
3 1 14 1.6755 0.5720
3 1 15 -0.0870 -3.2857
3 1 16 -0.6273 8.3674
3 1 17 0.7322 4.1562
3 1 18 1.7835 -0.2743
3 1 19 -0.6873 2.6544
3 1 20 -3.5603 -6.5757
3 1 21 -0.8893 -2.4113
3 1 22 7.1478 0.5505
3 3 0 98.7121 0.0026
3 3 1 -50.3008 -1.7292
3 3 2 -99.4866 0.1527
3 3 3 -39.5847 -3.6208
3 3 4 -4.0990 1.6930
3 3 5 5.7705 4.1501
3 3 6 -2.2957 -0.1099
3 3 7 0.5582 2.8134
3 3 8 -4.3544 -1.1913
3 3 9 -8.3706 -3.4769
3 3 10 1.4823 -0.0615
3 3 11 -0.3393 -2.7201
3 3 12 -2.2063 0.6870
3 3 13 -1.3366 2.6594
3 3 14 0.5039 0.2166
3 3 15 0.9920 1.9580
3 3 16 -0.9917 -0.6052
3 3 17 0.8460 -2.3943
3 3 18 3.8901 -0.2260
3 3 19 -0.7118 -1.8539
3 3 20 -1.5976 0.7950
3 3 21 -1.5286 1.5485
3 3 22 -1.8069 0.1129
3 5 0 44.3202 -0.0360
3 5 1 33.5435 -1.1421
3 5 2 -44.9228 -0.2554
3 5 3 5.6403 -0.1024
3 5 4 13.6169 -0.8388
3 5 5 -4.0065 0.3183
3 5 6 3.8468 -0.0172
3 5 7 0.6089 0.3293
3 5 8 -3.2483 0.8712
3 5 9 -5.8969 -0.2391
3 5 10 3.1901 0.1678
3 5 11 2.8266 -0.1517
3 5 12 -4.1758 -0.7366
3 5 13 -0.9405 0.5352
3 5 14 0.6491 0.2854
3 5 15 -1.6604 0.3694
3 5 16 -1.7402 0.3801
3 5 17 -0.0226 -0.4163
3 5 18 4.6009 0.0175
3 5 19 0.8760 -0.2390
3 5 20 0.2806 -0.5879
3 5 21 1.3931 0.2696
3 5 22 -6.8651 0.0730
3 7 0 5.3173 -1.3789
3 7 1 -2.2170 0.5414
3 7 2 -19.0817 -0.1305
3 7 3 -3.0760 -0.0467
3 7 4 12.5203 3.2528
3 7 5 -0.5319 -0.0162
3 7 6 5.8658 0.2659
3 7 7 -3.7587 0.2619
3 7 8 -12.5853 -3.0417
3 7 9 -7.4936 -0.0297
3 7 10 -1.6125 0.2061
3 7 11 -0.9923 0.3114
3 7 12 -1.4541 2.4203
3 7 13 -2.9365 0.2638
3 7 14 -0.3445 0.0127
3 7 15 -0.9688 -0.1640
3 7 16 -2.6510 -2.0729
3 7 17 -1.9978 -0.2279
3 7 18 1.6687 -0.1626
3 7 19 -0.0216 0.4344
3 7 20 -0.0399 2.1255
3 7 21 1.3570 0.0989
3 9 0 18.0785 1.1181
3 9 1 -5.5399 0.4417
3 9 2 -5.2727 0.1572
3 9 3 -10.0787 1.4018
3 9 4 -11.0686 -1.8455
3 9 5 8.4139 -1.2084
3 9 6 15.8101 0.2376
3 9 7 0.5618 -1.2228
3 9 8 -2.4975 1.6153
3 9 9 -4.4765 1.3479
3 9 10 -0.1586 0.2177
3 9 11 -1.6596 0.5335
3 9 12 1.3899 -1.3002
3 9 13 0.1551 -1.0951
3 9 14 -2.1964 -0.1826
3 9 15 0.5813 -0.5435
3 9 16 2.1560 1.1793
3 9 17 0.7060 1.0349
3 9 18 0.3863 0.1687
3 9 19 -1.0689 0.5131
3 9 20 -0.3152 -1.5296
3 9 21 -0.0382 -1.3169
3 11 0 8.7999 -0.1262
3 11 1 9.7220 0.0324
3 11 2 -2.5677 -0.1472
3 11 3 -4.8383 -0.7184
3 11 4 -18.3655 0.0255
3 11 5 -1.2952 0.3299
3 11 6 9.5442 -0.2671
3 11 7 0.6714 -0.5610
3 11 8 4.4494 -0.1415
3 11 9 1.0550 -0.0975
3 11 10 -0.8188 -0.1299
3 11 11 -1.3871 -0.2678
3 11 12 6.0234 0.0874
3 11 13 3.8105 -0.1680
3 11 14 -2.9675 -0.1112
3 11 15 -0.6669 0.2411
3 11 16 1.5508 0.2837
3 11 17 0.1320 0.4607
3 11 18 -2.2912 0.0787
3 11 19 -2.0114 0.6005
3 11 20 -0.1897 0.3710
3 13 0 -11.3493 0.2890
3 13 1 12.1556 -0.8045
3 13 2 1.1722 0.4111
3 13 3 -0.8519 -0.0077
3 13 4 -0.5564 -0.8119
3 13 5 0.4187 0.5808
3 13 6 -1.2974 -0.2420
3 13 7 -0.3878 0.6072
3 13 8 2.3510 1.4576
3 13 9 -2.3158 -0.2882
3 13 10 -1.1479 0.0070
3 13 11 -4.9751 -0.6010
3 13 12 1.1235 -0.7836
3 13 13 4.4589 0.2582
3 13 14 -2.2521 0.1570
3 13 15 -2.5996 0.5044
3 13 16 0.3481 0.6242
3 13 17 -1.2868 -0.5368
3 13 18 -4.4502 0.5785
3 13 19 -5.0120 -1.1294
3 15 0 -2.8072 -0.8993
3 15 1 -3.3831 0.3333
3 15 2 -3.2130 -0.1559
3 15 3 -2.7149 -0.5551
3 15 4 1.0353 1.7163
3 15 5 3.4150 0.1054
3 15 6 2.1918 0.0513
3 15 7 1.2423 0.7218
3 15 8 -0.3565 -1.4892
3 15 9 -3.1491 -0.4176
3 15 10 -3.1478 0.1459
3 15 11 0.0400 -0.2276
3 15 12 2.8829 1.1922
3 15 13 1.2234 0.5505
3 15 14 1.1110 0.3539
3 15 15 -1.9094 -0.1214
3 15 16 -2.5625 -0.3806
3 15 17 0.9158 -0.9328
3 15 18 0.1914 0.4154
3 15 19 -1.7189 2.4658
3 17 0 -0.1757 0.3636
3 17 1 -4.5495 0.2142
3 17 2 -4.9676 0.5981
3 17 3 -0.2442 0.6824
3 17 4 -5.4209 -0.1912
3 17 5 0.4251 -0.4946
3 17 6 4.5433 0.1689
3 17 7 6.3165 0.1038
3 17 8 0.4435 0.1175
3 17 9 -3.0938 0.3720
3 17 10 -3.2991 0.1772
3 17 11 -2.4741 -0.1921
3 17 12 4.3989 -0.0211
3 17 13 2.9093 -0.3519
3 17 14 2.1400 -0.3525
3 17 15 0.2205 -1.4790
3 17 16 -4.8784 -0.5431
3 17 17 0.1527 -1.5598
3 19 0 1.4133 0.0457
3 19 1 -3.6406 0.3515
3 19 2 -1.2173 -0.4822
3 19 3 6.8803 -0.1857
3 19 4 -7.6908 0.1029
3 19 5 -2.9724 -0.1479
3 19 6 3.6493 -0.0156
3 19 7 1.1231 -0.5589
3 19 8 5.3078 -0.7884
3 19 9 -0.0577 0.4511
3 19 10 -0.4264 -0.2267
3 19 11 -0.6201 0.1381
3 19 12 1.1944 0.7603
3 19 13 1.1658 0.3491
3 19 14 2.0188 -0.0930
3 19 15 0.2384 -0.2367
3 19 16 -3.8065 0.1429
3 21 0 -1.0428 0.4319
3 21 1 -1.2149 -0.5295
3 21 2 3.3824 0.9013
3 21 3 8.7888 0.0304
3 21 4 0.7167 -0.8173
3 21 5 1.2968 0.4374
3 21 6 4.1860 0.0568
3 21 7 -0.6756 0.3635
3 21 8 -0.4612 1.1962
3 21 9 0.9914 0.2035
3 21 10 0.8779 -0.0545
3 21 11 -3.5976 0.7743
3 21 12 0.7250 -0.2211
3 21 13 2.3228 -0.7214
3 21 14 -1.8546 -0.2928
3 23 0 2.8354 -0.7986
3 23 1 -2.9395 0.0160
3 23 2 0.0957 -0.1389
3 23 3 4.3735 -0.5804
3 23 4 -5.5653 0.3720
3 23 5 1.2245 0.6688
3 23 6 3.0612 0.2490
3 23 7 0.7118 0.4105
3 23 8 3.4365 -0.9344
3 23 9 1.7086 -0.2958
3 23 10 3.4939 -0.0912
3 23 11 -2.0412 1.3925
3 23 12 -2.6994 4.4762
3 25 0 2.2810 -0.4407
3 25 1 0.8142 0.7084
3 25 2 -3.0001 0.2046
3 25 3 2.2279 0.3325
3 25 4 1.2755 0.4426
3 25 5 -7.2191 0.0475
3 25 6 -2.1179 -0.5912
3 25 7 -6.9664 0.2555
3 25 8 0.3586 1.3690
3 25 9 3.6614 -2.4327
3 25 10 0.4341 -0.5235
3 27 0 4.4833 2.2135
3 27 1 -2.8145 1.4866
3 27 2 -2.4881 -0.6995
3 27 3 -4.1866 -0.0412
3 27 4 5.4175 3.5287
3 27 5 1.5482 1.5219
3 27 6 -1.4771 0.0768
4 0 0 83.5745 -25.2947
4 0 2 1.0567 0.5294
4 0 4 -14.8277 24.8813
4 0 6 -7.7552 -2.3472
4 0 10 0.9769 1.7972
4 0 12 2.4684 19.0133
4 0 14 4.5702 -1.5906
4 0 16 -1.0922 -15.3295
4 0 18 0.0182 1.3317
4 0 20 2.0258 11.6226
4 0 22 -4.7648 -1.0817
4 2 0 -45.5469 -2.2499
4 2 1 59.0527 -3.6541
4 2 2 20.3351 0.1162
4 2 3 39.9825 -2.6470
4 2 4 12.7323 0.5749
4 2 5 -8.0070 1.6710
4 2 6 -5.2779 -0.0385
4 2 7 -1.9253 1.7373
4 2 8 -1.0596 -1.0952
4 2 9 6.6867 -1.7406
4 2 10 2.2649 -0.0405
4 2 11 -0.1557 -1.4106
4 2 12 -0.2957 1.1229
4 2 13 1.1420 1.6353
4 2 14 4.3278 0.1629
4 2 15 0.4007 1.0419
4 2 16 -0.4668 -1.0509
4 2 17 0.4299 -1.1570
4 2 18 -0.5075 -0.1512
4 2 19 0.7581 -0.9813
4 2 20 0.7736 0.5817
4 2 21 1.4992 0.8761
4 2 22 -0.7657 -0.0345
4 4 0 -78.0041 -0.6396
4 4 1 -28.9783 3.9753
4 4 2 19.5181 -0.2007
4 4 3 -1.1364 4.0294
4 4 4 16.8969 1.8237
4 4 5 0.5455 -4.1722
4 4 6 -9.9397 0.0702
4 4 7 -7.9957 -3.1376
4 4 8 -4.6860 -1.4826
4 4 9 7.1491 3.7233
4 4 10 0.7921 0.2058
4 4 11 0.3159 2.9099
4 4 12 1.9710 1.2412
4 4 13 -0.8432 -2.8802
4 4 14 3.5089 -0.3226
4 4 15 1.5093 -2.3660
4 4 16 -0.8596 -0.9596
4 4 17 0.9339 2.6284
4 4 18 -1.6616 0.3541
4 4 19 -0.3330 2.3733
4 4 20 -1.6143 0.3554
4 4 21 0.0480 -1.8274
4 4 22 6.4681 -0.1004
4 6 0 -4.6192 1.7717
4 6 1 -8.4418 -0.8861
4 6 2 12.8459 0.6100
4 6 3 -13.1111 -0.9982
4 6 4 0.1597 -2.8022
4 6 5 11.3308 1.1792
4 6 6 -8.4401 0.1471
4 6 7 -6.8793 0.8666
4 6 8 0.8829 2.5184
4 6 9 4.3819 -1.0408
4 6 10 2.0365 -0.5231
4 6 11 -1.3754 -1.2511
4 6 12 2.8310 -1.9293
4 6 13 1.5727 0.4462
4 6 14 0.9043 0.0763
4 6 15 3.8433 0.5246
4 6 16 2.4475 1.5924
4 6 17 1.9961 -0.4598
4 6 18 -0.8392 -0.1697
4 6 19 -0.8802 -1.0452
4 6 20 -1.8425 -1.3728
4 6 21 -2.2014 0.4227
4 8 0 -7.1197 -0.3487
4 8 1 13.5408 -0.1625
4 8 2 3.9670 -0.4822
4 8 3 1.0675 0.1566
4 8 4 8.3946 -0.1997
4 8 5 1.1386 -0.3416
4 8 6 -7.5134 -0.4380
4 8 7 -5.8338 -0.5609
4 8 8 1.5928 0.0836
4 8 9 5.5667 0.1711
4 8 10 2.2970 0.0058
4 8 11 2.4628 0.1892
4 8 12 0.8121 -0.1045
4 8 13 1.5359 -0.1232
4 8 14 0.4104 0.0049
4 8 15 0.8341 -0.0745
4 8 16 1.3002 0.0675
4 8 17 1.0801 0.1774
4 8 18 -0.6507 0.2102
4 8 19 1.0742 0.2254
4 8 20 -0.1534 -0.2550
4 8 21 -0.1277 -0.2115
4 10 0 -6.2589 -0.3777
4 10 1 1.7137 -0.7255
4 10 2 -4.9866 0.8001
4 10 3 2.4649 -1.3264
4 10 4 21.7693 0.4622
4 10 5 -0.9112 1.4760
4 10 6 -8.7042 0.1955
4 10 7 -3.0160 1.6652
4 10 8 -8.3075 -0.5307
4 10 9 -0.4457 -1.1818
4 10 10 0.3267 -0.0435
4 10 11 -0.2716 -0.9973
4 10 12 -4.6556 0.4551
4 10 13 -1.9596 1.2832
4 10 14 0.8109 0.3408
4 10 15 -1.2248 0.8094
4 10 16 -0.4839 -0.7187
4 10 17 -0.6813 -1.0366
4 10 18 -1.7675 -0.5380
4 10 19 0.2034 -1.6647
4 10 20 0.4263 0.2693
4 12 0 8.8491 -0.5638
4 12 1 -14.5236 1.0015
4 12 2 -4.2734 -0.5342
4 12 3 -3.2598 0.9535
4 12 4 8.3204 0.8483
4 12 5 6.8595 -1.2365
4 12 6 0.7871 0.2037
4 12 7 1.8195 -0.9547
4 12 8 -4.0916 -1.0345
4 12 9 -0.6302 1.2745
4 12 10 2.9076 0.3367
4 12 11 5.0978 0.9006
4 12 12 -4.9863 0.6473
4 12 13 -5.6497 -0.5963
4 12 14 1.9964 -0.1589
4 12 15 -2.4039 -0.6850
4 12 16 -0.1580 -0.7609
4 12 17 2.6914 0.3559
4 12 18 3.2667 0.0141
4 12 19 2.3601 0.9452
4 12 20 0.6007 -1.6056
4 14 0 7.3075 0.5789
4 14 1 -1.8534 0.3200
4 14 2 -0.9117 0.3195
4 14 3 -2.2886 -0.3963
4 14 4 -4.1525 -0.6827
4 14 5 2.5916 0.2402
4 14 6 0.6394 0.2386
4 14 7 -0.5883 -0.2144
4 14 8 -1.6883 0.1369
4 14 9 1.0594 -0.1834
4 14 10 1.9295 -0.2982
4 14 11 4.4723 -0.3521
4 14 12 0.1360 -0.3845
4 14 13 -2.6740 -0.2859
4 14 14 0.3987 -0.3292
4 14 15 -1.2571 -0.2121
4 14 16 -1.3090 -0.0599
4 14 17 0.1908 0.5903
4 14 18 3.1108 -0.6443
4 14 19 4.1626 0.6460
4 16 0 -0.4394 0.0463
4 16 1 3.7707 -0.1756
4 16 2 4.6518 -0.8174
4 16 3 -0.5549 0.4315
4 16 4 1.9420 -0.6230
4 16 5 1.6435 -0.1745
4 16 6 -3.3413 -0.3550
4 16 7 -4.3902 -0.8424
4 16 8 -1.8432 0.7261
4 16 9 2.1260 0.3495
4 16 10 1.8698 -0.0118
4 16 11 3.4140 0.6930
4 16 12 -2.7326 -0.4902
4 16 13 -1.8365 -0.5696
4 16 14 -0.6612 -0.3209
4 16 15 -0.0091 -0.3089
4 16 16 1.3809 0.0690
4 16 17 -1.7316 0.8616
4 16 18 -0.4376 -0.4468
4 18 0 5.9020 -0.1398
4 18 1 6.4014 -0.3516
4 18 2 1.4495 0.4887
4 18 3 -0.7874 -0.8679
4 18 4 8.4749 -0.0428
4 18 5 -0.3394 0.8909
4 18 6 -3.8746 -0.2138
4 18 7 -2.2658 1.0234
4 18 8 -8.8071 0.1445
4 18 9 -0.3422 -1.1920
4 18 10 -0.9089 0.0661
4 18 11 2.7841 -0.7261
4 18 12 0.7999 -0.3305
4 18 13 -1.8429 0.2676
4 18 14 -2.3668 0.1353
4 18 15 0.8525 0.5790
4 18 16 3.1695 1.8820
4 18 17 -0.3266 2.0348
4 20 0 3.1637 -0.3939
4 20 1 2.7738 -0.0400
4 20 2 -3.1663 -0.2915
4 20 3 -4.1479 0.5833
4 20 4 2.8364 0.7772
4 20 5 -1.7614 -0.4145
4 20 6 -3.4295 -0.2960
4 20 7 4.1055 -0.2495
4 20 8 -3.3382 -0.0871
4 20 9 -2.7843 0.3794
4 20 10 -2.4790 0.5356
4 20 11 -0.1864 0.0319
4 20 12 -1.6927 0.2120
4 20 13 -0.3443 -0.5500
4 20 14 0.4097 -0.5240
4 20 15 -0.6331 -1.3459
4 22 0 3.0281 0.3557
4 22 1 2.2802 0.7357
4 22 2 -4.1595 -0.0424
4 22 3 -1.0644 -0.1540
4 22 4 1.1409 0.0587
4 22 5 -6.8500 -0.3074
4 22 6 -4.5846 -0.2384
4 22 7 -1.5657 -0.0665
4 22 8 -1.2582 -0.7411
4 22 9 1.0228 -0.3451
4 22 10 -3.1140 -0.5656
4 22 11 1.1336 -2.0856
4 22 12 0.7560 -1.6518
4 22 13 -4.4773 0.7181
4 24 0 -1.2220 0.7025
4 24 1 -2.1846 -0.2723
4 24 2 -1.1350 -0.0470
4 24 3 -1.5975 0.8771
4 24 4 5.5842 0.0499
4 24 5 4.5784 -0.5901
4 24 6 -1.6676 0.1113
4 24 7 3.2869 -0.2976
4 24 8 -4.3032 1.1082
4 24 9 -1.2180 1.6007
4 24 10 -1.7595 0.0284
4 24 11 -2.9123 0.5097
4 26 0 0.7703 0.4891
4 26 1 0.5910 -0.7194
4 26 2 -0.3918 0.4165
4 26 3 2.1737 0.0250
4 26 4 -3.8142 -2.4036
4 26 5 4.5992 -0.3499
4 26 6 -0.0042 0.5008
4 26 7 4.8921 1.7436
4 26 8 2.1661 -1.9775
5 1 0 -53.3127 13.9603
5 1 1 -34.5273 7.3018
5 1 2 57.2282 -0.9213
5 1 3 -15.0605 6.6448
5 1 4 2.1286 -12.7020
5 1 5 5.3980 -6.1643
5 1 6 6.6492 1.3898
5 1 7 2.5594 -4.5181
5 1 8 11.6305 11.8730
5 1 9 -1.5981 5.8779
5 1 10 0.3601 -1.0109
5 1 11 0.2623 3.9527
5 1 12 2.2124 -9.9712
5 1 13 0.0538 -4.6965
5 1 14 -5.9792 0.7950
5 1 15 -0.7612 -2.8372
5 1 16 1.2061 8.1236
5 1 17 -0.6560 3.9007
5 1 18 -2.1565 -0.5362
5 1 19 -0.5473 2.4691
5 1 20 1.0004 -6.5269
5 1 21 -0.5401 -2.3064
5 1 22 1.1104 0.9749
5 3 0 39.0381 -1.7029
5 3 1 -2.0610 -3.3369
5 3 2 20.3515 0.1336
5 3 3 -3.3226 -3.5014
5 3 4 -23.3184 1.1513
5 3 5 5.4423 3.9460
5 3 6 4.7602 -0.2123
5 3 7 8.2570 2.9695
5 3 8 12.4744 -1.0825
5 3 9 -2.8122 -3.6105
5 3 10 -2.1045 -0.2294
5 3 11 -2.6939 -2.6087
5 3 12 2.0649 1.0244
5 3 13 2.0515 2.7335
5 3 14 -4.7862 0.0468
5 3 15 -0.8158 2.0259
5 3 16 1.8505 -0.7591
5 3 17 -1.6149 -2.4749
5 3 18 -1.5799 -0.1681
5 3 19 -0.5522 -1.8334
5 3 20 1.8297 1.0722
5 3 21 -0.9575 1.2858
5 3 22 -3.0231 0.1869
5 5 0 10.7451 0.4302
5 5 1 13.9377 -1.4551
5 5 2 5.0921 -0.1957
5 5 3 21.3384 -0.6567
5 5 4 -14.8822 -1.5366
5 5 5 -11.9514 -0.0943
5 5 6 3.4846 -0.2766
5 5 7 9.3447 0.2809
5 5 8 11.6571 0.8249
5 5 9 3.6623 -0.2822
5 5 10 -0.8491 -0.0549
5 5 11 -0.5719 -0.3690
5 5 12 -2.4410 -0.5679
5 5 13 1.3281 0.4173
5 5 14 -2.7358 0.0706
5 5 15 -3.3236 0.4254
5 5 16 0.4053 0.5216
5 5 17 -1.8111 -0.1217
5 5 18 -1.2989 0.0273
5 5 19 0.9770 -0.5408
5 5 20 2.3969 -0.4903
5 5 21 1.4212 0.2628
5 7 0 -4.3781 -2.3343
5 7 1 -21.6552 1.0578
5 7 2 -2.4840 0.3404
5 7 3 10.3184 -0.3463
5 7 4 -2.6495 3.5160
5 7 5 -12.6864 0.2445
5 7 6 -6.5305 0.0493
5 7 7 5.9867 0.2689
5 7 8 0.8052 -2.9268
5 7 9 1.1225 0.0771
5 7 10 -0.6366 0.2179
5 7 11 -0.7377 0.3790
5 7 12 -2.0638 2.5445
5 7 13 -0.7088 0.3490
5 7 14 0.0396 -0.1916
5 7 15 -2.3082 -0.2063
5 7 16 -2.3304 -1.9920
5 7 17 -2.5124 0.0171
5 7 18 -1.4590 0.0443
5 7 19 -0.0956 0.3328
5 7 20 1.2621 1.9285
5 7 21 1.1255 0.2894
5 9 0 -0.6921 1.3843
5 9 1 -21.2505 0.5379
5 9 2 5.9211 -0.3813
5 9 3 0.8215 1.2859
5 9 4 -8.6986 -1.5356
5 9 5 1.8524 -1.1793
5 9 6 -2.7462 0.2070
5 9 7 4.5202 -0.9155
5 9 8 6.5484 1.5783
5 9 9 -0.8688 1.1080
5 9 10 1.1239 -0.1856
5 9 11 0.1578 0.6011
5 9 12 -0.0191 -1.2628
5 9 13 0.0518 -0.9802
5 9 14 1.8786 -0.2137
5 9 15 1.4355 -0.7918
5 9 16 -0.6307 0.7509
5 9 17 -0.0326 0.6243
5 9 18 2.1962 0.4267
5 9 19 0.2501 0.2597
5 9 20 -0.3431 -1.0133
5 9 21 -0.4972 -0.7182
5 11 0 -5.0657 0.0467
5 11 1 0.7757 -0.0471
5 11 2 2.8331 -0.3834
5 11 3 6.7394 -0.2374
5 11 4 -8.2652 0.1821
5 11 5 -6.5364 0.2220
5 11 6 -1.6462 -0.1661
5 11 7 -2.0620 -0.1109
5 11 8 6.2675 -0.1858
5 11 9 1.6737 -0.5940
5 11 10 -0.7464 -0.1966
5 11 11 -0.7342 -0.0441
5 11 12 4.1689 -0.0010
5 11 13 2.8384 0.1202
5 11 14 1.4399 0.0226
5 11 15 4.5882 -0.0862
5 11 16 -1.8545 0.1327
5 11 17 -1.5742 -0.1132
5 11 18 1.7412 -0.0803
5 11 19 2.2531 0.9477
5 11 20 -0.5463 2.6371
5 13 0 -9.0512 0.4158
5 13 1 6.1271 -1.2090
5 13 2 0.3460 0.3385
5 13 3 8.8128 -0.0110
5 13 4 8.1184 -1.2091
5 13 5 -8.9274 0.4075
5 13 6 -2.7269 -0.1644
5 13 7 -2.2378 0.8559
5 13 8 0.4312 1.3333
5 13 9 1.5877 -0.5817
5 13 10 -0.6023 0.1448
5 13 11 -6.6684 -0.2036
5 13 12 -1.5448 -1.0527
5 13 13 3.0155 0.4043
5 13 14 0.5837 0.1343
5 13 15 4.6982 0.4928
5 13 16 0.2923 0.8268
5 13 17 -2.4608 -0.0319
5 13 18 -2.5387 -0.5098
5 13 19 -1.0954 -1.9494
5 15 0 4.6117 -1.0222
5 15 1 -2.5239 0.2258
5 15 2 -5.1440 0.2259
5 15 3 5.1976 -0.5620
5 15 4 5.9242 1.3455
5 15 5 -4.4860 0.1994
5 15 6 0.2342 -0.0183
5 15 7 0.8661 0.3165
5 15 8 -0.0676 -1.4663
5 15 9 1.5349 -0.2822
5 15 10 3.8814 0.2547
5 15 11 -4.1971 0.0409
5 15 12 -0.7079 1.1803
5 15 13 -0.0206 0.6221
5 15 14 -0.3953 0.3255
5 15 15 1.6147 0.9391
5 15 16 1.6999 -0.2177
5 15 17 1.4023 0.0409
5 15 18 -0.2352 -0.2540
5 17 0 -3.5670 0.5223
5 17 1 -3.5327 0.2020
5 17 2 -4.2633 0.3606
5 17 3 0.1543 0.5685
5 17 4 -1.7255 -0.2737
5 17 5 0.2334 -0.4522
5 17 6 1.8860 0.3993
5 17 7 1.6624 -0.3737
5 17 8 5.8122 0.5240
5 17 9 -0.4438 0.5123
5 17 10 3.7537 0.0235
5 17 11 -4.7915 -0.0097
5 17 12 -0.8076 -0.4997
5 17 13 1.9944 -0.4059
5 17 14 -0.3666 -0.0362
5 17 15 -1.4199 0.4818
5 17 16 -0.2019 -0.5558
5 17 17 0.8445 1.2905
5 19 0 -3.7875 0.2070
5 19 1 -5.2708 0.4958
5 19 2 -0.6258 -0.8430
5 19 3 -1.4741 0.0186
5 19 4 -3.7295 -0.1180
5 19 5 1.5397 -0.2591
5 19 6 1.4173 0.0842
5 19 7 -3.5488 -0.9174
5 19 8 7.9169 -0.4658
5 19 9 3.6605 0.2257
5 19 10 4.1499 -0.5150
5 19 11 0.7832 0.4640
5 19 12 -0.8143 0.5743
5 19 13 -1.7609 0.2774
5 19 14 0.7264 0.3781
5 19 15 0.8942 1.1192
5 19 16 -1.7661 -2.8055
5 21 0 -3.4665 0.6174
5 21 1 -0.2405 -0.6977
5 21 2 2.3518 0.2742
5 21 3 -1.1197 0.2913
5 21 4 3.6458 -1.0275
5 21 5 5.4410 0.2044
5 21 6 2.1142 0.0840
5 21 7 -1.2442 0.4332
5 21 8 0.2012 1.4916
5 21 9 -0.8648 -0.5526
5 21 10 2.9648 0.1202
5 21 11 1.6870 0.0424
5 21 12 2.0817 -0.1633
5 21 13 1.0398 0.0858
5 21 14 -2.5776 -0.0340
5 23 0 -1.1861 -0.3158
5 23 1 2.2009 -0.6267
5 23 2 2.0851 -0.3510
5 23 3 -2.0875 -0.8283
5 23 4 -2.7665 0.3546
5 23 5 1.4849 0.5331
5 23 6 2.5562 -0.3371
5 23 7 0.9598 -0.4911
5 23 8 5.2108 -0.7370
5 23 9 -2.2644 0.0685
5 23 10 1.6049 0.8390
5 23 11 3.6944 1.1651
5 23 12 -1.9949 4.5433
5 25 0 -3.3690 -0.7949
5 25 1 4.9001 0.2489
5 25 2 3.9352 0.1397
5 25 3 0.2014 -0.4654
5 25 4 0.9571 0.5902
5 25 5 -7.1702 0.0145
5 25 6 0.2306 -0.6857
5 25 7 -5.8844 -0.9939
5 25 8 0.7067 -1.0941
5 25 9 0.6293 -1.5199
5 27 0 0.2255 -0.8529
5 27 1 -2.0482 -0.0159
5 27 2 2.3046 -0.2041
5 27 3 -3.8783 -1.8827
5 27 4 1.1423 3.7444
5 27 5 -0.5996 1.1430
6 0 0 61.9748 -25.9106
6 0 2 -54.3017 2.7046
6 0 4 -19.8246 23.9676
6 0 6 -3.5948 -3.0695
6 0 8 -8.7259 -21.9320
6 0 10 -7.4073 2.6065
6 0 12 -2.6364 18.6203
6 0 14 3.0414 -2.3406
6 0 16 -0.6413 -15.0274
6 0 18 1.6555 1.8926
6 0 20 -1.2448 11.6803
6 0 22 -1.0586 -1.2340
6 2 0 11.8915 -1.3282
6 2 1 21.3311 -2.7668
6 2 2 -28.7115 0.5122
6 2 3 2.4679 -2.6425
6 2 4 1.1059 0.7980
6 2 5 -10.1627 1.8207
6 2 6 -0.3961 -0.2404
6 2 7 -5.5896 1.5300
6 2 8 -10.2764 -1.0291
6 2 9 0.6059 -1.9501
6 2 10 -3.3545 0.1027
6 2 11 1.1659 -1.4603
6 2 12 -2.9270 1.0155
6 2 13 -2.2045 1.4852
6 2 14 1.7992 -0.2932
6 2 15 0.6257 0.9629
6 2 16 -1.1639 -0.6392
6 2 17 1.0236 -1.3394
6 2 18 1.4631 -0.0919
6 2 19 0.5986 -1.1485
6 2 20 -0.9466 0.9450
6 2 21 0.2830 1.1132
6 2 22 -0.2081 -0.6946
6 4 0 -13.1431 -0.4422
6 4 1 -6.3635 5.4775
6 4 2 -7.7321 -0.1128
6 4 3 -13.1289 4.0456
6 4 4 18.0306 2.5111
6 4 5 2.7321 -3.4147
6 4 6 0.9661 0.0984
6 4 7 -4.5690 -2.8579
6 4 8 -13.7865 -1.2825
6 4 9 -7.5267 3.6968
6 4 10 -0.2794 0.6325
6 4 11 2.9580 2.9828
6 4 12 1.4432 1.0096
6 4 13 -2.7287 -2.9017
6 4 14 1.2283 -0.6377
6 4 15 0.8615 -2.0963
6 4 16 -1.7769 -0.7410
6 4 17 0.8880 2.3371
6 4 18 1.5528 0.4043
6 4 19 -1.0868 2.1491
6 4 20 -1.0501 0.4558
6 4 21 -0.2364 -1.4872
6 6 0 5.4299 2.4829
6 6 1 14.1337 -1.6054
6 6 2 -0.1536 -0.1148
6 6 3 -12.1216 -0.7431
6 6 4 2.5700 -2.7246
6 6 5 17.2871 1.3989
6 6 6 12.2979 0.4665
6 6 7 1.6466 0.9721
6 6 8 -1.3396 2.4413
6 6 9 -11.8542 -1.2395
6 6 10 -2.0921 -0.3437
6 6 11 0.4542 -0.9900
6 6 12 2.6550 -2.0882
6 6 13 -0.6194 0.5147
6 6 14 0.9151 0.2152
6 6 15 1.2625 0.7485
6 6 16 0.7179 1.6075
6 6 17 1.9026 -0.9390
6 6 18 2.8331 -0.3775
6 6 19 -1.5127 -0.9401
6 6 20 -1.3727 -1.0133
6 6 21 -1.1493 0.4305
6 8 0 9.2360 0.1425
6 8 1 30.5070 -0.2661
6 8 2 -2.0750 -0.4528
6 8 3 1.9868 0.3697
6 8 4 -7.5284 -0.3005
6 8 5 -0.9291 -0.5536
6 8 6 13.2453 -0.3127
6 8 7 2.5571 -0.2964
6 8 8 3.1566 0.0047
6 8 9 -1.9317 0.0013
6 8 10 -1.8212 0.2589
6 8 11 1.1257 0.1164
6 8 12 1.6740 -0.1941
6 8 13 -0.3712 -0.2697
6 8 14 -1.0240 0.0366
6 8 15 -1.4453 0.1536
6 8 16 -0.2506 0.4495
6 8 17 1.5976 -0.0295
6 8 18 1.2559 0.0520
6 8 19 0.0159 0.7155
6 8 20 -0.5634 -0.3269
6 8 21 -0.3058 -0.5492
6 10 0 2.5398 -0.7649
6 10 1 19.5135 -1.0541
6 10 2 1.1385 1.0053
6 10 3 -1.9230 -1.3875
6 10 4 1.3394 0.4656
6 10 5 -3.3941 1.4111
6 10 6 1.9788 0.1454
6 10 7 3.5891 1.5855
6 10 8 -4.5970 -0.3822
6 10 9 -1.2265 -1.2323
6 10 10 -1.1307 0.0928
6 10 11 -0.6548 -0.8542
6 10 12 -0.4857 0.5332
6 10 13 -0.3943 1.0320
6 10 14 -2.8661 0.1890
6 10 15 -3.9236 1.0013
6 10 16 0.0577 -0.0320
6 10 17 -0.0543 -0.5262
6 10 18 -2.5762 -0.3945
6 10 19 -2.6442 -0.8152
6 10 20 0.3273 0.0341
6 12 0 5.6884 -0.4678
6 12 1 -2.2328 1.3337
6 12 2 5.0569 -0.4315
6 12 3 -10.3574 0.8818
6 12 4 -7.1898 1.0348
6 12 5 8.9819 -1.2290
6 12 6 1.3424 -0.1156
6 12 7 5.7813 -1.1332
6 12 8 0.0417 -0.7514
6 12 9 -2.2184 1.2227
6 12 10 0.1816 0.0709
6 12 11 3.9390 0.9426
6 12 12 1.5870 0.7882
6 12 13 -2.0542 -0.8963
6 12 14 -2.1336 -0.2001
6 12 15 -4.5342 -0.7463
6 12 16 1.4609 -0.6488
6 12 17 2.5089 0.3930
6 12 18 -0.3082 1.0175
6 12 19 -2.8891 0.6833
6 14 0 -2.6825 0.8491
6 14 1 1.4269 0.2125
6 14 2 4.5015 0.0599
6 14 3 -8.3215 -0.0589
6 14 4 -11.5392 -0.2718
6 14 5 5.2344 0.3015
6 14 6 1.2495 0.3316
6 14 7 2.8917 -0.0491
6 14 8 2.6230 0.4260
6 14 9 -4.8845 -0.2306
6 14 10 -6.2309 -0.4850
6 14 11 4.0521 -0.4729
6 14 12 4.2425 -0.3761
6 14 13 0.8114 -0.0571
6 14 14 -1.5054 0.2700
6 14 15 -2.1384 -0.1043
6 14 16 -0.8341 0.1862
6 14 17 1.2494 -0.6716
6 14 18 0.3892 0.7244
6 14 19 -0.8403 1.6729
6 16 0 -4.3259 0.3298
6 16 1 -0.3523 -0.3129
6 16 2 5.2249 -0.7944
6 16 3 -3.0144 0.6126
6 16 4 -4.7035 -0.5209
6 16 5 -0.1225 -0.3766
6 16 6 -0.5070 -0.2924
6 16 7 1.9328 -0.3600
6 16 8 1.6869 0.6695
6 16 9 -1.1812 0.5053
6 16 10 -7.8849 -0.0979
6 16 11 3.1040 0.7222
6 16 12 -0.5855 -0.4108
6 16 13 -0.2606 -0.3747
6 16 14 1.2342 -0.0381
6 16 15 0.4792 -0.8043
6 16 16 -1.2813 -0.3269
6 16 17 0.1535 -2.1253
6 16 18 -0.6599 0.6935
6 18 0 3.0525 -0.3622
6 18 1 3.8025 -0.6997
6 18 2 2.2429 0.7344
6 18 3 3.4599 -0.7856
6 18 4 0.3037 0.0786
6 18 5 -2.0746 0.8686
6 18 6 -1.5550 0.0594
6 18 7 1.5446 1.2068
6 18 8 -5.6730 -0.2773
6 18 9 -2.2063 -0.8641
6 18 10 -4.0056 -0.0570
6 18 11 1.8847 -0.5835
6 18 12 2.3613 0.2167
6 18 13 1.2421 1.0021
6 18 14 -0.3546 0.4117
6 18 15 0.1551 0.5124
6 18 16 0.1159 1.3844
6 20 0 -0.2431 -0.8686
6 20 1 0.6722 0.0652
6 20 2 0.2500 0.0186
6 20 3 2.0588 0.1167
6 20 4 -3.2949 0.9423
6 20 5 -1.1751 -0.3864
6 20 6 0.5266 0.1343
6 20 7 3.1551 -0.1985
6 20 8 -1.6869 -0.1965
6 20 9 -2.4399 1.0336
6 20 10 -3.1156 0.5149
6 20 11 -2.5038 1.0713
6 20 12 -1.1342 -0.4601
6 20 13 4.0038 -0.2444
6 20 14 1.5190 -0.1400
6 20 15 -5.0071 -1.6741
6 22 0 2.9193 -0.3909
6 22 1 -1.0598 0.9946
6 22 2 -0.1296 0.0171
6 22 3 2.4172 -0.0866
6 22 4 -4.5271 -0.0585
6 22 5 -3.5918 -0.1136
6 22 6 -1.2943 0.4490
6 22 7 -0.9617 0.1614
6 22 8 -2.4275 -0.8869
6 22 9 2.9688 -0.1230
6 22 10 -0.9591 -0.5517
6 22 11 -2.3360 -0.3410
6 22 12 0.9742 -2.2326
6 22 13 -1.0295 0.4600
6 24 0 2.3999 0.1595
6 24 1 -5.9642 0.3366
6 24 2 -2.7512 -0.4259
6 24 3 0.4392 1.2563
6 24 4 -0.9063 -0.1941
6 24 5 4.8003 -0.2707
6 24 6 -0.0364 0.5551
6 24 7 4.4488 0.8380
6 24 8 -3.9274 2.9360
6 24 9 -0.8589 0.3584
6 24 10 0.5541 -0.3042
6 26 0 5.7628 2.6125
6 26 1 -1.5487 0.3787
6 26 2 -5.0063 0.0534
6 26 3 0.9518 0.3163
6 26 4 -6.0065 -2.4701
6 26 5 2.7324 1.0728
6 26 6 -0.0053 0.3962
6 26 7 4.2679 1.1482
7 1 0 -5.0639 13.9011
7 1 1 -11.9222 6.9313
7 1 2 10.4742 -1.9696
7 1 3 -0.6429 5.9735
7 1 4 20.7258 -12.2418
7 1 5 9.7455 -5.7960
7 1 6 0.7168 1.8886
7 1 7 2.8250 -4.3449
7 1 8 -2.5096 11.4199
7 1 9 -2.5860 5.7190
7 1 10 10.2817 -1.2939
7 1 11 0.5851 3.8535
7 1 12 2.1043 -10.0053
7 1 13 1.2678 -4.6076
7 1 14 -0.2711 1.3475
7 1 15 -0.3956 -2.7797
7 1 16 0.3227 7.9464
7 1 17 -0.3066 4.1757
7 1 18 1.3688 -0.8503
7 1 19 -0.4779 2.4971
7 1 20 -0.1992 -6.7108
7 1 21 0.7796 -1.7630
7 3 0 14.5610 -1.9897
7 3 1 -3.8374 -4.8007
7 3 2 -7.7589 0.0981
7 3 3 0.3346 -3.3836
7 3 4 -7.4699 0.7753
7 3 5 10.4246 3.8364
7 3 6 1.3206 -0.1271
7 3 7 1.1042 2.4714
7 3 8 5.1375 -1.1589
7 3 9 0.5213 -3.6430
7 3 10 2.6655 -0.0841
7 3 11 -1.2973 -2.3687
7 3 12 -1.1964 0.7970
7 3 13 2.1534 2.7877
7 3 14 0.7347 0.4230
7 3 15 -0.0291 1.7068
7 3 16 1.5101 -0.7465
7 3 17 0.0955 -2.4811
7 3 18 1.4716 -0.1901
7 3 19 1.1254 -1.3243
7 3 20 -1.0015 0.7768
7 3 21 1.3163 1.3802
7 5 0 4.3999 0.2988
7 5 1 1.9452 -1.2914
7 5 2 -5.5364 -0.1863
7 5 3 2.1583 -0.5656
7 5 4 -10.0646 -1.3847
7 5 5 -12.6539 -0.2227
7 5 6 -4.2293 -0.2927
7 5 7 -8.0393 0.0283
7 5 8 0.1254 0.5901
7 5 9 13.0791 -0.3658
7 5 10 1.6379 -0.1155
7 5 11 -1.1756 -0.5612
7 5 12 -4.1177 -0.7307
7 5 13 0.0303 0.2574
7 5 14 -1.2618 0.2504
7 5 15 0.3139 0.2774
7 5 16 0.4205 0.6229
7 5 17 0.1751 -0.2572
7 5 18 -0.6616 0.0774
7 5 19 3.3396 -0.1394
7 5 20 -0.2845 -0.7622
7 5 21 1.4404 0.3463
7 7 0 -15.8123 -3.0285
7 7 1 -14.0375 1.2843
7 7 2 0.4173 0.6957
7 7 3 -8.1436 -0.3123
7 7 4 10.8630 3.5613
7 7 5 -3.7735 0.4378
7 7 6 -12.4392 -0.1110
7 7 7 -12.4923 0.1295
7 7 8 -12.6942 -2.7258
7 7 9 6.5212 0.0310
7 7 10 1.8998 0.3742
7 7 11 -1.3059 0.4697
7 7 12 -1.5105 2.3563
7 7 13 -0.1464 0.2112
7 7 14 -2.4042 -0.2185
7 7 15 1.4860 -0.1317
7 7 16 0.6620 -1.8031
7 7 17 -1.3204 -0.0049
7 7 18 -2.4955 0.0750
7 7 19 1.1216 0.5956
7 7 20 0.5501 1.5726
7 7 21 0.6483 0.1734
7 9 0 -8.4398 1.7351
7 9 1 -23.8045 0.8397
7 9 2 -0.8522 -0.5369
7 9 3 -11.4742 1.2255
7 9 4 4.9577 -1.6260
7 9 5 15.6877 -1.2403
7 9 6 0.5418 0.1115
7 9 7 -8.1879 -1.0899
7 9 8 -2.9706 1.3972
7 9 9 -0.4315 1.1271
7 9 10 -0.4704 -0.2815
7 9 11 -1.6985 0.6798
7 9 12 -0.8794 -1.3355
7 9 13 -0.3121 -1.1003
7 9 14 0.0525 -0.1595
7 9 15 2.4210 -0.7138
7 9 16 2.9800 0.6919
7 9 17 0.3828 0.7136
7 9 18 -0.2019 0.1611
7 9 19 0.1156 -0.4910
7 9 20 0.1638 -1.3010
7 11 0 1.0865 0.0408
7 11 1 -4.3601 -0.0011
7 11 2 -8.2969 -0.3042
7 11 3 0.9299 -0.0698
7 11 4 -0.3640 0.2032
7 11 5 0.8987 0.3756
7 11 6 4.5022 -0.0335
7 11 7 -7.4020 -0.2716
7 11 8 0.8627 -0.3789
7 11 9 1.1720 -0.2511
7 11 10 -0.5154 -0.1360
7 11 11 -1.0916 -0.1076
7 11 12 -0.9309 0.2248
7 11 13 0.1679 0.1308
7 11 14 0.2969 0.1518
7 11 15 2.3943 0.1026
7 11 16 0.8953 -0.1201
7 11 17 0.1401 -0.2570
7 11 18 1.0064 -0.1578
7 11 19 1.8258 0.3276
7 11 20 0.0924 0.7430
7 13 0 -2.6489 0.4505
7 13 1 0.6196 -1.2244
7 13 2 -2.8531 0.0839
7 13 3 5.2293 -0.1363
7 13 4 9.1391 -1.2483
7 13 5 -4.3005 0.3692
7 13 6 -0.4954 -0.0092
7 13 7 -4.3973 0.6205
7 13 8 -3.0183 1.0751
7 13 9 3.1736 -0.1944
7 13 10 3.0398 0.0969
7 13 11 -1.6113 -0.2179
7 13 12 -4.5994 -0.8352
7 13 13 0.3656 0.1966
7 13 14 1.2464 -0.0715
7 13 15 0.1773 0.3031
7 13 16 0.0386 0.4301
7 13 17 -2.2704 0.2651
7 13 18 -0.3016 -0.3606
7 13 19 0.9580 -1.0517
7 15 0 4.7234 -1.3982
7 15 1 -0.0666 0.3954
7 15 2 -1.3620 0.1899
7 15 3 3.6953 -0.5533
7 15 4 5.6564 1.3774
7 15 5 0.5636 0.1346
7 15 6 -0.4487 -0.1890
7 15 7 -3.6750 0.0489
7 15 8 -5.6272 -1.5924
7 15 9 3.0311 -0.1450
7 15 10 8.4479 0.1868
7 15 11 1.5722 -0.0267
7 15 12 0.1317 1.4451
7 15 13 -1.3363 0.4466
7 15 14 0.8706 -0.1688
7 15 15 -0.1571 -0.2764
7 15 16 0.8266 -0.9338
7 15 17 -2.0869 0.2605
7 15 18 0.3902 -0.6387
7 17 0 -2.5874 0.3348
7 17 1 1.3344 0.5183
7 17 2 0.8675 0.1796
7 17 3 -1.6534 0.4461
7 17 4 2.4238 -0.1638
7 17 5 2.3484 -0.5888
7 17 6 3.7411 0.2124
7 17 7 -1.5498 -0.1985
7 17 8 -2.4033 0.5238
7 17 9 -0.4659 0.4576
7 17 10 2.9546 0.2086
7 17 11 -1.0381 -0.4932
7 17 12 -0.5023 -0.8067
7 17 13 0.1713 -0.5022
7 17 14 0.0116 -0.4150
7 17 15 -0.6152 -1.0224
7 17 16 1.0035 1.1676
7 17 17 -1.2335 3.4876
7 19 0 0.0517 0.1762
7 19 1 -0.6628 0.7088
7 19 2 1.6476 -0.5022
7 19 3 -3.9856 0.0682
7 19 4 1.1441 -0.0851
7 19 5 -0.2348 -0.2162
7 19 6 0.9168 -0.3188
7 19 7 -1.1985 -0.5631
7 19 8 1.3790 -0.5466
7 19 9 3.8930 0.1579
7 19 10 1.4613 -0.2548
7 19 11 0.6495 -0.1280
7 19 12 -3.0029 0.4948
7 19 13 -5.3844 -0.7821
7 19 14 0.3690 -0.2407
7 19 15 2.3255 -1.3135
7 21 0 -3.0157 0.9798
7 21 1 1.6854 -0.6613
7 21 2 0.6583 0.4483
7 21 3 -1.5257 0.2302
7 21 4 6.3402 -0.7904
7 21 5 2.3396 0.2616
7 21 6 -0.0922 -0.0173
7 21 7 -1.5436 0.8093
7 21 8 -0.7756 1.0303
7 21 9 -0.4679 -1.0627
7 21 10 1.4644 -0.4266
7 21 11 1.3068 -1.1305
7 21 12 -0.6528 -0.1451
7 21 13 -2.3734 -1.2345
7 21 14 -3.2428 -0.2269
7 23 0 -2.9375 -0.1136
7 23 1 2.9650 -0.7449
7 23 2 -1.3650 0.2773
7 23 3 -3.2644 -1.0376
7 23 4 3.5717 0.6628
7 23 5 -0.2908 0.2502
7 23 6 1.5659 0.0223
7 23 7 -1.9909 -0.2995
7 23 8 3.5017 -1.6525
7 23 9 0.3420 0.3923
7 23 10 -0.7618 -0.1507
7 23 11 1.3850 0.9774
7 25 0 -4.9127 -1.8823
7 25 1 5.6028 -0.1826
7 25 2 3.3463 0.4817
7 25 3 -0.3485 0.0646
7 25 4 6.8969 0.0826
7 25 5 -4.1124 -1.3643
7 25 6 -0.1967 0.6152
7 25 7 -5.6321 -0.3248
7 25 8 -1.0197 -4.7076
7 27 0 -4.3688 -4.3110
7 27 1 -1.1491 -1.6108
7 27 2 2.2151 -0.3589
7 27 3 -1.5301 -0.4689
8 0 0 -22.9241 -25.1047
8 0 2 1.1392 3.8299
8 0 4 -24.4442 22.9065
8 0 6 0.5218 -3.7667
8 0 8 11.3866 -21.1207
8 0 10 -10.8468 3.3738
8 0 12 -3.0483 18.1365
8 0 14 1.6226 -2.7333
8 0 16 0.3466 -14.7375
8 0 18 -2.3649 2.4251
8 0 20 -0.5714 11.1231
8 2 0 -19.5148 -1.0860
8 2 1 5.0798 -2.0814
8 2 2 13.3514 0.3926
8 2 3 3.8012 -2.1035
8 2 4 -5.9156 0.8821
8 2 5 -17.5070 1.6506
8 2 6 -3.1753 -0.2389
8 2 7 -2.3996 1.3093
8 2 8 4.1990 -1.1522
8 2 9 9.0435 -1.8258
8 2 10 -5.1672 -0.1162
8 2 11 -1.0517 -1.3176
8 2 12 -0.5899 1.0363
8 2 13 -0.7854 1.5743
8 2 14 0.8554 0.0512
8 2 15 0.0708 1.0693
8 2 16 -0.6997 -0.9196
8 2 17 0.0342 -1.2529
8 2 18 -3.5087 0.1227
8 2 19 0.4596 -0.9651
8 2 20 0.7561 0.6061
8 2 21 -3.0781 0.6127
8 4 0 -13.2303 -0.5538
8 4 1 -6.2789 5.5994
8 4 2 16.7585 0.1215
8 4 3 7.8889 3.5895
8 4 4 16.4239 2.1857
8 4 5 1.2946 -3.6438
8 4 6 -7.2735 0.0984
8 4 7 5.8230 -2.5368
8 4 8 -0.3741 -1.1143
8 4 9 -1.1563 3.8315
8 4 10 1.1397 0.4444
8 4 11 0.3731 2.8210
8 4 12 3.9051 0.8994
8 4 13 1.5335 -2.7886
8 4 14 2.1055 -0.2648
8 4 15 -0.3214 -1.8831
8 4 16 -0.1012 -0.9888
8 4 17 -0.9995 2.7878
8 4 18 -3.0634 0.4290
8 4 19 -3.3302 1.9416
8 4 20 1.4333 0.1552
8 4 21 -3.7731 -1.7507
8 6 0 11.2989 2.7904
8 6 1 -10.5049 -1.9941
8 6 2 2.7357 -0.3016
8 6 3 10.6891 -0.8413
8 6 4 1.0267 -3.0056
8 6 5 11.5552 0.9310
8 6 6 3.0955 0.4233
8 6 7 13.2150 0.5779
8 6 8 12.4642 2.2881
8 6 9 -6.1609 -0.9269
8 6 10 -0.6882 -0.6423
8 6 11 0.4670 -0.9201
8 6 12 2.3055 -1.9438
8 6 13 2.5490 0.7912
8 6 14 5.1344 0.5093
8 6 15 -0.8226 0.4742
8 6 16 1.1715 1.3804
8 6 17 -0.0955 -0.2800
8 6 18 -0.2020 -0.5769
8 6 19 -3.0725 -1.2315
8 6 20 0.4663 -0.7475
8 6 21 -2.0315 0.1311
8 8 0 21.2148 -0.1300
8 8 1 7.8126 -0.2115
8 8 2 -4.9414 -0.3740
8 8 3 18.7747 0.1951
8 8 4 -6.6382 -0.1401
8 8 5 -16.5994 -0.2712
8 8 6 -1.7923 -0.3594
8 8 7 9.9029 -0.5512
8 8 8 9.7116 0.0321
8 8 9 3.4935 0.2649
8 8 10 2.3028 0.0027
8 8 11 2.0135 -0.0480
8 8 12 -0.0625 -0.0027
8 8 13 0.9092 0.0223
8 8 14 3.6999 0.1459
8 8 15 -0.2310 -0.3078
8 8 16 -1.6210 -0.0863
8 8 17 0.0482 0.2328
8 8 18 0.6082 0.1736
8 8 19 0.4483 0.2207
8 8 20 0.0182 -0.1521
8 10 0 -1.5334 -0.8617
8 10 1 5.4019 -1.3847
8 10 2 3.9597 0.8189
8 10 3 13.1714 -1.4915
8 10 4 7.6835 0.4312
8 10 5 -14.2312 1.6758
8 10 6 -10.8090 0.2008
8 10 7 4.4723 1.3614
8 10 8 -1.7264 -0.2093
8 10 9 1.9168 -1.1406
8 10 10 2.5674 0.1261
8 10 11 0.6892 -0.9413
8 10 12 -0.1177 0.4740
8 10 13 1.5222 1.3184
8 10 14 2.0684 0.2034
8 10 15 -0.2234 0.8329
8 10 16 -2.6069 -0.3275
8 10 17 -1.8146 -0.6734
8 10 18 -0.0870 -0.5046
8 10 19 1.1725 -0.2618
8 10 20 -0.0924 1.3317
8 12 0 2.2894 -0.6493
8 12 1 -6.1160 1.4335
8 12 2 0.9898 -0.2092
8 12 3 4.6705 0.7348
8 12 4 0.1624 0.9508
8 12 5 1.9039 -1.3953
8 12 6 -2.6425 -0.2700
8 12 7 1.7206 -0.9337
8 12 8 1.6122 -0.8415
8 12 9 1.6257 1.0699
8 12 10 0.7241 0.3106
8 12 11 -1.9827 0.6882
8 12 12 1.1644 0.5003
8 12 13 -0.7512 -0.8611
8 12 14 2.7075 -0.5354
8 12 15 1.5305 -0.9007
8 12 16 -0.9685 -0.5974
8 12 17 -0.1461 0.3896
8 12 18 0.0542 -0.0894
8 12 19 1.4333 0.6308
8 14 0 1.7827 0.6117
8 14 1 2.0975 0.0177
8 14 2 -3.9471 0.3384
8 14 3 1.1275 -0.1479
8 14 4 -3.1920 -0.3497
8 14 5 0.4845 0.1780
8 14 6 1.7813 0.3633
8 14 7 0.1452 0.1977
8 14 8 4.4046 0.2747
8 14 9 -0.2635 -0.2642
8 14 10 -3.2529 -0.0952
8 14 11 -5.3781 -0.7590
8 14 12 0.0746 -0.3243
8 14 13 -0.1907 0.2121
8 14 14 -0.7423 0.2066
8 14 15 1.7038 0.5418
8 14 16 -0.1713 1.0712
8 14 17 2.1613 0.6187
8 14 18 -0.1309 -0.9265
8 16 0 1.9619 0.5104
8 16 1 -1.8120 -0.1882
8 16 2 -4.2589 -0.4679
8 16 3 -0.8025 0.3699
8 16 4 -1.4053 -0.6587
8 16 5 -0.5910 -0.3398
8 16 6 -3.3593 -0.2364
8 16 7 1.7986 -0.3146
8 16 8 6.6965 0.6205
8 16 9 2.3184 0.3404
8 16 10 -1.2908 -0.0100
8 16 11 -3.8434 0.5808
8 16 12 -2.5162 -0.3750
8 16 13 -1.0017 -0.5617
8 16 14 -0.0600 -0.0444
8 16 15 -0.0209 0.1156
8 16 16 -1.1652 -0.1164
8 16 17 1.6409 1.4802
8 18 0 3.0377 0.0484
8 18 1 -0.5378 -0.9143
8 18 2 -4.7910 0.5380
8 18 3 3.3714 -0.7305
8 18 4 -1.5751 -0.1137
8 18 5 0.7015 1.0033
8 18 6 -4.3930 0.1767
8 18 7 -1.5306 0.8213
8 18 8 2.1656 -0.3221
8 18 9 -0.5619 -1.3069
8 18 10 2.5078 -0.2374
8 18 11 0.2420 -0.4938
8 18 12 4.5055 0.7641
8 18 13 1.9106 1.0970
8 18 14 -0.4641 0.6166
8 18 15 1.0999 2.2716
8 18 16 -0.9932 -1.2541
8 20 0 1.7188 -0.5335
8 20 1 -3.8496 0.0290
8 20 2 -3.1787 -0.1505
8 20 3 2.6143 0.1628
8 20 4 -3.8936 0.6478
8 20 5 -0.8100 -0.4204
8 20 6 0.8316 -0.0312
8 20 7 0.9754 -0.6324
8 20 8 1.7928 -0.1581
8 20 9 -1.1983 0.8070
8 20 10 -1.2411 0.5718
8 20 11 -1.3020 0.8804
8 20 12 3.1433 0.7385
8 20 13 4.7595 0.5188
8 20 14 2.1168 -0.7452
8 22 0 4.7302 -0.4301
8 22 1 -2.7905 0.6674
8 22 2 2.9494 0.0573
8 22 3 4.6053 0.0346
8 22 4 -5.3813 -0.2391
8 22 5 -2.5250 0.0753
8 22 6 -2.9628 -0.3625
8 22 7 0.5810 -0.7998
8 22 8 -0.4769 -0.8549
8 22 9 1.5132 0.3785
8 22 10 0.2732 0.4718
8 22 11 -0.4303 -0.8172
8 22 12 2.1344 1.5005
8 24 0 0.7427 0.3669
8 24 1 -7.3205 0.3888
8 24 2 2.6849 -0.3399
8 24 3 4.9223 0.6312
8 24 4 -4.1211 0.6837
8 24 5 4.3522 0.0669
8 24 6 -2.0038 -1.2462
8 24 7 1.7080 -0.3404
8 24 8 -0.5127 3.3630
8 24 9 -2.3185 -0.1053
8 24 10 1.2887 0.6527
8 26 0 4.4715 3.9020
8 26 1 -3.5646 0.3075
8 26 2 -0.7047 0.6911
8 26 3 0.8134 -1.3245
8 26 4 -7.5593 0.3936
8 26 5 2.0141 2.4229
8 26 6 -1.0658 -1.7185
9 1 0 20.8830 13.0999
9 1 1 -1.9430 6.5543
9 1 2 -1.8202 -2.3039
9 1 3 -1.2054 5.2204
9 1 4 13.1719 -11.7975
9 1 5 12.0574 -6.0469
9 1 6 -2.4415 2.2125
9 1 7 2.8741 -3.7329
9 1 8 -6.7265 11.1733
9 1 9 -8.5901 5.8362
9 1 10 5.5604 -1.6926
9 1 11 0.7548 3.2827
9 1 12 3.6216 -9.5268
9 1 13 -0.0648 -4.7690
9 1 14 -2.0609 1.2446
9 1 15 0.2321 -2.6133
9 1 16 -0.4705 7.7807
9 1 17 -0.4209 4.1850
9 1 18 0.9107 -1.4917
9 1 19 -1.8513 1.9210
9 1 20 1.5432 -5.8202
9 1 21 2.1623 -2.5648
9 3 0 11.7149 -1.9250
9 3 1 -1.3486 -4.8993
9 3 2 -16.3772 0.2919
9 3 3 -7.3855 -2.9003
9 3 4 -13.6943 0.7415
9 3 5 9.0433 3.7167
9 3 6 8.2005 -0.4143
9 3 7 0.6501 2.3473
9 3 8 2.8961 -0.9530
9 3 9 -10.7880 -3.3971
9 3 10 -2.6941 0.0474
9 3 11 0.8471 -2.1456
9 3 12 -0.5486 1.2078
9 3 13 -2.2064 2.7101
9 3 14 -2.7507 -0.2360
9 3 15 0.0970 1.4394
9 3 16 -0.3375 -0.6509
9 3 17 0.1689 -2.6101
9 3 18 3.3282 -0.4000
9 3 19 0.2502 -1.4667
9 3 20 -0.4823 1.1920
9 3 21 4.9285 0.3240
9 5 0 1.4621 0.0316
9 5 1 15.2932 -0.7103
9 5 2 -9.8096 -0.0358
9 5 3 -7.8914 -0.3092
9 5 4 -15.7638 -0.8579
9 5 5 -15.6669 0.2683
9 5 6 4.4431 -0.3104
9 5 7 -5.1231 0.3976
9 5 8 -3.4032 0.6863
9 5 9 0.6108 -0.4291
9 5 10 -3.0253 -0.1626
9 5 11 0.0517 -0.5296
9 5 12 -1.8296 -0.3248
9 5 13 -4.3747 0.2787
9 5 14 -5.3140 -0.1323
9 5 15 0.3121 0.1077
9 5 16 -3.2383 0.2959
9 5 17 0.2602 -0.4637
9 5 18 2.1671 0.1172
9 5 19 3.4055 -0.5609
9 5 20 -0.2467 -0.3756
9 5 21 4.2158 0.1360
9 7 0 -24.9557 -2.9137
9 7 1 10.4664 1.1038
9 7 2 8.9119 0.9488
9 7 3 -11.4895 -0.2161
9 7 4 3.9741 3.3933
9 7 5 2.0617 0.4682
9 7 6 -2.0793 0.0160
9 7 7 -4.5688 0.5648
9 7 8 -9.2969 -2.3643
9 7 9 -4.7448 0.0801
9 7 10 -1.6070 0.6210
9 7 11 -0.0252 0.3219
9 7 12 0.8377 2.4417
9 7 13 -1.9175 0.1526
9 7 14 -5.1744 -0.3418
9 7 15 -1.0358 0.0767
9 7 16 -2.5163 -1.8937
9 7 17 -0.6479 -0.3286
9 7 18 0.8498 0.2539
9 7 19 0.8361 0.7053
9 7 20 0.0252 1.4235
9 9 0 -8.6950 1.9778
9 9 1 -4.0990 1.0327
9 9 2 5.3450 -0.5727
9 9 3 -15.3447 1.2216
9 9 4 -5.4480 -1.6480
9 9 5 18.1360 -1.9005
9 9 6 9.2465 0.2292
9 9 7 2.0879 -0.7096
9 9 8 2.2624 1.1821
9 9 9 -6.2274 1.1545
9 9 10 -4.4330 -0.1379
9 9 11 -0.5409 0.4346
9 9 12 1.0570 -1.4316
9 9 13 -0.8576 -1.2361
9 9 14 -1.3808 -0.2385
9 9 15 -1.8899 -0.4922
9 9 16 -0.0054 1.0669
9 9 17 0.5229 0.7438
9 9 18 0.1070 0.1254
9 9 19 -1.3800 -0.0902
9 9 20 -0.1682 -0.9652
9 11 0 1.8992 -0.1124
9 11 1 10.1605 -0.0508
9 11 2 0.3542 -0.0988
9 11 3 -11.7751 -0.0281
9 11 4 -7.3885 0.1320
9 11 5 -0.2259 0.2621
9 11 6 5.9244 -0.0066
9 11 7 5.0890 -0.0305
9 11 8 1.8625 -0.2126
9 11 9 -4.2857 -0.1839
9 11 10 -2.4784 -0.1091
9 11 11 3.3142 -0.1622
9 11 12 1.5092 0.2214
9 11 13 -0.0948 0.2977
9 11 14 -3.4193 0.2447
9 11 15 -1.2939 0.0954
9 11 16 0.7315 0.1764
9 11 17 1.9969 -0.2268
9 11 18 -0.3383 0.2621
9 11 19 -2.4649 0.0473
9 13 0 -6.0666 0.8652
9 13 1 1.8862 -0.9841
9 13 2 6.5940 0.0429
9 13 3 -8.2723 -0.1993
9 13 4 0.6931 -1.3743
9 13 5 -5.0001 0.6022
9 13 6 -2.1512 0.0439
9 13 7 6.5277 0.6049
9 13 8 -2.1164 1.3182
9 13 9 -5.2246 -0.4204
9 13 10 -2.5988 -0.1167
9 13 11 6.6669 -0.1781
9 13 12 2.0158 -1.0886
9 13 13 2.8848 0.4518
9 13 14 -2.0336 0.2343
9 13 15 -2.7937 0.5543
9 13 16 -0.3628 0.7065
9 13 17 0.2447 -0.1375
9 13 18 0.6321 1.0304
9 15 0 -1.3999 -1.2909
9 15 1 -2.9198 0.3416
9 15 2 4.9304 0.2599
9 15 3 -0.8095 -0.4723
9 15 4 -1.2526 1.2925
9 15 5 -2.5614 0.5602
9 15 6 -0.1799 -0.2176
9 15 7 1.1672 0.0480
9 15 8 -3.9302 -1.3513
9 15 9 -3.3560 -0.4712
9 15 10 -1.9211 0.0430
9 15 11 6.3497 0.4604
9 15 12 4.2863 1.1401
9 15 13 2.3465 0.1952
9 15 14 0.2406 -0.2341
9 15 15 0.3331 0.1179
9 15 16 -0.0629 -1.8692
9 15 17 -1.0717 -3.1034
9 17 0 -2.6106 0.2472
9 17 1 -0.8647 0.3562
9 17 2 4.3702 -0.0462
9 17 3 0.3469 0.4045
9 17 4 2.0416 -0.1062
9 17 5 -2.1870 -0.3942
9 17 6 4.7182 0.2523
9 17 7 0.9359 -0.1628
9 17 8 -4.4607 0.5484
9 17 9 -2.9700 0.4497
9 17 10 -5.6021 0.1872
9 17 11 0.6988 0.2499
9 17 12 -1.0235 -0.7150
9 17 13 1.9983 -0.4079
9 17 14 -1.5896 -0.3477
9 17 15 -0.7954 0.3442
9 17 16 1.3121 1.3367
9 19 0 0.9438 -0.3578
9 19 1 2.8079 0.5852
9 19 2 3.1528 -0.5325
9 19 3 -2.7133 0.1206
9 19 4 3.6599 0.2020
9 19 5 -0.4013 -0.1250
9 19 6 -1.3969 -0.2625
9 19 7 2.2451 -0.5641
9 19 8 -1.4460 -0.0580
9 19 9 -0.2960 0.7410
9 19 10 -1.8707 0.0129
9 19 11 0.4584 0.5392
9 19 12 -5.3957 -0.2819
9 19 13 -3.3956 -0.1651
9 19 14 -1.4704 0.0326
9 19 15 -2.8930 -1.6476
9 21 0 -2.9131 1.0259
9 21 1 5.0466 -0.5344
9 21 2 -1.2136 -0.2104
9 21 3 -2.6763 0.3441
9 21 4 5.3170 -0.6505
9 21 5 2.6825 0.0636
9 21 6 0.1634 0.0913
9 21 7 0.4017 0.9778
9 21 8 -0.5251 1.5392
9 21 9 -4.1103 -0.7162
9 21 10 0.1608 -0.0998
9 21 11 2.1933 -0.6224
9 21 12 -1.8760 -3.4182
9 21 13 -1.1654 -0.0535
9 23 0 1.0990 0.6305
9 23 1 5.8548 -0.4110
9 23 2 -7.2815 -0.2009
9 23 3 -6.4865 -0.4816
9 23 4 2.3203 0.2388
9 23 5 -3.9825 0.4156
9 23 6 4.2014 0.1593
9 23 7 3.0768 0.7356
9 23 8 1.1391 -0.1937
9 23 9 -0.7309 0.4116
9 23 10 -1.0781 -0.2125
9 23 11 -0.0235 1.6198
9 25 0 1.2484 -0.2376
9 25 1 8.2186 0.0025
9 25 2 -2.6534 -0.0932
9 25 3 -1.9874 0.8418
9 25 4 3.7129 -2.3784
9 25 5 -7.0003 -0.2220
9 25 6 1.1021 1.1089
9 25 7 2.2552 0.4614
10 0 0 -12.9597 -23.7356
10 0 2 -8.9116 4.7367
10 0 4 -10.4451 21.9987
10 0 6 8.8844 -4.6467
10 0 8 3.5578 -20.2673
10 0 10 -4.2683 3.9869
10 0 12 -3.8921 17.4079
10 0 14 -0.1906 -3.3854
10 0 16 1.1160 -14.1689
10 0 18 1.8487 3.2542
10 0 20 -1.3944 10.3096
10 2 0 -5.3995 -1.1273
10 2 1 6.1784 -1.7481
10 2 2 2.3299 0.3591
10 2 3 1.1757 -1.9729
10 2 4 5.2135 1.1602
10 2 5 -12.2367 1.8873
10 2 6 0.8545 -0.1952
10 2 7 -2.3848 1.4021
10 2 8 -3.7315 -1.1550
10 2 9 11.6791 -2.0589
10 2 10 1.3034 -0.0656
10 2 11 -0.4704 -1.3950
10 2 12 -1.8394 1.0395
10 2 13 1.1228 1.5819
10 2 14 0.5877 -0.0541
10 2 15 -0.2847 0.9403
10 2 16 0.1892 -0.8394
10 2 17 0.5055 -1.2688
10 2 18 -0.3728 0.2070
10 2 19 2.9265 -1.1125
10 2 20 0.2125 1.0575
10 2 21 -2.5343 3.1564
10 4 0 -6.5713 -0.4234
10 4 1 -1.5327 5.0691
10 4 2 11.7793 -0.0749
10 4 3 1.7823 2.9533
10 4 4 20.5900 1.8797
10 4 5 10.6956 -3.6759
10 4 6 -4.4243 0.2001
10 4 7 -0.2195 -2.3281
10 4 8 -5.5254 -1.0509
10 4 9 4.0572 3.6585
10 4 10 7.0841 0.4962
10 4 11 -0.0512 2.3389
10 4 12 0.0145 0.8713
10 4 13 3.5949 -2.9800
10 4 14 2.5945 -0.4456
10 4 15 -0.1843 -1.6370
10 4 16 2.5736 -0.6390
10 4 17 0.0655 2.5075
10 4 18 -1.1002 0.5737
10 4 19 -1.8313 1.7067
10 4 20 0.0023 0.2806
10 6 0 15.0071 3.0093
10 6 1 -16.0088 -2.0454
10 6 2 -6.1713 -0.8643
10 6 3 -1.1269 -0.7433
10 6 4 1.2379 -3.0712
10 6 5 14.6397 0.5901
10 6 6 6.5931 0.4727
10 6 7 -1.4301 0.4343
10 6 8 3.7410 1.8873
10 6 9 1.6206 -1.1527
10 6 10 2.1851 -0.6178
10 6 11 -0.3328 -0.7941
10 6 12 -1.1429 -1.9650
10 6 13 2.4357 0.5349
10 6 14 3.6350 0.1507
10 6 15 -0.1303 0.8221
10 6 16 3.9986 1.9562
10 6 17 0.9969 -0.7320
10 6 18 0.1237 -0.4295
10 6 19 -2.1193 -0.5958
10 6 20 -1.2677 -0.6839
10 8 0 21.2452 -0.5182
10 8 1 3.0708 -0.1127
10 8 2 -14.1357 -0.2129
10 8 3 2.5940 0.2966
10 8 4 -4.8275 -0.1224
10 8 5 -9.6450 0.0089
10 8 6 0.5085 -0.4818
10 8 7 -6.3522 -0.2533
10 8 8 -1.4574 -0.0044
10 8 9 7.1142 -0.1382
10 8 10 3.0278 -0.1058
10 8 11 -0.2829 0.2897
10 8 12 -1.7212 -0.1189
10 8 13 -1.1157 -0.1814
10 8 14 -0.2742 -0.1840
10 8 15 2.2031 -0.1317
10 8 16 2.2954 0.1291
10 8 17 1.2226 -0.1854
10 8 18 -0.1229 0.4436
10 8 19 -0.1294 0.1282
10 8 20 -0.4516 -0.4646
10 10 0 -1.2403 -0.6709
10 10 1 -3.9163 -1.4048
10 10 2 -1.3929 0.7793
10 10 3 5.7365 -1.1662
10 10 4 4.4305 0.4242
10 10 5 -0.3075 1.8667
10 10 6 -5.6410 0.1103
10 10 7 -10.2388 1.3061
10 10 8 -5.7786 -0.1672
10 10 9 3.4178 -1.4504
10 10 10 2.8040 0.0063
10 10 11 -1.0949 -0.5857
10 10 12 -0.8628 0.5364
10 10 13 -1.0159 1.2489
10 10 14 -1.1983 0.3108
10 10 15 0.6454 0.9881
10 10 16 0.6644 -0.4232
10 10 17 -0.7547 -0.7958
10 10 18 1.1138 -0.1118
10 10 19 0.9252 -0.4935
10 12 0 4.5155 -0.6770
10 12 1 -8.9755 1.5452
10 12 2 -4.0930 -0.3820
10 12 3 8.0390 0.8430
10 12 4 -0.8007 1.2155
10 12 5 11.5889 -1.3399
10 12 6 1.5630 -0.3352
10 12 7 -10.9872 -0.8610
10 12 8 -0.3696 -0.9159
10 12 9 6.0175 0.7398
10 12 10 3.4638 0.1477
10 12 11 -4.8444 1.0686
10 12 12 -2.4576 0.4318
10 12 13 -3.7622 -1.3269
10 12 14 2.1210 -0.4953
10 12 15 1.5371 -1.0666
10 12 16 0.1662 -1.1568
10 12 17 -2.4895 0.4669
10 12 18 -0.1876 0.2572
10 14 0 2.3767 0.5631
10 14 1 4.2393 -0.2448
10 14 2 -4.1662 -0.2591
10 14 3 3.8509 0.0303
10 14 4 1.6522 -0.2617
10 14 5 7.4232 -0.0149
10 14 6 3.5733 0.3726
10 14 7 -6.3167 0.0350
10 14 8 -0.3842 0.3159
10 14 9 4.2158 -0.1048
10 14 10 4.7247 -0.1023
10 14 11 -4.2802 -0.1794
10 14 12 -3.9876 -0.0282
10 14 13 -4.5726 0.1482
10 14 14 -0.9974 0.4698
10 14 15 0.5961 0.1353
10 14 16 1.5110 0.7148
10 14 17 -0.5646 0.3077
10 14 18 -1.4454 -1.6619
10 16 0 0.1144 0.4334
10 16 1 3.9240 0.0568
10 16 2 -2.0651 -0.5229
10 16 3 -1.9046 0.5788
10 16 4 0.9259 -0.6211
10 16 5 3.4790 -0.6678
10 16 6 -1.4349 -0.2468
10 16 7 0.8732 -0.5453
10 16 8 2.8113 0.7430
10 16 9 2.3534 0.7370
10 16 10 5.3088 0.0807
10 16 11 -0.5977 0.1253
10 16 12 -2.4022 -0.7671
10 16 13 -2.7840 -0.1926
10 16 14 1.4923 0.1497
10 16 15 -1.8534 -1.0850
10 16 16 -0.2271 1.4256
10 18 0 -2.8359 0.1272
10 18 1 1.5397 -0.8089
10 18 2 -1.2771 0.7061
10 18 3 0.9757 -0.5609
10 18 4 -3.6305 -0.2144
10 18 5 0.8434 0.7938
10 18 6 0.9902 0.0789
10 18 7 -2.5259 0.7281
10 18 8 2.3913 -0.3513
10 18 9 1.5186 -0.9324
10 18 10 4.6135 -0.1259
10 18 11 1.4853 -1.2019
10 18 12 3.9167 -0.0674
10 18 13 0.7108 0.6246
10 18 14 2.7292 0.5180
10 18 15 1.8684 0.1118
10 20 0 -1.6091 -0.2503
10 20 1 -4.8097 0.3717
10 20 2 -0.9287 0.2729
10 20 3 0.5779 0.0064
10 20 4 -4.6029 0.5883
10 20 5 -1.9104 -0.4581
10 20 6 5.0062 -0.0012
10 20 7 -1.9497 -0.0266
10 20 8 -0.0012 -0.4006
10 20 9 5.0195 0.0073
10 20 10 -0.0876 -0.1386
10 20 11 -2.3946 0.6378
10 20 12 2.9562 0.8471
10 20 13 3.3064 -1.8953
10 22 0 -0.3724 -0.7578
10 22 1 -2.6187 0.2975
10 22 2 5.2182 0.2529
10 22 3 1.3416 -0.3806
10 22 4 -2.7662 -0.2563
10 22 5 2.4897 0.0789
10 22 6 -2.1802 0.6889
10 22 7 -4.1399 -0.2967
10 22 8 -1.6993 -0.8306
10 22 9 4.6483 -0.3138
10 22 10 0.6528 -0.6175
10 22 11 -2.2881 0.0329
10 24 0 -4.8725 -1.1036
10 24 1 -5.5898 0.2129
10 24 2 5.0152 -0.7908
10 24 3 1.7120 0.4098
10 24 4 0.4075 0.3510
10 24 5 9.2699 -1.4815
10 24 6 -1.1962 0.9907
10 24 7 -5.0427 -0.7126
10 24 8 0.3528 1.1134
10 24 9 -0.3096 -0.8748
10 26 0 -0.3131 0.3634
10 26 1 -2.5371 -0.0169
10 26 2 1.6806 -0.0735
10 26 3 -2.6442 -1.0070
10 26 4 -1.9052 2.0717
11 1 0 -1.6365 12.5724
11 1 1 -4.1357 6.2121
11 1 2 10.4612 -2.8821
11 1 3 0.8225 4.4752
11 1 4 1.1236 -11.5312
11 1 5 8.2766 -5.7750
11 1 6 -9.2117 2.6727
11 1 7 -0.1611 -3.7239
11 1 8 1.8263 10.5345
11 1 9 -5.4581 5.4563
11 1 10 1.5553 -1.9885
11 1 11 -0.2427 3.2341
11 1 12 0.9007 -9.3633
11 1 13 0.3625 -4.4172
11 1 14 1.9444 1.8398
11 1 15 0.1347 -2.2754
11 1 16 -0.2412 7.4838
11 1 17 -0.4893 4.1779
11 1 18 -0.5347 -1.0729
11 1 19 -2.6835 2.4128
11 1 20 -1.7882 -5.9013
11 3 0 -0.8737 -1.4766
11 3 1 -9.5034 -4.6405
11 3 2 -3.9073 0.3137
11 3 3 2.4449 -2.5063
11 3 4 -14.8666 0.5632
11 3 5 0.6536 3.6977
11 3 6 -0.2036 -0.3239
11 3 7 -1.8117 1.9318
11 3 8 7.7912 -1.1353
11 3 9 -5.0517 -3.5262
11 3 10 -6.7683 0.2036
11 3 11 -0.2483 -1.6834
11 3 12 -0.4966 0.5636
11 3 13 -0.6635 2.7768
11 3 14 0.6197 0.0664
11 3 15 -0.3912 1.7830
11 3 16 0.1122 -0.5274
11 3 17 0.1808 -2.5863
11 3 18 0.4431 0.3140
11 3 19 -0.3341 -0.5529
11 3 20 -2.4823 0.0140
11 5 0 -5.5398 -0.0569
11 5 1 9.2931 -0.3489
11 5 2 -0.1208 0.3176
11 5 3 8.0074 -0.2704
11 5 4 -5.5903 -0.6609
11 5 5 -17.6595 0.4362
11 5 6 -6.1131 -0.2076
11 5 7 0.5578 0.3067
11 5 8 1.7780 0.5544
11 5 9 2.5794 -0.4924
11 5 10 -5.8244 -0.0405
11 5 11 -1.2124 -0.3046
11 5 12 0.3327 -0.9309
11 5 13 -1.2754 0.2991
11 5 14 -0.6958 0.2539
11 5 15 1.0014 0.2839
11 5 16 -1.8396 0.4128
11 5 17 -0.2423 0.0293
11 5 18 -1.6518 0.0233
11 5 19 3.3915 -0.3220
11 5 20 0.8548 -0.6758
11 7 0 -26.8098 -2.4465
11 7 1 2.0278 0.8912
11 7 2 17.0305 0.9731
11 7 3 10.3608 -0.2752
11 7 4 12.6984 3.3201
11 7 5 -1.1957 0.5158
11 7 6 -8.4721 -0.1051
11 7 7 4.5335 0.0646
11 7 8 -0.2023 -2.2009
11 7 9 -2.2126 0.1573
11 7 10 -0.6382 0.7542
11 7 11 -0.0430 0.2030
11 7 12 1.6570 2.2963
11 7 13 1.4900 0.2644
11 7 14 0.5541 0.1029
11 7 15 -0.0118 -0.2561
11 7 16 -0.6605 -1.8266
11 7 17 -1.0442 0.3315
11 7 18 -1.1256 -0.1357
11 7 19 1.7263 0.6007
11 7 20 1.6406 0.8730
11 9 0 -7.5384 2.1797
11 9 1 -7.6903 1.1554
11 9 2 4.8011 -0.9952
11 9 3 7.7033 0.8435
11 9 4 5.5510 -1.3861
11 9 5 3.0046 -1.7930
11 9 6 2.3175 0.2729
11 9 7 8.1841 -1.0141
11 9 8 5.9066 1.0691
11 9 9 -1.7784 0.9753
11 9 10 -1.4797 -0.2651
11 9 11 -1.0864 0.3539
11 9 12 0.0518 -1.3338
11 9 13 3.1790 -1.1558
11 9 14 4.3536 0.0421
11 9 15 -0.4328 -0.7137
11 9 16 -0.4197 1.0475
11 9 17 -0.8982 1.2266
11 9 18 -1.0204 -0.4298
11 9 19 1.0372 0.3928
11 11 0 -0.4450 -0.1885
11 11 1 8.7076 -0.4424
11 11 2 -2.2873 -0.1614
11 11 3 1.6509 -0.2251
11 11 4 3.6741 -0.0321
11 11 5 -12.1481 0.3285
11 11 6 -0.4136 0.1072
11 11 7 9.1218 -0.1803
11 11 8 2.7847 -0.0488
11 11 9 -1.4367 -0.0637
11 11 10 -0.3082 -0.1682
11 11 11 0.7451 0.0896
11 11 12 -0.6944 0.4588
11 11 13 3.2124 0.1359
11 11 14 1.3599 0.1004
11 11 15 0.5576 -0.0811
11 11 16 0.9259 0.0848
11 11 17 2.3654 -0.5537
11 11 18 -1.2860 -0.5712
11 13 0 -3.0129 0.9141
11 13 1 -0.0850 -1.0072
11 13 2 1.5179 0.2934
11 13 3 -1.4174 -0.2270
11 13 4 1.5886 -1.2780
11 13 5 -11.5623 0.3693
11 13 6 -5.0009 0.1702
11 13 7 7.8891 0.3403
11 13 8 1.6618 1.0559
11 13 9 -3.2874 -0.1124
11 13 10 -3.0487 -0.1540
11 13 11 1.1698 -0.6681
11 13 12 1.4387 -0.7820
11 13 13 5.5652 0.5361
11 13 14 1.5843 0.2591
11 13 15 -1.8890 0.6063
11 13 16 -0.5765 1.3322
11 13 17 3.0174 0.4923
11 13 18 1.3710 0.0126
11 15 0 0.6721 -1.3770
11 15 1 -4.9488 0.1547
11 15 2 0.4333 0.6127
11 15 3 1.6213 -0.5420
11 15 4 -3.2097 1.5824
11 15 5 -4.5517 0.4787
11 15 6 -2.6471 -0.2384
11 15 7 -0.2073 0.1767
11 15 8 0.0730 -1.4973
11 15 9 0.0201 -0.2559
11 15 10 -2.8132 -0.0702
11 15 11 -1.2425 -0.3111
11 15 12 1.6143 0.9896
11 15 13 2.4544 0.0165
11 15 14 2.2213 -0.2560
11 15 15 1.6808 -0.8447
11 15 16 -1.2295 -2.4009
11 15 17 0.4053 -0.3813
11 17 0 1.7824 0.4929
11 17 1 -4.5875 0.2978
11 17 2 0.8568 -0.2714
11 17 3 0.1313 0.1749
11 17 4 -0.1798 -0.0262
11 17 5 -0.0752 -0.5885
11 17 6 0.5225 0.2202
11 17 7 -0.4551 0.1995
11 17 8 -4.0949 0.2160
11 17 9 -0.0060 0.0574
11 17 10 -3.4165 -0.1311
11 17 11 -2.2895 0.1899
11 17 12 -1.2509 0.0959
11 17 13 -0.6075 -0.2217
11 17 14 -2.3450 0.1617
11 17 15 1.1235 -0.0403
11 19 0 3.8283 -0.6088
11 19 1 2.0647 0.3375
11 19 2 2.2514 -0.4832
11 19 3 -1.0048 0.1043
11 19 4 1.6617 0.0902
11 19 5 1.2267 -0.1629
11 19 6 -5.3046 0.1013
11 19 7 2.4130 -0.5777
11 19 8 -2.1315 -0.1946
11 19 9 -2.6498 0.4367
11 19 10 -0.1191 -0.1563
11 19 11 -0.1203 0.6534
11 19 12 -3.3277 1.2097
11 19 13 -3.6281 0.9742
11 19 14 -1.3264 0.0144
11 21 0 -0.8841 0.3611
11 21 1 1.6484 -0.6367
11 21 2 1.2578 0.0145
11 21 3 3.0466 0.3523
11 21 4 2.3808 -1.0878
11 21 5 -0.6563 0.0130
11 21 6 -1.9321 0.1676
11 21 7 2.3808 -0.2425
11 21 8 0.4872 0.0932
11 21 9 -5.4456 -0.0258
11 21 10 1.5339 0.4674
11 21 11 2.6920 -0.7822
11 21 12 -1.6723 -1.4125
11 23 0 2.4354 -0.6693
11 23 1 -0.7312 0.0261
11 23 2 -3.1263 0.8761
11 23 3 1.0721 -0.2870
11 23 4 -0.4956 1.5422
11 23 5 -6.5819 0.7310
11 23 6 0.8474 -1.2376
11 23 7 4.8374 -0.0075
11 23 8 0.1758 -1.7811
11 23 9 -0.5822 0.3131
11 23 10 2.5001 0.4137
11 25 0 2.2089 -0.2013
11 25 1 0.3486 -0.2649
11 25 2 -0.0308 1.4575
11 25 3 2.5128 -0.2672
11 25 4 -1.5833 0.6023
11 25 5 -4.6062 1.7240
11 25 6 -0.6909 -1.8768
12 0 0 11.1041 -22.2642
12 0 2 -9.1968 5.5442
12 0 4 -5.5021 20.9176
12 0 6 12.6193 -5.1961
12 0 8 -1.5198 -19.2235
12 0 10 -3.4444 4.4685
12 0 12 0.5813 16.4468
12 0 14 -0.9131 -3.8710
12 0 16 0.4555 -13.5650
12 0 18 -1.0930 2.7944
12 0 20 2.1003 8.2581
12 2 0 10.8588 -1.2952
12 2 1 9.9041 -1.7640
12 2 2 -2.1422 0.5176
12 2 3 -0.9936 -1.7766
12 2 4 3.8597 1.0859
12 2 5 -8.5537 1.7986
12 2 6 5.6930 -0.2544
12 2 7 4.3213 1.1882
12 2 8 -4.9915 -1.0235
12 2 9 4.4543 -1.7394
12 2 10 1.6273 0.1548
12 2 11 0.2696 -1.0834
12 2 12 2.0376 1.0397
12 2 13 -1.5724 1.4629
12 2 14 -0.7537 0.0016
12 2 15 0.6865 0.5037
12 2 16 -1.2564 -0.5921
12 2 17 0.1886 -0.9173
12 2 18 -1.5282 -1.1179
12 2 19 2.0335 -0.9319
12 2 20 4.1120 0.2308
12 4 0 4.4606 -0.6885
12 4 1 1.3138 4.5577
12 4 2 5.6416 -0.1135
12 4 3 -6.5360 2.6954
12 4 4 6.2315 1.7414
12 4 5 6.8366 -3.6611
12 4 6 2.3664 -0.1394
12 4 7 3.9480 -2.2048
12 4 8 -4.1513 -0.8852
12 4 9 -2.6842 3.7035
12 4 10 6.8418 0.4613
12 4 11 1.7495 2.1734
12 4 12 1.9014 1.1801
12 4 13 -0.7857 -2.7355
12 4 14 -0.5491 -0.0619
12 4 15 0.2295 -2.1669
12 4 16 -0.6318 -0.8855
12 4 17 -0.9525 2.2065
12 4 18 0.0293 -0.1586
12 4 19 -3.1686 1.4685
12 4 20 2.4380 -0.0139
12 6 0 21.5148 2.5237
12 6 1 -8.7902 -1.9558
12 6 2 -9.4620 -1.0528
12 6 3 -12.3297 -0.7316
12 6 4 -12.2766 -2.8036
12 6 5 4.7899 0.7324
12 6 6 7.9806 0.5460
12 6 7 0.3005 0.4346
12 6 8 0.1723 1.9033
12 6 9 -4.3208 -1.0157
12 6 10 0.5583 -0.7494
12 6 11 2.0004 -0.7251
12 6 12 -0.2033 -1.7588
12 6 13 -0.6908 1.0173
12 6 14 -0.2755 0.6346
12 6 15 -1.5338 0.4872
12 6 16 -1.4141 1.2716
12 6 17 -0.2902 -0.9801
12 6 18 1.0869 -0.7267
12 6 19 -3.2112 -0.6451
12 6 20 -1.1284 -0.1921
12 8 0 16.9255 -0.9820
12 8 1 10.4470 -0.1818
12 8 2 -8.6428 0.1419
12 8 3 -14.0377 0.1999
12 8 4 -13.3439 -0.2339
12 8 5 -7.2701 0.0933
12 8 6 0.9226 -0.2418
12 8 7 -2.0277 -0.1557
12 8 8 -2.9119 0.1164
12 8 9 0.0417 0.3592
12 8 10 -1.3865 -0.0433
12 8 11 0.9118 0.3800
12 8 12 -1.1152 -0.2367
12 8 13 -2.6486 -0.0940
12 8 14 -2.6361 -0.2713
12 8 15 0.0100 -0.1887
12 8 16 -1.2092 -0.2086
12 8 17 0.6498 -0.2366
12 8 18 -0.6033 0.4394
12 8 19 -2.0836 -0.7227
12 10 0 -1.9994 -0.6205
12 10 1 -0.2734 -1.2531
12 10 2 6.8949 0.8706
12 10 3 -10.1387 -1.0091
12 10 4 -6.4269 0.4154
12 10 5 3.0741 1.6190
12 10 6 -0.9875 0.1133
12 10 7 -3.4842 0.9244
12 10 8 -3.0199 -0.4069
12 10 9 -0.9166 -0.7213
12 10 10 -2.0940 0.3027
12 10 11 1.3329 -0.9255
12 10 12 2.3510 0.6469
12 10 13 -2.2673 1.3991
12 10 14 -3.6774 0.1658
12 10 15 -1.3571 0.9868
12 10 16 -0.9034 -0.2118
12 10 17 -0.1428 -0.5558
12 10 18 1.0164 -0.1213
12 12 0 0.7933 -0.8367
12 12 1 -3.9373 1.8731
12 12 2 3.7337 -0.1711
12 12 3 -3.8000 0.7340
12 12 4 -4.6850 1.1923
12 12 5 8.6558 -1.2167
12 12 6 3.6775 -0.5416
12 12 7 -4.1809 -0.7542
12 12 8 -0.0095 -1.0541
12 12 9 1.2580 1.0840
12 12 10 -1.8365 0.3490
12 12 11 -0.3999 0.2512
12 12 12 1.8477 0.0758
12 12 13 -3.2804 -0.9966
12 12 14 -1.3429 -0.7528
12 12 15 1.4574 -0.9045
12 12 16 -1.5222 -0.7910
12 12 17 -3.9527 1.3091
12 12 18 -0.3672 1.0389
12 14 0 -1.4124 0.5161
12 14 1 3.6863 -0.1222
12 14 2 1.5085 -0.2693
12 14 3 -2.3717 -0.0114
12 14 4 1.0331 -0.7318
12 14 5 4.2231 0.1194
12 14 6 4.2983 0.2506
12 14 7 -1.0800 0.2298
12 14 8 -0.0495 0.3292
12 14 9 -0.4172 -0.0019
12 14 10 -0.2699 0.0191
12 14 11 1.7161 -0.0122
12 14 12 0.7521 0.1416
12 14 13 -3.0079 0.2541
12 14 14 -4.3008 0.0402
12 14 15 2.1222 0.9034
12 14 16 0.9742 0.0605
12 14 17 -2.2291 -1.1449
12 16 0 -0.4911 0.2118
12 16 1 4.9716 0.2636
12 16 2 -0.4704 -0.2101
12 16 3 -0.3788 0.5141
12 16 4 2.7561 -0.8418
12 16 5 -1.6557 -0.3571
12 16 6 -0.8162 -0.0525
12 16 7 2.1836 -0.4724
12 16 8 4.0073 0.7745
12 16 9 -1.4197 0.3446
12 16 10 0.4652 -0.0100
12 16 11 1.5846 0.6472
12 16 12 1.0552 -0.1417
12 16 13 1.4288 -0.3271
12 16 14 -1.1096 -0.3980
12 16 15 -0.9883 1.5570
12 16 16 0.5676 2.1298
12 18 0 -3.8242 -0.0400
12 18 1 1.4949 -0.9066
12 18 2 -2.2669 0.6085
12 18 3 2.2313 -0.6948
12 18 4 3.1998 -0.1354
12 18 5 -1.4960 1.2280
12 18 6 0.3192 0.1156
12 18 7 -1.1586 0.5178
12 18 8 4.4559 -0.1113
12 18 9 -0.0901 -0.6036
12 18 10 0.7991 -0.0470
12 18 11 0.8931 -0.7003
12 18 12 1.5950 -0.2875
12 18 13 2.6767 0.1393
12 18 14 0.8256 -0.1939
12 20 0 -0.0583 0.0867
12 20 1 -2.8817 0.6605
12 20 2 -5.4206 -0.0822
12 20 3 -2.5688 0.1122
12 20 4 1.4406 1.1556
12 20 5 0.5606 -0.4301
12 20 6 2.1893 -0.6814
12 20 7 -0.0231 0.2688
12 20 8 2.4235 0.0287
12 20 9 2.3785 0.2512
12 20 10 -2.6152 0.1531
12 20 11 -0.3210 0.0267
12 20 12 1.6495 -0.8346
12 22 0 1.5748 0.8558
12 22 1 2.2884 -0.0443
12 22 2 -1.5933 -0.1596
12 22 3 -3.4490 -0.3592
12 22 4 -0.2959 0.1950
12 22 5 3.3812 0.4472
12 22 6 -0.9621 -0.1804
12 22 7 -2.3155 0.7169
12 22 8 1.4062 1.7222
12 22 9 0.6228 0.7562
12 22 10 -4.0350 -0.0748
12 24 0 -1.0835 2.2591
12 24 1 1.6421 0.1642
12 24 2 -1.1458 -1.1120
12 24 3 -0.0238 0.6724
12 24 4 2.3077 -2.6837
12 24 5 1.8914 -1.1094
12 24 6 0.8402 0.6429
12 24 7 -2.1353 -0.7588
13 1 0 -11.6473 11.5763
13 1 1 -5.9998 6.0451
13 1 2 -6.3204 -3.2364
13 1 3 -1.6155 4.3631
13 1 4 8.2303 -10.5883
13 1 5 6.5883 -6.0095
13 1 6 -10.6265 2.7220
13 1 7 -2.9270 -3.0694
13 1 8 1.8804 10.0030
13 1 9 -2.8397 5.5876
13 1 10 3.9912 -2.5684
13 1 11 0.1687 2.7405
13 1 12 -0.8409 -8.4851
13 1 13 1.2895 -4.5676
13 1 14 -1.2314 2.0023
13 1 15 -0.1538 -2.0792
13 1 16 -0.0647 6.4959
13 1 17 -0.8210 3.2982
13 1 18 1.5845 -0.9447
13 1 19 -2.0307 1.3752
13 1 20 -1.2220 -0.8133
13 3 0 -3.4233 -1.4901
13 3 1 -9.0292 -4.4097
13 3 2 -12.2621 0.3036
13 3 3 0.2527 -2.1663
13 3 4 -2.0399 0.8899
13 3 5 4.0271 3.6899
13 3 6 -1.0104 -0.2111
13 3 7 -5.0037 1.7968
13 3 8 2.5694 -0.8474
13 3 9 -1.0472 -3.1710
13 3 10 -2.2957 -0.0756
13 3 11 -0.1697 -1.9331
13 3 12 -2.6233 0.9584
13 3 13 1.4374 2.8574
13 3 14 -0.4930 -0.2722
13 3 15 -0.9167 1.4273
13 3 16 1.2698 -1.0950
13 3 17 0.6589 -2.4332
13 3 18 1.6317 0.3021
13 3 19 0.2085 -1.7734
13 3 20 -3.8244 2.8583
13 5 0 -6.4847 0.0619
13 5 1 8.5133 -0.2499
13 5 2 -5.2453 0.4060
13 5 3 5.6279 -0.3117
13 5 4 5.9415 -0.7994
13 5 5 -2.1597 0.3014
13 5 6 -2.1909 -0.0688
13 5 7 -2.4374 0.4056
13 5 8 0.7342 0.6743
13 5 9 6.1019 -0.2010
13 5 10 -1.1031 -0.3362
13 5 11 -2.4812 -0.3566
13 5 12 -1.2221 -0.4638
13 5 13 -0.0137 0.0962
13 5 14 0.0459 -0.4616
13 5 15 0.9285 0.3041
13 5 16 0.8959 0.2341
13 5 17 1.1803 0.4684
13 5 18 0.9212 0.4608
13 5 19 2.9305 -1.2114
13 7 0 -14.9876 -2.1061
13 7 1 -1.8889 0.7658
13 7 2 6.3264 0.9461
13 7 3 9.0033 -0.0174
13 7 4 13.8245 2.9494
13 7 5 8.0080 0.1029
13 7 6 -2.0577 -0.5395
13 7 7 -1.8391 0.1640
13 7 8 1.0020 -2.2122
13 7 9 3.5154 0.1726
13 7 10 4.0529 0.6278
13 7 11 -0.4142 0.0943
13 7 12 2.0317 2.6572
13 7 13 -0.0682 -0.1963
13 7 14 0.1632 -0.5088
13 7 15 0.6939 -0.1219
13 7 16 1.5256 -1.6434
13 7 17 0.4584 -0.0636
13 7 18 2.5249 0.5452
13 7 19 1.6943 0.8192
13 9 0 3.5114 1.9121
13 9 1 -7.0198 1.1930
13 9 2 -6.7579 -0.8178
13 9 3 9.0976 0.9535
13 9 4 7.4306 -1.3795
13 9 5 6.2097 -1.7520
13 9 6 0.5297 0.0284
13 9 7 -0.6433 -0.5956
13 9 8 1.3807 0.9254
13 9 9 -0.4439 0.8009
13 9 10 2.7190 -0.2952
13 9 11 0.3319 -0.0173
13 9 12 0.4986 -1.4446
13 9 13 1.0717 -1.1307
13 9 14 2.5546 0.1656
13 9 15 0.6523 -0.1336
13 9 16 -0.8393 0.9824
13 9 17 -1.4907 0.8258
13 9 18 1.6190 0.0624
13 11 0 4.1329 -0.3263
13 11 1 4.1774 -0.6822
13 11 2 -8.9536 -0.0084
13 11 3 4.3226 -0.0385
13 11 4 4.2921 -0.1896
13 11 5 -0.5543 0.4225
13 11 6 -1.5711 0.1819
13 11 7 0.3571 0.1291
13 11 8 -1.7816 0.1692
13 11 9 -1.8762 -0.2646
13 11 10 3.3846 -0.0637
13 11 11 1.9395 0.2852
13 11 12 -2.7412 0.0559
13 11 13 -0.2016 0.1391
13 11 14 1.3759 0.2292
13 11 15 0.7932 -0.0982
13 11 16 0.8022 -0.6003
13 11 17 1.1509 -1.1240
13 11 18 -0.5004 0.0707
13 13 0 2.8881 0.9798
13 13 1 -1.3291 -0.8726
13 13 2 -3.8054 0.0773
13 13 3 1.6232 -0.3121
13 13 4 0.7566 -1.0404
13 13 5 -1.0995 0.4219
13 13 6 -1.6312 0.3048
13 13 7 0.8237 0.4381
13 13 8 -2.6133 1.1875
13 13 9 -1.5908 -0.8143
13 13 10 2.4015 -0.0583
13 13 11 1.2357 -0.0754
13 13 12 -1.0702 -0.5232
13 13 13 1.7746 0.6267
13 13 14 2.0468 0.5197
13 13 15 -3.8004 0.7307
13 13 16 0.2463 1.2659
13 13 17 3.4029 -0.6582
13 15 0 1.7320 -1.2486
13 15 1 -3.6575 0.0916
13 15 2 -1.3948 0.3749
13 15 3 -0.2443 -0.5649
13 15 4 -0.9682 1.6409
13 15 5 3.3005 0.6330
13 15 6 0.6648 -0.3311
13 15 7 -1.5737 0.1613
13 15 8 -3.2588 -1.1428
13 15 9 0.2207 -0.6069
13 15 10 0.9950 0.1897
13 15 11 -0.5321 -0.0507
13 15 12 -1.4560 0.5050
13 15 13 -0.2383 -0.0022
13 15 14 3.2735 -0.4783
13 15 15 -2.4231 -1.3576
13 15 16 -0.9237 -0.8926
13 17 0 3.8812 0.7291
13 17 1 -4.6049 0.3955
13 17 2 0.2259 -0.2968
13 17 3 -3.1269 0.4339
13 17 4 -4.3526 -0.2294
13 17 5 4.2407 -0.8227
13 17 6 3.1303 -0.1467
13 17 7 0.3027 -0.0712
13 17 8 -2.6709 -0.1292
13 17 9 -0.0594 0.3560
13 17 10 -1.7198 0.5607
13 17 11 0.5191 -0.0369
13 17 12 0.1039 -0.5572
13 17 13 -1.6179 -0.3397
13 17 14 0.0511 -0.0585
13 19 0 4.6270 -0.3118
13 19 1 1.6123 0.2489
13 19 2 3.8691 0.0196
13 19 3 0.1517 0.3884
13 19 4 -5.7842 0.2526
13 19 5 -0.5914 -0.1723
13 19 6 -0.0511 -0.0902
13 19 7 -1.3881 -0.5285
13 19 8 -1.0641 -0.1197
13 19 9 -0.1799 0.2701
13 19 10 -0.4147 0.2030
13 19 11 -0.7070 0.4673
13 19 12 0.6275 0.8152
13 19 13 -0.6235 0.3733
13 21 0 -1.1170 0.8709
13 21 1 -0.4434 -0.6053
13 21 2 4.4784 -0.1357
13 21 3 4.1621 0.0312
13 21 4 -1.5588 -1.7898
13 21 5 -2.8806 0.1660
13 21 6 1.7712 0.4382
13 21 7 -1.1286 -0.3696
13 21 8 -2.3769 0.2245
13 21 9 0.1439 -0.6431
13 21 10 3.1846 0.1122
13 21 11 -0.8672 0.5248
13 23 0 -0.0652 -1.7058
13 23 1 -1.4159 0.5229
13 23 2 1.2874 -0.1765
13 23 3 -0.5351 0.1123
13 23 4 -1.0963 1.2530
13 23 5 -1.2844 -0.4084
13 23 6 -0.1910 0.1202
13 23 7 2.1858 -0.1605
13 23 8 -1.9287 -2.7431
13 25 0 -0.1736 -2.3060
13 25 1 -0.2044 -0.4868
13 25 2 2.5687 -0.2579
13 25 3 -2.1175 -0.5330
14 0 0 0.6923 -20.7590
14 0 2 19.5454 5.9902
14 0 4 -11.8663 19.6066
14 0 6 10.0491 -5.6288
14 0 8 1.0110 -18.0218
14 0 10 -6.4183 4.9885
14 0 12 -1.4550 15.5477
14 0 14 0.9882 -4.3499
14 0 16 1.3099 -12.5170
14 0 18 -0.5661 3.7280
14 2 0 -4.2381 -0.8002
14 2 1 11.0130 -1.5166
14 2 2 20.0663 0.5509
14 2 3 4.2734 -1.7758
14 2 4 -3.4678 0.5956
14 2 5 -6.2149 1.6730
14 2 6 2.4334 -0.2796
14 2 7 3.7605 1.2413
14 2 8 1.3972 -0.9696
14 2 9 3.3761 -1.9360
14 2 10 -2.9479 0.1106
14 2 11 -1.2280 -0.8848
14 2 12 0.4227 0.7884
14 2 13 -0.9072 1.3870
14 2 14 0.6243 -0.1723
14 2 15 0.0408 1.0654
14 2 16 -0.5008 -0.4309
14 2 17 0.7769 -0.2471
14 2 18 -0.5433 0.8179
14 2 19 2.4049 0.9803
14 4 0 -10.3648 -0.4510
14 4 1 -0.5905 4.4005
14 4 2 16.8395 0.0225
14 4 3 1.7607 2.6061
14 4 4 0.6863 1.5488
14 4 5 -0.3201 -3.8653
14 4 6 -3.0214 -0.4208
14 4 7 1.2455 -1.8730
14 4 8 0.7756 -1.1051
14 4 9 -2.0306 3.2767
14 4 10 0.5811 0.5648
14 4 11 0.0735 1.9998
14 4 12 0.7243 0.9192
14 4 13 0.7854 -3.4037
14 4 14 0.0409 -0.4629
14 4 15 -0.2554 -1.3356
14 4 16 -0.1329 -0.1788
14 4 17 -1.1215 1.9607
14 4 18 -1.1412 1.1228
14 4 19 -0.4501 2.6571
14 6 0 1.2843 2.4706
14 6 1 -7.2325 -1.7910
14 6 2 1.1598 -0.8920
14 6 3 -0.6308 -0.6111
14 6 4 -7.4980 -2.3620
14 6 5 -3.3936 0.8991
14 6 6 0.0582 0.8407
14 6 7 1.4074 0.3517
14 6 8 -0.5840 1.7500
14 6 9 -6.0435 -1.1625
14 6 10 -4.0938 -0.4459
14 6 11 0.1130 -0.9262
14 6 12 -1.9887 -1.9650
14 6 13 2.1152 0.7600
14 6 14 0.1172 0.6402
14 6 15 -1.2977 0.7992
14 6 16 -0.5776 1.7147
14 6 17 -0.8918 -0.7447
14 6 18 -2.4665 -0.8100
14 6 19 -0.3580 0.2302
14 8 0 -5.2718 -0.6293
14 8 1 6.2596 -0.1594
14 8 2 3.2757 0.1397
14 8 3 -1.8801 0.1769
14 8 4 -6.4065 -0.0794
14 8 5 -6.5023 0.1276
14 8 6 1.0443 0.1013
14 8 7 2.4205 -0.0836
14 8 8 0.3137 0.3986
14 8 9 -0.2141 -0.0223
14 8 10 -3.7388 0.0356
14 8 11 -2.2594 0.2752
14 8 12 -3.8258 -0.4290
14 8 13 0.2542 0.0131
14 8 14 -0.4340 -0.3293
14 8 15 0.1432 -0.3458
14 8 16 1.5020 -0.0087
14 8 17 0.4849 0.0402
14 8 18 -3.2929 0.6249
14 10 0 -9.8382 -0.1493
14 10 1 -1.5521 -1.1033
14 10 2 10.4875 0.3888
14 10 3 -0.0786 -1.0833
14 10 4 -2.1581 0.6050
14 10 5 -3.2965 1.3102
14 10 6 2.1679 0.0793
14 10 7 1.4672 1.1208
14 10 8 2.2733 -0.0317
14 10 9 4.1577 -1.5506
14 10 10 -0.5640 -0.0360
14 10 11 -2.9293 -0.3902
14 10 12 0.5596 1.0548
14 10 13 0.5521 1.2594
14 10 14 -1.7094 0.1669
14 10 15 -1.4493 0.5244
14 10 16 2.1540 -0.1508
14 10 17 1.6851 -1.3029
14 10 18 0.3383 -0.3817
14 12 0 -3.7484 -0.6021
14 12 1 -1.0382 1.6597
14 12 2 5.1649 -0.1603
14 12 3 1.6909 0.6882
14 12 4 1.2560 1.1103
14 12 5 -1.7347 -1.3812
14 12 6 -1.4452 -0.5822
14 12 7 0.0595 -0.5418
14 12 8 3.4561 -0.8485
14 12 9 4.0542 0.5663
14 12 10 -1.0599 -0.0882
14 12 11 -4.1129 0.6241
14 12 12 0.2548 0.1283
14 12 13 1.2087 -1.2667
14 12 14 0.1763 -0.6227
14 12 15 1.0334 -0.7766
14 12 16 -0.2599 0.1284
14 12 17 -1.8315 1.3670
14 14 0 -3.2950 0.6395
14 14 1 1.7424 -0.4269
14 14 2 2.2466 -0.1950
14 14 3 1.9333 0.2338
14 14 4 0.9648 -0.6838
14 14 5 -2.5458 -0.1781
14 14 6 -2.6568 0.4464
14 14 7 0.5964 -0.0567
14 14 8 2.9527 -0.0281
14 14 9 2.1916 0.4836
14 14 10 -0.7256 -0.1287
14 14 11 -1.0998 -0.0197
14 14 12 -0.3785 -0.5100
14 14 13 -0.5756 -0.1736
14 14 14 -1.5928 0.4977
14 14 15 3.8881 -0.2678
14 14 16 0.8186 -0.5519
14 16 0 -2.5115 0.1974
14 16 1 4.7301 0.2682
14 16 2 1.3531 -0.1852
14 16 3 3.9491 0.4956
14 16 4 1.4679 -0.3508
14 16 5 -6.7973 -0.5028
14 16 6 -3.4658 0.1253
14 16 7 -0.3830 -0.5053
14 16 8 0.3625 0.7077
14 16 9 1.6977 0.4151
14 16 10 1.5061 -0.1631
14 16 11 -0.5661 0.1961
14 16 12 -0.5794 -0.6107
14 16 13 0.9317 0.0821
14 16 14 -0.4851 0.9283
14 16 15 2.2824 0.3263
14 18 0 -7.7843 -0.0502
14 18 1 1.8704 -0.8362
14 18 2 0.3867 0.0584
14 18 3 2.6578 -1.0224
14 18 4 5.9640 -0.3166
14 18 5 -2.2765 1.3167
14 18 6 -0.0002 0.3280
14 18 7 0.3637 0.6041
14 18 8 -4.6371 0.6003
14 18 9 1.0262 -0.6807
14 18 10 3.2027 -0.5657
14 18 11 -0.0871 -0.6521
14 18 12 -2.9955 -0.4652
14 18 13 -0.8475 1.1830
14 20 0 -3.1975 -0.6729
14 20 1 -0.1217 0.8113
14 20 2 -3.4224 -0.2886
14 20 3 -2.6740 0.3665
14 20 4 3.5482 0.1525
14 20 5 2.5681 -0.9489
14 20 6 0.0608 0.0100
14 20 7 3.7053 -0.2110
14 20 8 -2.0325 -0.6606
14 20 9 0.2641 -0.0841
14 20 10 0.7256 -0.1811
14 20 11 1.3696 0.1800
14 22 0 -0.7854 -0.6916
14 22 1 2.1528 -0.5075
14 22 2 -1.3091 0.4577
14 22 3 -1.0479 -0.0751
14 22 4 0.8431 0.9738
14 22 5 2.6352 0.3916
14 22 6 -0.4394 0.7501
14 22 7 -1.3431 0.4820
14 22 8 0.9225 0.1376
14 22 9 -0.2580 0.8775
14 24 0 -0.5220 1.1115
14 24 1 -0.1463 -0.2692
14 24 2 -1.3250 0.2526
14 24 3 2.0489 -0.0429
14 24 4 2.6171 -1.7045
14 24 5 -0.7139 0.2483
15 1 0 9.9987 10.7242
15 1 1 -6.9936 5.7979
15 1 2 -17.9155 -3.3198
15 1 3 -3.3127 3.6459
15 1 4 1.8030 -9.9381
15 1 5 3.2094 -5.7118
15 1 6 -1.9588 2.9809
15 1 7 -2.8675 -2.7268
15 1 8 -3.8779 9.1312
15 1 9 -2.1410 5.1794
15 1 10 4.2259 -2.4049
15 1 11 0.6849 2.5196
15 1 12 1.7308 -8.0550
15 1 13 0.6929 -4.6637
15 1 14 1.3682 1.9316
15 1 15 0.3135 -2.0939
15 1 16 -0.3503 7.0010
15 1 17 -1.0664 3.0233
15 1 18 0.0472 -2.2259
15 1 19 -1.7807 -0.8326
15 3 0 17.2059 -1.4322
15 3 1 -6.9640 -4.2199
15 3 2 -17.0520 0.2657
15 3 3 -4.7945 -2.0649
15 3 4 -5.1845 0.8433
15 3 5 1.3212 3.9497
15 3 6 5.6162 0.0431
15 3 7 -1.4507 1.4561
15 3 8 -3.7960 -0.8682
15 3 9 -2.4095 -3.3476
15 3 10 -0.2985 0.4737
15 3 11 1.4464 -1.6193
15 3 12 0.3602 0.6420
15 3 13 -0.5971 3.1236
15 3 14 0.9154 -0.0848
15 3 15 0.1911 1.0610
15 3 16 0.8789 -0.2853
15 3 17 0.3644 -2.9253
15 3 18 -0.5137 -1.2213
15 3 19 -1.4790 -2.2841
15 5 0 10.9685 0.1428
15 5 1 8.1203 -0.2202
15 5 2 -5.8634 0.0670
15 5 3 -3.0561 -0.3650
15 5 4 -1.0958 -0.9857
15 5 5 -2.0477 0.4074
15 5 6 3.9240 0.0235
15 5 7 0.9065 0.4538
15 5 8 0.1454 0.5686
15 5 9 3.4552 -0.4058
15 5 10 0.7820 -0.1167
15 5 11 0.6597 0.0072
15 5 12 1.7759 -0.9208
15 5 13 -2.4146 0.7904
15 5 14 0.4730 0.2366
15 5 15 1.2342 0.7777
15 5 16 0.4524 0.2185
15 5 17 0.6726 -0.3198
15 5 18 0.3423 -0.2836
15 7 0 4.1054 -2.1121
15 7 1 0.2305 0.6878
15 7 2 1.6149 0.4537
15 7 3 -2.7620 -0.2039
15 7 4 3.0912 2.6891
15 7 5 0.1975 0.1382
15 7 6 -0.1608 -0.7398
15 7 7 -2.4266 0.2272
15 7 8 -0.6535 -2.2578
15 7 9 2.5157 -0.1320
15 7 10 4.0074 0.5257
15 7 11 2.2188 0.6884
15 7 12 4.1038 2.1930
15 7 13 -1.4536 0.1540
15 7 14 -0.4285 -0.1936
15 7 15 0.1906 -0.2828
15 7 16 0.4204 -1.4788
15 7 17 0.9918 -0.3981
15 7 18 1.6554 -0.2965
15 9 0 10.3223 1.5918
15 9 1 -0.9958 1.1230
15 9 2 -6.2227 -0.8273
15 9 3 -4.0042 0.6532
15 9 4 0.1527 -1.4993
15 9 5 0.4350 -1.4088
15 9 6 -3.3797 0.1795
15 9 7 -3.2717 -0.7787
15 9 8 -2.6648 0.5900
15 9 9 -4.3815 1.0237
15 9 10 -1.0046 -0.4079
15 9 11 2.0079 0.5223
15 9 12 1.7189 -1.2704
15 9 13 1.4620 -1.0178
15 9 14 0.6462 0.2362
15 9 15 -0.7668 -0.1019
15 9 16 -2.6385 1.3746
15 9 17 -0.2668 2.0964
15 9 18 0.2157 -1.3341
15 11 0 3.9048 -0.4773
15 11 1 2.4988 -0.6047
15 11 2 -4.7306 0.0288
15 11 3 -4.5245 0.1411
15 11 4 -3.7023 -0.1921
15 11 5 1.4212 0.6127
15 11 6 0.4915 0.3231
15 11 7 -1.7776 -0.4601
15 11 8 -1.7003 -0.3125
15 11 9 -5.0069 0.4817
15 11 10 -2.7749 0.0108
15 11 11 2.4429 0.1328
15 11 12 -0.5506 -0.2011
15 11 13 -0.8614 0.0343
15 11 14 0.3253 -0.0814
15 11 15 0.2539 -0.4465
15 11 16 -0.9291 -0.4870
15 11 17 0.5314 1.1652
15 13 0 3.0039 0.6776
15 13 1 -0.9981 -0.5003
15 13 2 -1.4379 -0.0427
15 13 3 -3.1676 -0.2863
15 13 4 -4.4219 -0.9077
15 13 5 -0.2752 0.5721
15 13 6 4.1254 0.0303
15 13 7 -0.2424 0.1677
15 13 8 -0.8313 1.0680
15 13 9 -3.1431 -0.1782
15 13 10 -0.4944 0.1050
15 13 11 1.7291 -0.6387
15 13 12 2.1256 -0.2985
15 13 13 -0.3410 0.7509
15 13 14 -0.4626 0.5242
15 13 15 -2.3988 0.7900
15 13 16 -0.3657 0.1679
15 15 0 0.1315 -1.2854
15 15 1 -2.7829 0.0809
15 15 2 0.0595 0.2975
15 15 3 -3.2155 -0.5533
15 15 4 -0.7810 1.3496
15 15 5 4.3039 0.7812
15 15 6 2.9968 -0.6764
15 15 7 -0.0579 0.1843
15 15 8 -0.2853 -0.5988
15 15 9 -2.2910 -0.3613
15 15 10 -0.4849 -0.1849
15 15 11 -0.3430 -0.2688
15 15 12 1.2158 1.2454
15 15 13 -0.9285 0.3996
15 15 14 0.6912 -0.6600
15 15 15 -2.1690 0.3414
15 17 0 3.9764 0.6161
15 17 1 -3.7122 0.1681
15 17 2 -1.6977 -0.2083
15 17 3 -4.0776 0.3826
15 17 4 -3.3411 -0.5692
15 17 5 5.3975 -1.0478
15 17 6 -0.2989 0.0628
15 17 7 1.7331 0.0150
15 17 8 5.8180 -0.2548
15 17 9 -1.8646 0.4438
15 17 10 -1.6528 -0.1614
15 17 11 -0.0938 0.2682
15 17 12 2.9648 0.5238
15 17 13 -0.6144 -0.8939
15 19 0 5.2990 -0.6680
15 19 1 0.6509 -0.0040
15 19 2 0.7252 0.3086
15 19 3 -0.6513 0.3566
15 19 4 -3.4555 1.2682
15 19 5 -0.6597 -0.5194
15 19 6 -3.8592 0.2470
15 19 7 -3.3084 0.1288
15 19 8 7.9778 -0.4087
15 19 9 -1.1232 0.1203
15 19 10 -1.8904 -0.4167
15 19 11 -0.5076 0.3894
15 19 12 2.8680 1.4356
15 21 0 1.5673 0.7731
15 21 1 -2.2532 -0.3810
15 21 2 1.1360 0.1161
15 21 3 0.7632 -0.8516
15 21 4 -0.2297 -1.0044
15 21 5 -2.9056 0.6726
15 21 6 -1.1994 -0.2237
15 21 7 -0.7893 0.7032
15 21 8 2.2943 1.3985
15 21 9 -1.1206 0.5684
15 23 0 1.6940 -1.0859
15 23 1 -1.8844 1.0690
15 23 2 0.2019 0.4801
15 23 3 -1.0184 -0.0070
15 23 4 -2.1148 -0.1002
15 23 5 -1.0573 -0.5339
15 23 6 -1.7693 -1.4627
16 0 0 -4.9681 -19.3176
16 0 2 2.7747 6.1962
16 0 4 6.4374 18.2224
16 0 6 -0.3922 -5.9886
16 0 8 2.1734 -16.7011
16 0 10 -2.0033 5.2621
16 0 12 -1.9839 14.4092
16 0 14 -2.2248 -4.6027
16 0 16 -0.5194 -11.9569
16 0 18 -0.9039 2.9653
16 2 0 -9.2369 -0.9370
16 2 1 8.3450 -1.5739
16 2 2 5.2110 0.4126
16 2 3 3.3265 -1.4950
16 2 4 8.7566 0.7808
16 2 5 -2.2005 1.6665
16 2 6 -5.0639 -0.1819
16 2 7 3.5025 0.9685
16 2 8 3.4276 -0.9275
16 2 9 3.0597 -1.5132
16 2 10 0.6275 0.0601
16 2 11 -0.1355 -0.4832
16 2 12 -0.5141 0.4613
16 2 13 -0.8713 1.6845
16 2 14 -1.9290 0.6078
16 2 15 0.2131 1.0798
16 2 16 -1.8454 -1.5853
16 2 17 0.3960 -0.5021
16 2 18 0.5318 -1.0214
16 4 0 -11.0099 -0.7609
16 4 1 -2.2779 4.1017
16 4 2 3.8424 -0.0737
16 4 3 2.0715 2.0683
16 4 4 7.0433 1.6290
16 4 5 2.8464 -3.6398
16 4 6 -6.3930 -0.4420
16 4 7 -1.5522 -1.7561
16 4 8 -0.0353 -0.9697
16 4 9 1.1722 3.4045
16 4 10 2.7476 0.3441
16 4 11 -0.2137 1.5838
16 4 12 -0.6719 0.8772
16 4 13 1.2332 -2.7927
16 4 14 -0.8574 -0.1803
16 4 15 -0.0258 -2.4801
16 4 16 -1.1807 -0.7103
16 4 17 -0.5004 2.3068
16 4 18 1.0021 0.0762
16 6 0 0.0365 2.2148
16 6 1 -4.7566 -1.6307
16 6 2 -4.8898 -0.6155
16 6 3 1.2408 -0.7284
16 6 4 0.6251 -2.1833
16 6 5 4.7497 0.9261
16 6 6 -1.9732 0.8854
16 6 7 0.2339 0.2054
16 6 8 -1.5347 1.8434
16 6 9 -2.2170 -0.7443
16 6 10 -1.4593 -0.6909
16 6 11 -0.8236 -0.8817
16 6 12 -2.2579 -1.2387
16 6 13 1.8176 0.7002
16 6 14 0.1347 0.8648
16 6 15 -0.7800 -0.4196
16 6 16 -1.9983 1.0288
16 6 17 -0.1906 -0.2060
16 6 18 0.7365 -0.9966
16 8 0 -1.9364 -0.6116
16 8 1 2.2699 -0.0640
16 8 2 -1.0157 0.5419
16 8 3 4.0430 0.4617
16 8 4 0.9060 -0.0698
16 8 5 3.6353 0.0452
16 8 6 2.2466 -0.1154
16 8 7 3.6036 -0.4528
16 8 8 2.2661 0.1478
16 8 9 3.1052 0.4459
16 8 10 -0.3257 0.1798
16 8 11 -0.7126 -0.1647
16 8 12 -1.7796 -0.2185
16 8 13 -1.3481 -0.2951
16 8 14 1.2826 -0.2462
16 8 15 2.0467 -0.0065
16 8 16 -0.2769 -0.1315
16 8 17 -1.8413 -0.4848
16 10 0 -1.7800 -0.2796
16 10 1 -2.2350 -1.0753
16 10 2 1.9820 0.5544
16 10 3 5.4342 -1.1057
16 10 4 4.5431 0.6548
16 10 5 0.6031 1.4998
16 10 6 1.8098 -0.0827
16 10 7 3.4690 0.7184
16 10 8 0.5440 -0.2016
16 10 9 5.1249 -0.9261
16 10 10 4.5395 0.4222
16 10 11 1.2127 -1.0277
16 10 12 1.4930 0.8059
16 10 13 -2.2408 1.0036
16 10 14 -0.4303 0.4426
16 10 15 2.6151 0.6748
16 10 16 1.4836 -0.7659
16 10 17 -1.4794 -3.1089
16 12 0 -0.8563 -0.4852
16 12 1 0.8914 1.3705
16 12 2 0.4003 0.0164
16 12 3 3.2482 0.2803
16 12 4 5.8935 0.9752
16 12 5 1.7851 -1.1613
16 12 6 -2.6741 -0.5073
16 12 7 0.1220 -0.5443
16 12 8 -2.1319 -0.6350
16 12 9 2.1675 0.7358
16 12 10 1.7673 0.1646
16 12 11 0.9770 0.2918
16 12 12 -0.8361 0.7263
16 12 13 -0.1257 -0.6167
16 12 14 -0.1125 -0.3128
16 12 15 2.3347 -0.0290
16 12 16 0.2054 0.1907
16 14 0 -0.2296 0.7068
16 14 1 2.2511 -0.5036
16 14 2 -1.6314 -0.1761
16 14 3 1.5545 -0.0962
16 14 4 2.3409 -0.5876
16 14 5 1.0147 -0.1824
16 14 6 -1.1069 0.7674
16 14 7 0.1072 0.2976
16 14 8 -1.0411 -0.1024
16 14 9 1.6141 0.0029
16 14 10 -0.3691 -0.3746
16 14 11 0.9517 0.1252
16 14 12 -1.7116 0.0394
16 14 13 0.3521 -0.1497
16 14 14 -1.3249 -0.0641
16 14 15 2.2225 -0.2664
16 16 0 2.0107 -0.1409
16 16 1 4.1110 0.3957
16 16 2 -0.8048 0.1047
16 16 3 2.1013 0.5812
16 16 4 1.5172 -0.2454
16 16 5 -4.5149 -0.5499
16 16 6 0.1007 0.2105
16 16 7 -1.7060 -0.1583
16 16 8 -1.4888 0.0850
16 16 9 1.3638 -0.0890
16 16 10 -0.3371 0.2988
16 16 11 0.6302 0.4736
16 16 12 -1.5141 -0.2337
16 16 13 2.7416 -0.6494
16 18 0 -2.8391 -0.0946
16 18 1 -0.9559 -0.6135
16 18 2 0.3261 0.3367
16 18 3 2.2323 -0.8852
16 18 4 3.2602 -0.0748
16 18 5 -1.2761 2.0159
16 18 6 4.2909 -0.2838
16 18 7 0.4828 0.4037
16 18 8 -7.4823 -0.0093
16 18 9 1.0005 -0.3627
16 18 10 -0.9191 0.5896
16 18 11 -0.1949 -0.6967
16 18 12 -2.2216 -0.5447
16 20 0 -1.4014 0.4911
16 20 1 -1.2132 0.7068
16 20 2 -0.6139 -0.2137
16 20 3 0.4806 0.5368
16 20 4 -0.3468 -0.1644
16 20 5 2.6992 -0.3707
16 20 6 3.3665 -1.1371
16 20 7 3.1594 -1.2444
16 20 8 -4.9251 -1.1868
16 20 9 0.8015 0.1762
16 20 10 -0.3906 1.2581
16 22 0 -1.7541 1.5866
16 22 1 1.3987 -0.8340
16 22 2 0.9380 -0.5772
16 22 3 1.7264 0.5803
16 22 4 0.6423 2.1550
16 22 5 1.6369 0.1495
16 22 6 1.8655 0.1481
16 22 7 -1.6613 -0.3775
17 1 0 -2.8084 9.9706
17 1 1 -4.5376 5.3096
17 1 2 7.5277 -3.5094
17 1 3 -0.5307 3.1983
17 1 4 -9.4388 -9.2855
17 1 5 1.7080 -5.5747
17 1 6 0.5234 2.9270
17 1 7 -2.8744 -2.2749
17 1 8 1.0859 8.6582
17 1 9 -1.4424 5.2378
17 1 10 -0.3426 -3.0424
17 1 11 -0.7656 1.5565
17 1 12 0.9840 -7.1940
17 1 13 1.3113 -4.5256
17 1 14 0.7588 2.1344
17 1 15 -0.4944 -2.1346
17 1 16 2.7741 6.3814
17 1 17 -0.4359 3.3648
17 1 18 0.4237 1.5955
17 3 0 2.1019 -1.1768
17 3 1 -3.0641 -3.9883
17 3 2 1.6483 0.5304
17 3 3 -0.0073 -1.4989
17 3 4 -8.2000 0.8605
17 3 5 -0.0281 3.3882
17 3 6 4.3560 -0.2971
17 3 7 -0.0340 1.1454
17 3 8 0.9599 -0.5531
17 3 9 -2.7662 -3.0622
17 3 10 -3.0421 -0.1781
17 3 11 -1.2496 -1.4066
17 3 12 -0.8815 1.1522
17 3 13 0.3631 2.1560
17 3 14 0.8258 -0.2436
17 3 15 -1.3515 0.5290
17 3 16 2.0862 -0.5703
17 3 17 0.4547 -1.6294
17 3 18 -0.6773 2.0915
17 5 0 -2.5103 0.0954
17 5 1 3.9804 -0.2888
17 5 2 4.5227 0.4095
17 5 3 1.9367 0.0374
17 5 4 -2.5050 -0.7326
17 5 5 -4.5628 0.2556
17 5 6 1.6527 -0.1659
17 5 7 2.3266 0.0554
17 5 8 4.2673 0.5030
17 5 9 0.7068 -0.2003
17 5 10 -1.2782 -0.2925
17 5 11 -0.8286 -0.2042
17 5 12 0.0554 -0.3581
17 5 13 -1.2268 -0.0487
17 5 14 0.5080 -0.4005
17 5 15 0.1166 1.4606
17 5 16 1.0120 0.0080
17 5 17 -1.2108 1.0697
17 7 0 -6.7306 -2.1541
17 7 1 -2.8057 0.4129
17 7 2 4.7925 0.5298
17 7 3 -0.2828 -0.2434
17 7 4 0.5827 2.7889
17 7 5 -4.9071 0.2476
17 7 6 -2.0489 -0.6088
17 7 7 -1.2055 0.0004
17 7 8 0.3188 -1.9137
17 7 9 -1.2898 0.0546
17 7 10 1.5057 0.7545
17 7 11 -0.1719 -0.0533
17 7 12 0.4013 1.7766
17 7 13 -0.6974 -0.0716
17 7 14 -1.3796 -0.8023
17 7 15 -0.2855 -0.4943
17 7 16 2.2425 -1.9521
17 7 17 0.0784 0.5439
17 9 0 -2.5573 1.5589
17 9 1 -1.0693 0.8995
17 9 2 0.5000 -0.9090
17 9 3 -4.4047 0.5424
17 9 4 -3.0013 -1.3311
17 9 5 -1.9424 -1.6863
17 9 6 -3.0213 0.3129
17 9 7 -2.4657 -0.1894
17 9 8 -0.1522 1.2317
17 9 9 -5.5099 1.0063
17 9 10 -2.7879 -0.2592
17 9 11 -1.7567 0.1582
17 9 12 -1.8142 -0.8824
17 9 13 2.0724 -0.5985
17 9 14 -1.4518 0.2172
17 9 15 -3.8157 -0.0973
17 9 16 -0.3755 -0.0986
17 11 0 -2.3546 -0.4273
17 11 1 -0.5253 -0.5264
17 11 2 0.7432 -0.0710
17 11 3 -2.4529 0.4602
17 11 4 -4.3148 -0.0286
17 11 5 -1.7375 0.0334
17 11 6 1.0746 0.1993
17 11 7 0.5321 0.2562
17 11 8 2.8375 -0.0426
17 11 9 -1.3229 -0.2862
17 11 10 -2.4331 -0.3555
17 11 11 -3.4386 0.1878
17 11 12 -1.4523 -0.3084
17 11 13 1.4062 0.1775
17 11 14 1.1322 -0.6402
17 11 15 -3.7125 -0.1121
17 11 16 -0.6603 -0.2414
17 13 0 0.9159 0.3966
17 13 1 -2.7577 -0.3466
17 13 2 1.0249 0.1761
17 13 3 -0.8484 0.0352
17 13 4 -1.4932 -1.1688
17 13 5 -3.6069 0.3443
17 13 6 -0.5390 0.1786
17 13 7 2.3442 0.4387
17 13 8 3.2090 0.7525
17 13 9 -0.0837 -0.5787
17 13 10 1.4684 0.2212
17 13 11 -2.2385 -0.1138
17 13 12 0.7268 -1.0165
17 13 13 1.0459 -0.1949
17 13 14 2.1397 -0.4534
17 13 15 -2.8912 0.1924
17 15 0 -2.9289 -1.0614
17 15 1 -3.7340 0.2239
17 15 2 2.6463 0.4044
17 15 3 -0.1124 -0.3303
17 15 4 0.0982 1.3713
17 15 5 1.2376 0.8128
17 15 6 -1.8337 -0.5761
17 15 7 0.5288 -0.1571
17 15 8 -0.3655 -0.8778
17 15 9 -0.7048 -0.3098
17 15 10 0.1034 0.5331
17 15 11 -0.3559 -0.0161
17 15 12 0.0255 0.3830
17 15 13 -1.7244 0.6466
17 15 14 3.4063 -0.4333
17 17 0 -0.4034 1.2798
17 17 1 -0.8955 0.2918
17 17 2 0.4656 -0.4581
17 17 3 -1.1081 -0.0053
17 17 4 -2.5474 -0.6849
17 17 5 2.3035 -0.7147
17 17 6 -2.2699 -0.0553
17 17 7 1.5965 -0.2415
17 17 8 2.0534 0.5894
17 17 9 -1.0127 0.5222
17 17 10 1.3755 0.2469
17 17 11 0.4783 -0.2120
17 17 12 0.9741 -0.9214
17 19 0 2.3194 -0.1882
17 19 1 3.8024 0.0779
17 19 2 0.7074 -0.1244
17 19 3 0.0264 0.6865
17 19 4 -1.7014 0.3746
17 19 5 -2.3483 -0.8063
17 19 6 -2.8912 0.4666
17 19 7 -3.3075 -0.2841
17 19 8 4.7812 0.8392
17 19 9 -0.3372 -0.4225
17 19 10 2.2044 -0.8476
17 21 0 1.5630 -0.4296
17 21 1 1.6630 -0.2312
17 21 2 -1.8947 0.0822
17 21 3 -0.5992 -0.4585
17 21 4 0.5054 -2.5247
17 21 5 -2.8011 0.9761
17 21 6 -1.0989 1.2716
17 21 7 -0.9901 0.9242
17 23 0 1.8189 -3.3718
17 23 1 0.8905 0.7794
17 23 2 -1.5549 1.1013
18 0 0 5.5433 -17.6303
18 0 2 -8.3465 6.5450
18 0 4 4.8918 16.6640
18 0 6 4.4541 -6.2865
18 0 8 -3.7020 -15.3215
18 0 10 -0.8479 5.5933
18 0 12 -1.3927 13.4611
18 0 14 0.9451 -5.2565
18 0 16 -3.4011 -10.5702
18 2 0 3.7344 -0.7865
18 2 1 3.6636 -1.3070
18 2 2 -3.8413 0.6829
18 2 3 -1.3062 -1.3261
18 2 4 4.6718 0.6917
18 2 5 -1.7044 1.7163
18 2 6 1.1594 -0.3839
18 2 7 1.4288 1.1258
18 2 8 -2.0711 -0.7975
18 2 9 1.8454 -1.5790
18 2 10 0.7882 0.4429
18 2 11 1.0885 -0.6315
18 2 12 0.8452 1.1172
18 2 13 -1.2392 1.4484
18 2 14 -0.0993 -0.8250
18 2 15 1.4004 1.7875
18 2 16 -3.0090 -1.4770
18 2 17 -0.2088 -0.0688
18 4 0 2.3524 -0.5497
18 4 1 -1.4408 3.7819
18 4 2 -1.7856 -0.2034
18 4 3 -2.4419 1.9391
18 4 4 2.2287 1.1519
18 4 5 1.6197 -3.3567
18 4 6 0.5302 -0.4358
18 4 7 -2.5633 -1.1557
18 4 8 -4.0060 -0.9304
18 4 9 -0.3650 3.1348
18 4 10 1.6086 0.7540
18 4 11 1.0449 1.4381
18 4 12 1.4139 0.5558
18 4 13 0.6231 -2.6183
18 4 14 -0.8391 -1.1621
18 4 15 1.0274 -0.5421
18 4 16 -0.0725 -0.1597
18 4 17 0.7614 -0.3886
18 6 0 6.7270 2.3705
18 6 1 1.6117 -1.5502
18 6 2 -3.7321 -0.9746
18 6 3 -2.6092 -0.4001
18 6 4 -2.9364 -2.3600
18 6 5 3.9885 0.6965
18 6 6 4.1509 0.8944
18 6 7 -0.7783 0.8817
18 6 8 -2.1672 1.6192
18 6 9 -1.8417 -0.7689
18 6 10 -1.3404 -0.7781
18 6 11 0.6478 -0.1164
18 6 12 0.4491 -1.4070
18 6 13 1.3384 0.7198
18 6 14 -0.2384 0.9623
18 6 15 -1.6688 1.1368
18 6 16 -1.0489 1.5134
18 6 17 2.6807 -3.1055
18 8 0 4.1774 -0.4491
18 8 1 5.2345 0.1138
18 8 2 0.1115 0.2298
18 8 3 2.0306 0.6225
18 8 4 -2.1300 -0.3305
18 8 5 1.6606 -0.1201
18 8 6 5.1140 -0.3363
18 8 7 0.4537 0.0016
18 8 8 0.2601 -0.1121
18 8 9 4.1465 -0.2606
18 8 10 -0.0599 -0.5315
18 8 11 0.3925 0.5229
18 8 12 1.5628 -0.3420
18 8 13 0.8153 0.2818
18 8 14 2.4643 -0.4400
18 8 15 0.2675 1.0002
18 8 16 -1.3221 2.4390
18 10 0 3.2102 -0.2429
18 10 1 1.8658 -0.8725
18 10 2 -0.4289 0.5112
18 10 3 1.4119 -1.0222
18 10 4 1.4934 0.2472
18 10 5 1.0919 1.6077
18 10 6 -0.1323 0.0161
18 10 7 -0.8702 0.8100
18 10 8 -2.2153 -0.3164
18 10 9 1.8863 -1.5757
18 10 10 2.3513 -0.1502
18 10 11 1.5826 -0.1866
18 10 12 1.9698 0.0672
18 10 13 -0.1693 0.6259
18 10 14 0.1537 0.1717
18 10 15 2.5478 -0.4419
18 12 0 1.0184 -0.2329
18 12 1 3.0697 1.3178
18 12 2 -0.2879 -0.1148
18 12 3 -0.6664 0.5505
18 12 4 -1.0178 0.9427
18 12 5 3.2762 -1.2422
18 12 6 -1.3193 -0.6736
18 12 7 -4.7987 -0.5633
18 12 8 -2.6831 -0.5045
18 12 9 -1.7177 0.5964
18 12 10 -2.0557 0.6606
18 12 11 2.3750 0.7518
18 12 12 0.2577 0.5427
18 12 13 -0.5926 -0.4845
18 12 14 -2.2306 0.7870
18 12 15 1.6788 -0.6274
18 14 0 1.2786 0.9638
18 14 1 2.2145 -0.5871
18 14 2 -1.8694 -0.5529
18 14 3 0.1832 -0.1233
18 14 4 -2.2570 -0.1512
18 14 5 0.4488 0.1659
18 14 6 2.6477 0.1157
18 14 7 -1.5593 0.1249
18 14 8 -1.2365 0.4422
18 14 9 -0.1271 0.1725
18 14 10 -0.9314 -0.1907
18 14 11 0.0725 -0.4739
18 14 12 1.1249 -0.6804
18 14 13 -0.4761 0.5280
18 16 0 2.1774 -0.1129
18 16 1 1.7667 0.0326
18 16 2 -1.2796 -0.1629
18 16 3 0.3571 0.6907
18 16 4 -0.2430 -0.7959
18 16 5 -2.4494 -0.7464
18 16 6 1.8182 0.0148
18 16 7 -1.1779 -0.6330
18 16 8 1.3683 0.6232
18 16 9 1.0311 0.3840
18 16 10 1.2368 -0.2627
18 16 11 -0.5644 0.3114
18 16 12 0.3641 -0.4292
18 18 0 -3.4654 -0.7220
18 18 1 -2.6746 -0.7195
18 18 2 -1.2998 0.1845
18 18 3 0.0630 -0.6657
18 18 4 2.9562 0.2542
18 18 5 0.4152 0.8865
18 18 6 1.5869 0.5874
18 18 7 0.4292 0.7108
18 18 8 -2.7208 -0.6270
18 18 9 1.7458 -0.4103
18 18 10 -1.4298 -0.8980
18 20 0 -3.1292 -0.6940
18 20 1 -2.6589 0.6298
18 20 2 0.4012 -0.0215
18 20 3 -2.2697 -0.1581
18 20 4 1.7397 0.6327
18 20 5 3.6921 -1.8592
18 20 6 -0.5812 -0.2044
18 20 7 2.7278 0.3328
18 20 8 -1.7782 -1.7166
18 22 0 -1.5873 0.6576
18 22 1 -2.5270 -0.2791
18 22 2 3.0920 -0.0890
18 22 3 -0.2484 -0.1095
19 1 0 -2.1810 8.9989
19 1 1 -1.3171 4.8657
19 1 2 0.7153 -3.8959
19 1 3 1.0198 2.7043
19 1 4 0.3634 -8.7312
19 1 5 1.4012 -4.9467
19 1 6 -4.6340 3.6166
19 1 7 -1.1307 -1.9450
19 1 8 1.6313 7.5412
19 1 9 -0.8990 4.5418
19 1 10 1.4479 -2.7602
19 1 11 0.0917 2.1698
19 1 12 -0.2224 -7.5562
19 1 13 1.0661 -3.9624
19 1 14 -0.2136 2.6253
19 1 15 -0.4431 -0.3396
19 1 16 2.2304 6.9946
19 1 17 -0.0856 -0.3134
19 3 0 -1.6433 -1.1089
19 3 1 0.5625 -3.5727
19 3 2 -1.8308 0.3101
19 3 3 1.2444 -1.6071
19 3 4 -0.2757 0.7275
19 3 5 0.9728 3.0758
19 3 6 -1.7965 0.3190
19 3 7 0.7739 1.0383
19 3 8 1.4626 -0.9353
19 3 9 -0.1460 -3.1496
19 3 10 -0.8288 0.3368
19 3 11 0.3813 -1.0719
19 3 12 -1.8487 -0.1329
19 3 13 -0.0110 2.5749
19 3 14 0.9385 1.2851
19 3 15 -0.9454 -0.2634
19 3 16 0.7381 1.6233
19 3 17 0.3072 -1.7604
19 5 0 -2.1315 0.1356
19 5 1 1.5429 0.0723
19 5 2 0.8244 0.2899
19 5 3 1.7495 -0.4901
19 5 4 2.7687 -0.7351
19 5 5 -2.6927 0.1799
19 5 6 -4.1116 -0.0341
19 5 7 0.6076 0.1357
19 5 8 1.1166 0.5528
19 5 9 4.0036 -0.7076
19 5 10 0.0401 0.0641
19 5 11 -0.0056 -0.6768
19 5 12 -0.2922 -0.4606
19 5 13 -0.6409 0.8142
19 5 14 0.9917 0.6166
19 5 15 1.7278 -0.2295
19 5 16 -0.5184 1.2140
19 7 0 -1.6564 -1.7987
19 7 1 -4.5957 0.6273
19 7 2 -1.3071 0.8197
19 7 3 -0.2896 -0.4350
19 7 4 6.6700 2.5662
19 7 5 -1.3427 0.2024
19 7 6 -6.5658 -0.5815
19 7 7 -0.6229 -0.1240
19 7 8 -2.6259 -1.7854
19 7 9 -0.0974 -0.5533
19 7 10 1.3729 1.0571
19 7 11 -0.4129 -0.1023
19 7 12 -0.6542 1.5446
19 7 13 -1.2833 -0.3158
19 7 14 -1.4778 -0.3686
19 7 15 3.5531 -2.3578
19 7 16 1.8351 -1.9620
19 9 0 -0.0806 1.5920
19 9 1 -3.8155 0.8222
19 9 2 -2.1571 -0.6483
19 9 3 -1.7616 0.5894
19 9 4 2.4379 -1.0302
19 9 5 1.2487 -1.4943
19 9 6 -1.4411 0.4671
19 9 7 -0.3839 -0.4091
19 9 8 0.5845 0.8319
19 9 9 -2.6866 1.1439
19 9 10 -1.3226 0.4133
19 9 11 0.7126 0.4340
19 9 12 -1.3744 0.0016
19 9 13 -1.6240 -1.3472
19 9 14 -2.4632 0.6902
19 9 15 0.7279 -0.4568
19 11 0 -1.8892 -0.3552
19 11 1 -3.3578 -0.5535
19 11 2 -0.0387 -0.1230
19 11 3 2.1701 -0.0511
19 11 4 1.9154 0.4725
19 11 5 -0.9651 0.5913
19 11 6 4.3268 0.1976
19 11 7 2.9498 -0.5021
19 11 8 1.0085 -0.3027
19 11 9 2.2463 0.2522
19 11 10 0.9053 -0.4995
19 11 11 0.1983 -0.2494
19 11 12 0.2867 0.2639
19 11 13 -1.4220 0.6778
19 11 14 0.9855 -0.0700
19 13 0 -1.1842 0.3241
19 13 1 -1.5730 -0.3791
19 13 2 0.7556 0.1049
19 13 3 0.7328 -0.6414
19 13 4 3.3906 -1.4851
19 13 5 0.8311 0.5218
19 13 6 0.5824 0.5774
19 13 7 3.3830 -0.0496
19 13 8 1.2604 1.0275
19 13 9 0.9047 0.0843
19 13 10 2.9795 -1.0262
19 13 11 0.5800 -0.3351
19 13 12 -0.7978 -0.6132
19 13 13 -0.2295 -0.3498
19 15 0 -3.3986 -1.2969
19 15 1 -0.1525 0.3728
19 15 2 1.7408 0.3650
19 15 3 0.1112 -0.1430
19 15 4 2.0051 1.5326
19 15 5 2.5929 -0.0852
19 15 6 -1.0501 -0.1150
19 15 7 -0.1991 0.2111
19 15 8 -1.2693 -1.1626
19 15 9 -0.2492 -0.4218
19 15 10 -1.4082 -0.6364
19 15 11 1.1349 0.5283
19 15 12 -1.4872 2.0029
19 17 0 1.2613 0.5532
19 17 1 1.4394 0.3819
19 17 2 1.4406 -0.1699
19 17 3 -0.9539 -0.1805
19 17 4 0.0478 0.0712
19 17 5 1.3091 -0.1169
19 17 6 -1.1487 -0.0800
19 17 7 1.7357 0.9708
19 17 8 -0.6787 0.0658
19 17 9 -2.2155 0.2504
19 17 10 -0.6585 0.3374
19 19 0 4.5913 0.0190
19 19 1 2.0582 0.0400
19 19 2 2.5168 0.0809
19 19 3 1.5395 0.5227
19 19 4 -3.4516 0.5815
19 19 5 -2.0092 0.8533
19 19 6 1.0329 -0.8428
19 19 7 -0.8069 -0.7471
19 19 8 1.9640 0.2300
19 21 0 1.4436 1.2081
19 21 1 1.4592 -0.4354
19 21 2 -1.5856 -0.1059
19 21 3 2.6281 -0.3484
19 21 4 -2.6436 -1.3258
20 0 0 0.2843 -15.9398
20 0 2 2.5507 6.7556
20 0 4 -2.7231 15.0154
20 0 6 3.1714 -6.3465
20 0 8 -0.1290 -13.9940
20 0 10 -2.2765 5.8875
20 0 12 0.9621 11.8507
20 0 14 -0.5378 -4.0747
20 0 16 0.4612 -8.0486
20 2 0 1.1443 -0.5602
20 2 1 -0.7561 -1.2215
20 2 2 4.2449 0.4485
20 2 3 -0.3137 -1.3875
20 2 4 -1.6662 0.8645
20 2 5 -2.2992 1.8536
20 2 6 1.3034 -0.5941
20 2 7 0.4299 0.7159
20 2 8 0.1452 -0.4888
20 2 9 1.2121 -1.4989
20 2 10 -0.1918 0.0415
20 2 11 -1.2693 -0.8317
20 2 12 1.8992 1.2403
20 2 13 -0.8367 1.4634
20 2 14 -1.2455 -0.0274
20 2 15 -0.0546 -0.2497
20 2 16 -0.2135 -4.3338
20 4 0 -0.1609 -0.6194
20 4 1 -3.5330 3.5521
20 4 2 2.8340 -0.1451
20 4 3 0.4663 1.7137
20 4 4 -1.0178 1.3173
20 4 5 1.0050 -3.0475
20 4 6 0.9317 -0.4122
20 4 7 -0.0972 -1.4896
20 4 8 -0.0136 -0.9189
20 4 9 -2.4850 2.9044
20 4 10 1.5363 0.1407
20 4 11 -1.0462 1.3231
20 4 12 0.4805 0.5341
20 4 13 0.1991 -2.2394
20 4 14 -0.8994 -1.0552
20 4 15 -1.1273 -1.7538
20 4 16 0.6999 -3.2278
20 6 0 -1.2436 1.7081
20 6 1 -0.6202 -1.6832
20 6 2 1.3842 -0.8677
20 6 3 0.1710 -0.2699
20 6 4 -5.3632 -1.6628
20 6 5 2.8095 1.0526
20 6 6 4.1012 1.2541
20 6 7 1.2465 0.2985
20 6 8 4.7089 1.2530
20 6 9 -3.1523 -0.3187
20 6 10 -0.2576 -0.8424
20 6 11 0.9559 0.0010
20 6 12 -0.5286 -1.1614
20 6 13 -0.2698 0.2765
20 6 14 0.3807 0.7305
20 6 15 -3.9955 0.4491
20 8 0 -2.7915 -0.8599
20 8 1 2.1017 -0.0295
20 8 2 3.4657 -0.0317
20 8 3 2.6213 0.1267
20 8 4 -4.9206 -0.1024
20 8 5 -2.7463 0.2026
20 8 6 2.1926 -0.1688
20 8 7 1.4016 -0.7509
20 8 8 3.1921 0.1276
20 8 9 2.3763 0.6622
20 8 10 0.1562 -0.0718
20 8 11 0.6042 -0.1390
20 8 12 0.8119 -0.4965
20 8 13 0.8735 0.7661
20 8 14 3.0148 -0.2720
20 8 15 -2.5807 1.7040
20 10 0 -0.4556 -0.3999
20 10 1 1.7979 -0.7306
20 10 2 0.9844 0.4001
20 10 3 0.2382 -1.2757
20 10 4 -0.9962 -0.0773
20 10 5 -3.0534 1.6275
20 10 6 -5.0744 0.0168
20 10 7 0.7547 0.2502
20 10 8 -0.4165 -0.0633
20 10 9 -0.4902 -0.5853
20 10 10 0.6362 -0.0021
20 10 11 -1.5582 -0.8464
20 10 12 -0.8950 -0.4276
20 10 13 1.3857 0.2233
20 10 14 0.9397 -0.0372
20 12 0 0.6362 -0.4920
20 12 1 1.4282 1.3100
20 12 2 -0.4624 0.0362
20 12 3 -1.2465 0.8823
20 12 4 -2.7126 0.6981
20 12 5 -3.5732 -1.5485
20 12 6 -3.9369 -0.5803
20 12 7 -2.9334 -0.3451
20 12 8 0.3785 -0.7663
20 12 9 -0.5007 0.9193
20 12 10 -2.6418 0.9502
20 12 11 -1.4616 0.5952
20 12 12 -1.1456 1.8901
20 12 13 1.4638 -1.2010
20 14 0 2.8075 0.5932
20 14 1 -0.8757 -0.5597
20 14 2 -2.1614 -0.0981
20 14 3 -1.0257 -0.1614
20 14 4 -1.0428 0.3276
20 14 5 -4.7641 0.6928
20 14 6 -0.9764 0.2747
20 14 7 -0.0761 0.7559
20 14 8 0.1481 -0.2333
20 14 9 0.8610 -0.2390
20 14 10 -0.6816 0.2940
20 14 11 -2.0294 -0.7822
20 14 12 1.3659 0.6405
20 16 0 2.9108 0.2009
20 16 1 -1.0995 -0.1324
20 16 2 -1.6345 0.1784
20 16 3 -0.9255 0.2324
20 16 4 -2.4929 -1.2407
20 16 5 -1.2287 -0.3899
20 16 6 -0.1098 -0.0485
20 16 7 -0.5154 -0.6777
20 16 8 3.3880 0.8923
20 16 9 0.5888 0.2583
20 16 10 0.9970 0.7852
20 18 0 -2.8423 0.2865
20 18 1 -1.8032 -0.5479
20 18 2 -3.2071 0.3575
20 18 3 0.7732 -0.5414
20 18 4 -0.1863 0.1024
20 18 5 -0.3469 0.2707
20 18 6 -0.1712 0.1383
20 18 7 -1.5435 -0.3959
20 18 8 0.0306 -0.0095
20 20 0 -2.0746 -0.2327
20 20 1 -1.0873 0.4728
20 20 2 -1.4623 0.1839
20 20 3 -1.7254 0.1333
20 20 4 3.0340 -0.5190
21 1 0 -0.7631 7.9651
21 1 1 0.4252 4.4709
21 1 2 -2.7907 -3.4987
21 1 3 0.1294 2.6244
21 1 4 2.1871 -7.7328
21 1 5 1.7508 -4.8136
21 1 6 -0.4400 3.0879
21 1 7 -0.1064 -1.6016
21 1 8 -0.0785 7.0617
21 1 9 -1.1383 5.0940
21 1 10 1.6477 -3.2974
21 1 11 0.8367 1.4051
21 1 12 -1.4405 -5.7606
21 1 13 0.7937 -3.5790
21 1 14 0.9023 1.3230
21 1 15 0.4381 0.2770
21 3 0 0.1853 -1.2922
21 3 1 2.3361 -3.8234
21 3 2 -4.7875 0.9003
21 3 3 -0.8755 -0.7997
21 3 4 0.2274 1.0415
21 3 5 0.9424 2.9823
21 3 6 1.2518 -0.5274
21 3 7 0.4965 0.8560
21 3 8 0.4548 -0.6458
21 3 9 -0.4960 -2.3503
21 3 10 -1.2002 0.0221
21 3 11 1.1732 -0.2706
21 3 12 -1.0412 1.0639
21 3 13 0.0226 1.4406
21 3 14 1.2314 -0.3902
21 3 15 0.9671 1.2329
21 5 0 2.8667 0.1159
21 5 1 3.5518 -0.2412
21 5 2 -2.6528 0.1383
21 5 3 -0.6272 -0.3354
21 5 4 0.9007 -0.9177
21 5 5 -4.0437 0.4460
21 5 6 -0.1643 -0.5175
21 5 7 0.0405 0.0716
21 5 8 -2.7633 0.8887
21 5 9 2.8502 0.2436
21 5 10 -1.0490 -0.2126
21 5 11 -0.6704 0.2099
21 5 12 0.3641 0.3730
21 5 13 0.5062 0.5530
21 5 14 0.4351 -0.2046
21 5 15 2.4483 2.3056
21 7 0 3.0741 -1.3887
21 7 1 1.8743 0.6541
21 7 2 -2.2463 0.7416
21 7 3 -1.4363 -0.4077
21 7 4 3.2591 2.0187
21 7 5 -0.2102 0.1607
21 7 6 -1.7591 -1.1295
21 7 7 -0.0539 -0.1125
21 7 8 -5.4810 -1.7101
21 7 9 -0.9223 0.2182
21 7 10 0.2834 0.0983
21 7 11 -2.3113 0.0318
21 7 12 -0.8610 0.9823
21 7 13 0.5154 0.3660
21 7 14 -1.2879 -0.4247
21 9 0 1.6110 1.5735
21 9 1 1.6401 0.5769
21 9 2 -1.3303 -0.5823
21 9 3 -2.9986 0.8554
21 9 4 -0.2308 -1.0376
21 9 5 4.7812 -1.5769
21 9 6 3.5683 0.2740
21 9 7 -0.8426 0.5481
21 9 8 -0.0229 0.8669
21 9 9 -2.0492 0.8215
21 9 10 -0.8427 -0.4118
21 9 11 -0.2384 0.0284
21 9 12 0.0567 -0.3632
21 9 13 0.2336 -0.4953
21 9 14 -1.6696 -0.0834
21 11 0 0.4297 -0.1223
21 11 1 0.7913 -0.8805
21 11 2 0.3185 0.0698
21 11 3 -1.1925 0.4734
21 11 4 0.6095 0.7037
21 11 5 3.9326 0.0452
21 11 6 4.2825 0.0741
21 11 7 1.9844 0.6089
21 11 8 -0.4669 -0.2847
21 11 9 -0.6293 -0.7688
21 11 10 0.2080 0.1334
21 11 11 0.8493 -0.3097
21 11 12 2.4236 -1.2049
21 11 13 0.1551 2.0437
21 13 0 0.2301 0.5550
21 13 1 1.6155 -0.6190
21 13 2 2.0225 0.2364
21 13 3 0.0531 -0.1800
21 13 4 0.4984 -1.6921
21 13 5 6.4727 0.4488
21 13 6 0.5572 0.2407
21 13 7 2.6385 0.3410
21 13 8 0.1620 0.8153
21 13 9 -3.2528 -0.6898
21 13 10 0.6208 0.9256
21 13 11 1.1007 -0.0451
21 13 12 0.1075 -3.9559
21 15 0 -3.7195 -0.8466
21 15 1 0.9203 0.5053
21 15 2 2.3647 0.2581
21 15 3 3.2426 0.3310
21 15 4 0.9819 1.0042
21 15 5 1.7828 0.2099
21 15 6 1.0021 -0.8194
21 15 7 -0.4949 -1.0829
21 15 8 -2.2974 -1.5984
21 15 9 -0.6712 -0.3482
21 15 10 -0.7675 0.8874
21 17 0 -0.7238 0.4578
21 17 1 0.6468 0.4864
21 17 2 1.8140 -0.3345
21 17 3 0.6130 0.0339
21 17 4 4.7996 -0.2407
21 17 5 0.3586 1.1808
21 17 6 -0.3202 0.2605
21 17 7 0.9234 0.1359
21 17 8 -2.9941 -0.4944
21 19 0 2.4644 -0.4895
21 19 1 1.2970 -0.0515
21 19 2 1.8375 -0.5365
21 19 3 -0.4673 0.7359
21 19 4 0.5773 -0.2552
21 19 5 0.3352 0.1739
22 0 0 0.1857 -14.4210
22 0 2 -1.2639 6.7441
22 0 4 -2.0370 13.6502
22 0 6 0.5289 -6.4629
22 0 8 -0.1688 -12.4336
22 0 10 -2.4066 5.8566
22 0 12 0.0632 10.8620
22 0 14 0.4858 -4.3797
22 2 0 0.0509 -0.4765
22 2 1 -0.1036 -1.0843
22 2 2 1.5641 -0.0976
22 2 3 -0.4577 -1.1958
22 2 4 -0.6905 0.2030
22 2 5 -1.6172 1.6495
22 2 6 -0.5841 0.0729
22 2 7 -0.8575 0.7904
22 2 8 -0.5149 -0.1773
22 2 9 1.4371 -1.5879
22 2 10 -0.8343 0.3925
22 2 11 -1.0734 -0.6453
22 2 12 0.2018 0.6924
22 2 13 -0.0696 0.6178
22 2 14 -0.7385 0.4893
22 4 0 -2.8342 -0.3387
22 4 1 -1.4114 3.5554
22 4 2 3.4694 -0.1052
22 4 3 0.1136 1.2086
22 4 4 1.1415 0.8060
22 4 5 2.7729 -3.6275
22 4 6 -1.2070 -0.3737
22 4 7 -1.6180 -0.9849
22 4 8 -0.1166 -0.7896
22 4 9 -0.5816 2.5588
22 4 10 0.2629 0.7601
22 4 11 0.1607 -0.4181
22 4 12 0.3602 -0.1805
22 4 13 0.4050 -3.0304
22 4 14 -1.3018 -0.0865
22 6 0 -2.8342 1.7922
22 6 1 -2.7409 -1.7278
22 6 2 1.5707 -0.5139
22 6 3 -0.4536 0.1502
22 6 4 -0.1054 -1.2691
22 6 5 4.0564 0.5062
22 6 6 1.8382 1.0414
22 6 7 -2.1592 0.9797
22 6 8 3.3105 1.2482
22 6 9 -0.5512 -1.4252
22 6 10 -1.0866 -0.2025
22 6 11 1.5809 -1.3053
22 6 12 2.0585 -0.5151
22 6 13 -0.3802 -2.0572
22 6 14 -0.8945 0.2751
22 8 0 -0.2108 -0.6545
22 8 1 -2.9849 -0.2446
22 8 2 0.6513 0.2827
22 8 3 0.8559 0.9486
22 8 4 0.5395 -0.0182
22 8 5 -2.1644 -0.5959
22 8 6 0.0575 -0.0025
22 8 7 -1.5899 0.0151
22 8 8 0.3166 0.2506
22 8 9 2.5648 -0.6293
22 8 10 -0.5796 0.5403
22 8 11 1.1987 0.4316
22 8 12 2.0381 1.2868
22 8 13 -0.4083 -0.9120
22 10 0 0.9114 -0.6255
22 10 1 -2.2165 -0.4277
22 10 2 0.1848 0.4303
22 10 3 1.7154 -0.6645
22 10 4 1.2026 0.1087
22 10 5 -1.0967 1.4236
22 10 6 -2.9757 -0.0948
22 10 7 -2.2550 0.3269
22 10 8 -1.3415 -0.4372
22 10 9 1.0434 -1.5533
22 10 10 0.8269 -0.5060
22 10 11 0.3713 0.6296
22 10 12 -1.3889 1.0434
22 12 0 -1.6045 -0.6700
22 12 1 -2.2579 1.7186
22 12 2 -0.8842 -0.5011
22 12 3 1.1691 0.4078
22 12 4 -1.1182 0.3866
22 12 5 -2.3815 -1.2742
22 12 6 1.7825 -0.7115
22 12 7 -4.8473 -1.0009
22 12 8 0.2866 0.2735
22 12 9 3.4898 0.7531
22 12 10 1.2735 -1.2851
22 12 11 1.3758 1.2873
22 14 0 0.9538 0.7092
22 14 1 -1.9214 -0.1015
22 14 2 -2.5175 -0.6652
22 14 3 -2.4606 -0.3950
22 14 4 0.3418 0.4372
22 14 5 -2.4736 -0.0312
22 14 6 1.1826 0.6039
22 14 7 -1.4651 0.3216
22 14 8 -0.3906 1.2831
22 14 9 2.6837 0.3583
22 14 10 1.7971 -2.6759
22 16 0 2.8521 0.0593
22 16 1 0.2152 -0.3679
22 16 2 -1.0382 -0.4487
22 16 3 -3.0006 0.4860
22 16 4 -4.6197 -1.1039
22 16 5 1.0868 -2.4350
22 16 6 0.7340 0.6890
22 16 7 0.3164 0.7042
22 16 8 2.7430 2.3258
22 18 0 -1.5041 -0.1200
22 18 1 -0.2377 -0.4626
22 18 2 -0.1336 0.1972
22 18 3 0.6929 -0.3336
22 18 4 -4.9183 1.0060
22 18 5 -2.0628 -1.5669
23 1 0 -0.2389 7.5775
23 1 1 -0.4466 4.7069
23 1 2 3.8102 -3.4299
23 1 3 1.0698 1.3708
23 1 4 1.5157 -7.0724
23 1 5 0.9528 -4.8107
23 1 6 -0.6298 3.4130
23 1 7 0.2583 -1.0378
23 1 8 -0.4616 5.4317
23 1 9 -0.5806 4.0211
23 1 10 1.6167 -2.4488
23 1 11 1.0856 0.2767
23 1 12 1.3152 -5.7630
23 1 13 -0.1435 -2.6791
23 1 14 -0.9837 1.0065
23 3 0 0.5240 -0.7267
23 3 1 -1.3802 -3.1478
23 3 2 -0.5652 0.7204
23 3 3 1.4040 -0.5147
23 3 4 -0.2841 0.9288
23 3 5 -0.5635 2.9953
23 3 6 0.4963 0.1122
23 3 7 1.1962 0.7184
23 3 8 -0.1275 -1.2008
23 3 9 -0.8138 -3.1346
23 3 10 0.7897 0.1251
23 3 11 0.5903 -0.5172
23 3 12 0.7394 -0.4081
23 3 13 -0.8504 3.7755
23 5 0 1.9089 0.0174
23 5 1 -0.0073 0.1164
23 5 2 -1.7828 -0.1455
23 5 3 0.9341 0.1519
23 5 4 -0.7213 -1.3095
23 5 5 -4.0607 0.3915
23 5 6 -1.8510 0.7878
23 5 7 2.7661 0.3383
23 5 8 -0.6484 0.6656
23 5 9 0.5835 -0.3766
23 5 10 2.0380 -0.1097
23 5 11 -0.6198 1.0765
23 5 12 -2.4819 -1.0639
23 5 13 -0.2274 4.7506
23 7 0 -0.6790 -1.6070
23 7 1 1.1123 1.0401
23 7 2 -0.7246 0.4958
23 7 3 2.1351 -0.4274
23 7 4 -0.0464 1.7012
23 7 5 -0.6892 0.1186
23 7 6 -4.0332 -0.7369
23 7 7 2.6395 -0.2578
23 7 8 0.2154 -1.8873
23 7 9 -0.7373 -0.2834
23 7 10 2.8188 0.6258
23 7 11 -0.0019 1.1000
23 7 12 -4.0977 -1.3925
23 7 13 -0.3157 3.6335
23 9 0 -2.8484 1.4386
23 9 1 -0.0859 0.9608
23 9 2 -1.3757 -0.9624
23 9 3 1.8887 -0.4912
23 9 4 -0.8159 -1.2612
23 9 5 -0.2161 -0.5677
23 9 6 0.6845 0.4299
23 9 7 1.5094 -0.4157
23 9 8 2.7349 1.4496
23 9 9 -0.2527 0.7818
23 9 10 0.9425 0.1560
23 9 11 0.0140 -0.0995
23 9 12 -0.8472 -2.5251
23 11 0 -0.5813 0.5333
23 11 1 -0.5946 -0.5364
23 11 2 -1.4013 0.1633
23 11 3 0.7906 -0.4348
23 11 4 1.0005 0.5813
23 11 5 -3.5442 0.2071
23 11 6 -1.6577 0.5018
23 11 7 3.4236 -0.8449
23 11 8 -0.0702 -0.0189
23 11 9 -0.5307 1.0216
23 11 10 -1.4066 0.8710
23 11 11 -2.0808 -0.8884
23 13 0 0.9134 0.4625
23 13 1 1.2668 -0.9530
23 13 2 0.9665 0.4662
23 13 3 1.8787 -0.3790
23 13 4 0.6503 -0.5400
23 13 5 0.1514 0.8235
23 13 6 -4.0959 0.7209
23 13 7 2.5156 0.7449
23 13 8 0.3732 -0.4801
23 13 9 -2.4298 0.3096
23 15 0 -2.9730 -1.1494
23 15 1 0.3853 0.0941
23 15 2 0.8497 0.4185
23 15 3 3.2703 -0.3001
23 15 4 1.7991 1.9572
23 15 5 -1.5919 0.8715
23 15 6 -1.6144 -1.1508
23 15 7 -0.1523 0.0622
23 17 0 -0.9002 0.3040
23 17 1 -0.4347 0.6773
23 17 2 -0.5779 0.3345
23 17 3 -0.0441 -0.8376
23 17 4 5.0741 0.6649
24 0 0 -0.0825 -12.9171
24 0 2 -4.8498 6.8093
24 0 4 -1.1246 12.1011
24 0 6 0.3677 -6.4468
24 0 8 0.9372 -10.6912
24 0 10 -0.1249 5.0990
24 0 12 -1.3618 7.8093
24 2 0 1.0201 -0.9174
24 2 1 0.9798 -1.2004
24 2 2 -2.4472 0.4056
24 2 3 -2.0470 -1.0625
24 2 4 -0.4494 0.5516
24 2 5 -0.5856 1.8187
24 2 6 -0.2148 -0.0272
24 2 7 0.6334 0.7944
24 2 8 1.3884 -0.1792
24 2 9 0.5662 -0.6040
24 2 10 0.1723 0.4387
24 2 11 -1.5385 1.0938
24 2 12 -2.0651 1.1665
24 2 13 0.7332 0.1083
24 4 0 -0.0096 -0.4841
24 4 1 2.0680 3.0433
24 4 2 1.3417 0.1756
24 4 3 -1.1084 0.2632
24 4 4 -0.2296 1.3963
24 4 5 1.9195 -3.0553
24 4 6 0.6599 -1.0051
24 4 7 -1.1903 -0.9003
24 4 8 0.8797 -1.0430
24 4 9 0.5555 2.3052
24 4 10 -0.8211 0.5177
24 4 11 0.6088 1.5557
24 4 12 0.1841 1.8335
24 6 0 0.0596 1.8195
24 6 1 1.0460 -1.2639
24 6 2 1.9123 -0.8538
24 6 3 -1.6169 -1.4443
24 6 4 -0.3458 -0.7871
24 6 5 1.2751 1.5960
24 6 6 4.6848 0.6706
24 6 7 -2.3763 -0.1645
24 6 8 -0.6702 1.0682
24 6 9 -0.6349 -0.4939
24 6 10 -3.1731 -1.5694
24 6 11 -0.0195 -0.9326
24 6 12 3.9801 1.3618
24 8 0 1.8151 -0.0170
24 8 1 2.3281 -0.0531
24 8 2 2.7463 0.3783
24 8 3 -3.9561 -0.1736
24 8 4 -0.1997 -0.1925
24 8 5 -1.2897 -0.2836
24 8 6 1.9917 0.2856
24 8 7 0.2438 -1.0272
24 8 8 -2.5384 -0.0970
24 8 9 -1.3479 2.5157
24 8 10 -3.2281 -0.7060
24 8 11 -0.9822 -0.9159
24 10 0 1.9538 -0.4571
24 10 1 4.5319 -0.9896
24 10 2 4.0527 0.7315
24 10 3 -2.8270 -0.2596
24 10 4 -0.3664 0.7383
24 10 5 2.9505 1.3992
24 10 6 -0.7242 -0.2895
24 10 7 0.6593 0.9986
24 10 8 -0.7982 -2.3687
24 10 9 -2.1677 0.0575
24 10 10 -0.8325 -0.1881
24 12 0 -0.5713 -0.7313
24 12 1 2.9531 0.8568
24 12 2 1.8812 -0.1478
24 12 3 -2.1970 0.4645
24 12 4 -0.9801 -0.3752
24 12 5 2.1901 -0.7546
24 12 6 3.6379 -1.1295
24 12 7 0.1374 0.4797
24 12 8 1.0758 -0.5684
24 12 9 -0.1927 -0.6013
24 14 0 1.6673 0.7327
24 14 1 0.8312 0.3194
24 14 2 0.3409 0.4248
24 14 3 -3.1793 -0.1107
24 14 4 -0.4058 -1.2803
24 14 5 0.3847 0.4461
24 14 6 2.0899 -0.0433
24 14 7 0.6092 -0.6815
24 16 0 3.0482 0.0949
24 16 1 0.7273 -0.2046
24 16 2 0.8408 0.3657
24 16 3 -0.5141 0.7718
24 16 4 -2.2833 -2.7584
25 1 0 1.8062 6.4144
25 1 1 0.5493 3.6653
25 1 2 1.1146 -4.0216
25 1 3 1.1614 1.5890
25 1 4 -1.0865 -5.7481
25 1 5 0.5413 -4.2837
25 1 6 0.5501 2.3440
25 1 7 -1.4436 -1.4266
25 1 8 -0.3587 5.4060
25 1 9 0.1223 2.8129
25 1 10 -2.0284 -3.6653
25 1 11 1.3430 -0.0600
25 1 12 0.9656 -1.3993
25 3 0 0.4124 -0.9934
25 3 1 -0.9507 -2.8881
25 3 2 -1.2769 -0.2644
25 3 3 1.5739 -0.5351
25 3 4 -0.1305 0.8919
25 3 5 -0.6619 2.7805
25 3 6 0.7245 -0.9929
25 3 7 -1.4985 -0.4188
25 3 8 -1.6737 0.1566
25 3 9 -0.9059 -1.5716
25 3 10 -1.8339 -1.4647
25 3 11 -0.0699 -2.5537
25 5 0 1.5839 -0.0963
25 5 1 -1.6087 -0.2464
25 5 2 -2.8136 0.1628
25 5 3 0.3866 0.1922
25 5 4 0.5087 -1.0127
25 5 5 -1.3253 0.2385
25 5 6 -2.2151 -0.0962
25 5 7 1.4260 -0.2002
25 5 8 0.0177 0.9485
25 5 9 -0.1407 2.0434
25 5 10 0.3344 0.2458
25 5 11 -1.5695 -1.2822
25 7 0 1.1631 -1.6610
25 7 1 -1.8124 -0.1024
25 7 2 -2.9607 0.8990
25 7 3 2.5608 1.1116
25 7 4 -0.3026 2.2466
25 7 5 1.4613 0.1016
25 7 6 -3.1184 -1.5327
25 7 7 -0.2987 0.5771
25 7 8 1.9503 -2.1619
25 7 9 2.3676 -0.7994
25 7 10 2.6864 2.0845
25 9 0 0.1333 0.1832
25 9 1 -3.8628 0.2860
25 9 2 -4.7450 -1.3723
25 9 3 2.1857 0.9201
25 9 4 -0.1790 -1.3121
25 9 5 1.0919 -0.3148
25 9 6 1.4793 0.3410
25 9 7 -3.0571 1.0171
25 9 8 1.0619 2.6467
25 9 9 3.0126 -2.9569
25 11 0 0.2330 -0.6914
25 11 1 -4.6213 -0.0517
25 11 2 -3.9248 -0.4636
25 11 3 -0.3141 0.9470
25 11 4 -0.1678 -0.2825
25 11 5 -0.7568 -1.1314
25 11 6 -0.6462 0.6781
25 11 7 -2.8468 -1.0676
25 11 8 -1.0528 2.4858
25 13 0 0.1381 -0.4222
25 13 1 -3.2356 -0.7056
25 13 2 -1.7554 -0.6073
25 13 3 1.5823 0.7378
25 13 4 -0.1702 0.1484
25 13 5 1.5311 -0.2520
25 13 6 -1.7499 1.2432
25 15 0 -2.6224 -0.7926
25 15 1 -2.3350 -0.5271
25 15 2 -2.0455 -1.2645
25 15 3 1.0705 0.2703
26 0 0 -5.8244 -10.7427
26 0 2 1.4090 6.5034
26 0 4 4.0138 9.9515
26 0 6 -0.0601 -5.5111
26 0 8 -1.8707 -8.2595
26 0 10 2.7967 4.8500
26 2 0 -3.6302 -0.1055
26 2 1 -1.0144 -1.0721
26 2 2 1.8102 1.5296
26 2 3 -1.3995 -0.5249
26 2 4 2.7374 0.0133
26 2 5 0.0925 1.4334
26 2 6 -0.7946 0.3008
26 2 7 3.2783 0.8849
26 2 8 0.3401 -0.0586
26 2 9 -0.0654 -0.1269
26 2 10 2.8626 2.5817
26 4 0 -3.3293 -0.2244
26 4 1 0.8841 2.0291
26 4 2 2.4370 0.6930
26 4 3 -0.4585 2.2574
26 4 4 -0.0828 0.5045
26 4 5 1.4468 -2.3204
26 4 6 -0.0884 -0.2463
26 4 7 0.9882 0.0384
26 4 8 1.3229 -0.4514
26 4 9 1.2796 -0.4566
26 4 10 2.3326 2.2153
26 6 0 -2.9854 0.7574
26 6 1 0.7968 -1.3431
26 6 2 1.5814 -1.3737
26 6 3 -0.9011 0.6193
26 6 4 0.6013 -1.6514
26 6 5 -0.0042 0.5548
26 6 6 2.1799 1.2189
26 6 7 -0.5122 0.9047
26 6 8 -1.2136 2.2945
26 6 9 -1.2213 -3.7583
26 8 0 -2.0654 0.0405
26 8 1 0.9446 0.0306
26 8 2 2.4370 0.5811
26 8 3 -1.6648 0.3108
26 8 4 0.7218 -0.6836
26 8 5 -1.3677 -2.5238
26 8 6 0.1235 -0.0421
26 8 7 2.2898 -0.7226
26 8 8 -0.9454 1.0239
26 10 0 -0.6640 1.1715
26 10 1 1.1205 -0.6288
26 10 2 3.3409 1.5138
26 10 3 2.6819 -0.8781
26 10 4 0.3576 2.1770
26 10 5 -0.7433 0.5520
26 10 6 -0.7525 -1.1942
26 10 7 2.6642 0.2133
26 12 0 -0.3892 1.4103
26 12 1 1.8403 0.8245
26 12 2 1.4677 0.5663
26 12 3 2.4477 -1.2880
26 12 4 1.0210 0.9756
26 12 5 -1.9009 0.4185
26 14 0 0.6409 1.8432
26 14 1 2.7899 0.9672
27 1 0 4.7640 5.2577
27 1 1 0.9619 3.5983
27 1 2 -0.5337 -3.3019
27 1 3 0.5836 1.4364
27 1 4 -5.0590 -5.1014
27 1 5 0.3899 -3.2876
27 1 6 -0.7523 3.9529
27 1 7 -2.5938 -0.3613
27 1 8 1.9912 0.7814
27 1 9 0.6712 0.5570
27 3 0 2.8548 -0.9875
27 3 1 -0.1058 -2.2946
27 3 2 -0.7067 -0.1207
27 3 3 0.2373 -1.2288
27 3 4 -1.4263 0.2515
27 3 5 -0.5905 0.0932
27 3 6 0.7146 1.6238
27 3 7 -3.5854 1.1414
27 3 8 -1.5630 -2.6378
27 3 9 -0.7531 -2.3004
27 5 0 2.3873 0.8770
27 5 1 -0.5755 0.2311
27 5 2 0.3539 1.0186
27 5 3 -0.6166 -1.9342
27 5 4 0.5898 -0.4823
27 5 5 -0.0158 -2.0561
27 5 6 -0.3257 1.0806
27 5 7 -0.3524 0.4589
27 5 8 -0.5568 -1.4106
27 7 0 0.5259 -0.0376
27 7 1 -0.2607 1.1605
27 7 2 0.7585 1.3283
27 7 3 1.2992 -1.2111
27 7 4 -0.3798 2.4138
27 7 5 0.3274 1.0698
27 7 6 -0.9007 -0.4568
27 7 7 -0.6419 -0.4971
27 9 0 0.1678 -0.0626
27 9 1 1.0007 1.6788
27 9 2 -1.1338 -1.4795
27 9 3 -0.8204 -1.2297
27 9 4 0.8333 -2.0507
27 9 5 -0.4565 2.7313
27 9 6 -0.2206 1.9641
27 11 0 -1.0429 -1.8089
27 11 1 1.5806 0.4929
27 11 2 -0.1940 -0.8887
27 11 3 -3.8587 0.1355
27 11 4 -0.4589 -2.5153
28 0 0 -1.5726 -9.7354
28 0 2 -2.3908 4.7019
28 0 4 4.5418 7.6345
28 0 6 2.0856 -5.0595
28 2 0 -0.0980 0.1495
28 2 1 0.0858 0.7134
28 2 2 -1.6732 -1.0543
28 2 3 0.4578 -1.1170
28 2 4 2.5811 1.1412
28 2 5 -0.7821 2.5281
28 2 6 0.1304 -3.6014
28 2 7 3.8597 -0.9305
28 4 0 -0.2695 0.3145
28 4 1 0.6435 4.6112
28 4 2 -1.4247 -1.5783
28 4 3 2.5480 0.5945
28 4 4 -1.3034 1.0823
28 4 5 -0.9407 2.7775
28 4 6 -1.0096 -3.1732
28 4 7 2.0646 -2.2184
28 6 0 1.9649 0.1854
28 6 1 0.1702 0.8646
28 6 2 -2.2369 -2.4731
28 6 3 1.4523 -0.5379
28 6 4 -0.9825 -1.4886
28 6 5 -1.7055 4.0429
28 6 6 -0.4778 -0.0306
28 8 0 2.1716 -0.0619
28 8 1 0.4758 -1.0616
28 8 2 -0.3722 0.0967
28 8 3 -0.7299 0.5887
28 8 4 -1.2256 -0.7205
28 10 0 1.8398 1.3219
28 10 1 -1.6351 -2.3150
29 1 0 -1.4159 3.9278
29 1 1 -0.2680 1.0202
29 1 2 3.2992 0.1368
29 1 3 -0.4115 0.9438
29 1 4 -1.9584 -2.2188
29 1 5 0.9614 -1.6231
29 3 0 -1.1827 -2.8532
29 3 1 -0.9266 -6.5138
29 3 2 1.4114 2.8042
29 3 3 -2.9302 0.2204
29 3 4 0.7356 0.7867
29 5 0 -1.5302 -1.2391
29 5 1 0.7366 -5.9285
29 5 2 1.5366 2.2185
29 5 3 -4.1951 1.0424
29 7 0 -3.9253 -1.0696
29 7 1 -0.6405 -2.6005
30 0 0 0.3149 -6.8256
0 0 0 0.0 0.0
;
_shelx_fab_checksum              51752
_olex2_submission_special_instructions 'No special instructions were received'
loop_
_space_group_symop_operation_xyz
'x, y, z'
'-x, y, -z+1/2'
'x+1/2, y+1/2, z'
'-x+1/2, y+1/2, -z+1/2'
'-x, -y, -z'
'x, -y, z-1/2'
'-x+1/2, -y+1/2, -z'
'x+1/2, -y+1/2, z-1/2'
loop_
_atom_site_label
_atom_site_type_symbol
_atom_site_fract_x
_atom_site_fract_y
_atom_site_fract_z
_atom_site_U_iso_or_equiv
_atom_site_adp_type
_atom_site_occupancy
_atom_site_site_symmetry_order
_atom_site_calc_flag
_atom_site_refinement_flags_posn
_atom_site_refinement_flags_adp
_atom_site_refinement_flags_occupancy
_atom_site_disorder_assembly
_atom_site_disorder_group
Au1 Au 0.50310(2) 0.54114(2) 0.62518(2) 0.02490(5) Uani 1 1 d . . . . .
F1 F 0.26176(19) 0.1787(2) 0.7418(3) 0.0725(11) Uani 1 1 d . . . . .
F2 F 0.84528(16) 0.30410(18) 0.4754(3) 0.0612(9) Uani 1 1 d . . . . .
F3 F 0.6742(2) 0.95356(16) 0.5510(3) 0.0737(13) Uani 1 1 d . . . . .
O1 O 0.4162(2) 0.8558(2) 0.6482(3) 0.0699(13) Uani 1 1 d . . . . .
N1 N 0.41927(15) 0.52417(17) 0.6704(2) 0.0274(6) Uani 1 1 d . . . . .
N2 N 0.52098(17) 0.44344(16) 0.6128(2) 0.0276(6) Uani 1 1 d . . . . .
N3 N 0.58430(15) 0.57038(17) 0.5781(2) 0.0255(6) Uani 1 1 d . . . . .
N4 N 0.47692(16) 0.63453(18) 0.6456(2) 0.0303(7) Uani 1 1 d . . . . .
C1 C 0.3863(2) 0.5802(2) 0.6962(3) 0.0321(8) Uani 1 1 d . . . . .
C2 C 0.3309(2) 0.5547(2) 0.7352(3) 0.0354(9) Uani 1 1 d . . . . .
H2 H 0.2983 0.5811 0.7599 0.043 Uiso 1 1 calc R . . . .
C3 C 0.33264(19) 0.4851(2) 0.7310(3) 0.0323(8) Uani 1 1 d . . . . .
H3 H 0.3014 0.4552 0.7526 0.039 Uiso 1 1 calc R . . . .
C4 C 0.3891(2) 0.4653(2) 0.6890(3) 0.0295(8) Uani 1 1 d . . . . .
C5 C 0.41503(19) 0.4024(2) 0.6662(2) 0.0295(8) Uani 1 1 d . . . . .
C6 C 0.47499(19) 0.3941(2) 0.6281(2) 0.0278(7) Uani 1 1 d . . . . .
C7 C 0.50301(19) 0.3327(2) 0.5973(3) 0.0290(8) Uani 1 1 d . . . . .
H7 H 0.4833 0.2893 0.5976 0.035 Uiso 1 1 calc R . . . .
C8 C 0.56191(19) 0.3463(2) 0.5680(3) 0.0306(8) Uani 1 1 d . . . . .
H8 H 0.5907 0.3146 0.5446 0.037 Uiso 1 1 calc R . . . .
C9 C 0.57266(18) 0.4179(2) 0.5788(2) 0.0264(7) Uani 1 1 d . . . . .
C10 C 0.62795(19) 0.4550(2) 0.5590(2) 0.0265(7) Uani 1 1 d . . . . .
C11 C 0.63260(18) 0.5262(2) 0.5612(2) 0.0260(7) Uani 1 1 d . . . . .
C12 C 0.68797(19) 0.5682(2) 0.5483(3) 0.0300(8) Uani 1 1 d . . . . .
H12 H 0.7295 0.5524 0.5354 0.036 Uiso 1 1 calc R . . . .
C13 C 0.67096(19) 0.6339(2) 0.5577(3) 0.0308(8) Uani 1 1 d . . . . .
H13 H 0.6985 0.6719 0.5524 0.037 Uiso 1 1 calc R . . . .
C14 C 0.60450(19) 0.6365(2) 0.5770(3) 0.0283(7) Uani 1 1 d . . . . .
C15 C 0.56758(19) 0.6952(2) 0.5932(3) 0.0292(8) Uani 1 1 d . . . . .
C16 C 0.5043(2) 0.6949(2) 0.6222(3) 0.0336(9) Uani 1 1 d . . . . .
C17 C 0.4562(2) 0.7442(2) 0.6390(3) 0.0365(9) Uani 1 1 d . . . . .
C18 C 0.4035(2) 0.7112(2) 0.6730(3) 0.0377(9) Uani 1 1 d . . . . .
H18 H 0.3653 0.7323 0.6907 0.045 Uiso 1 1 calc R . . . .
C19 C 0.41671(19) 0.6417(2) 0.6763(3) 0.0312(8) Uani 1 1 d . . . . .
C20 C 0.37575(19) 0.3413(2) 0.6836(3) 0.0313(8) Uani 1 1 d . . . . .
C21 C 0.3117(2) 0.3395(2) 0.6573(3) 0.0347(9) Uani 1 1 d . . . . .
H21 H 0.2941 0.3764 0.6260 0.042 Uiso 1 1 calc R . . . .
C22 C 0.2731(2) 0.2839(3) 0.6765(3) 0.0419(10) Uani 1 1 d . . . . .
H22 H 0.2294 0.2824 0.6586 0.050 Uiso 1 1 calc R . . . .
C23 C 0.3001(3) 0.2320(3) 0.7217(3) 0.0450(11) Uani 1 1 d . . . . .
C24 C 0.3626(3) 0.2307(3) 0.7486(3) 0.0441(11) Uani 1 1 d . . . . .
H24 H 0.3796 0.1934 0.7797 0.053 Uiso 1 1 calc R . . . .
C25 C 0.4003(2) 0.2858(2) 0.7289(3) 0.0376(9) Uani 1 1 d . . . . .
H25 H 0.4440 0.2860 0.7466 0.045 Uiso 1 1 calc R . . . .
C26 C 0.68605(19) 0.4152(2) 0.5367(3) 0.0286(7) Uani 1 1 d . . . . .
C27 C 0.7077(2) 0.3626(2) 0.5887(3) 0.0354(9) Uani 1 1 d . . . . .
H27 H 0.6857 0.3525 0.6389 0.042 Uiso 1 1 calc R . . . .
C28 C 0.7611(2) 0.3247(3) 0.5683(4) 0.0442(11) Uani 1 1 d . . . . .
H28 H 0.7754 0.2884 0.6034 0.053 Uiso 1 1 calc R . . . .
C29 C 0.7927(2) 0.3412(3) 0.4961(4) 0.0444(11) Uani 1 1 d . . . . .
C30 C 0.7736(2) 0.3931(3) 0.4425(3) 0.0403(10) Uani 1 1 d . . . . .
H30 H 0.7965 0.4033 0.3930 0.048 Uiso 1 1 calc R . . . .
C31 C 0.7195(2) 0.4299(2) 0.4640(3) 0.0335(8) Uani 1 1 d . . . . .
H31 H 0.7051 0.4657 0.4282 0.040 Uiso 1 1 calc R . . . .
C32 C 0.5977(2) 0.7626(2) 0.5813(3) 0.0322(8) Uani 1 1 d . . . . .
C33 C 0.5976(2) 0.8105(2) 0.6472(3) 0.0384(9) Uani 1 1 d . . . . .
H33 H 0.5794 0.7987 0.6995 0.046 Uiso 1 1 calc R . . . .
C34 C 0.6237(3) 0.8755(3) 0.6368(4) 0.0486(12) Uani 1 1 d . . . . .
H34 H 0.6233 0.9079 0.6812 0.058 Uiso 1 1 calc R . . . .
C35 C 0.6496(3) 0.8905(3) 0.5616(4) 0.0506(13) Uani 1 1 d . . . . .
C36 C 0.6514(2) 0.8460(3) 0.4947(4) 0.0443(11) Uani 1 1 d . . . . .
H36 H 0.6699 0.8587 0.4428 0.053 Uiso 1 1 calc R . . . .
C37 C 0.6253(2) 0.7816(2) 0.5057(3) 0.0372(9) Uani 1 1 d . . . . .
H37 H 0.6264 0.7499 0.4606 0.045 Uiso 1 1 calc R . . . .
C38 C 0.4550(3) 0.8154(3) 0.6177(4) 0.0501(12) Uani 1 1 d . . . . .
H38 H 0.4852 0.8321 0.5789 0.060 Uiso 1 1 calc R . . . .
loop_
_atom_site_aniso_label
_atom_site_aniso_U_11
_atom_site_aniso_U_22
_atom_site_aniso_U_33
_atom_site_aniso_U_23
_atom_site_aniso_U_13
_atom_site_aniso_U_12
Au1 0.02447(8) 0.02466(8) 0.02542(8) -0.00104(5) -0.00233(5) -0.00111(5)
F1 0.072(2) 0.060(2) 0.085(3) 0.0210(19) -0.009(2) -0.0382(19)
F2 0.0445(17) 0.0508(19) 0.089(3) -0.0106(18) 0.0106(17) 0.0174(14)
F3 0.073(2) 0.0352(17) 0.115(3) -0.0137(18) 0.043(2) -0.0199(16)
O1 0.075(3) 0.041(2) 0.094(4) 0.000(2) 0.014(3) 0.016(2)
N1 0.0208(14) 0.0284(16) 0.0333(17) -0.0013(13) 0.0054(12) -0.0033(11)
N2 0.0289(15) 0.0178(14) 0.0360(17) -0.0056(12) -0.0003(13) 0.0011(11)
N3 0.0203(13) 0.0280(16) 0.0282(15) -0.0007(12) 0.0010(11) -0.0025(11)
N4 0.0247(15) 0.0322(18) 0.0341(17) -0.0058(14) 0.0011(13) 0.0040(12)
C1 0.0285(18) 0.036(2) 0.0313(19) -0.0045(16) -0.0028(15) 0.0004(15)
C2 0.0299(19) 0.046(2) 0.030(2) -0.0054(18) 0.0017(15) 0.0043(17)
C3 0.0276(18) 0.040(2) 0.0293(19) 0.0003(17) 0.0016(15) -0.0028(16)
C4 0.0277(18) 0.036(2) 0.0246(17) -0.0007(15) -0.0009(14) -0.0021(15)
C5 0.0314(18) 0.032(2) 0.0244(17) 0.0005(15) -0.0037(14) -0.0048(15)
C6 0.0308(18) 0.0256(17) 0.0266(17) -0.0011(14) -0.0066(14) 0.0050(14)
C7 0.0306(18) 0.0242(18) 0.0321(19) 0.0048(15) -0.0020(14) -0.0040(14)
C8 0.0266(17) 0.034(2) 0.0313(19) -0.0032(16) -0.0003(14) 0.0041(15)
C9 0.0268(17) 0.0280(18) 0.0241(16) 0.0003(14) -0.0020(13) -0.0020(14)
C10 0.0264(17) 0.0263(18) 0.0265(17) -0.0020(14) -0.0024(13) 0.0000(13)
C11 0.0249(16) 0.0284(18) 0.0246(17) -0.0005(13) -0.0027(13) -0.0003(13)
C12 0.0263(17) 0.0293(19) 0.034(2) -0.0005(15) -0.0003(14) -0.0021(14)
C13 0.0291(18) 0.030(2) 0.0328(19) -0.0004(15) -0.0012(15) -0.0050(14)
C14 0.0295(18) 0.0272(18) 0.0280(18) 0.0006(14) -0.0022(14) -0.0035(14)
C15 0.0288(18) 0.0272(18) 0.0315(19) 0.0006(15) -0.0038(14) -0.0020(14)
C16 0.036(2) 0.0241(18) 0.040(2) -0.0040(16) -0.0066(17) -0.0029(15)
C17 0.036(2) 0.032(2) 0.042(2) -0.0048(18) -0.0018(17) 0.0041(16)
C18 0.0289(19) 0.039(2) 0.045(2) -0.0057(19) 0.0003(17) 0.0043(17)
C19 0.0277(18) 0.034(2) 0.0317(19) -0.0032(16) 0.0000(15) 0.0031(15)
C20 0.0290(18) 0.037(2) 0.0284(19) -0.0005(16) 0.0002(14) -0.0057(15)
C21 0.0298(19) 0.040(2) 0.034(2) 0.0014(17) -0.0004(16) -0.0062(16)
C22 0.036(2) 0.045(3) 0.044(2) 0.000(2) -0.0029(18) -0.0144(19)
C23 0.049(3) 0.040(3) 0.046(3) 0.004(2) -0.001(2) -0.017(2)
C24 0.055(3) 0.034(2) 0.042(3) 0.0092(19) -0.002(2) -0.008(2)
C25 0.037(2) 0.041(2) 0.034(2) 0.0028(18) -0.0043(17) -0.0060(18)
C26 0.0279(17) 0.0273(18) 0.0305(18) -0.0029(15) -0.0032(14) 0.0004(14)
C27 0.033(2) 0.032(2) 0.040(2) 0.0024(17) -0.0001(17) 0.0021(16)
C28 0.038(2) 0.034(2) 0.060(3) 0.005(2) -0.002(2) 0.0073(18)
C29 0.036(2) 0.040(3) 0.058(3) -0.011(2) 0.004(2) 0.0087(19)
C30 0.038(2) 0.039(2) 0.044(3) -0.0089(19) 0.0090(19) -0.0009(18)
C31 0.036(2) 0.033(2) 0.032(2) -0.0021(16) 0.0006(16) -0.0015(16)
C32 0.0297(19) 0.0270(19) 0.040(2) -0.0005(16) -0.0016(16) 0.0011(15)
C33 0.040(2) 0.030(2) 0.045(2) -0.0071(18) 0.0011(19) -0.0028(17)
C34 0.046(3) 0.036(2) 0.064(3) -0.015(2) 0.010(2) -0.006(2)
C35 0.041(3) 0.028(2) 0.084(4) -0.003(2) 0.015(3) -0.0071(18)
C36 0.042(2) 0.033(2) 0.058(3) -0.002(2) 0.010(2) -0.0072(19)
C37 0.037(2) 0.031(2) 0.043(2) -0.0026(18) 0.0028(18) -0.0044(17)
C38 0.044(3) 0.041(3) 0.066(4) 0.006(2) 0.001(2) 0.004(2)
loop_
_atom_type_symbol
_atom_type_description
_atom_type_scat_dispersion_real
_atom_type_scat_dispersion_imag
_atom_type_scat_source
C C 0.0037 0.0017 'Olex2 (Dolomanov et al., 2009)'
H H 0.0000 0.0000 'Olex2 (Dolomanov et al., 2009)'
Au Au -2.1181 9.2243 'Olex2 (Dolomanov et al., 2009)'
F F 0.0189 0.0109 'Olex2 (Dolomanov et al., 2009)'
N N 0.0070 0.0034 'Olex2 (Dolomanov et al., 2009)'
O O 0.0123 0.0065 'Olex2 (Dolomanov et al., 2009)'
loop_
_geom_angle_atom_site_label_1
_geom_angle_atom_site_label_2
_geom_angle_atom_site_label_3
_geom_angle
_geom_angle_site_symmetry_1
_geom_angle_site_symmetry_3
_geom_angle_publ_flag
N1 Au1 N2 92.48(15) . . ?
N1 Au1 N3 172.67(14) . . ?
N1 Au1 N4 80.88(15) . . ?
N3 Au1 N2 94.67(14) . . ?
N4 Au1 N2 173.17(14) . . ?
N4 Au1 N3 92.01(14) . . ?
C1 N1 Au1 115.9(3) . . ?
C4 N1 Au1 131.1(3) . . ?
C4 N1 C1 112.6(3) . . ?
C6 N2 Au1 122.1(3) . . ?
C9 N2 Au1 124.9(3) . . ?
C9 N2 C6 112.3(3) . . ?
C11 N3 Au1 122.7(3) . . ?
C11 N3 C14 112.0(3) . . ?
C14 N3 Au1 123.7(3) . . ?
C16 N4 Au1 130.6(3) . . ?
C19 N4 Au1 114.9(3) . . ?
C19 N4 C16 113.6(4) . . ?
N1 C1 C2 105.5(4) . . ?
N1 C1 C19 113.2(4) . . ?
C19 C1 C2 141.3(4) . . ?
C1 C2 H2 126.0 . . ?
C3 C2 C1 108.1(4) . . ?
C3 C2 H2 126.0 . . ?
C2 C3 H3 125.7 . . ?
C2 C3 C4 108.6(4) . . ?
C4 C3 H3 125.7 . . ?
N1 C4 C3 105.2(4) . . ?
N1 C4 C5 120.9(4) . . ?
C5 C4 C3 133.9(4) . . ?
C4 C5 C6 124.4(4) . . ?
C4 C5 C20 116.6(4) . . ?
C6 C5 C20 119.0(4) . . ?
N2 C6 C5 128.0(4) . . ?
N2 C6 C7 103.9(3) . . ?
C5 C6 C7 128.1(4) . . ?
C6 C7 H7 125.3 . . ?
C8 C7 C6 109.4(4) . . ?
C8 C7 H7 125.3 . . ?
C7 C8 H8 126.5 . . ?
C7 C8 C9 107.1(4) . . ?
C9 C8 H8 126.5 . . ?
N2 C9 C8 107.2(3) . . ?
N2 C9 C10 125.2(4) . . ?
C10 C9 C8 127.5(4) . . ?
C9 C10 C26 117.1(3) . . ?
C11 C10 C9 124.6(4) . . ?
C11 C10 C26 118.3(4) . . ?
N3 C11 C10 126.2(4) . . ?
N3 C11 C12 105.2(3) . . ?
C10 C11 C12 128.6(4) . . ?
C11 C12 H12 125.7 . . ?
C13 C12 C11 108.7(4) . . ?
C13 C12 H12 125.7 . . ?
C12 C13 H13 125.7 . . ?
C12 C13 C14 108.6(4) . . ?
C14 C13 H13 125.7 . . ?
N3 C14 C13 105.6(3) . . ?
N3 C14 C15 127.2(4) . . ?
C15 C14 C13 127.2(4) . . ?
C14 C15 C32 118.2(4) . . ?
C16 C15 C14 125.1(4) . . ?
C16 C15 C32 116.7(4) . . ?
N4 C16 C15 119.4(4) . . ?
N4 C16 C17 103.8(4) . . ?
C15 C16 C17 136.7(4) . . ?
C16 C17 C38 128.7(5) . . ?
C18 C17 C16 108.7(4) . . ?
C18 C17 C38 122.3(4) . . ?
C17 C18 H18 125.9 . . ?
C19 C18 C17 108.3(4) . . ?
C19 C18 H18 125.9 . . ?
N4 C19 C1 114.5(4) . . ?
N4 C19 C18 105.7(4) . . ?
C18 C19 C1 139.7(4) . . ?
C21 C20 C5 119.7(4) . . ?
C21 C20 C25 118.1(4) . . ?
C25 C20 C5 122.2(4) . . ?
C20 C21 H21 119.6 . . ?
C20 C21 C22 120.7(4) . . ?
C22 C21 H21 119.6 . . ?
C21 C22 H22 121.0 . . ?
C23 C22 C21 118.0(4) . . ?
C23 C22 H22 121.0 . . ?
C22 C23 F1 117.6(5) . . ?
C22 C23 C24 124.0(5) . . ?
C24 C23 F1 118.5(5) . . ?
C23 C24 H24 121.3 . . ?
C23 C24 C25 117.4(5) . . ?
C25 C24 H24 121.3 . . ?
C20 C25 H25 119.1 . . ?
C24 C25 C20 121.9(4) . . ?
C24 C25 H25 119.1 . . ?
C27 C26 C10 120.3(4) . . ?
C27 C26 C31 118.8(4) . . ?
C31 C26 C10 120.9(4) . . ?
C26 C27 H27 119.5 . . ?
C28 C27 C26 121.0(4) . . ?
C28 C27 H27 119.5 . . ?
C27 C28 H28 120.9 . . ?
C29 C28 C27 118.2(5) . . ?
C29 C28 H28 120.9 . . ?
F2 C29 C28 118.7(5) . . ?
F2 C29 C30 118.1(5) . . ?
C28 C29 C30 123.3(4) . . ?
C29 C30 H30 121.4 . . ?
C29 C30 C31 117.3(4) . . ?
C31 C30 H30 121.4 . . ?
C26 C31 C30 121.4(4) . . ?
C26 C31 H31 119.3 . . ?
C30 C31 H31 119.3 . . ?
C33 C32 C15 119.8(4) . . ?
C37 C32 C15 122.4(4) . . ?
C37 C32 C33 117.8(4) . . ?
C32 C33 H33 119.4 . . ?
C34 C33 C32 121.2(5) . . ?
C34 C33 H33 119.4 . . ?
C33 C34 H34 121.1 . . ?
C35 C34 C33 117.9(5) . . ?
C35 C34 H34 121.1 . . ?
F3 C35 C36 118.1(5) . . ?
C34 C35 F3 118.0(5) . . ?
C34 C35 C36 123.9(5) . . ?
C35 C36 H36 121.1 . . ?
C35 C36 C37 117.7(5) . . ?
C37 C36 H36 121.1 . . ?
C32 C37 C36 121.6(5) . . ?
C32 C37 H37 119.2 . . ?
C36 C37 H37 119.2 . . ?
O1 C38 C17 122.6(5) . . ?
O1 C38 H38 118.7 . . ?
C17 C38 H38 118.7 . . ?
loop_
_geom_bond_atom_site_label_1
_geom_bond_atom_site_label_2
_geom_bond_distance
_geom_bond_site_symmetry_2
_geom_bond_publ_flag
Au1 N1 1.939(3) . ?
Au1 N2 1.973(3) . ?
Au1 N3 1.958(3) . ?
Au1 N4 1.950(4) . ?
F1 C23 1.366(6) . ?
F2 C29 1.366(5) . ?
F3 C35 1.358(6) . ?
O1 C38 1.244(7) . ?
N1 C1 1.369(5) . ?
N1 C4 1.358(5) . ?
N2 C6 1.393(5) . ?
N2 C9 1.320(5) . ?
N3 C11 1.365(5) . ?
N3 C14 1.371(5) . ?
N4 C16 1.376(6) . ?
N4 C19 1.368(5) . ?
C1 C2 1.418(6) . ?
C1 C19 1.409(6) . ?
C2 H2 0.9500 . ?
C2 C3 1.374(7) . ?
C3 H3 0.9500 . ?
C3 C4 1.424(6) . ?
C4 C5 1.404(6) . ?
C5 C6 1.414(6) . ?
C5 C20 1.489(6) . ?
C6 C7 1.435(6) . ?
C7 H7 0.9500 . ?
C7 C8 1.354(6) . ?
C8 H8 0.9500 . ?
C8 C9 1.438(6) . ?
C9 C10 1.410(5) . ?
C10 C11 1.409(5) . ?
C10 C26 1.496(6) . ?
C11 C12 1.441(5) . ?
C12 H12 0.9500 . ?
C12 C13 1.351(6) . ?
C13 H13 0.9500 . ?
C13 C14 1.431(6) . ?
C14 C15 1.417(6) . ?
C15 C16 1.410(6) . ?
C15 C32 1.486(6) . ?
C16 C17 1.429(6) . ?
C17 C18 1.399(7) . ?
C17 C38 1.444(7) . ?
C18 H18 0.9500 . ?
C18 C19 1.398(6) . ?
C20 C21 1.392(6) . ?
C20 C25 1.398(6) . ?
C21 H21 0.9500 . ?
C21 C22 1.398(6) . ?
C22 H22 0.9500 . ?
C22 C23 1.363(7) . ?
C23 C24 1.364(7) . ?
C24 H24 0.9500 . ?
C24 C25 1.381(7) . ?
C25 H25 0.9500 . ?
C26 C27 1.392(6) . ?
C26 C31 1.393(6) . ?
C27 H27 0.9500 . ?
C27 C28 1.388(6) . ?
C28 H28 0.9500 . ?
C28 C29 1.375(8) . ?
C29 C30 1.383(7) . ?
C30 H30 0.9500 . ?
C30 C31 1.394(6) . ?
C31 H31 0.9500 . ?
C32 C33 1.407(6) . ?
C32 C37 1.394(6) . ?
C33 H33 0.9500 . ?
C33 C34 1.404(7) . ?
C34 H34 0.9500 . ?
C34 C35 1.354(8) . ?
C35 C36 1.377(8) . ?
C36 H36 0.9500 . ?
C36 C37 1.395(6) . ?
C37 H37 0.9500 . ?
C38 H38 0.9500 . ?
loop_
_smtbx_masks_void_nr
_smtbx_masks_void_average_x
_smtbx_masks_void_average_y
_smtbx_masks_void_average_z
_smtbx_masks_void_volume
_smtbx_masks_void_count_electrons
_smtbx_masks_void_content
1 0.000 0.500 -0.682 701.4 560.9 ?
2 0.500 0.000 -0.382 701.4 560.9 ?
