#------------------------------------------------------------------------------
#$Date: 2022-08-16 01:59:41 +0300 (Tue, 16 Aug 2022) $
#$Revision: 277253 $
#$URL: file:///home/coder/svn-repositories/cod/cif/7/71/09/7710982.cif $
#------------------------------------------------------------------------------
#
# This file is available in the Crystallography Open Database (COD),
# http://www.crystallography.net/
#
# All data on this site have been placed in the public domain by the
# contributors.
#
data_7710982
loop_
_publ_author_name
'Sahu, Kasturi'
'Angeloni, Sara'
'Conradie, Jeanet'
'Villa, Marco'
'Nayak, Manisha'
'Ghosh, Abhik'
'Ceroni, Paola'
'Kar, Sanjib'
_publ_section_title
;
 NIR-emissive, singlet-oxygen-sensitizing gold tetra(thiocyano)corroles
;
_journal_name_full               'Dalton Transactions'
_journal_paper_doi               10.1039/D2DT01959K
_journal_year                    2022
_chemical_formula_moiety         'C49 H23 Au N10 O2 S4'
_chemical_formula_sum            'C49 H23 Au N10 O2 S4'
_chemical_formula_weight         1108.98
_space_group_crystal_system      orthorhombic
_space_group_IT_number           43
_space_group_name_Hall           'F 2 -2d'
_space_group_name_H-M_alt        'F d d 2'
_atom_sites_solution_hydrogens   geom
_atom_sites_solution_primary     dual
_audit_creation_date             2020-11-17
_audit_creation_method
;
Olex2 1.2-ac3
(compiled 2017.02.24 svn.r3390 for Rigaku Oxford Diffraction, GUI svn.r5318)
;
_audit_update_record
;
2021-11-15 deposited with the CCDC.	2022-08-08 downloaded from the CCDC.
;
_cell_angle_alpha                90
_cell_angle_beta                 90
_cell_angle_gamma                90
_cell_formula_units_Z            16
_cell_length_a                   52.0552(6)
_cell_length_b                   51.4324(5)
_cell_length_c                   7.14602(8)
_cell_measurement_reflns_used    32124
_cell_measurement_temperature    100.00(10)
_cell_measurement_theta_max      77.1210
_cell_measurement_theta_min      3.7840
_cell_volume                     19132.2(4)
_computing_cell_refinement       'CrysAlisPro 1.171.40.67a (Rigaku OD, 2019)'
_computing_data_collection       'CrysAlisPro 1.171.40.67a (Rigaku OD, 2019)'
_computing_data_reduction        'CrysAlisPro 1.171.40.67a (Rigaku OD, 2019)'
_computing_molecular_graphics    'Olex2 (Dolomanov et al., 2009)'
_computing_publication_material  'Olex2 (Dolomanov et al., 2009)'
_computing_structure_refinement  'ShelXL (Sheldrick, 2015)'
_computing_structure_solution    'ShelXT (Sheldrick, 2015)'
_diffrn_ambient_environment      N~2~
_diffrn_ambient_temperature      100.00(10)
_diffrn_detector                 'Hybrid Pixel Array Detector'
_diffrn_detector_area_resol_mean 5.8140
_diffrn_detector_type            'Pilatus 200K'
_diffrn_measured_fraction_theta_full 1.000
_diffrn_measured_fraction_theta_max 0.999
_diffrn_measurement_details
;
List of Runs (angles in degrees, time in seconds):

  # Type    Start    End  Width  t~exp~   \w     \q     \k     \f   Frames
#--------------------------------------------------------------------------
  1  \w    -76.00  14.00   0.50   29.08    --  -38.50 102.00 120.00  180
  2  \w      8.00  86.00   0.50   29.08    --   48.56-102.00  17.00  156
  3  \w     37.00 107.00   0.50   29.08    --  106.21-102.00  17.00  140
  4  \w    104.00 176.00   0.50   29.08    --  106.21 102.00 120.00  144
  5  \w   -101.00 -27.00   0.50   29.08    --  -38.50 -57.00  90.00  148
  6  \w     45.00 115.00   0.50   29.08    --   48.56  37.00 -30.00  140
  7  \w     37.00 112.00   0.50   29.08    --   48.56  57.00-150.00  150
  8  \w    103.00 171.00   0.50   29.08    --  106.21  77.00-150.00  136
  9  \w    103.00 171.00   0.50   29.08    --  106.21  77.00 -90.00  136
 10  \w     44.00 119.00   0.50   29.08    --  106.21 -61.00   0.00  150
 11  \w     37.00 109.00   0.50   29.08    --  106.21-111.00 -60.00  144
 12  \w     38.00 110.00   0.50   29.08    --  106.21 -30.00 -90.00  144
 13  \w    103.00 171.00   0.50   29.08    --  106.21  77.00  30.00  136
 14  \w    102.00 171.00   0.50   29.08    --  106.21  45.00 -60.00  138
 15  \w     42.00 111.00   0.50   29.08    --  106.21 -45.00 120.00  138
 16  \w     37.00 110.00   0.50   29.08    --   48.56  57.00 150.00  146
 17  \w     37.00 112.00   0.50   29.08    --   48.56  57.00  30.00  150
;
_diffrn_measurement_device       'four-circle diffractometer'
_diffrn_measurement_device_type
'SuperNova, Dual, Cu at home/near, Pilatus 200K'
_diffrn_measurement_method       '\w scans'
_diffrn_orient_matrix_type
'CrysAlisPro convention (1999,Acta A55,543-557)'
_diffrn_orient_matrix_UB_11      -0.0102964000
_diffrn_orient_matrix_UB_12      0.0174980000
_diffrn_orient_matrix_UB_13      -0.1581467000
_diffrn_orient_matrix_UB_21      -0.0264004000
_diffrn_orient_matrix_UB_22      0.0010815000
_diffrn_orient_matrix_UB_23      0.0973191000
_diffrn_orient_matrix_UB_31      0.0085665000
_diffrn_orient_matrix_UB_32      0.0242719000
_diffrn_orient_matrix_UB_33      0.1095875000
_diffrn_radiation_monochromator  mirror
_diffrn_radiation_probe          x-ray
_diffrn_radiation_type           CuK\a
_diffrn_radiation_wavelength     1.54184
_diffrn_reflns_av_R_equivalents  0.0853
_diffrn_reflns_av_unetI/netI     0.0634
_diffrn_reflns_Laue_measured_fraction_full 1.000
_diffrn_reflns_Laue_measured_fraction_max 0.999
_diffrn_reflns_limit_h_max       61
_diffrn_reflns_limit_h_min       -61
_diffrn_reflns_limit_k_max       60
_diffrn_reflns_limit_k_min       -49
_diffrn_reflns_limit_l_max       8
_diffrn_reflns_limit_l_min       -8
_diffrn_reflns_number            33394
_diffrn_reflns_point_group_measured_fraction_full 0.909
_diffrn_reflns_point_group_measured_fraction_max 0.908
_diffrn_reflns_theta_full        66.596
_diffrn_reflns_theta_max         66.596
_diffrn_reflns_theta_min         3.807
_diffrn_source                   'micro-focus sealed X-ray tube'
_diffrn_source_type              'SuperNova (Cu) X-ray Source'
_exptl_absorpt_coefficient_mu    7.822
_exptl_absorpt_correction_T_max  1.00000
_exptl_absorpt_correction_T_min  0.48981
_exptl_absorpt_correction_type   multi-scan
_exptl_absorpt_process_details
;
CrysAlisPro 1.171.40.67a (Rigaku Oxford Diffraction, 2019)
Empirical absorption correction using spherical harmonics,
 implemented in SCALE3 ABSPACK scaling algorithm.
;
_exptl_crystal_colour            'metallic reddish red'
_exptl_crystal_colour_lustre     metallic
_exptl_crystal_colour_modifier   reddish
_exptl_crystal_colour_primary    red
_exptl_crystal_density_diffrn    1.540
_exptl_crystal_description       needle
_exptl_crystal_F_000             8736
_exptl_crystal_size_max          0.13
_exptl_crystal_size_mid          0.12
_exptl_crystal_size_min          0.1
_refine_diff_density_max         1.911
_refine_diff_density_min         -1.556
_refine_diff_density_rms         0.136
_refine_ls_abs_structure_details
;
 Classical Flack method preferred over Parsons because s.u. lower.
;
_refine_ls_abs_structure_Flack   0.04(2)
_refine_ls_extinction_method     none
_refine_ls_goodness_of_fit_ref   1.053
_refine_ls_hydrogen_treatment    constr
_refine_ls_matrix_type           full
_refine_ls_number_parameters     585
_refine_ls_number_reflns         7692
_refine_ls_number_restraints     120
_refine_ls_restrained_S_all      1.044
_refine_ls_R_factor_all          0.0790
_refine_ls_R_factor_gt           0.0707
_refine_ls_shift/su_max          0.002
_refine_ls_shift/su_mean         0.000
_refine_ls_structure_factor_coef Fsqd
_refine_ls_weighting_details
'w=1/[\s^2^(Fo^2^)+(0.0672P)^2^+1414.0991P] where P=(Fo^2^+2Fc^2^)/3'
_refine_ls_weighting_scheme      calc
_refine_ls_wR_factor_gt          0.1601
_refine_ls_wR_factor_ref         0.1633
_reflns_Friedel_coverage         0.671
_reflns_Friedel_fraction_full    0.800
_reflns_Friedel_fraction_max     0.800
_reflns_number_gt                7176
_reflns_number_total             7692
_reflns_threshold_expression     'I > 2\s(I)'
_iucr_refine_instructions_details
;
TITL sk-napssau_a.res in Fdd2
    sk-napssau.res
    created by SHELXL-2018/3 at 16:26:57 on 17-Nov-2020
REM Old TITL sk-napssau_a.res in Fdd2
REM SHELXT solution in Fdd2: R1 0.079, Rweak 0.021, Alpha 0.007
REM <I/s> 0.405 for 128 systematic absences, Orientation as input
REM Flack x = -0.002 ( 0.007 ) from 3025 Parsons' quotients
REM Formula found by SHELXT: C48 Au N7 O2 S4
CELL 1.54184 52.055233 51.432399 7.146016 90 90 90
ZERR 16 0.000573 0.000486 0.00008 0 0 0
LATT -4
SYMM -X,-Y,+Z
SYMM 0.25+X,0.25-Y,0.25+Z
SYMM 0.25-X,0.25+Y,0.25+Z
SFAC C H Au N O S
UNIT 784 368 16 160 32 64
DELU N9 N6
DELU C26 C49
DELU C26 C45
RIGU 0.0001 0.0001 N3 C11 C12 C13 C14
RIGU 0.0001 0.0001 N1 C1 C2 C3 C4
RIGU 0.0001 0.0001 C15 C14 N3 Au1 N4 C16
RIGU 0.0001 0.0001 C9 C8 C7 C6 N2
EADP C32 C27
EADP C45 C26
EADP C26 C45

L.S. 20
PLAN  5
BOND
list 4
ABIN
fmap 2
acta
SHEL 100 0.84
OMIT 3 45 5
OMIT 1 43 5
OMIT 5 45 5
OMIT 1 45 5
OMIT 32 14 -4
OMIT 19 39 5
OMIT 20 48 4
OMIT 30 22 -4
OMIT 1 41 5
OMIT 5 43 5
OMIT 18 46 4
OMIT 3 41 5
OMIT 28 24 -4
OMIT 30 2 -4
OMIT 18 48 4
OMIT 3 39 5
OMIT 5 41 5
OMIT 32 22 -4
OMIT 22 48 4
OMIT 40 10 -4
OMIT 5 39 5
OMIT 32 20 -4
OMIT 30 24 -4
OMIT 3 43 5
OMIT 38 8 -4
OMIT 5 37 5
OMIT 23 1 -5
OMIT 38 10 -4
OMIT 3 37 5
OMIT 10 52 4
OMIT 30 16 -4
OMIT 40 6 -4
OMIT 40 12 -4
OMIT 5 35 5
OMIT 35 7 -5
OMIT 34 12 -4
OMIT 2 54 4
OMIT 18 44 4
OMIT 41 9 -3
REM <olex2.extras>
REM <HklSrc "%.\\SK-NAPSSAU.hkl">
REM </olex2.extras>

WGHT    0.067200 1414.099121
FVAR       0.04193
AU1   3    0.561641    0.690324    0.315425    11.00000    0.01715    0.02324 =
         0.02524    0.00071   -0.00300    0.00046
S1    6    0.537261    0.736734   -0.383938    11.00000    0.02895    0.03380 =
         0.02551    0.00080   -0.00147    0.00581
S2    6    0.587092    0.772091   -0.216309    11.00000    0.03047    0.02976 =
         0.03759    0.00521    0.00091   -0.00006
S4    6    0.491094    0.688072   -0.286911    11.00000    0.02975    0.03449 =
         0.03261   -0.00046   -0.00673   -0.00132
S3    6    0.469079    0.642144    0.018479    11.00000    0.02829    0.03749 =
         0.04475    0.00282   -0.01431   -0.00717
N1    4    0.563172    0.715592    0.109252    11.00000    0.02603    0.02692 =
         0.03426    0.00297   -0.00500    0.00064
O1    5    0.664507    0.638793    1.245042    11.00000    0.03936    0.04666 =
         0.04589   -0.00891   -0.01107    0.00863
N4    4    0.532258    0.678259    0.172070    11.00000    0.02145    0.02497 =
         0.03083    0.00083   -0.00516    0.00026
O2    5    0.635346    0.581486    0.508768    11.00000    0.05609    0.03875 =
         0.03938   -0.00818   -0.00203    0.01549
N2    4    0.592119    0.705186    0.435039    11.00000    0.02188    0.02656 =
         0.01965   -0.00581    0.00400   -0.00128
C3    1    0.572904    0.745479   -0.099176    11.00000    0.02473    0.02626 =
         0.03408    0.00261   -0.00437    0.00168
N3    4    0.557124    0.662823    0.498764    11.00000    0.02143    0.03090 =
         0.03262    0.00451   -0.00601   -0.00248
N8    4    0.545223    0.807600   -0.198717    11.00000    0.04419    0.03695 =
         0.04273   -0.00206   -0.01615    0.00706
C6    1    0.606390    0.725317    0.359694    11.00000    0.02319    0.02969 =
         0.02290   -0.00261    0.00189   -0.00333
C2    1    0.551491    0.731282   -0.164378    11.00000    0.02166    0.02317 =
         0.03207    0.00009   -0.00189    0.00478
N7    4    0.491051    0.759911   -0.256918    11.00000    0.05112    0.04973 =
         0.02533   -0.00094    0.00167    0.00761
C19   1    0.527528    0.691396    0.005706    11.00000    0.01686    0.03806 =
         0.01280   -0.00269   -0.00344    0.00114
N10   4    0.441625    0.704828   -0.179766    11.00000    0.03224    0.06023 =
         0.06356   -0.00421   -0.00411    0.00963
C9    1    0.604637    0.693485    0.582354    11.00000    0.02096    0.02412 =
         0.01743   -0.00815    0.00546    0.00028
C4    1    0.580591    0.734532    0.073779    11.00000    0.02472    0.02537 =
         0.03381    0.00209   -0.00420    0.00207
C1    1    0.545237    0.712575   -0.031145    11.00000    0.02012    0.02070 =
         0.03072   -0.00174   -0.00043    0.00673
C28   1    0.617126    0.677484    0.994202    11.00000    0.02876    0.02748 =
         0.02615   -0.00250   -0.00576    0.00478
AFIX  43
H28   2    0.608169    0.693024    1.007252    11.00000   -1.20000
AFIX   0
C5    1    0.601702    0.739066    0.200118    11.00000    0.02888    0.01783 =
         0.02720   -0.00882    0.00692   -0.00344
C12   1    0.561061    0.638481    0.757732    11.00000    0.01758    0.02823 =
         0.03080    0.00231   -0.00316    0.00105
AFIX  43
H12   2    0.567326    0.631794    0.869705    11.00000   -1.20000
AFIX   0
C34   1    0.637130    0.598521    0.652672    11.00000    0.04254    0.02481 =
         0.03560   -0.00376    0.00053   -0.00203
C16   1    0.514673    0.659171    0.207378    11.00000    0.02088    0.02468 =
         0.03201    0.00140   -0.00542    0.00073
C15   1    0.517201    0.643561    0.368473    11.00000    0.01974    0.02559 =
         0.03248    0.00206   -0.00512    0.00093
C14   1    0.536277    0.645891    0.499945    11.00000    0.01749    0.02478 =
         0.03033    0.00063   -0.00291    0.00242
C46   1    0.509656    0.750752   -0.309617    11.00000    0.03095    0.04243 =
         0.01197    0.00458    0.00535    0.00454
C8    1    0.628132    0.707953    0.606604    11.00000    0.02386    0.02916 =
         0.02312   -0.00278    0.00137   -0.00354
AFIX  43
H8    2    0.640571    0.704657    0.696953    11.00000   -1.20000
AFIX   0
N9    4    0.489675    0.592474   -0.069424    11.00000    0.06736    0.03707 =
         0.04667    0.00027    0.01058    0.00612
C11   1    0.572823    0.659098    0.647453    11.00000    0.01681    0.02521 =
         0.02830   -0.00047   -0.00154    0.00271
C49   1    0.461312    0.698412   -0.215766    11.00000    0.02736    0.04180 =
         0.03099   -0.00533   -0.00914    0.00430
C18   1    0.505759    0.680128   -0.071858    11.00000    0.02891    0.02395 =
         0.04284   -0.00849   -0.00462    0.00663
C31   1    0.643054    0.630548    0.969207    11.00000    0.01809    0.04307 =
         0.01873    0.00796   -0.00345   -0.00070
C17   1    0.497708    0.660025    0.053774    11.00000    0.02891    0.02062 =
         0.03179   -0.01251    0.00127    0.00438
C27   1    0.612752    0.662817    0.840194    11.00000    0.02106    0.03180 =
         0.03707    0.00659    0.00402    0.00102
C44   1    0.473402    0.626978    0.476680    11.00000    0.03120    0.02845 =
         0.04108   -0.01110    0.01485   -0.00735
AFIX  43
H44   2    0.467624    0.644000    0.489129    11.00000   -1.20000
AFIX   0
C20   1    0.622266    0.757883    0.138394    11.00000    0.02424    0.02772 =
         0.02779   -0.00074   -0.00988    0.00320
C30   1    0.647445    0.647603    1.120283    11.00000    0.02794    0.04874 =
         0.02607    0.00659   -0.00571   -0.00200
C7    1    0.629174    0.726847    0.478566    11.00000    0.02501    0.03189 =
         0.02598    0.00002   -0.00049   -0.00534
AFIX  43
H7    2    0.642292    0.739016    0.466961    11.00000   -1.20000
AFIX   0
C33   1    0.653478    0.591205    0.797206    11.00000    0.03856    0.02851 =
         0.03394   -0.00087    0.00350    0.00717
AFIX  43
H33   2    0.662386    0.575575    0.788682    11.00000   -1.20000
AFIX   0
C47   1    0.562441    0.793117   -0.198609    11.00000    0.03688    0.02952 =
         0.04045    0.02572   -0.00672   -0.00595
C36   1    0.626274    0.638273    0.822704    11.00000    0.02707    0.02888 =
         0.02814   -0.00069   -0.00134   -0.00323
C32   1    0.656739    0.606686    0.953004    11.00000    0.02106    0.03180 =
         0.03707    0.00659    0.00402    0.00102
AFIX  43
H32   2    0.667896    0.601529    1.047633    11.00000   -1.20000
AFIX   0
C25   1    0.623633    0.782931    0.199791    11.00000    0.02854    0.03062 =
         0.03848   -0.00993   -0.00240    0.00286
AFIX  43
H25   2    0.611694    0.789026    0.286092    11.00000   -1.20000
AFIX   0
C10   1    0.595817    0.671796    0.686257    11.00000    0.01962    0.01805 =
         0.02740    0.00102    0.00277    0.00111
C13   1    0.539639    0.630834    0.669680    11.00000    0.02023    0.03129 =
         0.03389    0.00546   -0.00602   -0.00183
AFIX  43
H13   2    0.528598    0.617837    0.711140    11.00000   -1.20000
AFIX   0
C21   1    0.641427    0.748436    0.017423    11.00000    0.04000    0.03082 =
         0.04995   -0.01170    0.00631   -0.00483
AFIX  43
H21   2    0.641301    0.731160   -0.020987    11.00000   -1.20000
AFIX   0
C23   1    0.661233    0.789889    0.015223    11.00000    0.03772    0.03427 =
         0.09661    0.00544    0.03901   -0.00058
C24   1    0.642886    0.799516    0.133762    11.00000    0.04800    0.02829 =
         0.05870   -0.00658    0.01309   -0.00237
AFIX  43
H24   2    0.643227    0.816883    0.169924    11.00000   -1.20000
AFIX   0
C29   1    0.634481    0.670380    1.134713    11.00000    0.02464    0.03099 =
         0.04000   -0.00626    0.00376    0.00705
AFIX  43
H29   2    0.637105    0.681199    1.237222    11.00000   -1.20000
AFIX   0
C35   1    0.622916    0.621599    0.663885    11.00000    0.02032    0.04270 =
         0.03688    0.00221   -0.00317   -0.00020
AFIX  43
H35   2    0.611441    0.626045    0.569412    11.00000   -1.20000
AFIX   0
C22   1    0.660240    0.764975   -0.042966    11.00000    0.03870    0.04633 =
         0.08502    0.00285    0.03701   -0.00962
AFIX  43
H22   2    0.672623    0.758909   -0.125997    11.00000   -1.20000
AFIX   0
C39   1    0.497956    0.622597    0.407185    11.00000    0.02589    0.02657 =
         0.03555    0.01354   -0.01501   -0.01431
N6    4    0.435070    0.544465    0.595350    11.00000    0.05866    0.06160 =
         0.13621    0.02684   -0.06985   -0.01997
C42   1    0.465972    0.581864    0.507554    11.00000    0.03737    0.03390 =
         0.04130    0.00778   -0.01801   -0.00804
C37   1    0.671248    0.656504    1.398360    11.00000    0.04461    0.08317 =
         0.04760   -0.00788   -0.02657    0.02127
AFIX 137
H37A  2    0.679207    0.671825    1.348088    11.00000   -1.50000
H37B  2    0.682971    0.647983    1.481982    11.00000   -1.50000
H37C  2    0.655975    0.661293    1.465312    11.00000   -1.50000
AFIX   0
C48   1    0.482221    0.613177   -0.033068    11.00000    0.04718    0.05048 =
         0.01294    0.00517   -0.00049   -0.01526
C43   1    0.457403    0.606962    0.527545    11.00000    0.03010    0.04878 =
         0.02954   -0.00662   -0.00231   -0.00137
AFIX  43
H43   2    0.441083    0.610337    0.574611    11.00000   -1.20000
AFIX   0
C45   1    0.448803    0.561222    0.558982    11.00000    0.04416    0.04601 =
         0.09962    0.01631    0.03229   -0.00962
C41   1    0.490296    0.576596    0.442939    11.00000    0.04048    0.03666 =
         0.07214    0.00921    0.00023    0.00596
AFIX  43
H41   2    0.495936    0.559471    0.435409    11.00000   -1.20000
AFIX   0
C38   1    0.617814    0.586430    0.364184    11.00000    0.08255    0.04423 =
         0.02761   -0.00719   -0.01016    0.00150
AFIX 137
H38A  2    0.625862    0.597029    0.270421    11.00000   -1.50000
H38B  2    0.603125    0.595367    0.413776    11.00000   -1.50000
H38C  2    0.612450    0.570279    0.309337    11.00000   -1.50000
AFIX   0
C40   1    0.506437    0.596608    0.389048    11.00000    0.02698    0.02801 =
         0.06409   -0.00466   -0.00446    0.00120
AFIX  43
H40   2    0.522679    0.593006    0.341438    11.00000   -1.20000
AFIX   0
C26   1    0.680889    0.807214   -0.056480    11.00000    0.04416    0.04601 =
         0.09962    0.01631    0.03229   -0.00962
N5    4    0.695869    0.820323   -0.131755    11.00000    0.10719    0.05589 =
         0.41565   -0.01942    0.14980   -0.03100
HKLF 4




REM  sk-napssau_a.res in Fdd2
REM wR2 = 0.1633, GooF = S = 1.053, Restrained GooF = 1.044 for all data
REM R1 = 0.0707 for 7176 Fo > 4sig(Fo) and 0.0790 for all 7692 data
REM 585 parameters refined using 120 restraints

END  
     
WGHT      0.0672   1413.8193 

REM Highest difference peak  1.911,  deepest hole -1.556,  1-sigma level  0.136
Q1    1   0.5718  0.6900  0.4482  11.00000  0.05    1.91
Q2    1   0.5507  0.6899  0.4414  11.00000  0.05    1.88
Q3    1   0.5718  0.6903  0.1859  11.00000  0.05    1.81
Q4    1   0.5502  0.6906  0.1909  11.00000  0.05    1.70
Q5    1   0.5490  0.6719  0.3221  11.00000  0.05    1.45

  REM The information below was added by Olex2.
  REM
  REM R1 = 0.0707 for 7176 Fo > 4sig(Fo) and 0.0790 for all 36457 data
  REM n/a parameters refined using n/a restraints
  REM Highest difference peak 1.91, deepest hole -1.56
  REM Mean Shift 0, Max Shift -0.002.

  REM +++ Tabular Listing of Refinement Information +++
  REM R1_all = 0.0790
  REM R1_gt = 0.0707
  REM wR_ref = 0.1633
  REM GOOF = 1.053
  REM Shift_max = -0.002
  REM Shift_mean = 0
  REM Reflections_all = 36457
  REM Reflections_gt = 7176
  REM Parameters = n/a
  REM Hole = -1.56
  REM Peak = 1.91
  REM Flack = 0.00(2)

  
;
_cod_data_source_file            d2dt01959k2.cif
_cod_data_source_block           sk-napssau
_cod_database_code               7710982
_shelx_shelxl_version_number     2018/3
_chemical_oxdiff_formula         'C49 H23 Au1 N10 O2 S4'
_shelx_space_group_comment
;
The symmetry employed for this shelxl refinement is uniquely defined
by the following loop, which should always be used as a source of
symmetry information in preference to the above space-group names.
They are only intended as comments.
;
_diffrn_oxdiff_digest_frames
;
01ab23daee110073abf38751148044bf2c02476ec8f
;
_diffrn_oxdiff_digest_hkl
;
0193413fbf96f1e0412dce01cde05314f653c0
;
_reflns_odcompleteness_completeness 99.90
_reflns_odcompleteness_iscentric 1
_reflns_odcompleteness_theta     68.13
_olex2_refinement_description
;
1. Fixed Uiso
 At 1.2 times of:
  All C(H) groups
 At 1.5 times of:
  All C(H,H,H) groups
2. Rigid bond restraints
 N9, N6
 with sigma for 1-2 distances of 0.01 and sigma for 1-3 distances of 0.01
 C26, C49
 with sigma for 1-2 distances of 0.01 and sigma for 1-3 distances of 0.01
 C26, C45
 with sigma for 1-2 distances of 0.01 and sigma for 1-3 distances of 0.01
3. Uiso/Uaniso restraints and constraints
Uanis(C32) = Uanis(C27)
Uanis(C45) = Uanis(C26)
Uanis(C26) = Uanis(C45)
4. Rigid body (RIGU) restrains
 N3, C11, C12, C13, C14
 with sigma for 1-2 distances of 0.0001 and sigma for 1-3 distances of 0.0001
 N1, C1, C2, C3, C4
 with sigma for 1-2 distances of 0.0001 and sigma for 1-3 distances of 0.0001
 C15, C14, N3, Au1, N4, C16
 with sigma for 1-2 distances of 0.0001 and sigma for 1-3 distances of 0.0001
 C9, C8, C7, C6, N2
 with sigma for 1-2 distances of 0.0001 and sigma for 1-3 distances of 0.0001
5.a Aromatic/amide H refined with riding coordinates:
 C28(H28), C12(H12), C8(H8), C44(H44), C7(H7), C33(H33), C32(H32), C25(H25),
 C13(H13), C21(H21), C24(H24), C29(H29), C35(H35), C22(H22), C43(H43), C41(H41),
  C40(H40)
5.b Idealised Me refined as rotating group:
 C37(H37A,H37B,H37C), C38(H38A,H38B,H38C)
;
_shelx_fab_file
;
-61 -7 -1 0.1935 1.7870
-61 -5 -1 -13.2626 -3.6141
-61 -3 -1 -2.6752 -3.5736
-61 -1 -1 -8.7355 0.4935
-60 -4 -2 -1.6067 1.8327
-60 -2 -2 -0.2318 2.3461
-59 -17 -1 -2.4356 8.9893
-59 -15 -1 1.4699 4.4476
-59 -13 -1 -0.2712 0.3095
-59 -11 -1 -1.2691 -2.2049
-59 -9 -1 -1.1063 5.3623
-59 -7 -1 -1.3496 -4.8459
-59 -5 -1 1.5515 -0.0082
-59 -3 -1 -11.4022 -1.9033
-59 -1 -1 2.8230 -0.8252
-58 -16 -2 3.8053 2.9408
-58 -14 -2 0.0426 3.3676
-58 -12 -2 6.8820 4.1769
-58 -10 -2 7.3943 7.7338
-58 -8 -2 1.9646 2.0766
-58 -6 -2 9.4453 12.1273
-58 -4 -2 -4.6523 -3.3754
-58 -2 -2 -2.7223 -3.2872
-58 0 -2 3.6180 -15.8263
-57 -21 -1 7.3894 -3.7154
-57 -19 -1 4.8663 11.3242
-57 -17 -1 4.6439 -1.9952
-57 -15 -1 1.4629 8.9623
-57 -13 -1 4.7939 -6.2817
-57 -11 -1 6.5143 11.6416
-57 -9 -3 -7.3351 6.7056
-57 -9 -1 3.5933 -4.0283
-57 -7 -3 2.7004 10.2552
-57 -7 -1 -1.2460 6.5301
-57 -5 -3 -8.6021 10.7375
-57 -5 -1 -2.3683 -11.5694
-57 -3 -1 2.8212 2.7883
-57 -1 -1 -1.6748 1.7153
-56 -20 -2 -2.7495 -12.0001
-56 -18 -2 5.1212 2.6858
-56 -16 -2 -2.2029 -5.5825
-56 -14 -2 4.2604 3.6618
-56 -12 -2 5.1791 -1.7617
-56 -10 -2 12.1555 4.5155
-56 -8 -2 6.2480 12.4183
-56 -6 -2 -10.6030 -7.9981
-56 -4 -2 3.0849 3.0002
-56 -2 -2 -3.2059 -12.2575
-55 -27 -1 1.1219 1.5968
-55 -25 -1 -3.4357 -8.2066
-55 -23 -1 4.1198 -5.5665
-55 -21 -1 1.5024 5.4585
-55 -19 -1 4.7421 -6.7413
-55 -17 -3 -5.3515 -0.2834
-55 -17 -1 9.8569 11.7464
-55 -15 -3 -9.8943 -7.8647
-55 -15 -1 6.1481 -13.2808
-55 -13 -3 -10.0712 6.8907
-55 -13 -1 7.2858 14.6710
-55 -11 -3 -8.3773 -1.6908
-55 -11 -1 7.4738 -4.4439
-55 -9 -1 8.0714 13.5379
-55 -7 -1 6.2873 -17.5489
-55 -5 -1 -3.1883 8.8121
-55 -3 -1 -0.0924 -10.0815
-55 -1 -1 0.5059 2.7452
-54 -26 -2 1.6743 1.9598
-54 -24 -2 -5.0062 -3.0815
-54 -22 -2 -3.6082 -6.7578
-54 -20 -2 3.6276 2.2731
-54 -18 -2 -4.0623 -10.9005
-54 -16 -2 9.4080 2.7536
-54 -14 -2 1.0247 -8.5985
-54 -12 -2 10.7395 1.3738
-54 -10 -2 3.7567 3.8235
-54 -8 -2 1.1079 -0.5723
-54 -6 -2 0.2674 9.3037
-54 -4 -2 -12.7377 -8.0631
-54 -2 -2 3.6560 -1.4973
-54 0 -2 -3.9273 0.2160
-53 -29 -1 -3.2914 -0.7030
-53 -27 -1 -6.2994 -3.8407
-53 -25 -1 -3.5329 -5.5855
-53 -23 -3 -1.2353 -11.3342
-53 -23 -1 -1.4311 -5.5682
-53 -21 -3 -10.5199 -1.9035
-53 -21 -1 4.4707 -4.0408
-53 -19 -3 -2.1997 -0.3851
-53 -19 -1 5.0334 6.2667
-53 -17 -3 -9.2036 -7.6780
-53 -17 -1 -0.2668 -12.2057
-53 -15 -3 -1.0041 -2.6638
-53 -15 -1 13.2102 9.0694
-53 -13 -1 7.2690 -8.6469
-53 -11 -1 9.1429 15.7769
-53 -9 -1 6.5673 -15.9354
-53 -7 -1 3.4943 8.1950
-53 -5 -1 3.8997 -17.1972
-53 -3 -1 -2.7540 10.7075
-53 -1 -1 0.0252 -9.5315
-52 -30 -2 -5.9520 -0.2648
-52 -28 -2 3.7210 -1.4070
-52 -26 -2 -12.4177 5.3904
-52 -24 -2 1.8918 4.9211
-52 -22 -2 2.4978 -7.2192
-52 -20 -2 -1.6309 -2.8240
-52 -18 -2 10.4026 5.4884
-52 -16 -4 4.2019 -3.2822
-52 -16 -2 -5.6308 -6.9825
-52 -14 -2 12.8357 -2.6404
-52 -12 -2 5.9328 0.6531
-52 -10 -2 5.3428 0.7946
-52 -8 -2 -5.2280 6.5045
-52 -6 -2 -4.3774 -1.4334
-52 -4 -2 5.8553 6.0381
-52 -2 -2 -5.2262 6.2587
-51 -33 -1 -3.8938 -1.8647
-51 -31 -1 -5.4969 -1.1918
-51 -29 -1 -0.4748 -3.1891
-51 -27 -3 5.9999 4.1253
-51 -27 -1 -8.4103 -6.9068
-51 -25 -3 -1.4016 -6.6120
-51 -25 -1 -4.4041 -4.9496
-51 -23 -3 -1.3636 12.5745
-51 -23 -1 1.6369 2.3410
-51 -21 -3 5.6862 -8.3522
-51 -21 -1 -0.4245 -3.6478
-51 -19 -3 -0.8259 -0.4984
-51 -19 -1 1.1449 -5.1949
-51 -17 -3 5.7579 -1.7395
-51 -17 -1 6.4831 -3.4429
-51 -15 -1 -1.4657 -7.3004
-51 -13 -1 10.0418 11.9713
-51 -11 -1 3.4067 -11.8338
-51 -9 -1 6.6169 0.4841
-51 -7 -1 1.0771 -14.1366
-51 -5 -1 -0.7655 12.7122
-51 -3 -1 1.9736 -12.7562
-51 -1 -1 -2.6585 2.6904
-50 -32 -2 -13.1600 -2.6870
-50 -30 -2 -0.0983 -4.2541
-50 -28 -2 -9.7053 0.4421
-50 -26 -2 5.6895 0.4207
-50 -24 -2 -1.1979 -2.2687
-50 -22 -2 6.2920 11.8853
-50 -20 -4 18.6126 -3.9250
-50 -20 -2 9.3864 -0.0839
-50 -18 -4 14.3455 -5.1229
-50 -18 -2 -1.0613 2.9869
-50 -16 -2 12.1404 -0.5673
-50 -14 -2 1.6301 3.1596
-50 -12 -2 7.2917 1.3195
-50 -10 -2 0.0413 7.1252
-50 -8 -2 0.4478 1.2888
-50 -6 -2 4.1826 8.7806
-50 -4 -2 2.6098 1.6234
-50 -2 -2 5.3246 5.6006
-50 0 -2 2.6861 11.0675
-49 -35 -1 0.0559 2.7436
-49 -33 -1 -4.8917 -8.3522
-49 -31 -1 -2.1339 1.6883
-49 -29 -3 -0.0060 -0.7384
-49 -29 -1 -13.1472 -2.0952
-49 -27 -3 2.0471 -4.0100
-49 -27 -1 1.8463 -3.2171
-49 -25 -3 7.9775 1.7206
-49 -25 -1 -0.4588 1.5526
-49 -23 -3 2.0919 -6.5835
-49 -23 -1 1.1531 -5.3935
-49 -21 -3 8.0516 15.8283
-49 -21 -1 3.2504 6.1444
-49 -19 -3 13.9532 -7.6587
-49 -19 -1 -3.3489 -11.2952
-49 -17 -1 3.4938 -6.1480
-49 -15 -1 3.5519 -0.4910
-49 -13 -1 -7.1397 -3.2325
-49 -11 -1 5.3440 -3.3276
-49 -9 -1 -2.8117 -10.8648
-49 -7 -1 -0.4610 4.9814
-49 -5 -1 0.3844 -2.9524
-49 -3 -1 3.1581 2.4957
-49 -1 -1 1.8555 -2.6267
-48 -34 -2 -15.2780 -2.5924
-48 -32 -2 2.2616 -18.1943
-48 -30 -2 -14.6528 -5.4142
-48 -28 -2 -0.5550 1.9335
-48 -26 -2 4.8001 0.0210
-48 -24 -4 7.0231 -5.0576
-48 -24 -2 11.7791 -1.4364
-48 -22 -4 15.8773 -6.8185
-48 -22 -2 9.4528 0.3112
-48 -20 -4 9.7693 -3.9602
-48 -20 -2 9.2859 20.6813
-48 -18 -2 7.8617 -1.4125
-48 -16 -2 4.5483 4.8010
-48 -14 -2 9.6892 5.2741
-48 -12 -2 1.3937 8.8536
-48 -10 -2 -2.3213 5.9762
-48 -8 -2 6.4101 10.3830
-48 -6 -2 7.9239 0.0597
-48 -4 -2 9.8822 9.2971
-48 -2 -2 7.5028 -1.1198
-47 -39 -1 7.1447 -1.8083
-47 -37 -1 -12.1479 5.5674
-47 -35 -1 -4.7425 -6.2465
-47 -33 -1 0.0237 5.1198
-47 -31 -3 3.2321 -9.3565
-47 -31 -1 -7.2353 -3.3080
-47 -29 -3 -2.7433 -2.2605
-47 -29 -1 -2.5666 -0.0157
-47 -27 -3 4.0974 -5.7866
-47 -27 -1 -10.0280 6.5200
-47 -25 -3 -1.4061 2.1760
-47 -25 -1 12.7810 -3.3100
-47 -23 -3 13.6797 2.5868
-47 -23 -1 5.2954 7.0941
-47 -21 -3 12.5996 -11.9176
-47 -21 -1 -3.1900 -11.4238
-47 -19 -3 3.7688 16.8775
-47 -19 -1 10.0279 -1.9849
-47 -17 -1 -3.6700 -6.5176
-47 -15 -1 -2.8101 1.8431
-47 -13 -1 -1.0444 -7.4386
-47 -11 -1 -10.3027 -11.3129
-47 -9 -1 -0.1408 -0.0080
-47 -7 -1 -6.5176 7.9796
-47 -5 -1 -1.1694 -1.7172
-47 -3 -1 8.2312 -1.4648
-47 -1 -1 8.0530 -1.9396
-46 -38 -2 3.4522 2.8709
-46 -36 -2 -13.2155 -0.6115
-46 -34 -2 -2.5879 -14.8920
-46 -32 -2 -17.7936 -5.4262
-46 -30 -2 4.0115 -7.0089
-46 -28 -2 1.3108 -4.8303
-46 -26 -4 7.8898 -6.9967
-46 -26 -2 3.5173 -6.7442
-46 -24 -4 0.6515 -2.1797
-46 -24 -2 14.7150 3.7081
-46 -22 -4 3.2952 -12.0580
-46 -22 -2 15.0832 9.0045
-46 -20 -2 8.8179 -4.3242
-46 -18 -2 11.8384 11.6513
-46 -16 -2 7.0025 6.4972
-46 -14 -2 3.8587 7.4918
-46 -12 -2 -2.1231 11.3952
-46 -10 -2 3.7520 6.8816
-46 -8 -2 8.1252 9.5024
-46 -6 -2 9.0778 9.1532
-46 -4 -2 4.1510 -7.0793
-46 -2 -2 9.5221 7.6502
-46 0 -2 11.2423 -10.4188
-45 -41 -1 2.2793 -0.6265
-45 -39 -1 -4.8087 7.0341
-45 -37 -1 5.2308 -1.3275
-45 -35 -1 -8.9098 1.6513
-45 -33 -1 -9.3493 2.4050
-45 -31 -3 -10.7229 -2.7943
-45 -31 -1 -8.8963 1.2356
-45 -29 -3 13.9788 -12.1996
-45 -29 -1 -5.4837 6.7909
-45 -27 -3 -4.9150 4.4997
-45 -27 -1 12.4390 -5.7497
-45 -25 -3 4.2619 -6.9500
-45 -25 -1 -2.6565 8.8186
-45 -23 -3 3.7749 0.6770
-45 -23 -1 4.9926 -4.2329
-45 -21 -5 -6.0253 -7.0920
-45 -21 -3 6.0835 6.3189
-45 -21 -1 11.0348 -1.1524
-45 -19 -1 -0.2690 -10.7828
-45 -17 -1 6.4745 2.7813
-45 -15 -1 -7.8095 -0.5913
-45 -13 -1 -7.1177 -11.5035
-45 -11 -1 -0.4947 -6.9163
-45 -9 -3 -0.7339 -8.5106
-45 -9 -1 -15.9410 5.9723
-45 -7 -3 -1.2685 6.8326
-45 -7 -1 -1.6439 0.7806
-45 -5 -3 -4.3045 -5.2794
-45 -5 -1 4.8161 0.7118
-45 -3 -3 -2.1516 -4.8773
-45 -3 -1 0.2617 -4.5843
-45 -1 -3 -15.4889 8.5793
-45 -1 -1 8.9569 5.3237
-44 -40 -2 2.0696 8.2832
-44 -38 -2 2.2801 2.7793
-44 -36 -2 -0.7558 -2.9567
-44 -34 -2 -11.6147 -5.8477
-44 -32 -2 -3.0068 -4.9086
-44 -30 -2 -9.1678 -0.1044
-44 -28 -4 20.2922 -5.3194
-44 -28 -2 7.3227 -12.0534
-44 -26 -4 -13.1122 4.7377
-44 -26 -2 9.9194 -11.4035
-44 -24 -4 6.5457 -10.8453
-44 -24 -2 6.5871 0.2304
-44 -22 -2 11.0344 3.5421
-44 -20 -2 13.6363 1.3946
-44 -18 -2 7.3437 -4.5298
-44 -16 -2 10.6146 8.6871
-44 -14 -2 -1.2576 14.2022
-44 -12 -2 -2.3421 1.9588
-44 -10 -2 6.7881 18.0495
-44 -8 -2 4.1048 3.7570
-44 -6 -2 7.8592 2.2045
-44 -4 -2 7.1376 9.5428
-44 -2 -2 5.1911 -10.9638
-43 -43 -1 3.0578 -3.2830
-43 -41 -1 -0.3377 2.8667
-43 -39 -1 -6.5931 2.3534
-43 -37 -1 -7.8259 -1.5420
-43 -35 -1 2.2892 2.8548
-43 -33 -1 -9.3324 -4.5337
-43 -31 -3 20.4230 -1.3783
-43 -31 -1 -11.7787 12.9233
-43 -29 -3 -12.9922 6.5901
-43 -29 -1 -3.7761 -9.0886
-43 -27 -3 4.2587 -8.1896
-43 -27 -1 5.6415 5.1474
-43 -25 -3 -2.1722 5.6275
-43 -25 -1 7.1573 -7.3459
-43 -23 -1 -1.2785 1.2663
-43 -21 -3 -8.1787 -6.3188
-43 -21 -1 3.8835 -6.0612
-43 -19 -1 10.7790 2.1565
-43 -17 -1 -5.5450 2.8411
-43 -15 -3 -5.5514 6.1749
-43 -15 -1 -1.9379 -9.3412
-43 -13 -3 4.1331 4.4462
-43 -13 -1 -1.0833 -7.0248
-43 -11 -3 -2.8488 -4.3567
-43 -11 -1 -12.5903 -1.1932
-43 -9 -3 1.0620 8.9250
-43 -9 -1 -2.5429 5.7458
-43 -7 -3 -5.1011 -6.8477
-43 -7 -1 -8.5494 -3.0882
-43 -5 -3 0.2080 11.0881
-43 -5 -1 1.6078 -6.6228
-43 -3 -3 -10.4323 3.5182
-43 -3 -1 12.3619 1.2796
-43 -1 -3 -13.7192 -16.0639
-43 -1 -1 -8.0702 -1.2988
-42 -42 -2 -0.8452 -3.4565
-42 -40 -2 15.3832 12.5077
-42 -38 -2 -7.6544 7.6210
-42 -36 -2 -1.2204 -4.0176
-42 -34 -2 -5.0064 -2.2211
-42 -32 -2 0.2784 3.9167
-42 -30 -2 0.5264 -7.7426
-42 -28 -4 -15.1786 10.1838
-42 -28 -2 -10.4554 -17.6151
-42 -26 -4 18.2659 -3.1048
-42 -26 -2 6.3531 -3.5255
-42 -24 -2 6.5922 -9.1907
-42 -22 -2 7.4202 -5.3470
-42 -20 -2 4.3654 -4.5113
-42 -18 -2 11.1804 4.4019
-42 -16 -2 3.7112 6.1735
-42 -14 -2 -2.5565 -1.0270
-42 -12 -2 5.3525 16.3363
-42 -10 -2 2.2644 2.2295
-42 -8 -2 9.0451 9.5985
-42 -6 -2 -5.4300 4.2631
-42 -4 -2 15.1668 -0.4864
-42 -2 -2 8.0203 8.0611
-42 0 -2 -0.6502 -9.2666
-41 -45 -1 -7.3789 -2.5688
-41 -43 -1 5.6070 -7.7319
-41 -41 -1 -6.9514 2.7965
-41 -39 -1 1.8244 -4.4687
-41 -37 -1 -7.6894 -2.1022
-41 -35 -1 -8.2313 -5.4680
-41 -33 -3 20.8255 -3.1006
-41 -33 -1 -7.6915 10.2627
-41 -31 -3 1.9610 1.2483
-41 -31 -1 -3.3401 -14.5356
-41 -29 -1 8.0069 4.6458
-41 -27 -3 -14.7040 9.7419
-41 -27 -1 -10.7391 -12.5745
-41 -25 -1 -0.8574 1.8534
-41 -23 -5 10.2167 10.3449
-41 -23 -1 2.6863 -8.3546
-41 -21 -1 3.3886 -2.0441
-41 -19 -3 -11.8142 -8.7820
-41 -19 -1 -3.2534 8.2246
-41 -17 -3 -3.6266 7.0933
-41 -17 -1 -2.2827 2.5819
-41 -15 -3 -4.8156 -8.3619
-41 -15 -1 0.9757 -9.4331
-41 -13 -3 3.0269 -2.5475
-41 -13 -1 -6.5420 -8.5470
-41 -11 -3 3.9538 -0.4929
-41 -11 -1 -3.9779 10.5147
-41 -9 -3 -3.0288 -8.1496
-41 -9 -1 -6.8147 -5.1904
-41 -7 -3 -0.5966 11.6809
-41 -7 -1 2.0185 -3.9840
-41 -5 -3 -7.2454 -4.9996
-41 -5 -1 -0.0838 -4.6952
-41 -3 -3 -5.8694 0.4481
-41 -3 -1 -8.7688 4.4656
-41 -1 -3 -11.2379 6.1538
-41 -1 -1 7.6589 -11.7636
-40 -44 -2 -13.8469 1.1397
-40 -42 -2 18.1943 15.8944
-40 -40 -2 -6.7315 -0.8989
-40 -36 -2 -12.8735 1.8119
-40 -34 -2 9.5373 11.1586
-40 -32 -2 -5.7669 -5.7101
-40 -30 -2 -2.3399 -18.5622
-40 -28 -4 17.0830 14.5160
-40 -28 -2 1.8746 -6.1063
-40 -26 -4 -14.6381 5.0673
-40 -26 -2 -14.5880 -16.8642
-40 -24 -2 4.7733 1.8255
-40 -22 -2 -1.3791 -18.7169
-40 -20 -2 8.0653 -2.3356
-40 -18 -2 5.7487 8.4146
-40 -16 -2 -4.0797 0.7818
-40 -14 -2 5.9414 5.4888
-40 -12 -4 36.2137 -2.8348
-40 -12 -2 2.4711 1.6494
-40 -10 -4 1.2914 -4.7947
-40 -10 -2 7.5072 1.6264
-40 -8 -4 18.1217 -1.0642
-40 -8 -2 -1.6821 2.3195
-40 -6 -4 -5.3467 -4.0511
-40 -6 -2 16.1758 0.9823
-40 -4 -4 -20.9090 0.1608
-40 -4 -2 -1.0088 11.4985
-40 -2 -4 -12.7464 -0.4874
-40 -2 -2 13.0283 -2.2567
-40 0 -4 -27.1457 4.2044
-39 -45 -1 2.6361 -18.4685
-39 -43 -1 -13.8397 8.3615
-39 -41 -3 -4.5753 -2.5805
-39 -41 -1 5.2266 -6.9288
-39 -39 -1 -10.8175 -10.3824
-39 -37 -3 7.2857 -1.7490
-39 -37 -1 6.0314 -7.5206
-39 -35 -3 15.1615 -6.8936
-39 -35 -1 -9.9919 2.5790
-39 -33 -3 15.4930 4.3254
-39 -33 -1 -6.6275 -4.4485
-39 -31 -3 0.5032 2.5243
-39 -31 -1 5.5783 -2.0118
-39 -29 -3 -5.3705 2.9019
-39 -29 -1 -6.3921 -19.0135
-39 -27 -3 -3.4811 9.2845
-39 -27 -1 8.3576 0.1667
-39 -25 -3 -9.4697 -1.0943
-39 -25 -1 -18.3956 -7.3540
-39 -23 -3 -19.1989 4.5467
-39 -23 -1 -0.8871 -3.2796
-39 -21 -3 -13.2144 -2.8200
-39 -21 -1 -1.2910 3.8118
-39 -19 -1 -9.2789 5.6503
-39 -17 -3 -4.5577 -7.1103
-39 -17 -1 0.0060 -5.2759
-39 -15 -3 11.7626 -4.3810
-39 -15 -1 -4.7021 -1.3970
-39 -13 -3 -3.2352 -7.9631
-39 -13 -1 -2.7384 3.9347
-39 -11 -3 2.9045 -9.2771
-39 -11 -1 -3.4622 -4.7931
-39 -9 -3 -2.5214 -3.8096
-39 -9 -1 -3.3714 3.2216
-39 -7 -3 -0.1219 -7.7237
-39 -7 -1 5.4095 -11.7054
-39 -5 -3 -2.5136 3.4500
-39 -5 -1 -5.8510 8.7485
-39 -3 -3 -8.0247 -10.3095
-39 -3 -1 -2.9585 -6.5386
-39 -1 -3 -5.5867 7.5755
-39 -1 -1 -15.5970 -2.9394
-38 -46 -2 -14.5571 8.6920
-38 -40 -2 3.6287 12.6826
-38 -38 -2 -14.1045 -6.0363
-38 -36 -2 19.7385 11.2281
-38 -34 -2 -5.2577 1.4426
-38 -32 -4 16.3766 1.5916
-38 -32 -2 8.6337 -3.1237
-38 -30 -2 -10.2709 -14.5770
-38 -28 -4 4.0363 -0.0218
-38 -28 -2 -8.3139 -20.5957
-38 -26 -2 8.7278 5.1700
-38 -24 -2 -14.8762 -24.9421
-38 -22 -2 -0.4185 2.0018
-38 -20 -2 2.4663 0.4574
-38 -18 -2 -0.6037 1.1358
-38 -16 -2 7.0895 4.5881
-38 -14 -4 43.2569 -12.6532
-38 -14 -2 -4.8771 3.2078
-38 -12 -4 -2.0070 -6.5005
-38 -12 -2 7.9966 -11.4936
-38 -10 -4 19.4194 2.1065
-38 -10 -2 4.4623 1.7771
-38 -8 -4 0.4635 -4.2206
-38 -8 -2 0.5274 -16.8603
-38 -6 -4 -4.7821 -4.5763
-38 -6 -2 7.8979 13.9049
-38 -4 -4 -16.8033 -4.2760
-38 -4 -2 19.6371 -5.5731
-38 -2 -4 -11.8131 -1.4491
-38 -2 -2 -8.2331 6.5184
-38 0 -2 14.5407 -1.4054
-37 -47 -1 0.0870 -15.5117
-37 -45 -1 -1.7046 13.3546
-37 -43 -3 -18.1218 -18.1859
-37 -43 -1 8.8260 -9.8770
-37 -41 -3 -11.1930 -10.0922
-37 -41 -1 -16.1897 -8.5684
-37 -39 -3 -9.6549 9.8778
-37 -39 -1 6.1604 -8.3147
-37 -37 -3 10.1961 -12.5823
-37 -37 -1 -9.1627 -6.6522
-37 -35 -3 22.5691 -1.4027
-37 -35 -1 0.7351 2.8721
-37 -33 -3 4.0350 -6.1291
-37 -33 -1 6.4955 -7.8199
-37 -31 -3 1.1455 6.0027
-37 -31 -1 -3.0570 -5.6382
-37 -29 -3 -15.7701 10.1369
-37 -29 -1 5.8573 -7.0357
-37 -27 -3 4.5177 -10.1058
-37 -27 -1 -21.2458 -5.0038
-37 -25 -3 -19.6453 6.1691
-37 -25 -1 9.3453 -6.9284
-37 -23 -3 -12.8578 0.3363
-37 -23 -1 -11.0494 -0.2558
-37 -21 -3 -4.9379 6.9489
-37 -21 -1 -13.9766 7.8088
-37 -19 -1 -0.8838 0.2035
-37 -17 -3 17.7358 0.1583
-37 -17 -1 -8.2743 -3.0969
-37 -15 -3 0.2558 -2.9081
-37 -15 -1 -3.3702 -3.4672
-37 -13 -3 10.5964 -12.3422
-37 -13 -1 -3.6828 8.1298
-37 -11 -3 -8.2305 -11.1743
-37 -11 -1 -3.3695 3.0923
-37 -9 -3 -2.6798 -4.0137
-37 -9 -1 10.0380 -18.7464
-37 -7 -3 -5.7669 -5.7741
-37 -7 -1 -14.8581 13.9246
-37 -5 -3 1.4551 -15.6657
-37 -5 -1 1.0782 -5.1758
-37 -3 -3 -4.5468 14.3941
-37 -3 -1 -6.9619 2.2685
-37 -1 -3 14.4148 -5.3134
-37 -1 -1 -2.9804 -10.8364
-36 -46 -2 -10.9275 -3.6711
-36 -44 -2 8.1178 17.7693
-36 -42 -2 -5.7497 1.3174
-36 -40 -4 14.0397 -16.5856
-36 -40 -2 -13.7377 -2.0181
-36 -38 -4 14.0485 -0.5499
-36 -38 -2 7.3160 16.6995
-36 -36 -4 23.9699 -11.0668
-36 -36 -2 0.3278 8.1805
-36 -34 -4 19.8606 -3.5360
-36 -34 -2 22.3598 1.6092
-36 -32 -4 11.1537 12.1242
-36 -32 -2 -6.7783 -16.6350
-36 -30 -4 12.6878 1.9635
-36 -30 -2 5.0354 -4.6191
-36 -28 -4 -14.2492 6.1465
-36 -28 -2 0.2329 0.1342
-36 -26 -2 -8.5853 -21.7425
-36 -24 -2 3.5813 -3.6195
-36 -22 -2 -3.7264 -7.0427
-36 -20 -4 35.6758 -12.6669
-36 -20 -2 -3.8878 11.6239
-36 -18 -4 13.6731 -8.9900
-36 -18 -2 2.0967 1.8357
-36 -16 -4 34.5359 -10.0109
-36 -16 -2 -6.1146 1.0464
-36 -14 -4 21.7692 6.8124
-36 -14 -2 7.7325 -12.9672
-36 -12 -4 30.3869 -3.7531
-36 -12 -2 -2.6369 1.6955
-36 -10 -4 10.3935 7.4912
-36 -10 -2 -6.4417 -37.2551
-36 -8 -4 -2.7704 1.4044
-36 -8 -2 12.5903 12.7951
-36 -6 -4 -6.2026 -0.2448
-36 -6 -2 -5.4217 -20.7899
-36 -4 -4 1.6058 -7.5519
-36 -4 -2 1.7274 9.9522
-36 -2 -4 3.3588 -0.5587
-36 -2 -2 14.5342 -8.1132
-36 0 -4 19.1943 -2.4670
-35 -49 -1 -13.7278 -14.3083
-35 -47 -1 5.0038 12.5774
-35 -45 -3 -41.1852 -11.8072
-35 -45 -1 6.7013 -0.6572
-35 -43 -3 -6.1975 9.7865
-35 -43 -1 -3.3169 0.6056
-35 -41 -3 -16.0686 2.6087
-35 -41 -1 11.7130 -13.8380
-35 -39 -3 -4.1775 -10.6238
-35 -39 -1 -8.8034 -11.3103
-35 -37 -3 11.9031 4.6917
-35 -37 -1 -3.7486 9.4768
-35 -35 -3 5.9370 -9.5119
-35 -35 -1 6.3764 -5.9870
-35 -33 -3 5.3313 0.1496
-35 -33 -1 -0.6514 0.6364
-35 -31 -3 -10.6926 1.4630
-35 -31 -1 10.2023 -14.5331
-35 -29 -3 11.2495 -5.7278
-35 -29 -1 -12.4352 10.7597
-35 -27 -3 -26.5442 4.0366
-35 -27 -1 4.9685 -8.7765
-35 -25 -3 -8.8377 -9.7387
-35 -25 -1 -14.8474 0.8083
-35 -23 -3 -14.1023 5.7606
-35 -23 -1 -1.0431 -1.3825
-35 -21 -3 2.6511 6.3550
-35 -21 -1 -5.9951 1.8817
-35 -19 -3 11.6101 5.4261
-35 -19 -1 -8.9306 0.4524
-35 -17 -3 1.6558 -4.9291
-35 -17 -1 -2.9376 0.1094
-35 -15 -3 8.7265 1.3463
-35 -15 -1 -8.2352 4.0215
-35 -13 -3 -2.6845 -2.9358
-35 -13 -1 -6.8604 -0.4050
-35 -11 -3 -7.2616 -5.2151
-35 -11 -1 8.4140 -9.7179
-35 -9 -3 -3.4070 -8.6365
-35 -9 -1 -11.4027 10.3278
-35 -7 -5 -2.0735 -9.8809
-35 -7 -3 -2.6671 -8.2190
-35 -7 -1 -0.0978 -14.4824
-35 -5 -5 -18.2168 -8.3693
-35 -5 -3 -11.8292 7.4794
-35 -5 -1 -15.5924 12.0395
-35 -3 -5 35.9390 -24.2972
-35 -3 -3 18.3017 -7.7313
-35 -3 -1 -1.1383 -10.3965
-35 -1 -5 -6.0297 -28.1203
-35 -1 -3 7.2894 30.6479
-35 -1 -1 3.5420 2.8513
-34 -48 -2 -10.0391 -14.6813
-34 -46 -2 11.7595 9.3941
-34 -44 -2 -11.8732 0.4228
-34 -42 -4 -3.9103 -12.6983
-34 -42 -2 0.7804 13.6706
-34 -40 -4 25.6149 11.8815
-34 -40 -2 -5.5436 6.7355
-34 -38 -4 10.1595 -30.3584
-34 -38 -2 7.5584 14.7829
-34 -36 -4 22.3844 -3.5607
-34 -36 -2 15.5798 9.0117
-34 -34 -4 9.1984 2.2711
-34 -34 -2 -0.4410 -1.6982
-34 -32 -4 16.2449 3.1336
-34 -32 -2 15.7942 -3.3636
-34 -30 -4 -8.6840 4.7017
-34 -30 -2 3.7336 -8.7452
-34 -28 -4 2.9997 -2.6154
-34 -28 -2 11.2853 3.0679
-34 -26 -2 0.7396 -11.0576
-34 -24 -2 -7.4842 -9.6706
-34 -22 -4 31.4897 -2.8798
-34 -22 -2 1.1493 6.7261
-34 -20 -4 0.6514 -2.8412
-34 -20 -2 2.9774 -1.9764
-34 -18 -4 37.7529 -2.1715
-34 -18 -2 -3.8766 11.4018
-34 -16 -4 36.4995 2.3081
-34 -16 -2 -6.8330 -11.1731
-34 -14 -4 14.1744 2.3205
-34 -14 -2 -5.2799 -1.7801
-34 -12 -4 34.0849 34.0058
-34 -12 -2 -4.5640 -40.2797
-34 -10 -4 5.7343 3.8103
-34 -10 -2 -2.1721 9.3466
-34 -8 -4 21.5570 8.5231
-34 -8 -2 -19.5442 -33.1855
-34 -6 -4 -8.6525 -3.0835
-34 -6 -2 7.8780 4.7963
-34 -4 -4 15.8233 4.5606
-34 -4 -2 -15.9314 -20.9373
-34 -2 -4 28.1791 -3.5240
-34 -2 -2 2.1122 4.7437
-34 0 -2 10.5696 -11.5612
-33 -51 -1 -20.2746 -9.6261
-33 -49 -1 28.9110 17.2441
-33 -47 -3 -44.2908 7.8682
-33 -47 -1 3.3419 4.3200
-33 -45 -3 9.5366 -3.6163
-33 -45 -1 8.0747 3.1446
-33 -43 -3 -27.2683 0.3181
-33 -43 -1 7.6666 -10.1111
-33 -41 -3 -9.0913 12.1003
-33 -41 -1 -3.6861 -8.1974
-33 -39 -3 8.5464 3.3194
-33 -39 -1 3.7753 5.1268
-33 -37 -5 6.0315 -3.5846
-33 -37 -3 0.5056 -10.2410
-33 -37 -1 7.3982 -6.0089
-33 -35 -3 0.7536 -2.3955
-33 -35 -1 -8.0850 4.4279
-33 -33 -3 -10.2183 1.3251
-33 -33 -1 11.5789 -9.0405
-33 -31 -3 5.2968 -5.8855
-33 -31 -1 -9.2443 8.7798
-33 -29 -3 -9.5244 -3.5382
-33 -29 -1 0.4894 -10.7548
-33 -27 -3 -4.3218 -7.3033
-33 -27 -1 -2.7058 10.9800
-33 -25 -3 -27.8447 4.6027
-33 -25 -1 2.3263 -9.3434
-33 -23 -3 -3.3938 3.6271
-33 -23 -1 -12.1871 6.3298
-33 -21 -3 2.8898 4.3780
-33 -21 -1 2.6340 -2.6396
-33 -19 -3 3.6129 -0.5279
-33 -19 -1 -5.0901 0.0863
-33 -17 -3 3.1907 17.6921
-33 -17 -1 -6.9703 1.0353
-33 -15 -3 -3.5705 -13.5232
-33 -15 -1 -9.7396 11.6611
-33 -13 -3 -16.4150 7.0059
-33 -13 -1 5.3555 -11.0967
-33 -11 -5 0.2164 13.7738
-33 -11 -3 6.0139 2.5993
-33 -11 -1 -9.2002 1.3203
-33 -9 -5 -3.8344 -10.5397
-33 -9 -3 -10.6058 -2.6325
-33 -9 -1 -13.2873 -12.3604
-33 -7 -5 -2.4183 -9.4802
-33 -7 -3 -5.3569 -0.7020
-33 -7 -1 -12.2719 14.2504
-33 -5 -5 9.5992 -22.4729
-33 -5 -3 9.5055 -9.5209
-33 -5 -1 -1.3747 -21.4285
-33 -3 -5 -1.4127 -22.0057
-33 -3 -3 2.6603 27.8298
-33 -3 -1 2.6140 8.2530
-33 -1 -5 31.1036 -15.3142
-33 -1 -3 29.3972 -6.9025
-33 -1 -1 -5.5460 2.4263
-32 -50 -2 -4.2711 -39.8207
-32 -48 -2 11.1002 11.9260
-32 -46 -2 4.9675 -1.1873
-32 -44 -2 11.2987 8.3281
-32 -42 -4 22.1500 -1.4669
-32 -42 -2 -17.8217 2.4377
-32 -40 -4 -12.2552 -28.2910
-32 -40 -2 12.1356 25.1980
-32 -38 -4 33.7740 6.6688
-32 -38 -2 9.1571 8.1342
-32 -36 -4 -3.9476 -17.3802
-32 -36 -2 12.4710 9.7753
-32 -34 -4 24.0179 0.8060
-32 -34 -2 8.5783 -6.9348
-32 -32 -4 -10.3723 1.1088
-32 -32 -2 2.3751 1.8160
-32 -30 -4 3.6592 -2.7711
-32 -30 -2 23.6347 13.5715
-32 -28 -4 -10.5091 9.9788
-32 -28 -2 4.2508 -20.4772
-32 -26 -4 -0.8941 3.4809
-32 -26 -2 5.0255 1.5407
-32 -24 -4 15.9262 6.8559
-32 -24 -2 2.7326 -1.2287
-32 -22 -4 -6.9675 -6.7719
-32 -22 -2 -2.9745 -0.2728
-32 -20 -4 34.2340 6.4952
-32 -20 -2 7.3162 12.5692
-32 -18 -4 15.0379 5.3890
-32 -18 -2 -11.6245 -15.1339
-32 -16 -4 12.9908 15.1404
-32 -16 -2 1.7111 9.3714
-32 -14 -4 50.2192 25.3148
-32 -14 -2 -16.9746 -31.5092
-32 -12 -4 -13.5737 11.4667
-32 -12 -2 -3.9404 -0.5404
-32 -10 -4 43.1296 33.5423
-32 -10 -2 -16.2935 -26.1848
-32 -8 -4 -15.6607 2.0772
-32 -8 -2 -12.7992 2.4882
-32 -6 -4 36.9418 0.8761
-32 -6 -2 -28.9163 -28.5684
-32 -4 -4 12.0443 -0.1586
-32 -4 -2 8.3134 -7.0587
-32 -2 -4 19.0257 5.4285
-32 -2 -2 -19.9860 -21.2021
-32 0 -4 12.8286 0.8123
-31 -51 -1 12.8854 -2.5170
-31 -49 -1 -9.3585 -8.6572
-31 -47 -3 13.7402 -11.6560
-31 -47 -1 27.9770 9.5774
-31 -45 -3 -18.3115 15.0276
-31 -45 -1 10.9385 -0.6134
-31 -43 -3 6.9251 9.1833
-31 -43 -1 4.7926 -10.4594
-31 -41 -3 -6.9847 0.4942
-31 -41 -1 3.3868 -1.0663
-31 -39 -3 -6.3161 4.9467
-31 -39 -1 -0.1652 -0.2197
-31 -37 -5 20.0120 4.6066
-31 -37 -3 2.7874 -6.1657
-31 -37 -1 -1.5049 1.2731
-31 -35 -3 -12.2460 2.2566
-31 -35 -1 13.4459 -12.4439
-31 -33 -3 -7.5044 -9.9716
-31 -33 -1 -14.4931 -2.4476
-31 -31 -3 0.1063 -0.8884
-31 -31 -1 -2.6943 1.2321
-31 -29 -3 -10.3717 -5.0427
-31 -29 -1 0.9223 4.5034
-31 -27 -3 -17.8309 -2.0807
-31 -27 -1 -6.7062 -14.2940
-31 -25 -3 -4.6457 8.6581
-31 -25 -1 -3.0040 7.2675
-31 -23 -3 -4.9636 7.8543
-31 -23 -1 7.2254 -7.5095
-31 -21 -3 -0.7702 -4.3780
-31 -21 -1 -8.8603 8.7747
-31 -19 -3 -3.9092 13.6971
-31 -19 -1 3.9574 -1.0985
-31 -17 -5 -6.1136 -6.9161
-31 -17 -3 -7.1619 -18.0459
-31 -17 -1 -17.6802 10.7440
-31 -15 -5 -4.2609 -9.6994
-31 -15 -3 -15.7460 26.3564
-31 -15 -1 3.4123 -11.8467
-31 -13 -5 14.9339 17.6369
-31 -13 -3 1.5523 -16.1003
-31 -13 -1 -2.6154 14.1757
-31 -11 -5 -11.1400 -19.6791
-31 -11 -3 -11.2505 6.1347
-31 -11 -1 -14.1546 -14.9346
-31 -9 -5 -9.5776 5.6365
-31 -9 -3 7.9526 8.0518
-31 -9 -1 -12.2629 6.5339
-31 -7 -5 -14.0172 -9.8769
-31 -7 -3 -6.1224 -13.1502
-31 -7 -1 -20.3775 -17.8134
-31 -5 -5 20.0478 -22.0505
-31 -5 -3 3.9998 14.8783
-31 -5 -1 10.6475 9.0784
-31 -3 -5 10.5367 -9.7980
-31 -3 -3 20.7896 -12.4114
-31 -3 -1 1.3862 -13.8650
-31 -1 -5 -4.0374 -5.9494
-31 -1 -3 5.8121 16.3203
-31 -1 -1 4.4557 14.7886
-30 -50 -2 -5.7914 -3.2744
-30 -48 -2 14.8975 -28.8394
-30 -46 -2 14.9941 5.4013
-30 -44 -4 10.2796 1.3813
-30 -44 -2 -3.8308 4.3548
-30 -42 -4 0.3733 -14.6176
-30 -42 -2 14.7294 19.5369
-30 -40 -4 24.7859 -7.9593
-30 -40 -2 0.2443 8.5058
-30 -38 -4 -26.8299 -24.7634
-30 -38 -2 13.4680 17.0115
-30 -36 -4 34.1633 6.2692
-30 -36 -2 -0.7133 -9.3311
-30 -34 -4 -20.7361 -8.5171
-30 -34 -2 10.1080 5.2541
-30 -32 -4 9.2365 -5.5248
-30 -32 -2 17.6591 7.0134
-30 -30 -4 -11.9625 7.1074
-30 -30 -2 1.3695 -5.0583
-30 -28 -4 -3.3056 3.0780
-30 -28 -2 15.3485 6.7832
-30 -26 -4 17.4504 12.4385
-30 -26 -2 -1.0033 -14.7757
-30 -24 -4 0.6663 -0.8737
-30 -24 -2 2.0170 4.6835
-30 -22 -4 24.0408 16.6637
-30 -22 -2 21.7562 12.5649
-30 -20 -4 -4.9258 -3.6871
-30 -20 -2 -15.2990 -12.4297
-30 -18 -4 13.8403 11.6422
-30 -18 -2 10.2568 17.7321
-30 -16 -4 18.4790 17.2183
-30 -16 -2 -23.9517 -31.9814
-30 -14 -4 -21.4525 31.8957
-30 -14 -2 13.1104 0.0202
-30 -12 -4 54.5908 24.6226
-30 -12 -2 -20.5099 -5.0255
-30 -10 -4 -27.1854 -0.3174
-30 -10 -2 -16.4258 -1.1824
-30 -8 -4 35.3773 11.5341
-30 -8 -2 -18.6613 -20.4167
-30 -6 -4 -5.2633 7.3529
-30 -6 -2 -10.4913 -15.5303
-30 -4 -4 33.6079 -3.9128
-30 -4 -2 -32.2902 -23.7796
-30 -2 -4 -9.8116 0.2188
-30 -2 -2 9.4635 -11.4874
-30 0 -2 -45.7064 -37.7427
-29 -53 -1 -11.1517 -16.7810
-29 -51 -1 8.2544 -5.6346
-29 -49 -3 10.0698 -4.8054
-29 -49 -1 20.8137 3.4769
-29 -47 -3 -2.6378 -3.1706
-29 -47 -1 0.1462 -7.5153
-29 -45 -3 15.3909 -2.4072
-29 -45 -1 13.8994 -12.1013
-29 -43 -3 -3.9884 16.8966
-29 -43 -1 7.3317 0.9724
-29 -41 -3 8.3517 11.6083
-29 -41 -1 0.4900 2.3303
-29 -39 -5 16.3665 -2.4314
-29 -39 -3 -10.0135 -9.2885
-29 -39 -1 6.2260 -6.3954
-29 -37 -5 -4.9207 -18.0408
-29 -37 -3 -18.8975 9.2354
-29 -37 -1 -1.1223 -10.2382
-29 -35 -3 -16.0253 -17.1462
-29 -35 -1 -10.9997 -11.5990
-29 -33 -3 4.6202 2.4370
-29 -33 -1 -0.0396 -4.5243
-29 -31 -3 -16.4510 -5.7095
-29 -31 -1 -8.8405 -11.2315
-29 -29 -3 -7.4894 -0.1432
-29 -29 -1 -11.1245 1.0718
-29 -27 -3 -13.4041 9.5251
-29 -27 -1 2.8308 -6.2097
-29 -25 -3 0.4115 4.0826
-29 -25 -1 -9.1499 -11.4918
-29 -23 -3 7.7269 1.1945
-29 -23 -1 -4.2934 9.5352
-29 -21 -3 -4.1243 10.0274
-29 -21 -1 9.3094 -6.6451
-29 -19 -5 -11.3722 -9.8152
-29 -19 -3 -7.8525 -23.8344
-29 -19 -1 -21.8503 14.3771
-29 -17 -5 7.2784 -12.3430
-29 -17 -3 -19.6264 17.2581
-29 -17 -1 6.2493 -7.4457
-29 -15 -5 -2.8618 12.9619
-29 -15 -3 -13.3182 -33.4596
-29 -15 -1 -0.3005 10.2692
-29 -13 -5 -8.2536 -8.1171
-29 -13 -3 4.8974 24.6082
-29 -13 -1 -11.8110 -16.9807
-29 -11 -5 1.7715 15.0073
-29 -11 -3 6.6403 -1.9536
-29 -11 -1 -10.3572 18.0519
-29 -9 -5 -18.9767 -17.3428
-29 -9 -3 -6.0641 -16.3592
-29 -9 -1 -20.5535 -13.5535
-29 -7 -5 4.1813 -9.7136
-29 -7 -3 7.6159 12.0559
-29 -7 -1 17.4955 2.4265
-29 -5 -5 -11.2964 7.3699
-29 -5 -3 8.0983 -17.7986
-29 -5 -1 -5.1167 -11.9506
-29 -3 -5 8.3521 -2.7008
-29 -3 -3 0.1502 7.0844
-29 -3 -1 7.4628 15.9203
-29 -1 -5 -15.4228 0.8395
-29 -1 -3 -3.7954 -14.8235
-29 -1 -1 -5.9956 -10.6433
-28 -52 -2 -28.6190 -33.5439
-28 -48 -2 6.6797 -0.5589
-28 -46 -4 14.9736 -3.1164
-28 -46 -2 7.0816 -14.8630
-28 -44 -4 11.4404 -18.8626
-28 -44 -2 8.3394 9.6547
-28 -42 -4 8.6292 -3.2968
-28 -42 -2 5.8858 10.0960
-28 -40 -4 -10.3692 -2.5582
-28 -40 -2 16.7377 14.6013
-28 -38 -4 25.5140 -6.1894
-28 -38 -2 -4.3254 -1.9833
-28 -36 -4 -41.0030 -20.9260
-28 -36 -2 4.6931 1.3992
-28 -34 -4 10.5863 -6.6033
-28 -34 -2 -0.5156 -1.8651
-28 -32 -6 -1.9589 0.2219
-28 -32 -4 -18.3273 -1.5445
-28 -32 -2 10.7608 4.5576
-28 -30 -4 -1.7679 3.8635
-28 -30 -2 14.6981 -0.3965
-28 -28 -4 11.3788 9.2821
-28 -28 -2 -8.8426 -6.6734
-28 -26 -4 3.6984 -6.6132
-28 -26 -2 6.5674 4.6014
-28 -24 -4 25.9206 14.4923
-28 -24 -2 19.2871 5.9019
-28 -22 -4 -5.0185 -1.1008
-28 -22 -2 -6.0150 -8.4788
-28 -20 -4 5.5401 15.2163
-28 -20 -2 22.9888 19.9097
-28 -18 -4 -6.0298 0.6937
-28 -18 -2 -30.7778 -28.3941
-28 -16 -4 -18.4874 19.9200
-28 -16 -2 21.0584 2.3687
-28 -14 -4 17.7691 13.5071
-28 -14 -2 -15.0629 -3.5100
-28 -12 -4 -24.5301 19.7868
-28 -12 -2 1.9691 2.7742
-28 -10 -4 31.5345 5.3674
-28 -10 -2 -21.6245 6.9176
-28 -8 -4 -11.5626 -5.7202
-28 -8 -2 -11.1030 -19.9694
-28 -6 -4 21.9688 -4.3054
-28 -6 -2 -11.0290 -20.4292
-28 -4 -4 -11.5053 8.4653
-28 -4 -2 -4.1756 -15.7076
-28 -2 -4 -2.2321 -3.8115
-28 -2 -2 -58.8625 -40.7847
-28 0 -4 -32.6606 -12.1915
-27 -53 -1 3.4311 -28.8488
-27 -51 -1 -3.8776 -21.0412
-27 -49 -3 -11.1469 -17.4266
-27 -49 -1 12.4367 -1.0887
-27 -47 -3 18.3710 3.7190
-27 -47 -1 14.4995 -6.9509
-27 -45 -3 7.3764 8.1483
-27 -45 -1 0.0791 -1.5744
-27 -43 -3 7.2546 4.6374
-27 -43 -1 -0.8201 -4.1515
-27 -41 -5 4.2390 -8.6042
-27 -41 -3 -9.6410 3.3506
-27 -41 -1 9.9285 -4.8619
-27 -39 -5 -3.1895 7.3187
-27 -39 -3 2.6944 17.1956
-27 -39 -1 -6.1649 -3.3250
-27 -37 -5 3.6054 3.2184
-27 -37 -3 -26.4560 -15.3343
-27 -37 -1 2.5053 -21.4271
-27 -35 -5 -11.6218 -8.3348
-27 -35 -3 -6.4275 4.7896
-27 -35 -1 -9.6865 -8.8662
-27 -33 -3 -24.2908 -13.6501
-27 -33 -1 -16.8330 -13.9406
-27 -31 -3 6.6353 1.3320
-27 -31 -1 -4.2076 1.3825
-27 -29 -3 -18.0636 8.7715
-27 -29 -1 -9.0196 -24.3756
-27 -27 -3 4.4945 7.0365
-27 -27 -1 -17.4544 1.0535
-27 -25 -3 10.8700 5.1224
-27 -25 -1 1.3352 -2.2170
-27 -23 -3 3.2728 -3.4724
-27 -23 -1 -4.5596 -7.1971
-27 -21 -5 1.2293 -0.8384
-27 -21 -3 7.6337 -17.0464
-27 -21 -1 -18.5300 10.2081
-27 -19 -5 3.9287 -10.2395
-27 -19 -3 -20.8018 8.8232
-27 -19 -1 -0.7923 -18.5174
-27 -17 -5 -10.9952 4.0124
-27 -17 -3 -18.8099 -40.3669
-27 -17 -1 -1.1172 5.5338
-27 -15 -5 13.7498 -10.0344
-27 -15 -3 3.4635 9.5249
-27 -15 -1 -0.6305 -7.6622
-27 -13 -5 -6.5160 5.7841
-27 -13 -3 -3.7561 -12.6664
-27 -13 -1 -0.3947 8.3041
-27 -11 -5 -19.7556 -13.3087
-27 -11 -3 16.9584 5.4962
-27 -11 -1 -22.0412 -14.5383
-27 -9 -5 -2.2827 6.7313
-27 -9 -3 -5.0348 5.9494
-27 -9 -1 9.6184 17.0857
-27 -7 -5 -0.7715 -3.2167
-27 -7 -3 5.9225 -24.8237
-27 -7 -1 8.6172 -4.8984
-27 -5 -5 -8.9011 -4.4858
-27 -5 -3 3.0773 10.8131
-27 -5 -1 21.5569 5.8152
-27 -3 -5 -28.6077 22.9786
-27 -3 -3 -14.5671 -19.4522
-27 -3 -1 -1.5822 -3.2928
-27 -1 -5 -12.2643 13.9289
-27 -1 -3 -3.1499 -12.7822
-27 -1 -1 -18.0852 12.8743
-26 -48 -2 13.9288 -13.6476
-26 -46 -4 9.1333 -5.6189
-26 -46 -2 1.5493 5.9619
-26 -44 -4 14.9907 6.8503
-26 -44 -2 7.3115 1.1015
-26 -42 -4 -2.3298 -5.5113
-26 -42 -2 10.0307 8.5619
-26 -40 -4 8.3783 -6.4340
-26 -40 -2 -0.7820 2.7751
-26 -38 -4 -14.5903 -2.1138
-26 -38 -2 4.9440 -5.0915
-26 -36 -4 6.8019 -11.1479
-26 -36 -2 -3.5787 0.2151
-26 -34 -6 6.3670 -4.3932
-26 -34 -4 -39.8223 -19.6930
-26 -34 -2 9.5383 5.0461
-26 -32 -6 15.7379 -4.1118
-26 -32 -4 -10.4914 -1.9236
-26 -32 -2 -4.0583 -3.1064
-26 -30 -4 4.1952 -0.2859
-26 -30 -2 1.3097 -2.0243
-26 -28 -4 7.4884 -5.7295
-26 -28 -2 5.0867 -8.2748
-26 -26 -4 20.3167 8.7370
-26 -26 -2 7.5136 12.1532
-26 -24 -4 -4.4178 -4.7230
-26 -24 -2 5.2827 -3.9131
-26 -22 -4 6.5147 7.3231
-26 -22 -2 20.3509 12.8814
-26 -20 -4 -5.7555 -7.1281
-26 -20 -2 -29.9500 -21.0766
-26 -18 -4 -25.2989 16.7515
-26 -18 -2 21.1055 -4.1245
-26 -16 -4 -7.9263 8.9751
-26 -16 -2 -13.6513 -12.7134
-26 -14 -4 -8.3163 6.5415
-26 -14 -2 8.6803 10.0555
-26 -12 -4 6.9987 -7.9850
-26 -12 -2 -14.1097 17.7411
-26 -10 -4 -8.2850 7.2542
-26 -10 -2 6.1549 -17.1170
-26 -8 -4 10.5182 0.7408
-26 -8 -2 -9.2218 -2.4055
-26 -6 -4 7.1791 -6.6085
-26 -6 -2 -3.2994 -7.2315
-26 -4 -6 -20.3951 38.9867
-26 -4 -4 -17.6322 -6.0907
-26 -4 -2 -28.2414 -34.4651
-26 -2 -6 -17.8118 20.7604
-26 -2 -4 -19.5207 -8.2200
-26 -2 -2 -6.7353 -6.1763
-26 0 -6 -27.7585 45.6302
-26 0 -2 -77.3805 -38.5642
-25 -55 -1 -17.7008 -40.3758
-25 -53 -1 -4.6324 -1.4669
-25 -51 -3 -29.0053 -15.5778
-25 -51 -1 10.8633 0.1816
-25 -49 -3 24.3761 -16.0634
-25 -49 -1 -3.1211 -20.1456
-25 -47 -3 2.7782 -12.2862
-25 -47 -1 7.7890 0.4306
-25 -45 -3 8.5184 12.8724
-25 -45 -1 0.9565 -2.5265
-25 -43 -3 3.8275 6.2002
-25 -43 -1 5.9213 6.2871
-25 -41 -5 -1.3245 5.4851
-25 -41 -3 -0.5743 14.5750
-25 -41 -1 -6.5895 -5.7005
-25 -39 -5 -4.9001 -13.7667
-25 -39 -3 -24.0540 -1.8990
-25 -39 -1 6.3242 -21.6184
-25 -37 -5 -10.2027 12.7199
-25 -37 -3 9.6448 5.2302
-25 -37 -1 -13.7121 -4.0535
-25 -35 -5 -12.8695 16.6467
-25 -35 -3 -20.6841 -10.4948
-25 -35 -1 -7.1092 -17.8576
-25 -33 -5 0.4289 -1.3808
-25 -33 -3 2.2140 7.0876
-25 -33 -1 -3.8678 -0.2122
-25 -31 -5 -11.3663 -0.7310
-25 -31 -3 -33.1508 4.0145
-25 -31 -1 -20.3456 -16.2852
-25 -29 -5 18.8095 -7.5902
-25 -29 -3 14.6486 0.0518
-25 -29 -1 -4.6754 3.1860
-25 -27 -5 2.5416 -0.9224
-25 -27 -3 14.2531 7.5517
-25 -27 -1 -13.6642 -20.6221
-25 -25 -5 27.4250 22.3312
-25 -25 -3 8.4408 1.0467
-25 -25 -1 -13.6022 3.7620
-25 -23 -5 2.9087 1.1015
-25 -23 -3 16.6072 -5.9706
-25 -23 -1 -6.3028 0.1461
-25 -21 -5 0.3480 -10.0884
-25 -21 -3 -14.0037 -11.0493
-25 -21 -1 -15.6728 -22.6040
-25 -19 -5 0.4436 -2.8774
-25 -19 -3 -9.2752 -27.2141
-25 -19 -1 -4.1159 -1.6609
-25 -17 -5 9.1939 -4.7611
-25 -17 -3 -14.2453 -3.7094
-25 -17 -1 -0.8472 -24.2539
-25 -15 -5 -7.9488 1.7177
-25 -15 -3 -0.1827 -12.7965
-25 -15 -1 1.6420 -4.7797
-25 -13 -5 2.6915 -21.7011
-25 -13 -3 22.5540 5.4048
-25 -13 -1 -16.9390 -1.5512
-25 -11 -5 -8.6830 -6.3652
-25 -11 -3 -19.6460 -0.2177
-25 -11 -1 11.7176 9.3116
-25 -9 -5 -0.4634 -9.0876
-25 -9 -3 19.2993 -6.9378
-25 -9 -1 17.7633 -8.4439
-25 -7 -5 -16.7322 8.8517
-25 -7 -3 -2.4089 18.8099
-25 -7 -1 11.7547 19.9130
-25 -5 -5 -4.7304 15.8595
-25 -5 -3 -14.7055 -14.3883
-25 -5 -1 14.7775 8.5505
-25 -3 -5 -39.6476 -0.6648
-25 -3 -3 -11.3665 -4.9144
-25 -3 -1 -5.9345 7.3834
-25 -1 -5 -14.6497 1.7983
-25 -1 -3 -14.8600 -2.8029
-25 -1 -1 -6.8249 -11.7102
-24 -54 -2 -11.5681 -10.4757
-24 -50 -2 9.2686 7.6967
-24 -48 -4 5.9069 -0.2264
-24 -48 -2 -6.7004 -25.0710
-24 -46 -4 15.5025 -4.3715
-24 -46 -2 10.2451 -3.3352
-24 -44 -4 -3.0321 3.3937
-24 -44 -2 7.1382 4.9297
-24 -42 -4 21.0416 16.7053
-24 -42 -2 0.0691 2.9729
-24 -40 -4 2.5994 -7.7269
-24 -40 -2 0.7021 -0.2492
-24 -38 -4 -8.8279 -16.3605
-24 -38 -2 -2.8623 -1.3672
-24 -36 -6 -4.2130 14.8893
-24 -36 -4 -19.7431 -16.5897
-24 -36 -2 7.6576 -5.8438
-24 -34 -6 19.4054 4.2403
-24 -34 -4 -1.4030 1.5128
-24 -34 -2 -2.2529 1.6974
-24 -32 -6 12.3964 -8.6084
-24 -32 -4 -16.7270 -8.1484
-24 -32 -2 7.8954 0.9199
-24 -30 -6 1.6548 -4.7213
-24 -30 -4 -13.8107 -13.0567
-24 -30 -2 -11.8546 -9.4981
-24 -28 -4 16.3350 -7.6606
-24 -28 -2 8.3082 9.6012
-24 -26 -6 17.6082 -1.2322
-24 -26 -4 7.4145 -0.9022
-24 -26 -2 7.9150 -13.0733
-24 -24 -6 3.5540 35.2543
-24 -24 -4 2.3580 13.9749
-24 -24 -2 13.6767 14.8510
-24 -22 -6 -11.2656 -8.4730
-24 -22 -4 -8.1380 -8.9741
-24 -22 -2 -21.5723 -6.0859
-24 -20 -6 -5.0508 6.2308
-24 -20 -4 -13.9977 2.5860
-24 -20 -2 3.2682 -15.3923
-24 -18 -6 4.6601 -22.2235
-24 -18 -4 -7.6903 4.2889
-24 -18 -2 -19.0814 -18.9744
-24 -16 -4 -15.4274 4.3880
-24 -16 -2 13.4361 3.6025
-24 -14 -4 2.1413 -0.6960
-24 -14 -2 -11.3432 12.8152
-24 -12 -4 8.7327 -4.1111
-24 -12 -2 -0.6234 -3.1382
-24 -10 -6 5.6291 0.0566
-24 -10 -4 -4.7360 -11.2063
-24 -10 -2 0.0104 1.0169
-24 -8 -6 17.5231 -7.7586
-24 -8 -4 16.4056 -0.9532
-24 -8 -2 23.5387 1.0126
-24 -6 -6 -23.9239 31.7957
-24 -6 -4 -15.4623 11.9886
-24 -6 -2 -19.0915 -11.4873
-24 -4 -6 -6.2478 35.5245
-24 -4 -4 6.0941 -11.6239
-24 -4 -2 -10.0088 8.5339
-24 -2 -6 -28.0861 28.4796
-24 -2 -4 -21.7209 -9.3328
-24 -2 -2 -41.8747 -23.5490
-24 0 -4 12.4495 -12.6607
-23 -55 -1 7.3513 -11.4194
-23 -53 -1 -2.6001 -19.3681
-23 -51 -3 7.8129 -25.4838
-23 -51 -1 -4.2985 -1.0312
-23 -49 -3 -15.3376 -13.1892
-23 -49 -1 12.7719 16.3176
-23 -47 -3 13.8948 -2.7623
-23 -47 -1 -10.4741 -7.8582
-23 -45 -3 -0.4628 -12.0301
-23 -45 -1 8.9795 8.1424
-23 -43 -5 1.6115 2.2397
-23 -43 -3 -1.4566 18.9079
-23 -43 -1 0.3033 -8.4221
-23 -41 -5 6.2752 9.3999
-23 -41 -3 5.1912 12.6757
-23 -41 -1 2.6895 -2.3364
-23 -39 -5 -4.0508 10.0067
-23 -39 -3 3.7584 5.3839
-23 -39 -1 -5.9502 -2.3319
-23 -37 -5 -25.3886 -10.2385
-23 -37 -3 -19.2749 -2.9507
-23 -37 -1 -1.3412 -18.2171
-23 -35 -5 -9.2473 11.6017
-23 -35 -3 10.7393 3.6855
-23 -35 -1 -6.7104 4.6762
-23 -33 -5 -1.2994 13.9712
-23 -33 -3 -19.6227 9.4000
-23 -33 -1 -12.6279 -10.5459
-23 -31 -5 3.2066 -14.4373
-23 -31 -3 11.8091 3.0334
-23 -31 -1 5.6199 1.3589
-23 -29 -5 -10.6128 -7.1518
-23 -29 -3 -11.4840 13.0891
-23 -29 -1 -22.4795 -12.1727
-23 -27 -5 21.4200 3.1724
-23 -27 -3 14.9446 -4.9776
-23 -27 -1 1.6368 9.0248
-23 -25 -5 9.9582 21.4058
-23 -25 -3 26.3471 -3.8597
-23 -25 -1 -11.0274 -11.7957
-23 -23 -5 9.2716 6.4736
-23 -23 -3 -2.5437 -1.8302
-23 -23 -1 -25.9563 -15.2715
-23 -21 -5 -3.3054 -7.9324
-23 -21 -3 -6.2401 1.9790
-23 -21 -1 -0.4420 -11.4539
-23 -19 -7 0.0838 -1.4746
-23 -19 -5 -1.1658 -6.4220
-23 -19 -3 -26.9830 -26.6653
-23 -19 -1 -5.7114 -32.0401
-23 -17 -7 -8.2197 -13.8062
-23 -17 -5 10.0244 -2.4649
-23 -17 -3 9.3346 -6.7325
-23 -17 -1 0.4013 -1.9734
-23 -15 -7 6.8574 -9.9605
-23 -15 -5 -0.4806 -19.7321
-23 -15 -3 8.6432 7.8031
-23 -15 -1 -12.0855 -19.5459
-23 -13 -5 -13.0290 -9.7196
-23 -13 -3 -7.8938 8.6096
-23 -13 -1 -4.4207 -8.7677
-23 -11 -5 11.1528 -14.5445
-23 -11 -3 11.9179 -5.2865
-23 -11 -1 12.8495 8.6483
-23 -9 -5 -5.3883 -3.7824
-23 -9 -3 -12.3694 8.0953
-23 -9 -1 10.6777 18.2342
-23 -7 -5 2.9997 -0.9532
-23 -7 -3 4.6538 11.3155
-23 -7 -1 36.1517 -6.2317
-23 -5 -5 -46.6403 15.2709
-23 -5 -3 -12.1260 13.0371
-23 -5 -1 -14.2066 25.3260
-23 -3 -5 6.8665 8.8209
-23 -3 -3 -16.0408 -0.2436
-23 -3 -1 -5.7446 11.9623
-23 -1 -5 -26.6148 -17.1191
-23 -1 -3 -7.5703 1.0830
-23 -1 -1 -8.3723 -3.2183
-22 -54 -2 -9.7911 -21.7546
-22 -52 -2 9.7070 -0.9619
-22 -50 -2 -12.8569 -25.4912
-22 -48 -4 1.4725 -12.4338
-22 -48 -2 7.8525 19.4823
-22 -46 -4 -2.8640 6.5153
-22 -46 -2 -4.8468 -12.0119
-22 -44 -4 14.3972 8.5416
-22 -44 -2 0.8810 -5.3529
-22 -42 -4 10.8178 -8.1818
-22 -42 -2 4.2195 2.5218
-22 -40 -4 18.4123 11.6230
-22 -40 -2 -2.3351 -5.4022
-22 -38 -4 1.5024 -24.6627
-22 -38 -2 6.7565 -2.2121
-22 -36 -6 22.1870 -16.9175
-22 -36 -4 -16.5929 -6.8491
-22 -36 -2 -0.7515 1.7774
-22 -34 -6 -4.8638 4.3125
-22 -34 -4 -14.2669 -8.2352
-22 -34 -2 2.4818 -6.2590
-22 -32 -6 8.0609 -0.3860
-22 -32 -4 2.3462 -2.6187
-22 -32 -2 -4.3024 -8.6446
-22 -30 -6 13.5941 4.2122
-22 -30 -4 8.9940 -7.1011
-22 -30 -2 10.2406 0.7172
-22 -28 -6 0.3627 0.9147
-22 -28 -4 -15.2958 -8.0377
-22 -28 -2 -4.2706 -6.4834
-22 -26 -6 19.3841 26.0085
-22 -26 -4 -4.2510 9.1127
-22 -26 -2 14.1167 13.7704
-22 -24 -6 -12.1490 -0.6178
-22 -24 -4 10.1014 -4.4976
-22 -24 -2 -13.8688 -8.2316
-22 -22 -6 -5.1770 29.1395
-22 -22 -4 2.8898 12.1018
-22 -22 -2 -9.4919 -11.6579
-22 -20 -4 -17.3069 9.3242
-22 -20 -2 -21.1580 -10.2784
-22 -18 -4 -10.3492 -1.1944
-22 -18 -2 4.3521 -11.0277
-22 -16 -4 16.3174 -3.0152
-22 -16 -2 -17.9505 10.3733
-22 -14 -4 2.5730 -10.4080
-22 -14 -2 2.5463 7.8496
-22 -12 -6 8.9105 -6.8221
-22 -12 -4 -4.6702 0.9403
-22 -12 -2 5.2024 -9.0040
-22 -10 -6 24.4428 -18.9633
-22 -10 -4 17.0132 -4.7393
-22 -10 -2 14.7341 10.7900
-22 -8 -6 -4.7511 12.5070
-22 -8 -4 -5.3628 -1.0287
-22 -8 -2 -11.9730 0.0476
-22 -6 -6 3.2309 15.9990
-22 -6 -4 11.2739 -3.0766
-22 -6 -2 25.7783 18.0947
-22 -4 -6 -24.1058 18.0681
-22 -4 -4 -20.4649 10.6471
-22 -4 -2 -18.2382 1.9436
-22 -2 -6 -1.6902 22.4620
-22 -2 -4 36.2476 -8.8419
-22 -2 -2 -18.2378 16.7896
-22 0 -6 -11.9384 -5.3987
-22 0 -2 -13.1138 1.9964
-21 -57 -1 -4.1182 -27.7382
-21 -55 -1 -5.3462 3.4688
-21 -53 -3 5.7382 -18.7858
-21 -53 -1 4.5010 10.0378
-21 -51 -3 -7.8783 -26.0667
-21 -51 -1 10.0938 1.5085
-21 -49 -3 13.9074 -16.5750
-21 -49 -1 -12.4296 -0.0865
-21 -47 -3 -14.3022 -9.4202
-21 -47 -1 15.3290 19.8969
-21 -45 -3 -1.9171 8.5443
-21 -45 -1 -2.3596 -2.3311
-21 -43 -5 -3.2225 8.2176
-21 -43 -3 4.3368 3.5465
-21 -43 -1 2.6558 4.9855
-21 -41 -5 0.9861 -3.4772
-21 -41 -3 0.2664 10.0886
-21 -41 -1 7.2403 -9.8699
-21 -39 -5 -10.4407 9.2191
-21 -39 -3 12.8420 3.3384
-21 -39 -1 -4.6915 -2.6425
-21 -37 -5 -3.0116 15.8698
-21 -37 -3 9.3203 0.9139
-21 -37 -1 2.6698 7.2527
-21 -35 -5 -10.2306 -11.9648
-21 -35 -3 -20.3386 18.2838
-21 -35 -1 -3.7741 -8.1454
-21 -33 -5 -15.6311 -9.3507
-21 -33 -3 0.3194 2.0620
-21 -33 -1 6.7909 6.0082
-21 -31 -5 9.4017 -5.9082
-21 -31 -3 -4.6385 15.5878
-21 -31 -1 -10.2201 -8.1894
-21 -29 -5 11.2926 -4.3552
-21 -29 -3 24.5894 -7.2112
-21 -29 -1 8.0351 4.4011
-21 -27 -7 1.1193 -0.0613
-21 -27 -5 7.5076 20.7003
-21 -27 -3 -1.8442 12.8096
-21 -27 -1 -11.7316 -3.5777
-21 -25 -7 -17.4274 34.2467
-21 -25 -5 6.2410 -2.9700
-21 -25 -3 -0.7401 3.7021
-21 -25 -1 -5.3705 -2.2334
-21 -23 -5 0.1220 -2.0389
-21 -23 -3 10.4934 4.1757
-21 -23 -1 -0.6558 -13.7785
-21 -21 -7 4.1570 10.6772
-21 -21 -5 9.2692 5.5641
-21 -21 -3 -20.4693 -12.9381
-21 -21 -1 -17.5859 -24.9022
-21 -19 -7 -7.2251 12.2320
-21 -19 -5 5.8372 4.2937
-21 -19 -3 -0.7258 17.5250
-21 -19 -1 2.7451 -2.1145
-21 -17 -7 13.3478 -7.5680
-21 -17 -5 -10.3185 -9.8583
-21 -17 -3 -3.1034 -7.0904
-21 -17 -1 -5.3741 -28.1049
-21 -15 -5 1.7597 -16.0733
-21 -15 -3 17.5018 11.4987
-21 -15 -1 -18.2372 7.6185
-21 -13 -5 3.9093 -15.2098
-21 -13 -3 -7.0235 1.0098
-21 -13 -1 13.1125 -0.1567
-21 -11 -5 -5.3158 -0.2021
-21 -11 -3 -3.8542 3.5211
-21 -11 -1 -9.3660 -2.3092
-21 -9 -5 9.0962 -3.5560
-21 -9 -3 5.4695 17.0857
-21 -9 -1 24.6178 2.2358
-21 -7 -5 -18.7026 13.2752
-21 -7 -3 -17.1991 3.0104
-21 -7 -1 -17.2349 33.4717
-21 -5 -5 7.6932 -2.5948
-21 -5 -3 0.2674 13.5938
-21 -5 -1 15.2700 -3.3543
-21 -3 -5 -32.6780 -2.7001
-21 -3 -3 -1.5359 18.7442
-21 -3 -1 -18.6373 7.6955
-21 -1 -5 36.2452 -4.4442
-21 -1 -3 2.8788 10.8444
-21 -1 -1 -5.5783 12.6074
-20 -56 -2 4.2566 -19.3058
-20 -54 -2 -17.5615 17.5055
-20 -52 -2 -2.4877 -4.1094
-20 -50 -4 1.5870 -13.5201
-20 -50 -2 13.9244 10.5668
-20 -48 -4 1.8143 2.3481
-20 -48 -2 -9.1967 -18.7894
-20 -46 -4 -1.9145 2.3250
-20 -46 -2 5.1768 4.2391
-20 -44 -4 24.1859 1.2424
-20 -44 -2 -7.7982 3.4967
-20 -42 -4 15.6903 6.9786
-20 -42 -2 -8.0489 -10.7616
-20 -40 -4 7.9751 -32.1316
-20 -40 -2 15.3646 -3.1965
-20 -38 -6 17.7017 0.1192
-20 -38 -4 6.9837 10.1106
-20 -38 -2 0.9122 -11.5438
-20 -36 -6 -8.2199 20.1513
-20 -36 -4 11.4308 -6.8901
-20 -36 -2 0.9451 -2.9927
-20 -34 -6 18.7400 -23.7174
-20 -34 -4 -8.2980 2.9974
-20 -34 -2 -2.3649 -4.8986
-20 -32 -6 -15.9790 -0.6983
-20 -32 -4 -11.2481 -9.3647
-20 -32 -2 -1.9726 -8.6052
-20 -30 -6 2.3205 -1.5746
-20 -30 -4 1.1279 -12.7413
-20 -30 -2 5.1978 -5.3294
-20 -28 -6 37.0723 17.7399
-20 -28 -4 12.9186 22.2521
-20 -28 -2 11.5658 -3.2942
-20 -26 -6 -12.9580 7.4922
-20 -26 -4 -9.2150 -0.2907
-20 -26 -2 -11.2070 0.4235
-20 -24 -6 -2.7455 23.3061
-20 -24 -4 -4.0622 9.6843
-20 -24 -2 -7.0859 7.6920
-20 -22 -6 -17.3780 5.2486
-20 -22 -4 6.6612 3.8051
-20 -22 -2 -21.3184 -14.3776
-20 -20 -4 10.3284 15.8207
-20 -20 -2 -2.5377 -15.8628
-20 -18 -4 -1.9613 8.7807
-20 -18 -2 -12.7833 16.3428
-20 -16 -6 7.8170 -12.6655
-20 -16 -4 5.9553 -12.7907
-20 -16 -2 4.1162 14.8953
-20 -14 -6 2.5385 -2.6854
-20 -14 -4 15.1501 -3.8124
-20 -14 -2 -7.0363 -7.7836
-20 -12 -6 26.9395 -19.8025
-20 -12 -4 -7.6589 -12.4171
-20 -12 -2 17.3167 16.7358
-20 -10 -6 6.7854 -3.0986
-20 -10 -4 -0.4381 0.5068
-20 -10 -2 6.1007 -3.2548
-20 -8 -6 2.3331 2.4130
-20 -8 -4 2.6353 8.4281
-20 -8 -2 18.6612 21.7316
-20 -6 -6 -2.5692 14.1365
-20 -6 -4 -4.6485 -0.7638
-20 -6 -2 -18.2050 14.3958
-20 -4 -6 1.0271 7.4074
-20 -4 -4 25.4210 -5.9434
-20 -4 -2 13.1063 19.4166
-20 -2 -6 5.2831 -20.1974
-20 -2 -4 1.4659 11.2877
-20 -2 -2 9.6142 24.2270
-20 0 -4 55.7916 11.3447
-19 -57 -1 16.4071 -8.3461
-19 -55 -1 0.9346 -11.9135
-19 -53 -3 -16.3154 -24.1960
-19 -53 -1 2.7006 10.8220
-19 -51 -3 8.9512 -6.2197
-19 -51 -1 -9.0030 18.4249
-19 -49 -3 -8.3888 -15.0993
-19 -49 -1 16.1305 7.9560
-19 -47 -3 -0.1883 -9.1600
-19 -47 -1 -2.8689 -1.0161
-19 -45 -5 -6.9687 3.8575
-19 -45 -3 -5.4148 9.6002
-19 -45 -1 9.1726 6.6440
-19 -43 -5 18.3359 7.8616
-19 -43 -3 4.3500 15.0236
-19 -43 -1 7.3160 2.4071
-19 -41 -5 -15.0159 3.3631
-19 -41 -3 7.1244 -6.1612
-19 -41 -1 -5.9301 10.7771
-19 -39 -5 -9.0669 -4.4482
-19 -39 -3 1.8890 -6.0437
-19 -39 -1 17.7690 -4.1371
-19 -37 -5 -2.0436 2.4150
-19 -37 -3 1.7153 15.0282
-19 -37 -1 -9.2567 -3.1730
-19 -35 -5 2.5222 10.0383
-19 -35 -3 2.3001 7.1842
-19 -35 -1 9.7793 5.8824
-19 -33 -5 7.5145 -25.5090
-19 -33 -3 -10.4541 18.1797
-19 -33 -1 3.0733 -6.5715
-19 -31 -5 -25.2930 -21.0926
-19 -31 -3 4.2098 -7.6300
-19 -31 -1 8.5978 6.1819
-19 -29 -7 -7.2884 -13.1505
-19 -29 -5 30.6968 3.3342
-19 -29 -3 -7.7036 18.5290
-19 -29 -1 3.8843 -2.3153
-19 -27 -7 14.9597 37.4984
-19 -27 -5 12.5134 8.5270
-19 -27 -3 21.7474 -7.1320
-19 -27 -1 -0.3618 0.0145
-19 -25 -7 -6.0502 14.3610
-19 -25 -5 2.6725 1.0419
-19 -25 -3 4.6050 19.6893
-19 -25 -1 -2.0563 -4.3420
-19 -23 -7 4.7784 11.0655
-19 -23 -5 -0.2011 -14.0134
-19 -23 -3 -28.1734 15.6167
-19 -23 -1 -0.9336 -6.8012
-19 -21 -7 4.8305 9.7123
-19 -21 -5 3.2276 3.0131
-19 -21 -3 0.1118 2.1113
-19 -21 -1 15.9939 6.3175
-19 -19 -7 23.7717 -14.1696
-19 -19 -5 10.0057 15.2269
-19 -19 -3 5.2833 -4.5792
-19 -19 -1 -9.8136 -13.0119
-19 -17 -5 -2.9022 -3.5771
-19 -17 -3 25.1639 32.5520
-19 -17 -1 -19.6188 15.7575
-19 -15 -5 -9.6654 -2.6239
-19 -15 -3 -14.5599 1.8650
-19 -15 -1 14.0849 -12.1051
-19 -13 -5 3.6211 0.3904
-19 -13 -3 11.2119 -12.2428
-19 -13 -1 -23.2914 23.6816
-19 -11 -5 6.3810 -5.3494
-19 -11 -3 -5.7371 10.9855
-19 -11 -1 20.5823 7.9214
-19 -9 -5 -12.5959 15.9219
-19 -9 -3 -6.2690 1.2821
-19 -9 -1 -20.7334 5.1421
-19 -7 -5 0.7006 4.3719
-19 -7 -3 5.2240 19.0650
-19 -7 -1 1.2420 -3.2869
-19 -5 -5 -7.0319 13.5687
-19 -5 -3 -10.1662 -0.7170
-19 -5 -1 -35.3978 31.9886
-19 -3 -5 28.2526 -12.4943
-19 -3 -3 12.2505 11.5054
-19 -3 -1 3.5257 -11.2468
-19 -1 -5 -2.2443 -23.9475
-19 -1 -3 -0.3831 21.4767
-19 -1 -1 8.3379 2.6180
-18 -56 -2 -2.1575 5.7181
-18 -54 -2 16.2290 -7.1781
-18 -52 -2 -1.6413 15.0526
-18 -50 -4 3.1120 -5.9338
-18 -50 -2 -10.0564 6.3751
-18 -48 -4 -6.6326 -1.3598
-18 -48 -2 8.1354 -2.0308
-18 -46 -4 31.1198 5.0387
-18 -46 -2 -15.6227 -8.1397
-18 -44 -4 6.9570 5.3495
-18 -44 -2 0.8178 -6.0695
-18 -42 -4 35.5924 -10.3882
-18 -42 -2 9.1144 4.8807
-18 -40 -4 -0.6901 -1.4757
-18 -40 -2 -6.2273 -17.0865
-18 -38 -6 -9.6535 1.7887
-18 -38 -4 6.9245 -17.4054
-18 -38 -2 6.7532 -6.3199
-18 -36 -6 12.4898 -9.1690
-18 -36 -4 3.3645 20.0650
-18 -36 -2 -7.1433 -13.9664
-18 -34 -6 -19.8273 19.3723
-18 -34 -4 10.8222 2.1588
-18 -34 -2 -1.5668 -9.4333
-18 -32 -6 14.5823 -18.7532
-18 -32 -4 3.8462 -11.6807
-18 -32 -2 6.3652 -4.3786
-18 -30 -6 -0.1763 -1.7626
-18 -30 -4 -12.5528 14.2863
-18 -30 -2 -5.3689 -10.0031
-18 -28 -6 -0.5429 -0.4062
-18 -28 -4 -14.7428 -10.4373
-18 -28 -2 6.0079 5.4529
-18 -26 -6 11.8308 18.1341
-18 -26 -4 30.0304 18.5421
-18 -26 -2 -4.1309 0.9322
-18 -24 -6 -23.3019 10.6293
-18 -24 -4 14.8198 5.0243
-18 -24 -2 -17.4657 -14.2600
-18 -22 -4 -11.6966 18.9859
-18 -22 -2 1.3354 4.9190
-18 -20 -4 1.6568 1.4881
-18 -20 -2 -5.7479 3.3608
-18 -18 -6 16.5108 -8.9390
-18 -18 -4 32.2977 -0.8117
-18 -18 -2 4.4656 20.2690
-18 -16 -6 -7.8664 28.6192
-18 -16 -4 8.3734 6.4273
-18 -16 -2 -2.3446 3.0567
-18 -14 -6 26.3119 -19.8040
-18 -14 -4 -19.0759 -7.3669
-18 -14 -2 23.7575 18.3541
-18 -12 -6 5.2574 -8.7668
-18 -12 -4 9.1743 -12.5336
-18 -12 -2 1.8327 0.2147
-18 -10 -6 6.4459 -4.6185
-18 -10 -4 -17.7489 0.1109
-18 -10 -2 6.4260 23.0464
-18 -8 -6 4.3732 5.3845
-18 -8 -4 2.3113 -5.6064
-18 -8 -2 10.1344 13.6228
-18 -6 -6 -3.3175 -0.4912
-18 -6 -4 1.8758 12.7780
-18 -6 -2 17.2672 10.7664
-18 -4 -6 22.7828 -3.6986
-18 -4 -4 13.8373 -3.7133
-18 -4 -2 -18.8516 29.4221
-18 -2 -6 2.2564 -10.4599
-18 -2 -4 42.0045 12.2249
-18 -2 -2 10.5599 -1.7205
-18 0 -6 27.8426 -36.5528
-18 0 -2 40.3192 25.7568
-17 -57 -1 -3.8089 -8.9149
-17 -55 -1 11.4655 6.5356
-17 -53 -3 17.1364 -3.7744
-17 -53 -1 -3.5733 -0.3783
-17 -51 -3 -2.9305 -10.3669
-17 -51 -1 3.2520 3.4375
-17 -49 -3 -8.1870 0.8519
-17 -49 -1 -4.8681 10.5373
-17 -47 -3 -14.2078 11.1126
-17 -47 -1 12.2211 0.8479
-17 -45 -5 12.9580 14.9643
-17 -45 -3 5.5365 4.1345
-17 -45 -1 1.7700 5.8431
-17 -43 -5 -12.3310 -2.7883
-17 -43 -3 1.2768 2.1232
-17 -43 -1 -1.4657 7.3679
-17 -41 -5 12.7306 16.4661
-17 -41 -3 13.0906 -5.7464
-17 -41 -1 16.1783 4.1434
-17 -39 -5 -5.1486 -1.1807
-17 -39 -3 -7.4352 -2.8651
-17 -39 -1 -12.5093 9.3902
-17 -37 -5 -7.7499 -6.5862
-17 -37 -3 -7.1368 5.3523
-17 -37 -1 15.9095 -4.7660
-17 -35 -5 2.1336 -10.2837
-17 -35 -3 -9.9787 10.5985
-17 -35 -1 -2.3049 -6.6558
-17 -33 -5 -8.5568 -6.9964
-17 -33 -3 12.1868 0.1588
-17 -33 -1 7.9759 -0.5034
-17 -31 -5 35.3154 -16.5488
-17 -31 -3 -4.5838 10.6359
-17 -31 -1 8.3353 -2.4048
-17 -29 -7 8.3827 15.6880
-17 -29 -5 -23.1479 -3.2521
-17 -29 -3 2.5889 -12.0918
-17 -29 -1 0.2444 4.8602
-17 -27 -7 -16.7544 -6.0618
-17 -27 -5 11.9124 -20.3388
-17 -27 -3 -7.1553 30.7264
-17 -27 -1 14.2474 -1.0039
-17 -25 -7 19.0797 16.7671
-17 -25 -5 7.7375 -14.0199
-17 -25 -3 4.1675 5.4664
-17 -25 -1 3.9787 3.5792
-17 -23 -7 6.4258 7.3738
-17 -23 -5 11.5571 6.8030
-17 -23 -3 6.4048 -1.4508
-17 -23 -1 12.1532 11.9044
-17 -21 -7 19.1269 -17.4687
-17 -21 -5 4.8011 10.3423
-17 -21 -3 -20.0630 22.5197
-17 -21 -1 3.7082 4.4170
-17 -19 -5 -11.3395 -3.2651
-17 -19 -3 24.6525 8.8730
-17 -19 -1 8.7354 21.4156
-17 -17 -5 10.5733 13.0139
-17 -17 -3 8.0363 7.5073
-17 -17 -1 9.4743 2.7896
-17 -15 -5 2.8533 11.8445
-17 -15 -3 17.2416 2.4074
-17 -15 -1 -16.8286 39.4130
-17 -13 -5 -5.7343 10.2584
-17 -13 -3 -12.4301 6.7818
-17 -13 -1 14.4431 -3.5748
-17 -11 -5 -10.4584 12.4115
-17 -11 -3 2.6687 -6.0516
-17 -11 -1 -20.3911 18.4236
-17 -9 -5 1.0131 0.8398
-17 -9 -3 -1.7159 8.6475
-17 -9 -1 -2.5638 21.6075
-17 -7 -5 -8.5733 19.2844
-17 -7 -3 -4.7255 -6.0049
-17 -7 -1 -21.8697 19.6164
-17 -5 -5 6.7079 -4.5280
-17 -5 -3 17.7902 16.0811
-17 -5 -1 -18.3998 -26.4792
-17 -3 -5 15.7482 2.1026
-17 -3 -3 -12.9522 7.4849
-17 -3 -1 -22.4433 28.4854
-17 -1 -5 24.5907 -10.5793
-17 -1 -3 15.1141 -10.8056
-17 -1 -1 7.1116 -4.1173
-16 -56 -2 -5.5060 9.1669
-16 -54 -2 4.1426 13.2391
-16 -52 -2 5.9327 2.9046
-16 -50 -4 4.9144 8.5820
-16 -50 -2 -0.5797 -5.7040
-16 -48 -4 28.2157 7.7232
-16 -48 -2 -19.2029 -0.2597
-16 -46 -4 4.8903 3.5139
-16 -46 -2 0.4131 3.9965
-16 -44 -4 45.2121 3.6994
-16 -44 -2 -7.2489 0.0180
-16 -42 -4 -11.7629 -7.2394
-16 -42 -2 10.2564 -17.1159
-16 -40 -6 0.6019 15.6562
-16 -40 -4 30.8810 1.1701
-16 -40 -2 9.5901 -5.5171
-16 -38 -6 10.9973 2.7820
-16 -38 -4 2.5408 11.2722
-16 -38 -2 -18.6815 -8.1547
-16 -36 -6 -18.6003 0.8486
-16 -36 -4 -2.6874 3.2498
-16 -36 -2 -3.1309 -9.5440
-16 -34 -6 -0.9874 -9.9176
-16 -34 -4 -0.6255 -3.8136
-16 -34 -2 -3.5463 -8.6316
-16 -32 -6 -12.7798 13.5478
-16 -32 -4 3.6403 8.9497
-16 -32 -2 3.4073 -7.5574
-16 -30 -6 28.1675 -6.6720
-16 -30 -4 0.8405 -9.1759
-16 -30 -2 5.5179 -1.9292
-16 -28 -6 -15.8318 2.8281
-16 -28 -4 8.4947 10.5124
-16 -28 -2 -14.9612 -1.8251
-16 -26 -6 -28.2722 -4.7200
-16 -26 -4 -9.0976 -15.8664
-16 -26 -2 2.5284 2.8691
-16 -24 -4 20.9052 11.7821
-16 -24 -2 3.5812 2.5932
-16 -22 -4 22.8516 10.5109
-16 -22 -2 -3.9678 -25.6532
-16 -20 -6 14.0255 -3.6965
-16 -20 -4 -3.1257 5.2343
-16 -20 -2 8.5913 32.5624
-16 -18 -6 -18.6307 11.0817
-16 -18 -4 12.9248 -4.1732
-16 -18 -2 4.6835 0.1301
-16 -16 -6 31.2854 -29.4813
-16 -16 -4 13.2535 1.8994
-16 -16 -2 19.4822 17.3230
-16 -14 -6 -1.0133 11.1858
-16 -14 -4 4.5717 -4.9929
-16 -14 -2 7.4573 3.6726
-16 -12 -6 12.3730 -5.5910
-16 -12 -4 -25.1243 3.6736
-16 -12 -2 6.0061 18.0411
-16 -10 -6 -6.4918 1.0940
-16 -10 -4 10.3719 -13.4480
-16 -10 -2 16.4492 17.5726
-16 -8 -6 -1.2735 3.9193
-16 -8 -4 -11.0694 6.7298
-16 -8 -2 -4.5732 6.7115
-16 -6 -6 18.8488 1.4744
-16 -6 -4 15.9665 -18.7956
-16 -6 -2 -0.7349 25.8965
-16 -4 -6 -1.5906 -15.3575
-16 -4 -4 17.4029 28.7476
-16 -4 -2 15.3931 -11.1281
-16 -2 -6 32.7754 -11.3779
-16 -2 -4 11.0163 -0.0735
-16 -2 -2 -1.6286 12.1028
-16 0 -4 35.2441 7.0062
-15 -57 -1 0.2208 -8.2430
-15 -55 -3 -7.9731 -2.4569
-15 -55 -1 -10.9456 -2.0227
-15 -53 -3 7.8928 3.7328
-15 -53 -1 -5.3723 5.3412
-15 -51 -3 -5.0151 2.9045
-15 -51 -1 2.3370 -5.7687
-15 -49 -3 -11.2566 9.0121
-15 -49 -1 2.9013 -8.0532
-15 -47 -5 13.1976 10.3947
-15 -47 -3 2.2873 12.8610
-15 -47 -1 -7.1201 5.9179
-15 -45 -5 3.9276 -3.4158
-15 -45 -3 -9.0253 21.1798
-15 -45 -1 -2.2153 10.2895
-15 -43 -5 8.7710 23.0089
-15 -43 -3 9.4536 -19.0422
-15 -43 -1 3.6864 14.8648
-15 -41 -5 -12.4946 -11.5221
-15 -41 -3 -8.4094 -11.8287
-15 -41 -1 -5.5797 4.8816
-15 -39 -5 8.1637 18.1161
-15 -39 -3 10.4715 5.3626
-15 -39 -1 5.3377 -6.8216
-15 -37 -5 10.7011 3.1084
-15 -37 -3 -20.6431 3.9449
-15 -37 -1 -9.9642 3.4363
-15 -35 -5 -21.3573 -17.0726
-15 -35 -3 4.9937 3.0261
-15 -35 -1 10.5852 -6.0034
-15 -33 -5 4.2675 -16.5554
-15 -33 -3 -8.9935 -6.6626
-15 -33 -1 -0.3237 2.0681
-15 -31 -7 -4.1102 0.9124
-15 -31 -5 -8.0185 0.2974
-15 -31 -3 6.3904 0.0972
-15 -31 -1 1.8427 -7.0925
-15 -29 -7 5.9237 5.9216
-15 -29 -5 27.9358 -17.1215
-15 -29 -3 4.3592 15.8567
-15 -29 -1 6.3984 -2.5988
-15 -27 -7 4.5214 14.8916
-15 -27 -5 -22.1904 -17.8462
-15 -27 -3 9.0776 -9.0954
-15 -27 -1 1.2364 11.0934
-15 -25 -7 -7.7915 -10.0557
-15 -25 -5 -3.2978 -26.6929
-15 -25 -3 -13.6893 22.0983
-15 -25 -1 25.8686 11.8554
-15 -23 -7 21.3153 -20.2424
-15 -23 -5 13.1383 1.1305
-15 -23 -3 -15.9673 5.5823
-15 -23 -1 18.3913 14.2713
-15 -21 -5 8.1887 17.3574
-15 -21 -3 37.2268 -18.4995
-15 -21 -1 7.6504 14.7414
-15 -19 -5 7.3383 9.6189
-15 -19 -3 -1.4074 36.4206
-15 -19 -1 6.9002 4.8777
-15 -17 -5 -4.8705 2.7030
-15 -17 -3 6.8822 -4.3116
-15 -17 -1 20.4437 30.1703
-15 -15 -5 7.7364 14.4391
-15 -15 -3 1.6046 3.1458
-15 -15 -1 16.2755 7.8587
-15 -13 -5 -6.1619 11.5605
-15 -13 -3 5.8082 11.1881
-15 -13 -1 -3.6514 40.3742
-15 -11 -5 -7.7612 8.0513
-15 -11 -3 -4.2404 9.9925
-15 -11 -1 -5.1023 14.2352
-15 -9 -5 -16.6655 14.1569
-15 -9 -3 -1.3865 6.8799
-15 -9 -1 -5.2505 24.3294
-15 -7 -5 4.7318 -6.6011
-15 -7 -3 8.7745 -0.4483
-15 -7 -1 -31.6585 23.5941
-15 -5 -5 4.3147 7.5687
-15 -5 -3 -13.1927 2.5647
-15 -5 -1 -9.1234 37.5836
-15 -3 -5 9.7662 -11.7111
-15 -3 -3 10.8512 1.5753
-15 -3 -1 -7.9513 -26.5772
-15 -1 -5 3.7501 -1.3950
-15 -1 -3 7.2738 0.4487
-15 -1 -1 -21.3621 29.4577
-14 -56 -2 14.1343 0.0915
-14 -54 -2 -10.6169 8.2720
-14 -52 -4 7.7888 9.5354
-14 -52 -2 -2.8557 3.7467
-14 -50 -4 20.3784 6.2588
-14 -50 -2 -7.4934 -10.6673
-14 -48 -4 14.3073 10.9932
-14 -48 -2 -5.7876 1.2640
-14 -46 -4 47.2855 19.1405
-14 -46 -2 -12.4025 -0.9203
-14 -44 -4 -7.3573 -4.1012
-14 -44 -2 17.4371 8.0107
-14 -42 -4 27.4945 1.6390
-14 -42 -2 -6.3259 -9.0319
-14 -40 -6 10.6526 -6.2620
-14 -40 -4 -6.6287 -3.7321
-14 -40 -2 -4.3454 -7.8367
-14 -38 -6 -12.4249 18.4280
-14 -38 -4 16.1474 27.0659
-14 -38 -2 -4.6422 -12.3728
-14 -36 -6 6.3820 15.5588
-14 -36 -4 8.3157 -1.4334
-14 -36 -2 -10.4434 6.1486
-14 -34 -6 -13.8695 1.0457
-14 -34 -4 -9.4520 -0.8077
-14 -34 -2 6.8883 -2.2469
-14 -32 -6 9.1783 -11.5872
-14 -32 -4 -6.6838 -9.6114
-14 -32 -2 -13.7113 -8.6435
-14 -30 -6 -18.5494 13.9233
-14 -30 -4 -0.0939 0.1969
-14 -30 -2 2.2669 5.6179
-14 -28 -6 1.6956 1.3965
-14 -28 -4 11.0749 -18.8960
-14 -28 -2 4.8102 2.5422
-14 -26 -6 -18.6888 -1.4312
-14 -26 -4 29.1238 -1.4705
-14 -26 -2 -7.3384 -5.8404
-14 -24 -4 -20.0444 1.3750
-14 -24 -2 8.9006 -17.6526
-14 -22 -6 13.5876 -19.4610
-14 -22 -4 -6.2589 -10.6770
-14 -22 -2 9.2387 23.7249
-14 -20 -6 -7.4623 -2.8855
-14 -20 -4 56.6926 3.1659
-14 -20 -2 -1.4807 -26.4388
-14 -18 -6 19.6068 -17.8073
-14 -18 -4 2.5874 12.7815
-14 -18 -2 10.9287 9.5417
-14 -16 -6 -10.7047 -0.6399
-14 -16 -4 7.5352 -6.7440
-14 -16 -2 10.1391 -9.1584
-14 -14 -6 17.0914 -29.7837
-14 -14 -4 3.4744 1.5801
-14 -14 -2 1.0496 11.3102
-14 -12 -6 -18.9712 12.1305
-14 -12 -4 15.9780 -4.0388
-14 -12 -2 10.7959 21.3145
-14 -10 -6 -1.4034 14.1718
-14 -10 -4 -1.5549 12.0008
-14 -10 -2 -7.2177 0.2832
-14 -8 -6 2.1505 3.9826
-14 -8 -4 16.7667 -16.9321
-14 -8 -2 24.9368 25.1323
-14 -6 -6 -0.5148 0.6766
-14 -6 -4 8.0749 17.1050
-14 -6 -2 -19.4504 -4.9795
-14 -4 -6 15.2166 -2.2095
-14 -4 -4 14.7267 -8.9508
-14 -4 -2 -11.9159 4.1479
-14 -2 -6 -3.7789 -14.4280
-14 -2 -4 18.2394 20.5186
-14 -2 -2 31.0762 -6.9274
-14 0 -6 22.7095 8.1820
-14 0 -2 -29.9709 -12.2280
-13 -59 -1 -13.7523 -2.0518
-13 -57 -1 1.2395 -9.9268
-13 -55 -3 15.8526 5.6741
-13 -55 -1 -8.1689 -2.7925
-13 -53 -3 -17.8985 -0.1921
-13 -53 -1 -7.2346 -8.2894
-13 -51 -3 -8.7634 13.5577
-13 -51 -1 -12.1426 -4.9984
-13 -49 -3 -6.2043 13.8314
-13 -49 -1 -1.4420 -9.8373
-13 -47 -5 4.0202 9.9122
-13 -47 -3 -6.2454 21.7721
-13 -47 -1 -10.3226 7.6694
-13 -45 -5 10.2354 22.3810
-13 -45 -3 15.9798 -12.6206
-13 -45 -1 -12.0364 12.2540
-13 -43 -5 3.6667 -2.7191
-13 -43 -3 -6.0260 2.4986
-13 -43 -1 -1.9024 10.8808
-13 -41 -5 1.0587 13.2840
-13 -41 -3 2.3749 -12.0224
-13 -41 -1 -9.1503 4.9930
-13 -39 -5 -1.8704 -9.8962
-13 -39 -3 -20.9988 -1.1107
-13 -39 -1 -5.9013 2.2264
-13 -37 -5 -15.1951 15.3304
-13 -37 -3 17.6291 6.9789
-13 -37 -1 -2.3227 -11.1226
-13 -35 -5 14.2701 0.9511
-13 -35 -3 -6.5032 -6.2402
-13 -35 -1 -7.2728 11.1462
-13 -33 -5 -11.7669 -13.2911
-13 -33 -3 4.0788 6.0946
-13 -33 -1 5.0234 -11.1820
-13 -31 -7 4.3105 -1.6596
-13 -31 -5 -4.9484 -9.5709
-13 -31 -3 -5.3807 -11.0235
-13 -31 -1 -7.4276 5.2192
-13 -29 -7 -11.5924 7.2397
-13 -29 -5 -20.5208 -14.1597
-13 -29 -3 8.8011 7.4561
-13 -29 -1 6.4087 -3.8273
-13 -27 -7 11.2932 9.7185
-13 -27 -5 10.4870 -24.7918
-13 -27 -3 2.9219 23.6122
-13 -27 -1 14.0156 7.8386
-13 -25 -7 6.5310 -4.8494
-13 -25 -5 5.2524 5.6535
-13 -25 -3 -4.1589 -26.5129
-13 -25 -1 11.8092 17.8986
-13 -23 -7 -6.9387 -11.3470
-13 -23 -5 -13.9669 2.1713
-13 -23 -3 -0.3359 2.2313
-13 -23 -1 16.9755 3.9087
-13 -21 -5 2.0431 -12.3513
-13 -21 -3 -9.7761 22.8086
-13 -21 -1 20.0711 2.1034
-13 -19 -5 21.1054 13.2564
-13 -19 -3 23.1716 -20.3038
-13 -19 -1 22.2959 10.0920
-13 -17 -5 9.5131 11.3448
-13 -17 -3 0.0543 22.1343
-13 -17 -1 7.4238 -2.2073
-13 -15 -5 -7.3123 -1.4328
-13 -15 -3 -14.1050 9.7647
-13 -15 -1 20.4877 25.2577
-13 -13 -5 -7.3681 -4.2925
-13 -13 -3 1.2393 9.5982
-13 -13 -1 6.3091 6.8122
-13 -11 -5 -8.3633 0.1641
-13 -11 -3 -2.9074 38.3906
-13 -11 -1 19.4324 57.3177
-13 -9 -5 -0.4078 0.1434
-13 -9 -3 10.7211 -6.2283
-13 -9 -1 -21.0991 49.3606
-13 -7 -5 -12.5299 7.9349
-13 -7 -3 -2.8947 29.2142
-13 -7 -1 1.5261 34.2448
-13 -5 -5 14.0831 -14.7153
-13 -5 -3 -8.0712 -1.5992
-13 -5 -1 -31.2513 30.7609
-13 -3 -5 1.1058 2.5083
-13 -3 -3 0.5605 -12.4114
-13 -3 -1 5.7314 76.8626
-13 -1 -5 -6.5739 -7.8907
-13 -1 -3 5.0770 -1.2091
-13 -1 -1 -26.4296 -32.6800
-12 -58 -2 4.7440 9.2142
-12 -56 -2 -1.7027 0.2695
-12 -54 -2 15.1272 1.2854
-12 -52 -4 8.0385 8.2985
-12 -52 -2 -15.5847 -14.2699
-12 -50 -4 9.7393 7.8654
-12 -50 -2 -9.9465 6.3202
-12 -48 -4 29.8325 14.8753
-12 -48 -2 -6.3346 -4.4341
-12 -46 -4 1.4951 0.8830
-12 -46 -2 9.3742 17.8394
-12 -44 -4 26.9635 10.6748
-12 -44 -2 -4.8156 -20.3794
-12 -42 -4 4.5079 -5.4911
-12 -42 -2 15.5323 10.3945
-12 -40 -6 -17.0184 13.8563
-12 -40 -4 14.5115 16.9125
-12 -40 -2 -25.6735 -8.2292
-12 -38 -6 8.5876 1.9286
-12 -38 -4 2.0209 -5.8431
-12 -38 -2 -6.0230 8.9644
-12 -36 -6 -20.2620 20.2738
-12 -36 -4 -0.4178 15.3097
-12 -36 -2 5.5116 -8.2502
-12 -34 -6 16.6372 9.4378
-12 -34 -4 15.8676 -7.5995
-12 -34 -2 -9.9148 5.8010
-12 -32 -6 1.4547 7.7070
-12 -32 -4 -14.7118 -7.2088
-12 -32 -2 10.2380 8.4832
-12 -30 -6 -10.7242 -6.2315
-12 -30 -4 5.7778 -18.4257
-12 -30 -2 -22.8119 -5.4885
-12 -28 -6 -34.1606 12.3397
-12 -28 -4 7.7658 -13.5460
-12 -28 -2 12.5324 11.8617
-12 -26 -6 10.8893 -11.2591
-12 -26 -4 -7.9194 1.3280
-12 -26 -2 15.5999 -6.4384
-12 -24 -4 15.9386 -14.5542
-12 -24 -2 -5.1173 -7.7738
-12 -22 -6 -16.7500 -16.7331
-12 -22 -4 11.7561 3.1905
-12 -22 -2 1.4215 -17.9902
-12 -20 -6 3.8865 -34.5003
-12 -20 -4 -10.0647 -7.4561
-12 -20 -2 6.6150 5.3045
-12 -18 -6 -1.9138 -13.2291
-12 -18 -4 61.8604 5.5368
-12 -18 -2 0.0699 -30.5001
-12 -16 -6 8.6352 -21.8477
-12 -16 -4 7.2054 11.8402
-12 -16 -2 -6.8171 -12.8266
-12 -14 -6 -27.3061 13.9324
-12 -14 -4 18.9769 -1.9937
-12 -14 -2 -7.8516 -0.3287
-12 -12 -6 -6.7246 -10.2228
-12 -12 -4 25.1158 5.9295
-12 -12 -2 -2.2069 -6.6671
-12 -10 -6 -11.0734 8.2446
-12 -10 -4 20.2378 -1.3621
-12 -10 -2 24.0184 30.0914
-12 -8 -6 -5.0342 18.6240
-12 -8 -4 21.3225 10.1822
-12 -8 -2 -24.0830 4.8217
-12 -6 -6 -0.7447 -0.4593
-12 -6 -4 13.3797 6.1769
-12 -6 -2 13.9244 4.6261
-12 -4 -6 -2.8148 -3.0010
-12 -4 -4 9.3602 16.9120
-12 -4 -2 11.3157 3.9274
-12 -2 -6 1.0955 7.5461
-12 -2 -4 7.8228 -13.1411
-12 -2 -2 -42.5436 -16.4552
-12 0 -4 8.7937 20.9924
-11 -59 -1 0.5990 -5.2777
-11 -57 -1 -16.4030 5.7240
-11 -55 -3 -4.1113 -4.3832
-11 -55 -1 -8.9939 -6.0973
-11 -53 -3 -0.1216 8.6464
-11 -53 -1 -6.6941 -11.0538
-11 -51 -3 -17.2498 5.3343
-11 -51 -1 -3.1111 -13.7304
-11 -49 -3 2.1211 18.1340
-11 -49 -1 -23.0576 9.7923
-11 -47 -5 10.3451 10.5149
-11 -47 -3 5.0815 3.0447
-11 -47 -1 -13.7080 3.0312
-11 -45 -5 -2.6029 13.1802
-11 -45 -3 -6.1208 -1.6344
-11 -45 -1 -4.6448 17.2965
-11 -43 -5 -4.0329 1.5848
-11 -43 -3 14.0758 -23.6496
-11 -43 -1 -17.1887 3.4554
-11 -41 -5 4.7479 0.4718
-11 -41 -3 -2.0235 12.9633
-11 -41 -1 -1.2512 2.6487
-11 -39 -5 -10.6774 13.1530
-11 -39 -3 -0.0709 4.8848
-11 -39 -1 -13.1799 -1.4595
-11 -37 -5 -2.9590 -11.2801
-11 -37 -3 -7.9240 -5.7041
-11 -37 -1 -1.3732 16.5496
-11 -35 -5 -19.1217 7.9755
-11 -35 -3 15.8175 1.1425
-11 -35 -1 -3.5183 -10.0161
-11 -33 -7 2.7376 -6.3296
-11 -33 -5 17.6602 8.8558
-11 -33 -3 -2.9796 -7.9176
-11 -33 -1 -12.6407 5.2821
-11 -31 -7 5.3770 8.8235
-11 -31 -5 -9.1033 -12.8880
-11 -31 -3 4.6217 18.6615
-11 -31 -1 7.7879 -18.5367
-11 -29 -7 8.6898 9.5587
-11 -29 -5 -14.9521 -12.9259
-11 -29 -3 4.3012 -3.4543
-11 -29 -1 -2.6413 17.8728
-11 -27 -7 -11.3691 0.2004
-11 -27 -5 -8.6290 3.1883
-11 -27 -3 -10.3545 -6.7779
-11 -27 -1 17.3556 9.2109
-11 -25 -7 12.0681 -8.3065
-11 -25 -5 -2.0938 2.4317
-11 -25 -3 -11.6741 20.4878
-11 -25 -1 15.9741 -1.8931
-11 -23 -5 13.0825 6.1907
-11 -23 -3 10.4913 -26.8229
-11 -23 -1 0.0315 0.0649
-11 -21 -5 -0.2272 6.0154
-11 -21 -3 2.1194 2.3914
-11 -21 -1 13.1619 -8.0549
-11 -19 -5 -5.3626 -18.5796
-11 -19 -3 -15.1327 19.5433
-11 -19 -1 19.0423 -15.8409
-11 -17 -5 15.9061 -0.4256
-11 -17 -3 -9.5507 -5.3339
-11 -17 -1 21.6808 7.8741
-11 -15 -5 -8.4278 -5.8495
-11 -15 -3 7.1545 18.9347
-11 -15 -1 -3.4164 -13.7878
-11 -13 -5 -0.2216 -12.6193
-11 -13 -3 -22.9668 36.5809
-11 -13 -1 16.5970 45.6808
-11 -11 -5 -3.9223 -10.7293
-11 -11 -3 14.5813 -9.5699
-11 -11 -1 6.8933 26.7328
-11 -9 -5 -6.4854 -4.3372
-11 -9 -3 2.4618 59.8748
-11 -9 -1 16.7388 72.9098
-11 -7 -5 10.9134 -5.7478
-11 -7 -3 -6.8290 -8.1108
-11 -7 -1 -10.7468 89.7053
-11 -5 -5 -4.7591 10.9314
-11 -5 -3 9.9042 20.1544
-11 -5 -1 18.6773 71.6843
-11 -3 -5 4.6720 -13.4938
-11 -3 -3 0.4310 1.7484
-11 -3 -1 -33.2466 24.2988
-11 -1 -5 -5.7015 12.3846
-11 -1 -3 -5.7659 -15.2502
-11 -1 -1 3.1720 80.9428
-10 -58 -2 2.9395 -4.2629
-10 -56 -2 9.7672 12.0642
-10 -54 -2 -10.2770 -13.7825
-10 -52 -4 -2.7480 -0.5896
-10 -52 -2 9.8970 1.2596
-10 -50 -4 11.8915 11.8553
-10 -50 -2 -7.9515 -8.0590
-10 -48 -4 7.1375 2.1311
-10 -48 -2 1.4662 20.3486
-10 -46 -4 9.1785 7.2657
-10 -46 -2 4.7266 -14.3644
-10 -44 -4 -0.3897 -15.5829
-10 -44 -2 12.1525 16.5957
-10 -42 -6 -13.4730 0.2310
-10 -42 -4 22.1121 5.8519
-10 -42 -2 -26.4787 -23.2714
-10 -40 -6 5.0989 13.8657
-10 -40 -4 20.3082 8.0340
-10 -40 -2 8.7810 9.6112
-10 -38 -6 -20.4141 26.8058
-10 -38 -4 1.8243 8.1348
-10 -38 -2 -9.8829 2.8916
-10 -36 -6 16.2944 -12.1489
-10 -36 -4 8.8470 -14.3429
-10 -36 -2 -0.6987 12.1215
-10 -34 -6 -7.1805 11.3191
-10 -34 -4 -12.0971 3.7313
-10 -34 -2 2.7441 -8.9714
-10 -32 -6 6.5411 4.5567
-10 -32 -4 24.5191 -9.4059
-10 -32 -2 -21.0779 0.0603
-10 -30 -6 -6.2923 21.6421
-10 -30 -4 -6.7991 -15.2993
-10 -30 -2 29.1263 23.4414
-10 -28 -6 -5.3652 -11.2013
-10 -28 -4 7.5748 0.6359
-10 -28 -2 -8.0436 -9.6080
-10 -26 -6 -7.5421 1.2795
-10 -26 -4 -13.7494 -7.3644
-10 -26 -2 11.0101 1.5299
-10 -24 -6 5.6234 -19.9802
-10 -24 -4 -12.3333 2.8573
-10 -24 -2 16.2843 12.2268
-10 -22 -6 7.5937 -18.5650
-10 -22 -4 30.2406 -13.0966
-10 -22 -2 -4.1910 -11.8375
-10 -20 -6 -11.8177 -2.8142
-10 -20 -4 43.5460 16.2102
-10 -20 -2 -1.3441 -26.3709
-10 -18 -8 -20.8433 12.8247
-10 -18 -6 -5.3225 -34.3727
-10 -18 -4 -17.4146 -1.8612
-10 -18 -2 -2.3028 -19.5629
-10 -16 -6 -19.0874 -0.9222
-10 -16 -4 48.3934 -0.0105
-10 -16 -2 -20.3545 -9.7018
-10 -14 -6 -17.4761 -11.6630
-10 -14 -4 29.5674 15.1319
-10 -14 -2 -4.3999 -22.3805
-10 -12 -6 -16.5439 23.4769
-10 -12 -4 23.5871 6.1024
-10 -12 -2 -8.9540 -1.3674
-10 -10 -6 -6.6427 3.0930
-10 -10 -4 37.1049 -6.1166
-10 -10 -2 4.1430 -4.3578
-10 -8 -6 -4.5171 -4.0581
-10 -8 -4 5.9270 16.6811
-10 -8 -2 13.9692 18.7961
-10 -6 -6 -11.1176 9.0648
-10 -6 -4 16.2601 10.5354
-10 -6 -2 -3.4239 25.9208
-10 -4 -6 -8.2871 -2.6025
-10 -4 -4 11.3616 2.5765
-10 -4 -2 1.2773 -6.5738
-10 -2 -6 5.7600 6.1395
-10 -2 -4 1.1572 15.4016
-10 -2 -2 8.8774 4.0497
-10 0 -6 -8.7718 7.5675
-10 0 -2 -79.9688 -14.6344
-9 -59 -1 -3.8162 -1.0135
-9 -57 -1 -3.7401 3.1752
-9 -55 -3 -13.3299 2.1798
-9 -55 -1 -9.0526 -1.6237
-9 -53 -3 -8.8748 -0.8901
-9 -53 -1 -10.7042 -7.4062
-9 -51 -3 9.8647 9.6133
-9 -51 -1 -9.6500 -0.5227
-9 -49 -3 -6.6725 7.5504
-9 -49 -1 -10.7319 2.1816
-9 -47 -5 -6.9589 19.9074
-9 -47 -3 11.5538 -9.3260
-9 -47 -1 -11.7805 23.2982
-9 -45 -5 -1.5356 -11.0141
-9 -45 -3 7.8609 -10.1977
-9 -45 -1 -11.3838 0.8600
-9 -43 -5 -16.5896 2.3055
-9 -43 -3 -5.1727 6.6164
-9 -43 -1 1.7253 8.5918
-9 -41 -5 -9.8161 -9.7440
-9 -41 -3 2.4565 -6.9488
-9 -41 -1 -14.2215 -0.9747
-9 -39 -5 -6.2120 14.4600
-9 -39 -3 13.6468 5.5737
-9 -39 -1 0.9242 11.8110
-9 -37 -5 -7.0011 10.6548
-9 -37 -3 7.9132 2.2953
-9 -37 -1 -5.1998 3.0939
-9 -35 -5 10.7576 -11.4587
-9 -35 -3 -13.1468 -5.1164
-9 -35 -1 -2.8929 9.3463
-9 -33 -7 1.8587 1.6044
-9 -33 -5 -16.9405 6.6059
-9 -33 -3 5.4999 0.6114
-9 -33 -1 -1.2086 -21.5403
-9 -31 -7 2.9119 4.1521
-9 -31 -5 9.5863 6.9916
-9 -31 -3 5.8185 -2.7860
-9 -31 -1 -10.4962 9.7040
-9 -29 -7 8.8544 20.1394
-9 -29 -5 2.5851 2.6236
-9 -29 -3 -8.9745 19.1798
-9 -29 -1 15.4720 -4.4666
-9 -27 -7 9.2598 -11.3071
-9 -27 -5 -2.5921 14.2107
-9 -27 -3 -12.8236 -6.5783
-9 -27 -1 6.7108 10.4949
-9 -25 -7 -14.9777 0.6102
-9 -25 -5 -6.1648 17.4265
-9 -25 -3 0.1969 -23.8619
-9 -25 -1 -3.0435 2.1669
-9 -23 -5 -7.9161 -8.8238
-9 -23 -3 -12.5990 33.0904
-9 -23 -1 11.0805 -8.3800
-9 -21 -5 16.8917 -0.6627
-9 -21 -3 13.7657 -17.1226
-9 -21 -1 -3.7189 -14.7978
-9 -19 -5 4.4202 7.1463
-9 -19 -3 -12.2668 -2.3338
-9 -19 -1 2.1648 -5.7508
-9 -17 -5 -27.7120 -20.8722
-9 -17 -3 -4.1488 11.3000
-9 -17 -1 -4.9898 -32.5889
-9 -15 -5 8.2206 -21.6041
-9 -15 -3 -29.2212 16.8784
-9 -15 -1 6.4792 26.1252
-9 -13 -5 -4.3074 -6.0342
-9 -13 -3 21.1349 3.7906
-9 -13 -1 12.7748 -5.2913
-9 -11 -5 4.9374 -3.4935
-9 -11 -3 -3.4443 37.6330
-9 -11 -1 -2.0835 78.1420
-9 -9 -5 5.4228 -1.9293
-9 -9 -3 8.1718 -21.2200
-9 -9 -1 18.3819 50.4499
-9 -7 -5 4.2099 4.0504
-9 -7 -3 10.2259 53.0327
-9 -7 -1 17.3354 85.4573
-9 -5 -5 5.6708 -9.2130
-9 -5 -3 3.4559 -8.4517
-9 -5 -1 18.5406 114.9486
-9 -3 -5 -5.7496 25.3510
-9 -3 -3 11.8393 5.9107
-9 -3 -1 32.9437 67.8821
-9 -1 -5 -6.0319 -5.8224
-9 -1 -3 -9.9146 21.4266
-9 -1 -1 -72.9153 25.6019
-8 -58 -2 22.7309 4.6513
-8 -56 -2 3.4608 -9.7999
-8 -54 -2 4.3946 6.6106
-8 -52 -4 -0.6922 6.0024
-8 -52 -2 -7.1932 -7.8983
-8 -50 -4 0.7055 -3.8949
-8 -50 -2 13.1738 14.1384
-8 -48 -4 -7.4110 6.3934
-8 -48 -2 6.3594 -6.5955
-8 -46 -4 6.5596 -12.8224
-8 -46 -2 6.8947 6.7140
-8 -44 -4 17.7420 -4.1686
-8 -44 -2 -8.7506 -18.0566
-8 -42 -6 -23.6510 10.3896
-8 -42 -4 6.2005 -3.8824
-8 -42 -2 0.6704 10.7237
-8 -40 -6 -13.1706 9.0235
-8 -40 -4 10.0494 -3.9408
-8 -40 -2 -19.9813 -5.8900
-8 -38 -6 4.0415 5.9106
-8 -38 -4 17.5858 5.3100
-8 -38 -2 14.2835 -0.5668
-8 -36 -6 -4.1032 15.5479
-8 -36 -4 1.6178 0.1928
-8 -36 -2 1.2887 -0.9430
-8 -34 -6 20.9333 -26.9864
-8 -34 -4 6.4605 -13.7118
-8 -34 -2 -12.2583 4.1196
-8 -32 -6 -15.3405 16.6835
-8 -32 -4 -8.5313 -8.2020
-8 -32 -2 13.1612 0.8681
-8 -30 -6 -2.9214 4.0160
-8 -30 -4 27.6440 5.8415
-8 -30 -2 -7.4004 -3.7829
-8 -28 -6 19.7205 15.1560
-8 -28 -4 -28.3225 5.5970
-8 -28 -2 40.3781 20.2879
-8 -26 -6 9.6288 -19.6737
-8 -26 -4 2.8416 0.4703
-8 -26 -2 4.6026 6.9945
-8 -24 -6 -4.9539 -5.6638
-8 -24 -4 8.4090 -5.0821
-8 -24 -2 10.4230 7.4496
-8 -22 -6 -0.9190 -9.4477
-8 -22 -4 2.1972 12.7330
-8 -22 -2 21.4823 18.4041
-8 -20 -6 9.2350 -18.7041
-8 -20 -4 18.1774 -0.7765
-8 -20 -2 6.3984 -11.3621
-8 -18 -6 -19.5681 19.1095
-8 -18 -4 35.5761 6.6915
-8 -18 -2 -16.1098 -11.1586
-8 -16 -6 -24.8882 -17.3650
-8 -16 -4 -6.0030 5.0116
-8 -16 -2 -4.3032 -26.6042
-8 -14 -6 -11.7525 8.5004
-8 -14 -4 26.9775 -0.3114
-8 -14 -2 -23.2361 -9.4734
-8 -12 -6 -8.3755 -8.4098
-8 -12 -4 27.8231 0.8503
-8 -12 -2 23.7877 -9.2278
-8 -10 -6 -5.0864 16.5297
-8 -10 -4 2.8544 10.5701
-8 -10 -2 -24.6478 -3.9428
-8 -8 -6 -4.4771 6.2241
-8 -8 -4 25.2469 -4.6998
-8 -8 -2 18.3847 4.4344
-8 -6 -6 -1.9491 -14.4225
-8 -6 -4 1.9121 5.3194
-8 -6 -2 21.6317 9.7483
-8 -4 -6 -0.6676 7.2911
-8 -4 -4 1.9155 -0.1733
-8 -4 -2 0.0416 26.2131
-8 -2 -6 -8.5560 -0.3965
-8 -2 -4 6.8493 6.2038
-8 -2 -2 -45.2483 2.9554
-8 0 -4 -3.8255 20.6428
-7 -59 -1 -6.3537 15.1585
-7 -57 -1 -5.1880 -6.0145
-7 -55 -3 8.4591 -3.4141
-7 -55 -1 -3.0689 -2.2284
-7 -53 -3 -3.0587 3.7560
-7 -53 -1 0.2019 1.9546
-7 -51 -3 -1.9210 6.3694
-7 -51 -1 -15.4141 10.8765
-7 -49 -5 -5.1180 14.6108
-7 -49 -3 21.1434 -7.2712
-7 -49 -1 -2.0052 15.5533
-7 -47 -5 -7.6251 1.4976
-7 -47 -3 -11.7218 -0.5854
-7 -47 -1 -3.4346 2.6541
-7 -45 -5 -22.4989 6.3372
-7 -45 -3 18.2424 -11.0725
-7 -45 -1 5.0065 15.5150
-7 -43 -5 -2.3942 -22.9382
-7 -43 -3 7.0266 3.0865
-7 -43 -1 -2.0863 -0.9931
-7 -41 -5 -30.4781 21.3558
-7 -41 -3 0.5507 10.1686
-7 -41 -1 3.2755 10.4770
-7 -39 -5 -5.1271 -10.0081
-7 -39 -3 4.3488 -10.6396
-7 -39 -1 -1.9502 12.4076
-7 -37 -5 0.0913 16.2849
-7 -37 -3 5.5494 -10.9790
-7 -37 -1 -4.1911 8.9734
-7 -35 -5 7.6493 14.6183
-7 -35 -3 7.1472 -4.1805
-7 -35 -1 -1.2335 -16.2730
-7 -33 -7 11.8960 -13.3853
-7 -33 -5 12.9245 -12.8924
-7 -33 -3 -16.3666 3.1737
-7 -33 -1 -2.5242 -0.2109
-7 -31 -7 4.2336 15.8994
-7 -31 -5 -13.6348 10.2928
-7 -31 -3 -2.7871 -2.4497
-7 -31 -1 1.3466 -3.7066
-7 -29 -7 -3.3489 -14.8625
-7 -29 -5 18.1075 27.9069
-7 -29 -3 -14.5974 -12.9818
-7 -29 -1 -0.9837 10.9773
-7 -27 -7 7.6003 8.4441
-7 -27 -5 2.2510 17.5109
-7 -27 -3 -10.3509 7.0267
-7 -27 -1 -0.3464 -4.2764
-7 -25 -7 0.0197 -17.9485
-7 -25 -5 4.9036 -4.7953
-7 -25 -3 -2.8348 1.3864
-7 -25 -1 -2.1449 2.9428
-7 -23 -5 3.3462 17.5139
-7 -23 -3 21.4464 -22.7212
-7 -23 -1 -15.0686 1.1059
-7 -21 -5 -19.1388 -11.6278
-7 -21 -3 -22.5156 24.0369
-7 -21 -1 4.8938 -1.7210
-7 -19 -5 -6.6668 1.3679
-7 -19 -3 18.8665 -7.9537
-7 -19 -1 -17.1253 -23.4310
-7 -17 -5 -3.4769 -5.9787
-7 -17 -3 -19.8237 -0.9398
-7 -17 -1 -18.1804 11.4919
-7 -15 -5 -13.3825 -1.9544
-7 -15 -3 15.2782 -3.3040
-7 -15 -1 -6.3577 -31.0115
-7 -13 -5 3.6992 -10.9217
-7 -13 -3 -10.8502 2.6171
-7 -13 -1 -10.2245 48.8649
-7 -11 -5 -2.2054 9.0628
-7 -11 -3 22.7055 -4.3863
-7 -11 -1 35.0380 2.8282
-7 -9 -5 6.0909 12.6410
-7 -9 -3 4.0333 27.1941
-7 -9 -1 -5.5349 99.7045
-7 -7 -5 8.2981 1.6799
-7 -7 -3 20.1343 -29.6256
-7 -7 -1 53.8037 75.7856
-7 -5 -5 6.1457 15.7432
-7 -5 -3 25.5531 25.9705
-7 -5 -1 26.5342 35.2183
-7 -3 -5 -8.0887 -5.9663
-7 -3 -3 -9.2819 6.6700
-7 -3 -1 12.5472 104.8280
-7 -1 -5 -7.5106 20.2218
-7 -1 -3 -16.9881 8.3898
-7 -1 -1 34.8773 51.2169
-6 -58 -2 -3.7736 3.0939
-6 -56 -2 3.6187 -0.4584
-6 -54 -2 7.4372 -7.2430
-6 -52 -4 -4.5368 -2.8363
-6 -52 -2 5.3654 12.7293
-6 -50 -4 -7.5743 4.1627
-6 -50 -2 3.5855 -1.5620
-6 -48 -4 4.3793 -8.2959
-6 -48 -2 11.1720 0.7705
-6 -46 -4 -3.7183 -9.1458
-6 -46 -2 -0.7669 -8.1021
-6 -44 -4 15.5929 -9.1942
-6 -44 -2 -5.5177 -3.5361
-6 -42 -6 -2.1498 9.8504
-6 -42 -4 20.1737 -2.1450
-6 -42 -2 -9.0768 -5.7738
-6 -40 -6 -20.9552 12.7502
-6 -40 -4 -11.6385 3.5858
-6 -40 -2 11.2143 4.0859
-6 -38 -6 4.0531 -11.3587
-6 -38 -4 2.7648 -14.5957
-6 -38 -2 -1.8335 4.1168
-6 -36 -6 9.7194 -15.5881
-6 -36 -4 2.2627 1.5538
-6 -36 -2 -4.2329 -18.2863
-6 -34 -6 -7.3999 17.6406
-6 -34 -4 15.6553 -7.0671
-6 -34 -2 8.0106 -5.9705
-6 -32 -6 11.4622 -12.0112
-6 -32 -4 4.5206 -3.7575
-6 -32 -2 5.0828 8.9476
-6 -30 -6 0.7866 11.1869
-6 -30 -4 -20.6270 6.4699
-6 -30 -2 31.2052 2.5451
-6 -28 -6 8.4022 -4.9281
-6 -28 -4 15.9028 8.3902
-6 -28 -2 0.2904 -4.0147
-6 -26 -6 21.9384 -2.6128
-6 -26 -4 -16.9573 3.8722
-6 -26 -2 44.2471 40.1415
-6 -24 -6 13.4762 -14.3616
-6 -24 -4 18.6613 -2.5787
-6 -24 -2 22.1882 20.6152
-6 -22 -6 1.1295 6.7885
-6 -22 -4 17.0562 8.3727
-6 -22 -2 24.0993 11.4294
-6 -20 -6 -10.0667 7.5273
-6 -20 -4 -18.2959 4.2314
-6 -20 -2 11.6627 18.6788
-6 -18 -6 -6.1035 -15.6342
-6 -18 -4 -2.9185 5.0675
-6 -18 -2 11.1713 9.0242
-6 -16 -6 -10.6235 20.4231
-6 -16 -4 14.9226 2.2263
-6 -16 -2 -16.6207 -5.8177
-6 -14 -6 -3.4594 -4.2780
-6 -14 -4 -3.0006 0.1022
-6 -14 -2 13.0105 -23.9124
-6 -12 -6 1.7074 12.0419
-6 -12 -4 -4.0531 -14.3339
-6 -12 -2 -29.6283 -20.2990
-6 -10 -6 3.1568 -7.2242
-6 -10 -4 3.5824 0.6114
-6 -10 -2 41.8587 2.0083
-6 -8 -6 -10.2946 0.4862
-6 -8 -4 -7.6322 -3.2853
-6 -8 -2 -13.6232 6.0895
-6 -6 -6 8.3833 9.2830
-6 -6 -4 14.8863 -16.8464
-6 -6 -2 18.5082 -1.6041
-6 -4 -6 7.4254 -4.6988
-6 -4 -4 5.2274 -6.3969
-6 -4 -2 -2.1032 0.0727
-6 -2 -6 -0.4161 1.6274
-6 -2 -4 -5.6256 8.0357
-6 -2 -2 -25.5608 14.1764
-6 0 -6 -17.4959 -6.9917
-6 0 -2 -37.8566 40.0341
-5 -59 -1 2.9390 -2.3254
-5 -57 -3 3.0879 -2.3532
-5 -57 -1 -6.8047 8.3218
-5 -55 -3 -3.2131 4.0915
-5 -55 -1 -3.8657 -3.6031
-5 -53 -3 11.3514 9.2499
-5 -53 -1 -4.1433 7.5898
-5 -51 -3 8.4696 -0.2893
-5 -51 -1 9.1555 13.7931
-5 -49 -5 -4.2236 7.5150
-5 -49 -3 -10.3821 -0.2330
-5 -49 -1 -4.9482 14.0347
-5 -47 -5 -8.8327 1.0818
-5 -47 -3 31.8139 -8.2847
-5 -47 -1 14.7777 13.0752
-5 -45 -5 -16.8203 -16.3840
-5 -45 -3 -12.5925 9.7109
-5 -45 -1 4.0330 -0.4350
-5 -43 -5 -28.3347 21.6543
-5 -43 -3 17.1729 -2.3969
-5 -43 -1 7.8668 11.0236
-5 -41 -5 3.3170 -2.8158
-5 -41 -3 16.0561 -10.9910
-5 -41 -1 7.3815 15.0363
-5 -39 -5 -23.8503 35.3945
-5 -39 -3 -0.4459 -5.7235
-5 -39 -1 -2.5171 14.2219
-5 -37 -5 8.9395 -11.8372
-5 -37 -3 0.0255 -12.4921
-5 -37 -1 3.7092 -3.4933
-5 -35 -5 0.7136 8.5254
-5 -35 -3 -12.6577 -14.6754
-5 -35 -1 -8.8862 -7.1677
-5 -33 -7 -6.7303 20.7945
-5 -33 -5 6.5874 17.4082
-5 -33 -3 14.2953 -13.6494
-5 -33 -1 -9.7035 -6.0194
-5 -31 -7 12.1594 -11.1320
-5 -31 -5 17.8544 5.1015
-5 -31 -3 -33.3512 0.5718
-5 -31 -1 4.0322 6.3198
-5 -29 -7 3.2263 -6.1094
-5 -29 -5 -10.7176 15.0881
-5 -29 -3 -14.8859 -10.2752
-5 -29 -1 -3.4033 -1.1673
-5 -27 -7 -19.6374 -36.5085
-5 -27 -5 19.0642 8.9037
-5 -27 -3 -1.0153 -21.6777
-5 -27 -1 -14.2567 7.2951
-5 -25 -5 2.6998 6.1463
-5 -25 -3 11.8516 9.5037
-5 -25 -1 -10.7926 5.8847
-5 -23 -5 -2.3978 -16.4827
-5 -23 -3 -4.9544 0.3214
-5 -23 -1 -5.3179 1.0066
-5 -21 -5 -4.2596 31.7951
-5 -21 -3 31.2300 -19.9311
-5 -21 -1 -15.6582 -5.0089
-5 -19 -5 -36.1372 -17.0307
-5 -19 -3 -23.2454 6.6740
-5 -19 -1 -15.3058 8.4247
-5 -17 -5 -0.7709 10.2284
-5 -17 -3 23.8578 3.4990
-5 -17 -1 -16.9851 -19.5604
-5 -15 -5 -3.8970 1.9297
-5 -15 -3 -7.1175 -9.1341
-5 -15 -1 -14.4503 22.8092
-5 -13 -5 -4.2480 24.1770
-5 -13 -3 29.9282 -15.2076
-5 -13 -1 4.7677 -21.4913
-5 -11 -5 -4.2616 10.6432
-5 -11 -3 -0.8265 -18.3399
-5 -11 -1 -15.4290 59.0018
-5 -9 -5 1.6299 7.4747
-5 -9 -3 24.8609 -5.4664
-5 -9 -1 66.8088 12.5546
-5 -7 -5 -3.1883 12.7251
-5 -7 -3 23.0053 7.5487
-5 -7 -1 16.8893 59.2857
-5 -5 -5 -2.6393 3.1933
-5 -5 -3 3.5913 -26.6997
-5 -5 -1 74.0574 71.3393
-5 -3 -5 4.9824 11.0795
-5 -3 -3 2.1199 16.3329
-5 -3 -1 3.7143 -38.6263
-5 -1 -5 -12.6918 -17.0134
-5 -1 -3 -4.8008 8.5982
-5 -1 -1 22.6621 95.6920
-4 -58 -2 -2.4262 -5.7099
-4 -56 -2 -4.8532 2.7274
-4 -54 -2 -10.0946 -0.3554
-4 -52 -4 1.0349 3.9418
-4 -52 -2 15.8231 -2.3062
-4 -50 -4 -1.8798 2.9760
-4 -50 -2 0.6432 1.8000
-4 -48 -4 -2.6392 -6.1344
-4 -48 -2 -1.0665 -4.6165
-4 -46 -4 23.0516 -8.8750
-4 -46 -2 -0.1531 -3.9573
-4 -44 -4 -3.6689 -3.6637
-4 -44 -2 -6.7640 1.0460
-4 -42 -6 -15.9050 3.1829
-4 -42 -4 -10.1701 -0.8538
-4 -42 -2 1.8997 -1.4151
-4 -40 -6 14.5791 -1.0911
-4 -40 -4 12.6235 -6.4173
-4 -40 -2 7.6030 3.0493
-4 -38 -6 -8.8404 -0.0413
-4 -38 -4 -23.1166 5.7491
-4 -38 -2 5.3504 -10.0460
-4 -36 -6 5.1925 -22.7558
-4 -36 -4 11.1361 -19.0854
-4 -36 -2 1.8880 3.4941
-4 -34 -6 -3.7650 0.1351
-4 -34 -4 -5.1588 -3.3439
-4 -34 -2 1.1709 -9.8055
-4 -32 -6 -6.4939 27.7552
-4 -32 -4 20.3644 -0.0374
-4 -32 -2 21.1304 -13.1112
-4 -30 -6 24.1518 -1.8720
-4 -30 -4 -8.3355 7.7415
-4 -30 -2 15.2168 2.7743
-4 -28 -6 10.0601 -16.4995
-4 -28 -4 -11.2144 -5.9781
-4 -26 -6 7.1646 -8.6604
-4 -26 -4 33.7928 -4.8881
-4 -26 -2 11.5919 1.6231
-4 -24 -6 19.0456 8.1907
-4 -24 -4 -7.8522 10.0561
-4 -24 -2 47.6464 43.6493
-4 -22 -6 14.8179 -5.4496
-4 -22 -4 -9.4990 -6.8655
-4 -22 -2 19.2514 13.5188
-4 -20 -8 -0.4926 23.4935
-4 -20 -6 -10.0463 11.1893
-4 -20 -4 -0.5402 7.8078
-4 -20 -2 24.7739 25.7386
-4 -18 -6 -5.0555 2.6289
-4 -18 -4 -26.4977 1.4956
-4 -18 -2 1.0843 7.8316
-4 -16 -6 12.2972 -14.8824
-4 -16 -4 -17.1542 8.5503
-4 -16 -2 14.6583 10.3382
-4 -14 -6 4.2205 14.9183
-4 -14 -4 -10.4653 -14.4321
-4 -14 -2 -6.2177 -5.9980
-4 -12 -6 9.2922 6.1216
-4 -12 -4 -18.3778 1.5800
-4 -12 -2 17.5608 -17.7721
-4 -10 -6 -8.2769 13.6680
-4 -10 -4 -9.8634 -24.3946
-4 -10 -2 -21.4659 -24.3026
-4 -8 -6 16.3617 -6.0199
-4 -8 -4 -0.0340 -13.1483
-4 -8 -2 50.0729 -2.2059
-4 -6 -6 -11.2837 0.8078
-4 -6 -4 -8.7024 -17.7062
-4 -6 -2 -15.1914 5.0626
-4 -4 -6 7.3821 9.8876
-4 -4 -4 4.4324 -3.1830
-4 -4 -2 -28.3145 -11.0789
-4 -2 -6 -7.8688 -4.3336
-4 -2 -4 12.1302 -9.0681
-4 -2 -2 1.8948 29.1372
-4 0 -4 -2.9655 -2.3859
-3 -59 -1 -8.2215 -2.0731
-3 -57 -3 -4.6720 3.9976
-3 -57 -1 -0.7266 -5.8355
-3 -55 -3 1.1469 13.4049
-3 -55 -1 -1.6596 9.8033
-3 -53 -3 -0.7764 0.2474
-3 -53 -1 0.9970 9.9203
-3 -51 -3 3.0521 3.5646
-3 -51 -1 -0.3890 9.9047
-3 -49 -5 0.9040 5.7754
-3 -49 -3 14.1139 3.3823
-3 -49 -1 19.7274 6.3354
-3 -47 -5 -17.4777 -5.4129
-3 -47 -3 -8.2042 1.2674
-3 -47 -1 3.1141 11.4537
-3 -45 -5 -1.0679 11.1395
-3 -45 -3 38.2588 2.2622
-3 -45 -1 21.2649 11.2080
-3 -43 -5 -20.0461 9.1714
-3 -43 -3 -5.2425 -6.1422
-3 -43 -1 4.2088 10.1434
-3 -41 -5 -19.9642 38.9668
-3 -41 -3 11.3095 -12.4924
-3 -41 -1 -2.8592 16.2246
-3 -39 -5 12.1309 0.6207
-3 -39 -3 14.4557 -23.9514
-3 -39 -1 7.4006 7.1292
-3 -37 -5 -12.3151 29.6450
-3 -37 -3 -8.0890 -8.8595
-3 -37 -1 -4.4589 -4.2331
-3 -35 -5 -0.6828 -17.4837
-3 -35 -3 6.2963 -3.8390
-3 -35 -1 -5.6392 -5.0702
-3 -33 -7 12.0983 -1.1661
-3 -33 -5 -6.6311 9.8231
-3 -33 -3 -29.5579 -14.2115
-3 -33 -1 -6.4680 7.8840
-3 -31 -7 -12.9987 3.2524
-3 -31 -5 5.0624 24.4285
-3 -31 -3 -1.7923 -23.8188
-3 -31 -1 -16.9189 -3.6471
-3 -29 -7 -1.6291 -28.7434
-3 -29 -5 17.9341 -4.5027
-3 -29 -3 -17.1260 -4.7757
-3 -29 -1 -6.6170 4.2167
-3 -27 -7 2.7439 -14.5780
-3 -27 -5 -3.2106 -12.8736
-3 -27 -3 2.6970 0.0277
-3 -27 -1 -5.7592 5.2917
-3 -25 -5 9.5502 -2.0975
-3 -25 -3 10.0689 -26.2362
-3 -25 -1 -19.2091 2.5838
-3 -23 -5 -7.7616 21.0454
-3 -23 -3 11.0620 6.0594
-3 -23 -1 1.4294 -1.4954
-3 -21 -5 -24.2447 -23.8685
-3 -21 -3 -14.0269 -3.2821
-3 -21 -1 -15.3702 -2.7651
-3 -19 -5 10.0971 29.6925
-3 -19 -3 30.3547 -3.5685
-3 -19 -1 -9.4681 -4.1808
-3 -17 -5 -17.6206 -5.4551
-3 -17 -3 -12.7664 -2.6910
-3 -17 -1 -10.7208 7.2836
-3 -15 -5 0.4731 19.8989
-3 -15 -3 32.5778 1.8181
-3 -15 -1 -11.4471 -12.3949
-3 -13 -5 -14.7945 14.9225
-3 -13 -3 -4.4217 -9.0374
-3 -13 -1 1.0093 24.6481
-3 -11 -5 -2.5855 19.8018
-3 -11 -3 20.7778 -9.8884
-3 -11 -1 28.4348 1.5101
-3 -9 -5 -7.6323 9.8152
-3 -9 -3 23.9679 -35.6196
-3 -9 -1 -1.3050 33.9457
-3 -7 -5 1.7748 -3.0280
-3 -7 -3 8.9722 -14.0406
-3 -7 -1 84.4282 -8.6224
-3 -5 -5 -14.0153 2.6201
-3 -5 -3 -1.6754 3.0935
-3 -5 -1 4.3280 -28.3088
-3 -3 -5 -5.7884 -13.7019
-3 -3 -3 -16.9648 -14.3367
-3 -3 -1 80.8817 90.7284
-3 -1 -5 -4.0605 -5.0973
-3 -1 -3 19.9338 0.1585
-3 -1 -1 31.6340 -118.4756
-2 -58 -2 -4.3897 0.5354
-2 -56 -2 -16.3739 -10.0575
-2 -54 -4 2.1562 7.0878
-2 -54 -2 7.2552 4.3055
-2 -52 -4 -0.8734 5.9031
-2 -52 -2 -19.2275 -7.5825
-2 -50 -4 8.3698 -2.2799
-2 -50 -2 5.6386 -6.0429
-2 -48 -4 9.6282 -1.6631
-2 -48 -2 -7.5651 1.0848
-2 -46 -4 -1.7905 -3.4191
-2 -46 -2 -6.2230 0.0478
-2 -44 -4 9.8274 -1.0258
-2 -44 -2 5.8133 3.4787
-2 -42 -6 0.1396 8.1344
-2 -42 -4 -19.6232 1.1359
-2 -42 -2 5.5187 7.4592
-2 -40 -6 -0.1606 -12.0231
-2 -40 -4 -25.1654 1.1902
-2 -40 -2 4.4052 -2.1565
-2 -38 -6 15.8887 -16.5176
-2 -38 -4 21.0964 -12.7822
-2 -38 -2 0.7923 -2.7934
-2 -36 -6 -19.5311 22.0790
-2 -36 -4 -6.2510 -0.2423
-2 -36 -2 5.7455 -8.3372
-2 -34 -6 -4.0760 -0.8838
-2 -34 -4 18.5059 -14.2688
-2 -34 -2 13.2806 3.6197
-2 -32 -6 4.9129 14.6983
-2 -32 -4 -18.9273 4.5982
-2 -32 -2 10.9007 -8.7730
-2 -30 -6 -1.0374 6.9826
-2 -30 -4 30.2789 -13.1708
-2 -30 -2 12.4185 -7.2672
-2 -28 -6 25.4859 -7.4507
-2 -28 -4 13.8259 -2.5008
-2 -26 -6 14.1669 -12.8123
-2 -26 -4 -1.5569 -12.6133
-2 -24 -6 8.2799 2.4200
-2 -24 -4 12.0938 -5.8796
-2 -24 -2 7.0922 -17.1052
-2 -22 -6 -2.4314 15.3739
-2 -22 -4 -27.0191 9.0785
-2 -22 -2 25.9731 28.6786
-2 -20 -8 -0.5354 24.5015
-2 -20 -6 16.4008 -25.1406
-2 -20 -4 -22.8617 -2.2991
-2 -20 -2 7.4428 8.6093
-2 -18 -6 4.6742 -0.6536
-2 -18 -4 -10.1617 12.6715
-2 -18 -2 14.6188 18.5255
-2 -16 -6 12.3641 2.6767
-2 -16 -4 -14.4053 -9.0163
-2 -16 -2 3.7432 -3.9257
-2 -14 -6 14.1019 -2.6249
-2 -14 -4 -32.2730 7.6742
-2 -14 -2 4.6730 -5.0355
-2 -12 -6 -9.1270 17.0544
-2 -12 -4 -15.8850 -10.1705
-2 -12 -2 10.4138 -6.3666
-2 -10 -6 6.6209 0.4513
-2 -10 -4 -15.8912 -5.3952
-2 -10 -2 25.0411 1.7590
-2 -8 -6 -16.1829 18.5515
-2 -8 -4 -0.3850 -28.1351
-2 -8 -2 -22.7195 -32.1683
-2 -6 -6 20.3410 4.9740
-2 -6 -4 0.4292 -6.7195
-2 -4 -6 -29.1858 -2.6810
-2 -4 -4 -1.8262 -7.3784
-2 -4 -2 -11.9470 29.8462
-2 -2 -6 -10.0208 -1.1481
-2 -2 -4 4.0570 -5.6886
-2 -2 -2 -24.4113 13.8005
-2 0 -6 -5.9556 -1.3583
-2 0 -2 49.1739 24.4691
-1 -59 -1 -7.4505 5.6499
-1 -57 -3 2.4614 17.1877
-1 -57 -1 -8.8856 -0.9642
-1 -55 -3 -6.2785 1.4413
-1 -55 -1 3.2450 3.0450
-1 -53 -3 -1.6684 9.3367
-1 -53 -1 3.6373 8.7542
-1 -51 -3 -3.7346 1.0871
-1 -51 -1 8.8884 2.3697
-1 -49 -5 0.5724 -2.5289
-1 -49 -3 7.0873 -2.4952
-1 -49 -1 -0.1451 12.9492
-1 -47 -5 4.7321 6.9883
-1 -47 -3 21.9127 11.7600
-1 -47 -1 21.3468 2.0625
-1 -45 -5 -27.9176 14.0672
-1 -45 -3 -4.3909 -16.7393
-1 -45 -1 -1.4942 14.0979
-1 -43 -5 13.5244 34.4942
-1 -43 -3 34.3349 -9.4579
-1 -43 -1 14.2889 15.9148
-1 -41 -5 -19.0128 15.5507
-1 -41 -3 -2.9335 -22.5909
-1 -41 -1 -0.2585 11.4888
-1 -39 -5 -11.3186 23.6989
-1 -39 -3 1.8724 -2.9220
-1 -39 -1 -6.0409 -2.4831
-1 -37 -5 -1.1487 -18.4892
-1 -37 -3 11.1106 -8.5761
-1 -37 -1 -2.3155 -7.5862
-1 -35 -5 -13.1544 21.6849
-1 -35 -3 -6.0744 -9.7261
-1 -35 -1 -5.2365 9.5325
-1 -33 -7 3.5233 3.7612
-1 -33 -5 -12.5011 -4.0445
-1 -33 -3 -10.6433 3.2497
-1 -33 -1 -10.7306 -1.9193
-1 -31 -7 10.5129 -23.8011
-1 -31 -5 -8.1172 -2.9131
-1 -31 -3 -21.9059 -5.9437
-1 -31 -1 -3.8561 10.5208
-1 -29 -7 -27.0221 -17.6936
-1 -29 -5 15.6335 -0.7586
-1 -29 -3 6.8421 -12.8070
-1 -29 -1 -19.9491 -2.6892
-1 -27 -7 5.3568 -24.5328
-1 -27 -5 13.2607 -9.4044
-1 -27 -1 -14.9769 5.1916
-1 -25 -5 -7.8865 -3.4578
-1 -25 -3 -9.6801 1.6767
-1 -25 -1 12.2230 -10.0083
-1 -23 -5 -10.8316 -0.4928
-1 -23 -3 -3.0687 -23.6651
-1 -23 -1 -16.2337 -12.9063
-1 -21 -5 4.3178 15.7201
-1 -21 -3 5.0540 9.5366
-1 -21 -1 7.2487 -4.0019
-1 -19 -5 -1.1092 -21.6115
-1 -19 -3 -16.1566 12.7596
-1 -19 -1 -9.3103 -3.8328
-1 -17 -5 15.4833 15.2986
-1 -17 -3 30.0227 7.9932
-1 -17 -1 -3.8668 -4.8839
-1 -15 -5 -6.0879 7.4677
-1 -15 -3 -7.5186 0.7737
-1 -15 -1 3.3158 7.0846
-1 -13 -5 -9.2303 9.5576
-1 -13 -3 13.3515 -3.8202
-1 -13 -1 -6.4014 7.8840
-1 -11 -5 -10.8849 9.2182
-1 -11 -3 14.3831 -0.9786
-1 -11 -1 11.6833 8.8596
-1 -9 -5 -4.5336 -4.2101
-1 -9 -3 0.6168 -8.0476
-1 -9 -1 48.9549 -0.5986
-1 -7 -5 -13.9808 5.1538
-1 -7 -3 2.9809 -38.4658
-1 -7 -1 -7.3029 -31.3268
-1 -5 -5 10.3414 -17.5809
-1 -5 -3 -20.0163 -13.6548
-1 -5 -1 65.4936 -4.9679
-1 -3 -5 -16.5767 -18.7771
-1 -3 -3 21.1906 1.0237
-1 -1 -7 16.0156 6.3942
-1 -1 -5 2.1473 -7.8663
-1 -1 -3 -16.5477 -27.8715
-1 -1 -1 169.3928 74.9015
0 -58 -2 -31.8409 -6.0588
0 -54 -2 -17.1290 -15.3938
0 -52 -4 4.8092 4.7607
0 -50 -2 -23.4491 -3.5073
0 -48 -4 15.2928 -6.6177
0 -46 -2 -1.1203 5.9100
0 -44 -4 -24.9411 3.1933
0 -42 -6 17.6479 -12.5152
0 -42 -2 13.0496 5.1051
0 -40 -4 -6.6521 -1.6800
0 -38 -6 -14.6188 -3.4256
0 -38 -2 -0.1485 -1.5177
0 -36 -4 30.5773 -18.7906
0 -34 -6 -13.4167 48.9256
0 -34 -2 12.1850 -15.2505
0 -32 -4 21.6086 -13.0344
0 -30 -6 14.4338 -11.6423
0 -30 -2 18.4782 6.5059
0 -28 -4 38.3080 -23.4281
0 -24 -4 -29.4215 -8.7581
0 -22 -6 2.0878 -18.0079
0 -22 -2 1.7261 -14.5585
0 -20 -8 5.2625 13.2980
0 -20 -4 -23.3826 18.5866
0 -18 -6 31.6065 -28.5730
0 -18 -2 5.1813 8.0967
0 -16 -4 -22.0697 8.3163
0 -14 -6 -1.2182 20.3402
0 -14 -2 12.0843 -12.0686
0 -12 -4 -27.4385 2.5404
0 -10 -6 -16.7272 14.8309
0 -10 -2 12.9457 -13.0037
0 -8 -4 -15.3865 -2.9032
0 -6 -6 -30.7970 17.2542
0 -4 -4 15.8198 -11.8839
0 -2 -6 -21.4940 -5.8440
0 0 -4 -7.8209 0.1546
0 0 4 -7.8209 -0.1546
0 0 8 33.3671 -92.1743
0 2 2 40.8646 -36.2503
0 2 6 -21.4940 5.8440
0 4 4 15.8198 11.8839
0 4 8 17.0101 -65.4534
0 6 2 -43.3578 17.1706
0 6 6 -30.7970 -17.2542
0 8 0 264.3263 -0.0000
0 8 4 -15.3865 2.9032
0 8 8 3.4907 -44.2127
0 10 2 12.9457 13.0037
0 10 6 -16.7272 -14.8309
0 12 0 101.4573 -0.0000
0 12 4 -27.4385 -2.5404
0 12 8 12.6918 -49.2216
0 14 2 12.0843 12.0686
0 14 6 -1.2182 -20.3402
0 16 0 16.4587 -0.0000
0 16 4 -22.0697 -8.3163
0 16 8 -1.7998 -17.4819
0 18 2 5.1813 -8.0967
0 18 6 31.6065 28.5730
0 20 0 9.1357 -0.0000
0 20 4 -23.3826 -18.5866
0 20 8 5.2625 -13.2980
0 22 2 1.7261 14.5585
0 22 6 2.0878 18.0079
0 24 0 14.1435 -0.0000
0 24 4 -29.4215 8.7581
0 26 2 13.7913 16.4852
0 26 6 26.8177 -11.2709
0 28 0 -7.7562 0.0000
0 28 4 38.3080 23.4281
0 30 2 18.4782 -6.5059
0 30 6 14.4338 11.6423
0 32 0 -6.9164 0.0000
0 32 4 21.6086 13.0344
0 34 2 12.1850 15.2505
0 34 6 -13.4167 -48.9256
0 36 0 -6.2915 0.0000
0 36 4 30.5773 18.7906
0 38 2 -0.1485 1.5177
0 40 0 7.5809 -0.0000
0 40 4 -6.6521 1.6800
0 42 2 13.0496 -5.1051
0 44 0 -10.6073 0.0000
0 44 4 -24.9411 -3.1933
0 46 2 -1.1203 -5.9100
0 48 0 1.6542 0.0000
0 48 4 15.2928 6.6177
0 50 2 -23.4491 3.5073
0 52 0 4.5550 -0.0000
0 52 4 4.8092 -4.7607
0 54 2 -17.1290 15.3938
0 56 0 -4.8484 -0.0000
0 58 2 -31.8409 6.0588
0 60 0 -0.9073 0.0000
1 1 1 169.3928 -74.9015
1 1 3 -16.5477 27.8715
1 1 5 2.1473 7.8663
1 1 7 16.0156 -6.3942
1 3 1 7.5518 105.5491
1 3 3 21.1906 -1.0237
1 3 5 -16.5767 18.7771
1 3 7 -14.8210 -10.5145
1 5 1 65.4936 4.9679
1 5 3 -20.0163 13.6548
1 5 5 10.3414 17.5809
1 5 7 18.3806 -4.5795
1 7 1 -7.3029 31.3268
1 7 3 2.9809 38.4658
1 7 5 -13.9808 -5.1538
1 7 7 2.9410 -12.9096
1 9 1 48.9549 0.5986
1 9 3 0.6168 8.0476
1 9 5 -4.5336 4.2101
1 9 7 5.0112 2.7056
1 11 1 11.6833 -8.8596
1 11 3 14.3831 0.9786
1 11 5 -10.8849 -9.2182
1 11 7 -6.9161 -14.7332
1 13 1 -6.4014 -7.8840
1 13 3 13.3515 3.8202
1 13 5 -9.2303 -9.5576
1 13 7 10.2638 -4.0210
1 15 1 3.3158 -7.0846
1 15 3 -7.5186 -0.7737
1 15 5 -6.0879 -7.4677
1 15 7 -2.8167 -3.6313
1 17 1 -3.8668 4.8839
1 17 3 30.0227 -7.9932
1 17 5 15.4833 -15.2986
1 17 7 -9.3927 3.6436
1 19 1 -9.3103 3.8328
1 19 3 -16.1566 -12.7596
1 19 5 -1.1092 21.6115
1 19 7 -0.4147 10.7982
1 21 1 7.2487 4.0019
1 21 3 5.0540 -9.5366
1 21 5 4.3178 -15.7201
1 21 7 -22.5206 -20.4905
1 23 1 -16.2337 12.9063
1 23 3 -3.0687 23.6651
1 23 5 -10.8316 0.4928
1 23 7 -22.3018 23.1978
1 25 1 12.2230 10.0083
1 25 3 -9.6801 -1.6767
1 25 5 -7.8865 3.4578
1 25 7 -0.8710 -4.3771
1 27 1 -14.9769 -5.1916
1 27 3 10.9712 7.2933
1 27 5 13.2607 9.4044
1 27 7 5.3568 24.5328
1 29 1 -19.9491 2.6892
1 29 3 6.8421 12.8070
1 29 5 15.6335 0.7586
1 29 7 -27.0221 17.6936
1 31 1 -3.8561 -10.5208
1 31 3 -21.9059 5.9437
1 31 5 -8.1172 2.9131
1 31 7 10.5129 23.8011
1 33 1 -10.7306 1.9193
1 33 3 -10.6433 -3.2497
1 33 5 -12.5011 4.0445
1 33 7 3.5233 -3.7612
1 35 1 -5.2365 -9.5325
1 35 3 -6.0744 9.7261
1 35 5 -13.1544 -21.6849
1 37 1 -2.3155 7.5862
1 37 3 11.1106 8.5761
1 37 5 -1.1487 18.4892
1 39 1 -6.0409 2.4831
1 39 3 1.8724 2.9220
1 39 5 -11.3186 -23.6989
1 41 1 -0.2585 -11.4888
1 41 3 -2.9335 22.5909
1 41 5 -19.0128 -15.5507
1 43 1 14.2889 -15.9148
1 43 3 34.3349 9.4579
1 43 5 13.5244 -34.4942
1 45 1 -1.4942 -14.0979
1 45 3 -4.3909 16.7393
1 45 5 -27.9176 -14.0672
1 47 1 21.3468 -2.0625
1 47 3 21.9127 -11.7600
1 49 1 -0.1451 -12.9492
1 49 3 7.0873 2.4952
1 51 1 8.8884 -2.3697
1 51 3 -3.7346 -1.0871
1 53 1 3.6373 -8.7542
1 53 3 -1.6684 -9.3367
1 55 1 3.2450 -3.0450
1 55 3 -6.2785 -1.4413
1 57 1 -8.8856 0.9642
1 57 3 2.4614 -17.1877
1 59 1 -7.4505 -5.6499
2 0 2 49.1739 -24.4691
2 0 6 -5.9556 1.3583
2 2 2 -24.4113 -13.8005
2 2 4 4.0570 5.6886
2 2 6 -10.0208 1.1481
2 2 8 21.3869 -83.5173
2 4 0 -59.7524 0.0000
2 4 2 -11.9470 -29.8462
2 4 4 -1.8262 7.3784
2 4 6 -29.1858 2.6810
2 4 8 -12.3503 13.0235
2 6 0 306.1509 -0.0000
2 6 2 8.3764 26.8454
2 6 4 0.4292 6.7195
2 6 6 20.3410 -4.9740
2 6 8 6.1911 -48.1276
2 8 0 9.0817 -0.0000
2 8 2 -22.7195 32.1683
2 8 4 -0.3850 28.1351
2 8 6 -16.1829 -18.5515
2 8 8 -7.6862 -21.5545
2 10 0 168.0560 -0.0000
2 10 2 25.0411 -1.7590
2 10 4 -15.8912 5.3952
2 10 6 6.6209 -0.4513
2 10 8 8.2289 -53.2354
2 12 0 -11.2948 0.0000
2 12 2 10.4138 6.3666
2 12 4 -15.8850 10.1705
2 12 6 -9.1270 -17.0544
2 12 8 -1.4664 -11.9694
2 14 0 40.7198 -0.0000
2 14 2 4.6730 5.0355
2 14 4 -32.2730 -7.6742
2 14 6 14.1019 2.6249
2 14 8 6.1718 -28.2555
2 16 0 6.8651 -0.0000
2 16 2 3.7432 3.9257
2 16 4 -14.4053 9.0163
2 16 6 12.3641 -2.6767
2 16 8 1.1148 -17.0158
2 18 0 3.2254 -0.0000
2 18 2 14.6188 -18.5255
2 18 4 -10.1617 -12.6715
2 18 6 4.6742 0.6536
2 18 8 6.0263 -15.1248
2 20 0 4.0255 -0.0000
2 20 2 7.4428 -8.6093
2 20 4 -22.8617 2.2991
2 20 6 16.4008 25.1406
2 20 8 -0.5354 -24.5015
2 22 0 4.6269 -0.0000
2 22 2 25.9731 -28.6786
2 22 4 -27.0191 -9.0785
2 22 6 -2.4314 -15.3739
2 24 0 13.6127 -0.0000
2 24 2 7.0922 17.1052
2 24 4 12.0938 5.8796
2 24 6 8.2799 -2.4200
2 26 0 3.4058 -0.0000
2 26 2 35.8876 -32.4878
2 26 4 -1.5569 12.6133
2 26 6 14.1669 12.8123
2 28 0 0.2792 -0.0000
2 28 2 21.2388 -5.3382
2 28 4 13.8259 2.5008
2 28 6 25.4859 7.4507
2 30 0 -4.9937 0.0000
2 30 2 12.4185 7.2672
2 30 4 30.2789 13.1708
2 30 6 -1.0374 -6.9826
2 32 0 -1.8190 0.0000
2 32 2 10.9007 8.7730
2 32 4 -18.9273 -4.5982
2 32 6 4.9129 -14.6983
2 34 0 -11.4238 0.0000
2 34 2 13.2806 -3.6197
2 34 4 18.5059 14.2688
2 34 6 -4.0760 0.8838
2 36 0 4.6646 -0.0000
2 36 2 5.7455 8.3372
2 36 4 -6.2510 0.2423
2 36 6 -19.5311 -22.0790
2 38 0 10.8359 -0.0000
2 38 2 0.7923 2.7934
2 38 4 21.0964 12.7822
2 38 6 15.8887 16.5176
2 40 0 -14.8905 0.0000
2 40 2 4.4052 2.1565
2 40 4 -25.1654 -1.1902
2 42 0 -10.6460 0.0000
2 42 2 5.5187 -7.4592
2 42 4 -19.6232 -1.1359
2 44 0 8.2309 -0.0000
2 44 2 5.8133 -3.4787
2 44 4 9.8274 1.0258
2 46 0 1.8555 -0.0000
2 46 2 -6.2230 -0.0478
2 46 4 -1.7905 3.4191
2 48 0 5.2048 -0.0000
2 48 2 -7.5651 -1.0848
2 48 4 9.6282 1.6631
2 50 0 -0.7691 -0.0000
2 50 2 5.6386 6.0429
2 50 4 8.3698 2.2799
2 52 0 -0.8605 0.0000
2 52 2 -19.2275 7.5825
2 52 4 -0.8734 -5.9031
2 54 0 2.0039 -0.0000
2 54 2 7.2552 -4.3055
2 54 4 2.1562 -7.0878
2 56 0 -0.4712 -0.0000
2 56 2 -16.3739 10.0575
2 58 0 -0.3581 -0.0000
2 58 2 -4.3897 -0.5354
2 60 0 3.3360 -0.0000
3 1 1 31.6340 118.4756
3 1 3 19.9338 -0.1585
3 1 5 -4.0605 5.0973
3 1 7 -12.8971 -9.8597
3 3 1 80.8817 -90.7284
3 3 3 -16.9648 14.3367
3 3 5 -5.7884 13.7019
3 3 7 4.2654 -8.6781
3 5 1 4.3280 28.3088
3 5 3 -1.6754 -3.0935
3 5 5 -14.0153 -2.6201
3 5 7 -8.5841 9.7311
3 7 1 84.4282 8.6224
3 7 3 8.9722 14.0406
3 7 5 1.7748 3.0280
3 7 7 7.4056 1.4300
3 9 1 -1.3050 -33.9457
3 9 3 23.9679 35.6196
3 9 5 -7.6323 -9.8152
3 9 7 -7.4747 -22.6159
3 11 1 28.4348 -1.5101
3 11 3 20.7778 9.8884
3 11 5 -2.5855 -19.8018
3 11 7 -5.1047 -5.6526
3 13 1 1.0093 -24.6481
3 13 3 -4.4217 9.0374
3 13 5 -14.7945 -14.9225
3 13 7 -3.0302 -10.2811
3 15 1 -11.4471 12.3949
3 15 3 32.5778 -1.8181
3 15 5 0.4731 -19.8989
3 15 7 5.8109 6.3243
3 17 1 -10.7208 -7.2836
3 17 3 -12.7664 2.6910
3 17 5 -17.6206 5.4551
3 17 7 -4.5245 -7.7305
3 19 1 -9.4681 4.1808
3 19 3 30.3547 3.5685
3 19 5 10.0971 -29.6925
3 19 7 -15.7542 -16.0208
3 21 1 -15.3702 2.7651
3 21 3 -14.0269 3.2821
3 21 5 -24.2447 23.8685
3 21 7 -8.5565 4.7664
3 23 1 1.4294 1.4954
3 23 3 11.0620 -6.0594
3 23 5 -7.7616 -21.0454
3 23 7 0.6668 -17.2534
3 25 1 -19.2091 -2.5838
3 25 3 10.0689 26.2362
3 25 5 9.5502 2.0975
3 25 7 -12.2700 37.8517
3 27 1 -5.7592 -5.2917
3 27 3 2.6970 -0.0277
3 27 5 -3.2106 12.8736
3 27 7 2.7439 14.5780
3 29 1 -6.6170 -4.2167
3 29 3 -17.1260 4.7757
3 29 5 17.9341 4.5027
3 29 7 -1.6291 28.7434
3 31 1 -16.9189 3.6471
3 31 3 -1.7923 23.8188
3 31 5 5.0624 -24.4285
3 31 7 -12.9987 -3.2524
3 33 1 -6.4680 -7.8840
3 33 3 -29.5579 14.2115
3 33 5 -6.6311 -9.8231
3 33 7 12.0983 1.1661
3 35 1 -5.6392 5.0702
3 35 3 6.2963 3.8390
3 35 5 -0.6828 17.4837
3 37 1 -4.4589 4.2331
3 37 3 -8.0890 8.8595
3 37 5 -12.3151 -29.6450
3 39 1 7.4006 -7.1292
3 39 3 14.4557 23.9514
3 39 5 12.1309 -0.6207
3 41 1 -2.8592 -16.2246
3 41 3 11.3095 12.4924
3 41 5 -19.9642 -38.9668
3 43 1 4.2088 -10.1434
3 43 3 -5.2425 6.1422
3 43 5 -20.0461 -9.1714
3 45 1 21.2649 -11.2080
3 45 3 38.2588 -2.2622
3 45 5 -1.0679 -11.1395
3 47 1 3.1141 -11.4537
3 47 3 -8.2042 -1.2674
3 49 1 19.7274 -6.3354
3 49 3 14.1139 -3.3823
3 51 1 -0.3890 -9.9047
3 51 3 3.0521 -3.5646
3 53 1 0.9970 -9.9203
3 53 3 -0.7764 -0.2474
3 55 1 -1.6596 -9.8033
3 55 3 1.1469 -13.4049
3 57 1 -0.7266 5.8355
3 57 3 -4.6720 -3.9976
3 59 1 -8.2215 2.0731
4 0 4 -2.9655 2.3859
4 0 8 12.8384 -77.8257
4 2 0 -109.5945 0.0000
4 2 2 1.8948 -29.1372
4 2 4 12.1302 9.0681
4 2 6 -7.8688 4.3336
4 2 8 -12.3799 8.1615
4 4 0 327.0516 -0.0000
4 4 2 -28.3145 11.0789
4 4 4 4.4324 3.1830
4 4 6 7.3821 -9.8876
4 4 8 0.6714 -66.3063
4 6 0 -16.3820 0.0000
4 6 2 -15.1914 -5.0626
4 6 4 -8.7024 17.7062
4 6 6 -11.2837 -0.8078
4 6 8 -14.8484 -4.9533
4 8 0 187.7986 -0.0000
4 8 2 50.0729 2.2059
4 8 4 -0.0340 13.1483
4 8 6 16.3617 6.0199
4 8 8 10.2819 -51.2029
4 10 0 -14.0911 0.0000
4 10 2 -21.4659 24.3026
4 10 4 -9.8634 24.3946
4 10 6 -8.2769 -13.6680
4 10 8 -2.9601 -31.8940
4 12 0 71.5628 -0.0000
4 12 2 17.5608 17.7721
4 12 4 -18.3778 -1.5800
4 12 6 9.2922 -6.1216
4 12 8 1.5146 -32.9545
4 14 0 -8.8391 0.0000
4 14 2 -6.2177 5.9980
4 14 4 -10.4653 14.4321
4 14 6 4.2205 -14.9183
4 14 8 -5.2130 -19.2300
4 16 0 6.6897 -0.0000
4 16 2 14.6583 -10.3382
4 16 4 -17.1542 -8.5503
4 16 6 12.2972 14.8824
4 16 8 14.1530 -20.4048
4 18 0 6.9363 -0.0000
4 18 2 1.0843 -7.8316
4 18 4 -26.4977 -1.4956
4 18 6 -5.0555 -2.6289
4 18 8 6.5761 -31.7143
4 20 0 -8.9158 0.0000
4 20 2 24.7739 -25.7386
4 20 4 -0.5402 -7.8078
4 20 6 -10.0463 -11.1893
4 20 8 -0.4926 -23.4935
4 22 0 13.3608 -0.0000
4 22 2 19.2514 -13.5188
4 22 4 -9.4990 6.8655
4 22 6 14.8179 5.4496
4 24 0 -4.6365 0.0000
4 24 2 47.6464 -43.6493
4 24 4 -7.8522 -10.0561
4 24 6 19.0456 -8.1907
4 26 0 9.5829 -0.0000
4 26 2 11.5919 -1.6231
4 26 4 33.7928 4.8881
4 26 6 7.1646 8.6604
4 28 0 4.4014 0.0000
4 28 2 38.0710 -25.7098
4 28 4 -11.2144 5.9781
4 28 6 10.0601 16.4995
4 30 0 6.1154 -0.0000
4 30 2 15.2168 -2.7743
4 30 4 -8.3355 -7.7415
4 30 6 24.1518 1.8720
4 32 0 -6.9367 0.0000
4 32 2 21.1304 13.1112
4 32 4 20.3644 0.0374
4 32 6 -6.4939 -27.7552
4 34 0 -2.1669 0.0000
4 34 2 1.1709 9.8055
4 34 4 -5.1588 3.3439
4 34 6 -3.7650 -0.1351
4 36 0 3.2229 -0.0000
4 36 2 1.8880 -3.4941
4 36 4 11.1361 19.0854
4 36 6 5.1925 22.7558
4 38 0 -4.2016 0.0000
4 38 2 5.3504 10.0460
4 38 4 -23.1166 -5.7491
4 38 6 -8.8404 0.0413
4 40 0 -4.2742 0.0000
4 40 2 7.6030 -3.0493
4 40 4 12.6235 6.4173
4 40 6 14.5791 1.0911
4 42 0 -9.4036 0.0000
4 42 2 1.8997 1.4151
4 42 4 -10.1701 0.8538
4 44 0 -1.6402 0.0000
4 44 2 -6.7640 -1.0460
4 44 4 -3.6689 3.6637
4 46 0 9.0904 -0.0000
4 46 2 -0.1531 3.9573
4 46 4 23.0516 8.8750
4 48 0 0.9582 -0.0000
4 48 2 -1.0665 4.6165
4 48 4 -2.6392 6.1344
4 50 0 2.9059 -0.0000
4 50 2 0.6432 -1.8000
4 50 4 -1.8798 -2.9760
4 52 0 -4.4919 -0.0000
4 52 2 15.8231 2.3062
4 52 4 1.0349 -3.9418
4 54 0 -5.0215 0.0000
4 54 2 -10.0946 0.3554
4 56 0 10.8521 -0.0000
4 56 2 -4.8532 -2.7274
4 58 0 3.3397 -0.0000
4 58 2 -2.4262 5.7099
4 60 0 1.1007 0.0000
5 1 1 22.6621 -95.6920
5 1 3 -4.8008 -8.5982
5 1 5 -12.6918 17.0134
5 1 7 -8.6894 -14.6932
5 3 1 3.7143 38.6263
5 3 3 2.1199 -16.3329
5 3 5 4.9824 -11.0795
5 3 7 -10.4734 8.0515
5 5 1 74.0574 -71.3393
5 5 3 3.5913 26.6997
5 5 5 -2.6393 -3.1933
5 5 7 -6.0341 -14.5533
5 7 1 16.8893 -59.2857
5 7 3 23.0053 -7.5487
5 7 5 -3.1883 -12.7251
5 7 7 -13.6162 -0.7848
5 9 1 66.8088 -12.5546
5 9 3 24.8609 5.4664
5 9 5 1.6299 -7.4747
5 9 7 -9.6362 -3.1608
5 11 1 -15.4290 -59.0018
5 11 3 -0.8265 18.3399
5 11 5 -4.2616 -10.6432
5 11 7 2.7558 -16.8142
5 13 1 4.7677 21.4913
5 13 3 29.9282 15.2076
5 13 5 -4.2480 -24.1770
5 13 7 -5.4697 0.6365
5 15 1 -14.4503 -22.8092
5 15 3 -7.1175 9.1341
5 15 5 -3.8970 -1.9297
5 15 7 0.1013 -16.0370
5 17 1 -16.9851 19.5604
5 17 3 23.8578 -3.4990
5 17 5 -0.7709 -10.2284
5 17 7 6.4013 -10.1854
5 19 1 -15.3058 -8.4247
5 19 3 -23.2454 -6.6740
5 19 5 -36.1372 17.0307
5 19 7 -12.6780 -13.8310
5 21 1 -15.6582 5.0089
5 21 3 31.2300 19.9311
5 21 5 -4.2596 -31.7951
5 21 7 -7.5169 -14.7013
5 23 1 -5.3179 -1.0066
5 23 3 -4.9544 -0.3214
5 23 5 -2.3978 16.4827
5 23 7 3.1906 16.9976
5 25 1 -10.7926 -5.8847
5 25 3 11.8516 -9.5037
5 25 5 2.6998 -6.1463
5 25 7 12.6719 -8.8873
5 27 1 -14.2567 -7.2951
5 27 3 -1.0153 21.6777
5 27 5 19.0642 -8.9037
5 27 7 -19.6374 36.5085
5 29 1 -3.4033 1.1673
5 29 3 -14.8859 10.2752
5 29 5 -10.7176 -15.0881
5 29 7 3.2263 6.1094
5 31 1 4.0322 -6.3198
5 31 3 -33.3512 -0.5718
5 31 5 17.8544 -5.1015
5 31 7 12.1594 11.1320
5 33 1 -9.7035 6.0194
5 33 3 14.2953 13.6494
5 33 5 6.5874 -17.4082
5 33 7 -6.7303 -20.7945
5 35 1 -8.8862 7.1677
5 35 3 -12.6577 14.6754
5 35 5 0.7136 -8.5254
5 37 1 3.7092 3.4933
5 37 3 0.0255 12.4921
5 37 5 8.9395 11.8372
5 39 1 -2.5171 -14.2219
5 39 3 -0.4459 5.7235
5 39 5 -23.8503 -35.3945
5 41 1 7.3815 -15.0363
5 41 3 16.0561 10.9910
5 41 5 3.3170 2.8158
5 43 1 7.8668 -11.0236
5 43 3 17.1729 2.3969
5 43 5 -28.3347 -21.6543
5 45 1 4.0330 0.4350
5 45 3 -12.5925 -9.7109
5 45 5 -16.8203 16.3840
5 47 1 14.7777 -13.0752
5 47 3 31.8139 8.2847
5 47 5 -8.8327 -1.0818
5 49 1 -4.9482 -14.0347
5 49 3 -10.3821 0.2330
5 51 1 9.1555 -13.7931
5 51 3 8.4696 0.2893
5 53 1 -4.1433 -7.5898
5 53 3 11.3514 -9.2499
5 55 1 -3.8657 3.6031
5 55 3 -3.2131 -4.0915
5 57 1 -6.8047 -8.3218
5 57 3 3.0879 2.3532
5 59 1 2.9390 2.3254
6 0 2 -37.8566 -40.0341
6 0 6 -17.4959 6.9917
6 2 0 169.5961 -0.0000
6 2 2 -25.5608 -14.1764
6 2 4 -5.6256 -8.0357
6 2 6 -0.4161 -1.6274
6 2 8 -2.1127 -57.0686
6 4 0 -80.2427 0.0000
6 4 2 -2.1032 -0.0727
6 4 4 5.2274 6.3969
6 4 6 7.4254 4.6988
6 4 8 -12.0067 -1.4178
6 6 0 182.2906 -0.0000
6 6 2 18.5082 1.6041
6 6 4 14.8863 16.8464
6 6 6 8.3833 -9.2830
6 6 8 1.3606 -63.3809
6 8 0 -16.4945 0.0000
6 8 2 -13.6232 -6.0895
6 8 4 -7.6322 3.2853
6 8 6 -10.2946 -0.4862
6 8 8 -5.0428 -25.1315
6 10 0 74.2044 -0.0000
6 10 2 41.8587 -2.0083
6 10 4 3.5824 -0.6114
6 10 6 3.1568 7.2242
6 10 8 5.6026 -22.6530
6 12 0 -15.1078 0.0000
6 12 2 -29.6283 20.2990
6 12 4 -4.0531 14.3339
6 12 6 1.7074 -12.0419
6 12 8 -6.7769 -18.4711
6 14 0 25.4588 -0.0000
6 14 2 13.0105 23.9124
6 14 4 -3.0006 -0.1022
6 14 6 -3.4594 4.2780
6 14 8 1.4102 -20.6319
6 16 0 -9.1343 0.0000
6 16 2 -16.6207 5.8177
6 16 4 14.9226 -2.2263
6 16 6 -10.6235 -20.4231
6 16 8 1.8704 -25.1762
6 18 0 -11.0712 0.0000
6 18 2 11.1713 -9.0242
6 18 4 -2.9185 -5.0675
6 18 6 -6.1035 15.6342
6 18 8 6.8724 -26.3983
6 20 0 8.8205 -0.0000
6 20 2 11.6627 -18.6788
6 20 4 -18.2959 -4.2314
6 20 6 -10.0667 -7.5273
6 22 0 -1.5895 0.0000
6 22 2 24.0993 -11.4294
6 22 4 17.0562 -8.3727
6 22 6 1.1295 -6.7885
6 24 0 6.8700 -0.0000
6 24 2 22.1882 -20.6152
6 24 4 18.6613 2.5787
6 24 6 13.4762 14.3616
6 26 0 -4.5895 0.0000
6 26 2 44.2471 -40.1415
6 26 4 -16.9573 -3.8722
6 26 6 21.9384 2.6128
6 28 0 13.2306 -0.0000
6 28 2 0.2904 4.0147
6 28 4 15.9028 -8.3902
6 28 6 8.4022 4.9281
6 30 0 5.0315 0.0000
6 30 2 31.2052 -2.5451
6 30 4 -20.6270 -6.4699
6 30 6 0.7866 -11.1869
6 32 0 -1.0093 0.0000
6 32 2 5.0828 -8.9476
6 32 4 4.5206 3.7575
6 32 6 11.4622 12.0112
6 34 0 1.3791 -0.0000
6 34 2 8.0106 5.9705
6 34 4 15.6553 7.0671
6 34 6 -7.3999 -17.6406
6 36 0 3.7442 -0.0000
6 36 2 -4.2329 18.2863
6 36 4 2.2627 -1.5538
6 36 6 9.7194 15.5881
6 38 0 -12.7594 0.0000
6 38 2 -1.8335 -4.1168
6 38 4 2.7648 14.5957
6 38 6 4.0531 11.3587
6 40 0 -14.0332 0.0000
6 40 2 11.2143 -4.0859
6 40 4 -11.6385 -3.5858
6 40 6 -20.9552 -12.7502
6 42 0 2.4409 -0.0000
6 42 2 -9.0768 5.7738
6 42 4 20.1737 2.1450
6 42 6 -2.1498 -9.8504
6 44 0 2.8303 -0.0000
6 44 2 -5.5177 3.5361
6 44 4 15.5929 9.1942
6 46 0 -1.1164 -0.0000
6 46 2 -0.7669 8.1021
6 46 4 -3.7183 9.1458
6 48 0 -6.7475 0.0000
6 48 2 11.1720 -0.7705
6 48 4 4.3793 8.2959
6 50 0 -4.9218 0.0000
6 50 2 3.5855 1.5620
6 50 4 -7.5743 -4.1627
6 52 0 -2.2491 0.0000
6 52 2 5.3654 -12.7293
6 52 4 -4.5368 2.8363
6 54 0 8.7364 -0.0000
6 54 2 7.4372 7.2430
6 56 0 -3.6539 0.0000
6 56 2 3.6187 0.4584
6 58 0 5.9088 -0.0000
6 58 2 -3.7736 -3.0939
6 60 0 2.2161 -0.0000
7 1 1 34.8773 -51.2169
7 1 3 -16.9881 -8.3898
7 1 5 -7.5106 -20.2218
7 1 7 -23.8784 11.1062
7 3 1 12.5472 -104.8280
7 3 3 -9.2819 -6.6700
7 3 5 -8.0887 5.9663
7 3 7 -15.1965 -13.5596
7 5 1 26.5342 -35.2183
7 5 3 25.5531 -25.9705
7 5 5 6.1457 -15.7432
7 5 7 -5.1940 4.4004
7 7 1 53.8037 -75.7856
7 7 3 20.1343 29.6256
7 7 5 8.2981 -1.6799
7 7 7 -18.7766 -25.4720
7 9 1 -5.5349 -99.7045
7 9 3 4.0333 -27.1941
7 9 5 6.0909 -12.6410
7 9 7 -0.7666 -10.6138
7 11 1 35.0380 -2.8282
7 11 3 22.7055 4.3863
7 11 5 -2.2054 -9.0628
7 11 7 -4.2152 11.1757
7 13 1 -10.2245 -48.8649
7 13 3 -10.8502 -2.6171
7 13 5 3.6992 10.9217
7 13 7 15.0255 -7.8159
7 15 1 -6.3577 31.0115
7 15 3 15.2782 3.3040
7 15 5 -13.3825 1.9544
7 15 7 -1.9697 -10.9286
7 17 1 -18.1804 -11.4919
7 17 3 -19.8237 0.9398
7 17 5 -3.4769 5.9787
7 17 7 -6.8242 -24.0718
7 19 1 -17.1253 23.4310
7 19 3 18.8665 7.9537
7 19 5 -6.6668 -1.3679
7 19 7 4.0695 -8.7665
7 21 1 4.8938 1.7210
7 21 3 -22.5156 -24.0369
7 21 5 -19.1388 11.6278
7 21 7 -2.1104 5.6301
7 23 1 -15.0686 -1.1059
7 23 3 21.4464 22.7212
7 23 5 3.3462 -17.5139
7 23 7 -2.9314 -7.9207
7 25 1 -2.1449 -2.9428
7 25 3 -2.8348 -1.3864
7 25 5 4.9036 4.7953
7 25 7 0.0197 17.9485
7 27 1 -0.3464 4.2764
7 27 3 -10.3509 -7.0267
7 27 5 2.2510 -17.5109
7 27 7 7.6003 -8.4441
7 29 1 -0.9837 -10.9773
7 29 3 -14.5974 12.9818
7 29 5 18.1075 -27.9069
7 29 7 -3.3489 14.8625
7 31 1 1.3466 3.7066
7 31 3 -2.7871 2.4497
7 31 5 -13.6348 -10.2928
7 31 7 4.2336 -15.8994
7 33 1 -2.5242 0.2109
7 33 3 -16.3666 -3.1737
7 33 5 12.9245 12.8924
7 33 7 11.8960 13.3853
7 35 1 -1.2335 16.2730
7 35 3 7.1472 4.1805
7 35 5 7.6493 -14.6183
7 37 1 -4.1911 -8.9734
7 37 3 5.5494 10.9790
7 37 5 0.0913 -16.2849
7 39 1 -1.9502 -12.4076
7 39 3 4.3488 10.6396
7 39 5 -5.1271 10.0081
7 41 1 3.2755 -10.4770
7 41 3 0.5507 -10.1686
7 41 5 -30.4781 -21.3558
7 43 1 -2.0863 0.9931
7 43 3 7.0266 -3.0865
7 43 5 -2.3942 22.9382
7 45 1 5.0065 -15.5150
7 45 3 18.2424 11.0725
7 45 5 -22.4989 -6.3372
7 47 1 -3.4346 -2.6541
7 47 3 -11.7218 0.5854
7 49 1 -2.0052 -15.5533
7 49 3 21.1434 7.2712
7 51 1 -15.4141 -10.8765
7 51 3 -1.9210 -6.3694
7 53 1 0.2019 -1.9546
7 53 3 -3.0587 -3.7560
7 55 1 -3.0689 2.2284
7 55 3 8.4591 3.4141
7 57 1 -5.1880 6.0145
7 59 1 -6.3537 -15.1585
8 0 0 -52.7481 0.0000
8 0 4 -3.8255 -20.6428
8 0 8 -7.4917 -40.1759
8 2 0 -19.0857 0.0000
8 2 2 -45.2483 -2.9554
8 2 4 6.8493 -6.2038
8 2 6 -8.5560 0.3965
8 2 8 -7.4841 -6.0573
8 4 0 92.7952 -0.0000
8 4 2 0.0416 -26.2131
8 4 4 1.9155 0.1733
8 4 6 -0.6676 -7.2911
8 4 8 0.7797 -39.5589
8 6 0 -46.9177 0.0000
8 6 2 21.6317 -9.7483
8 6 4 1.9121 -5.3194
8 6 6 -1.9491 14.4225
8 6 8 2.7710 -19.3990
8 8 0 53.2502 -0.0000
8 8 2 18.3847 -4.4344
8 8 4 25.2469 4.6998
8 8 6 -4.4771 -6.2241
8 8 8 1.0465 -31.2089
8 10 0 -13.7790 0.0000
8 10 2 -24.6478 3.9428
8 10 4 2.8544 -10.5701
8 10 6 -5.0864 -16.5297
8 10 8 -12.4721 -11.7705
8 12 0 29.6191 -0.0000
8 12 2 23.7877 9.2278
8 12 4 27.8231 -0.8503
8 12 6 -8.3755 8.4098
8 12 8 -5.3633 -2.5232
8 14 0 -1.7316 0.0000
8 14 2 -23.2361 9.4734
8 14 4 26.9775 0.3114
8 14 6 -11.7525 -8.5004
8 14 8 2.6595 -8.3619
8 16 0 9.5755 -0.0000
8 16 2 -4.3032 26.6042
8 16 4 -6.0030 -5.0116
8 16 6 -24.8882 17.3650
8 16 8 -1.6203 -21.2576
8 18 0 -5.2458 0.0000
8 18 2 -16.1098 11.1586
8 18 4 35.5761 -6.6915
8 18 6 -19.5681 -19.1095
8 18 8 -15.5093 -19.1595
8 20 0 0.0138 -0.0000
8 20 2 6.3984 11.3621
8 20 4 18.1774 0.7765
8 20 6 9.2350 18.7041
8 22 0 -1.2056 0.0000
8 22 2 21.4823 -18.4041
8 22 4 2.1972 -12.7330
8 22 6 -0.9190 9.4477
8 24 0 8.2628 -0.0000
8 24 2 10.4230 -7.4496
8 24 4 8.4090 5.0821
8 24 6 -4.9539 5.6638
8 26 0 5.9276 -0.0000
8 26 2 4.6026 -6.9945
8 26 4 2.8416 -0.4703
8 26 6 9.6288 19.6737
8 28 0 -0.4499 0.0000
8 28 2 40.3781 -20.2879
8 28 4 -28.3225 -5.5970
8 28 6 19.7205 -15.1560
8 30 0 -1.7385 0.0000
8 30 2 -7.4004 3.7829
8 30 4 27.6440 -5.8415
8 30 6 -2.9214 -4.0160
8 32 0 3.5642 -0.0000
8 32 2 13.1612 -0.8681
8 32 4 -8.5313 8.2020
8 32 6 -15.3405 -16.6835
8 34 0 7.6270 -0.0000
8 34 2 -12.2583 -4.1196
8 34 4 6.4605 13.7118
8 34 6 20.9333 26.9864
8 36 0 -12.4578 0.0000
8 36 2 1.2887 0.9430
8 36 4 1.6178 -0.1928
8 36 6 -4.1032 -15.5479
8 38 0 -6.4090 0.0000
8 38 2 14.2835 0.5668
8 38 4 17.5858 -5.3100
8 38 6 4.0415 -5.9106
8 40 0 -8.1882 0.0000
8 40 2 -19.9813 5.8900
8 40 4 10.0494 3.9408
8 40 6 -13.1706 -9.0235
8 42 0 -3.2892 0.0000
8 42 2 0.6704 -10.7237
8 42 4 6.2005 3.8824
8 42 6 -23.6510 -10.3896
8 44 0 -0.2610 0.0000
8 44 2 -8.7506 18.0566
8 44 4 17.7420 4.1686
8 46 0 -10.2234 0.0000
8 46 2 6.8947 -6.7140
8 46 4 6.5596 12.8224
8 48 0 -1.2202 0.0000
8 48 2 6.3594 6.5955
8 48 4 -7.4110 -6.3934
8 50 0 -19.0503 0.0000
8 50 2 13.1738 -14.1384
8 50 4 0.7055 3.8949
8 52 0 4.0136 -0.0000
8 52 2 -7.1932 7.8983
8 52 4 -0.6922 -6.0024
8 54 0 1.0746 0.0000
8 54 2 4.3946 -6.6106
8 56 0 6.8780 -0.0000
8 56 2 3.4608 9.7999
8 58 0 -10.4303 0.0000
8 58 2 22.7309 -4.6513
8 60 0 -5.2470 0.0000
9 1 1 -72.9153 -25.6019
9 1 3 -9.9146 -21.4266
9 1 5 -6.0319 5.8224
9 1 7 -6.7267 -24.6173
9 3 1 32.9437 -67.8821
9 3 3 11.8393 -5.9107
9 3 5 -5.7496 -25.3510
9 3 7 -14.1430 -1.8768
9 5 1 18.5406 -114.9486
9 5 3 3.4559 8.4517
9 5 5 5.6708 9.2130
9 5 7 -21.6211 -15.9303
9 7 1 17.3354 -85.4573
9 7 3 10.2259 -53.0327
9 7 5 4.2099 -4.0504
9 7 7 9.8531 -0.6081
9 9 1 18.3819 -50.4499
9 9 3 8.1718 21.2200
9 9 5 5.4228 1.9293
9 9 7 -2.6593 -2.8564
9 11 1 -2.0835 -78.1420
9 11 3 -3.4443 -37.6330
9 11 5 4.9374 3.4935
9 11 7 14.5466 -8.5075
9 13 1 12.7748 5.2913
9 13 3 21.1349 -3.7906
9 13 5 -4.3074 6.0342
9 13 7 3.1900 4.7166
9 15 1 6.4792 -26.1252
9 15 3 -29.2212 -16.8784
9 15 5 8.2206 21.6041
9 15 7 14.4155 -8.4677
9 17 1 -4.9898 32.5889
9 17 3 -4.1488 -11.3000
9 17 5 -27.7120 20.8722
9 17 7 -7.7461 -1.7642
9 19 1 2.1648 5.7508
9 19 3 -12.2668 2.3338
9 19 5 4.4202 -7.1463
9 19 7 -9.0851 1.0691
9 21 1 -3.7189 14.7978
9 21 3 13.7657 17.1226
9 21 5 16.8917 0.6627
9 21 7 4.2051 -3.9934
9 23 1 11.0805 8.3800
9 23 3 -12.5990 -33.0904
9 23 5 -7.9161 8.8238
9 23 7 3.3100 6.5281
9 25 1 -3.0435 -2.1669
9 25 3 0.1969 23.8619
9 25 5 -6.1648 -17.4265
9 25 7 -14.9777 -0.6102
9 27 1 6.7108 -10.4949
9 27 3 -12.8236 6.5783
9 27 5 -2.5921 -14.2107
9 27 7 9.2598 11.3071
9 29 1 15.4720 4.4666
9 29 3 -8.9745 -19.1798
9 29 5 2.5851 -2.6236
9 29 7 8.8544 -20.1394
9 31 1 -10.4962 -9.7040
9 31 3 5.8185 2.7860
9 31 5 9.5863 -6.9916
9 31 7 2.9119 -4.1521
9 33 1 -1.2086 21.5403
9 33 3 5.4999 -0.6114
9 33 5 -16.9405 -6.6059
9 33 7 1.8587 -1.6044
9 35 1 -2.8929 -9.3463
9 35 3 -13.1468 5.1164
9 35 5 10.7576 11.4587
9 37 1 -5.1998 -3.0939
9 37 3 7.9132 -2.2953
9 37 5 -7.0011 -10.6548
9 39 1 0.9242 -11.8110
9 39 3 13.6468 -5.5737
9 39 5 -6.2120 -14.4600
9 41 1 -14.2215 0.9747
9 41 3 2.4565 6.9488
9 41 5 -9.8161 9.7440
9 43 1 1.7253 -8.5918
9 43 3 -5.1727 -6.6164
9 43 5 -16.5896 -2.3055
9 45 1 -11.3838 -0.8600
9 45 3 7.8609 10.1977
9 45 5 -1.5356 11.0141
9 47 1 -11.7805 -23.2982
9 47 3 11.5538 9.3260
9 47 5 -6.9589 -19.9074
9 49 1 -10.7319 -2.1816
9 49 3 -6.6725 -7.5504
9 51 1 -9.6500 0.5227
9 51 3 9.8647 -9.6133
9 53 1 -10.7042 7.4062
9 53 3 -8.8748 0.8901
9 55 1 -9.0526 1.6237
9 55 3 -13.3299 -2.1798
9 57 1 -3.7401 -3.1752
9 59 1 -3.8162 1.0135
10 0 2 -79.9688 14.6344
10 0 6 -8.7718 -7.5675
10 2 0 -72.9220 0.0000
10 2 2 8.8774 -4.0497
10 2 4 1.1572 -15.4016
10 2 6 5.7600 -6.1395
10 2 8 -2.3458 -19.2148
10 4 0 -3.2167 0.0000
10 4 2 1.2773 6.5738
10 4 4 11.3616 -2.5765
10 4 6 -8.2871 2.6025
10 4 8 -1.2811 -23.9340
10 6 0 27.6649 -0.0000
10 6 2 -3.4239 -25.9208
10 6 4 16.2601 -10.5354
10 6 6 -11.1176 -9.0648
10 6 8 1.1878 -10.6599
10 8 0 -23.6258 0.0000
10 8 2 13.9692 -18.7961
10 8 4 5.9270 -16.6811
10 8 6 -4.5171 4.0581
10 8 8 -0.1141 -3.4251
10 10 0 14.5547 -0.0000
10 10 2 4.1430 4.3578
10 10 4 37.1049 6.1166
10 10 6 -6.6427 -3.0930
10 10 8 -10.4918 -0.3631
10 12 0 6.6707 -0.0000
10 12 2 -8.9540 1.3674
10 12 4 23.5871 -6.1024
10 12 6 -16.5439 -23.4769
10 12 8 -9.3578 -2.5527
10 14 0 13.7634 -0.0000
10 14 2 -4.3999 22.3805
10 14 4 29.5674 -15.1319
10 14 6 -17.4761 11.6630
10 14 8 -7.8038 -7.0217
10 16 0 10.1177 -0.0000
10 16 2 -20.3545 9.7018
10 16 4 48.3934 0.0105
10 16 6 -19.0874 0.9222
10 16 8 -5.0574 0.5265
10 18 0 16.1962 -0.0000
10 18 2 -2.3028 19.5629
10 18 4 -17.4146 1.8612
10 18 6 -5.3225 34.3727
10 18 8 -20.8433 -12.8247
10 20 0 -5.0860 0.0000
10 20 2 -1.3441 26.3709
10 20 4 43.5460 -16.2102
10 20 6 -11.8177 2.8142
10 22 0 7.6619 -0.0000
10 22 2 -4.1910 11.8375
10 22 4 30.2406 13.0966
10 22 6 7.5937 18.5650
10 24 0 -14.0079 0.0000
10 24 2 16.2843 -12.2268
10 24 4 -12.3333 -2.8573
10 24 6 5.6234 19.9802
10 26 0 11.8284 -0.0000
10 26 2 11.0101 -1.5299
10 26 4 -13.7494 7.3644
10 26 6 -7.5421 -1.2795
10 28 0 -3.4279 0.0000
10 28 2 -8.0436 9.6080
10 28 4 7.5748 -0.6359
10 28 6 -5.3652 11.2013
10 30 0 -6.2380 0.0000
10 30 2 29.1263 -23.4414
10 30 4 -6.7991 15.2993
10 30 6 -6.2923 -21.6421
10 32 0 0.3336 -0.0000
10 32 2 -21.0779 -0.0603
10 32 4 24.5191 9.4059
10 32 6 6.5411 -4.5567
10 34 0 -3.8433 -0.0000
10 34 2 2.7441 8.9714
10 34 4 -12.0971 -3.7313
10 34 6 -7.1805 -11.3191
10 36 0 0.7064 -0.0000
10 36 2 -0.6987 -12.1215
10 36 4 8.8470 14.3429
10 36 6 16.2944 12.1489
10 38 0 -14.0895 0.0000
10 38 2 -9.8829 -2.8916
10 38 4 1.8243 -8.1348
10 38 6 -20.4141 -26.8058
10 40 0 2.0368 -0.0000
10 40 2 8.7810 -9.6112
10 40 4 20.3082 -8.0340
10 40 6 5.0989 -13.8657
10 42 0 -1.8914 0.0000
10 42 2 -26.4787 23.2714
10 42 4 22.1121 -5.8519
10 42 6 -13.4730 -0.2310
10 44 0 -10.2869 0.0000
10 44 2 12.1525 -16.5957
10 44 4 -0.3897 15.5829
10 46 0 -5.7782 0.0000
10 46 2 4.7266 14.3644
10 46 4 9.1785 -7.2657
10 48 0 -25.4993 0.0000
10 48 2 1.4662 -20.3486
10 48 4 7.1375 -2.1311
10 50 0 10.5603 -0.0000
10 50 2 -7.9515 8.0590
10 50 4 11.8915 -11.8553
10 52 0 -5.4944 0.0000
10 52 2 9.8970 -1.2596
10 52 4 -2.7480 0.5896
10 54 0 2.3361 -0.0000
10 54 2 -10.2770 13.7825
10 56 0 -12.2501 0.0000
10 56 2 9.7672 -12.0642
10 58 0 -5.5012 0.0000
10 58 2 2.9395 4.2629
10 60 0 -2.9674 -0.0000
11 1 1 3.1720 -80.9428
11 1 3 -5.7659 15.2502
11 1 5 -5.7015 -12.3846
11 1 7 -17.9431 -1.7149
11 3 1 -33.2466 -24.2988
11 3 3 0.4310 -1.7484
11 3 5 4.6720 13.4938
11 3 7 -3.6808 -11.1007
11 5 1 18.6773 -71.6843
11 5 3 9.9042 -20.1544
11 5 5 -4.7591 -10.9314
11 5 7 2.1705 -12.8960
11 7 1 -10.7468 -89.7053
11 7 3 -6.8290 8.1108
11 7 5 10.9134 5.7478
11 7 7 -7.1598 3.7403
11 9 1 16.7388 -72.9098
11 9 3 2.4618 -59.8748
11 9 5 -6.4854 4.3372
11 9 7 26.6682 7.4986
11 11 1 6.8933 -26.7328
11 11 3 14.5813 9.5699
11 11 5 -3.9223 10.7293
11 11 7 11.1989 11.3667
11 13 1 16.5970 -45.6808
11 13 3 -22.9668 -36.5809
11 13 5 -0.2216 12.6193
11 13 7 13.6785 -17.4258
11 15 1 -3.4164 13.7878
11 15 3 7.1545 -18.9347
11 15 5 -8.4278 5.8495
11 15 7 -0.5217 2.4155
11 17 1 21.6808 -7.8741
11 17 3 -9.5507 5.3339
11 17 5 15.9061 0.4256
11 17 7 5.5841 13.6871
11 19 1 19.0423 15.8409
11 19 3 -15.1327 -19.5433
11 19 5 -5.3626 18.5796
11 19 7 -5.3440 17.3623
11 21 1 13.1619 8.0549
11 21 3 2.1194 -2.3914
11 21 5 -0.2272 -6.0154
11 21 7 -8.9012 2.8906
11 23 1 0.0315 -0.0649
11 23 3 10.4913 26.8229
11 23 5 13.0825 -6.1907
11 23 7 -3.5578 -3.7338
11 25 1 15.9741 1.8931
11 25 3 -11.6741 -20.4878
11 25 5 -2.0938 -2.4317
11 25 7 12.0681 8.3065
11 27 1 17.3556 -9.2109
11 27 3 -10.3545 6.7779
11 27 5 -8.6290 -3.1883
11 27 7 -11.3691 -0.2004
11 29 1 -2.6413 -17.8728
11 29 3 4.3012 3.4543
11 29 5 -14.9521 12.9259
11 29 7 8.6898 -9.5587
11 31 1 7.7879 18.5367
11 31 3 4.6217 -18.6615
11 31 5 -9.1033 12.8880
11 31 7 5.3770 -8.8235
11 33 1 -12.6407 -5.2821
11 33 3 -2.9796 7.9176
11 33 5 17.6602 -8.8558
11 33 7 2.7376 6.3296
11 35 1 -3.5183 10.0161
11 35 3 15.8175 -1.1425
11 35 5 -19.1217 -7.9755
11 37 1 -1.3732 -16.5496
11 37 3 -7.9240 5.7041
11 37 5 -2.9590 11.2801
11 39 1 -13.1799 1.4595
11 39 3 -0.0709 -4.8848
11 39 5 -10.6774 -13.1530
11 41 1 -1.2512 -2.6487
11 41 3 -2.0235 -12.9633
11 41 5 4.7479 -0.4718
11 43 1 -17.1887 -3.4554
11 43 3 14.0758 23.6496
11 43 5 -4.0329 -1.5848
11 45 1 -4.6448 -17.2965
11 45 3 -6.1208 1.6344
11 45 5 -2.6029 -13.1802
11 47 1 -13.7080 -3.0312
11 47 3 5.0815 -3.0447
11 47 5 10.3451 -10.5149
11 49 1 -23.0576 -9.7923
11 49 3 2.1211 -18.1340
11 51 1 -3.1111 13.7304
11 51 3 -17.2498 -5.3343
11 53 1 -6.6941 11.0538
11 53 3 -0.1216 -8.6464
11 55 1 -8.9939 6.0973
11 55 3 -4.1113 4.3832
11 57 1 -16.4030 -5.7240
11 59 1 0.5990 5.2777
12 0 0 -71.1960 0.0000
12 0 4 8.7937 -20.9924
12 0 8 -3.5134 -4.8590
12 2 0 47.9171 -0.0000
12 2 2 -42.5436 16.4552
12 2 4 7.8228 13.1411
12 2 6 1.0955 -7.5461
12 2 8 -0.2345 -7.2703
12 4 0 -44.4842 0.0000
12 4 2 11.3157 -3.9274
12 4 4 9.3602 -16.9120
12 4 6 -2.8148 3.0010
12 4 8 -0.6975 0.8238
12 6 0 -16.7011 0.0000
12 6 2 13.9244 -4.6261
12 6 4 13.3797 -6.1769
12 6 6 -0.7447 0.4593
12 6 8 -1.8408 -17.3470
12 8 0 14.5084 -0.0000
12 8 2 -24.0830 -4.8217
12 8 4 21.3225 -10.1822
12 8 6 -5.0342 -18.6240
12 8 8 -12.1880 12.9229
12 10 0 8.8917 -0.0000
12 10 2 24.0184 -30.0914
12 10 4 20.2378 1.3621
12 10 6 -11.0734 -8.2446
12 10 8 -1.2086 7.8055
12 12 0 12.3035 -0.0000
12 12 2 -2.2069 6.6671
12 12 4 25.1158 -5.9295
12 12 6 -6.7246 10.2228
12 12 8 -6.4935 -0.0761
12 14 0 20.1512 -0.0000
12 14 2 -7.8516 0.3287
12 14 4 18.9769 1.9937
12 14 6 -27.3061 -13.9324
12 14 8 -3.0534 2.1532
12 16 0 4.9572 -0.0000
12 16 2 -6.8171 12.8266
12 16 4 7.2054 -11.8402
12 16 6 8.6352 21.8477
12 16 8 -23.3661 -10.5540
12 18 0 5.1484 -0.0000
12 18 2 0.0699 30.5001
12 18 4 61.8604 -5.5368
12 18 6 -1.9138 13.2291
12 20 0 13.3613 -0.0000
12 20 2 6.6150 -5.3045
12 20 4 -10.0647 7.4561
12 20 6 3.8865 34.5003
12 22 0 -9.9134 0.0000
12 22 2 1.4215 17.9902
12 22 4 11.7561 -3.1905
12 22 6 -16.7500 16.7331
12 24 0 5.4621 -0.0000
12 24 2 -5.1173 7.7738
12 24 4 15.9386 14.5542
12 24 6 6.9445 10.1101
12 26 0 -22.7190 0.0000
12 26 2 15.5999 6.4384
12 26 4 -7.9194 -1.3280
12 26 6 10.8893 11.2591
12 28 0 -1.9372 0.0000
12 28 2 12.5324 -11.8617
12 28 4 7.7658 13.5460
12 28 6 -34.1606 -12.3397
12 30 0 4.3468 -0.0000
12 30 2 -22.8119 5.4885
12 30 4 5.7778 18.4257
12 30 6 -10.7242 6.2315
12 32 0 -3.0020 0.0000
12 32 2 10.2380 -8.4832
12 32 4 -14.7118 7.2088
12 32 6 1.4547 -7.7070
12 34 0 -4.1767 0.0000
12 34 2 -9.9148 -5.8010
12 34 4 15.8676 7.5995
12 34 6 16.6372 -9.4378
12 36 0 -7.5197 0.0000
12 36 2 5.5116 8.2502
12 36 4 -0.4178 -15.3097
12 36 6 -20.2620 -20.2738
12 38 0 8.9011 -0.0000
12 38 2 -6.0230 -8.9644
12 38 4 2.0209 5.8431
12 38 6 8.5876 -1.9286
12 40 0 -2.9421 0.0000
12 40 2 -25.6735 8.2292
12 40 4 14.5115 -16.9125
12 40 6 -17.0184 -13.8563
12 42 0 -6.4444 0.0000
12 42 2 15.5323 -10.3945
12 42 4 4.5079 5.4911
12 44 0 -4.6909 0.0000
12 44 2 -4.8156 20.3794
12 44 4 26.9635 -10.6748
12 46 0 -15.6598 0.0000
12 46 2 9.3742 -17.8394
12 46 4 1.4951 -0.8830
12 48 0 2.3745 -0.0000
12 48 2 -6.3346 4.4341
12 48 4 29.8325 -14.8753
12 50 0 -11.4618 0.0000
12 50 2 -9.9465 -6.3202
12 50 4 9.7393 -7.8654
12 52 0 11.5657 -0.0000
12 52 2 -15.5847 14.2699
12 52 4 8.0385 -8.2985
12 54 0 -5.2652 0.0000
12 54 2 15.1272 -1.2854
12 56 0 -11.8832 0.0000
12 56 2 -1.7027 -0.2695
12 58 0 -9.6129 0.0000
12 58 2 4.7440 -9.2142
12 60 0 -5.6770 0.0000
13 1 1 -26.4296 32.6800
13 1 3 5.0770 1.2091
13 1 5 -6.5739 7.8907
13 1 7 4.6931 -3.5124
13 3 1 5.7314 -76.8626
13 3 3 0.5605 12.4114
13 3 5 1.1058 -2.5083
13 3 7 -11.5523 -2.9165
13 5 1 -31.2513 -30.7609
13 5 3 -8.0712 1.5992
13 5 5 14.0831 14.7153
13 5 7 2.2575 15.8291
13 7 1 1.5261 -34.2448
13 7 3 -2.8947 -29.2142
13 7 5 -12.5299 -7.9349
13 7 7 24.0009 -6.4404
13 9 1 -21.0991 -49.3606
13 9 3 10.7211 6.2283
13 9 5 -0.4078 -0.1434
13 9 7 1.7850 13.3424
13 11 1 19.4324 -57.3177
13 11 3 -2.9074 -38.3906
13 11 5 -8.3633 -0.1641
13 11 7 22.8718 -5.7364
13 13 1 6.3091 -6.8122
13 13 3 1.2393 -9.5982
13 13 5 -7.3681 4.2925
13 13 7 14.6267 13.4646
13 15 1 20.4877 -25.2577
13 15 3 -14.1050 -9.7647
13 15 5 -7.3123 1.4328
13 15 7 0.9468 -4.1373
13 17 1 7.4238 2.2073
13 17 3 0.0543 -22.1343
13 17 5 9.5131 -11.3448
13 17 7 1.4957 19.5698
13 19 1 22.2959 -10.0920
13 19 3 23.1716 20.3038
13 19 5 21.1054 -13.2564
13 19 7 3.0580 1.5051
13 21 1 20.0711 -2.1034
13 21 3 -9.7761 -22.8086
13 21 5 2.0431 12.3513
13 21 7 1.1216 13.8176
13 23 1 16.9755 -3.9087
13 23 3 -0.3359 -2.2313
13 23 5 -13.9669 -2.1713
13 23 7 -6.9387 11.3470
13 25 1 11.8092 -17.8986
13 25 3 -4.1589 26.5129
13 25 5 5.2524 -5.6535
13 25 7 6.5310 4.8494
13 27 1 14.0156 -7.8386
13 27 3 2.9219 -23.6122
13 27 5 10.4870 24.7918
13 27 7 11.2932 -9.7185
13 29 1 6.4087 3.8273
13 29 3 8.8011 -7.4561
13 29 5 -20.5208 14.1597
13 29 7 -11.5924 -7.2397
13 31 1 -7.4276 -5.2192
13 31 3 -5.3807 11.0235
13 31 5 -4.9484 9.5709
13 31 7 4.3105 1.6596
13 33 1 5.0234 11.1820
13 33 3 4.0788 -6.0946
13 33 5 -11.7669 13.2911
13 35 1 -7.2728 -11.1462
13 35 3 -6.5032 6.2402
13 35 5 14.2701 -0.9511
13 37 1 -2.3227 11.1226
13 37 3 17.6291 -6.9789
13 37 5 -15.1951 -15.3304
13 39 1 -5.9013 -2.2264
13 39 3 -20.9988 1.1107
13 39 5 -1.8704 9.8962
13 41 1 -9.1503 -4.9930
13 41 3 2.3749 12.0224
13 41 5 1.0587 -13.2840
13 43 1 -1.9024 -10.8808
13 43 3 -6.0260 -2.4986
13 43 5 3.6667 2.7191
13 45 1 -12.0364 -12.2540
13 45 3 15.9798 12.6206
13 45 5 10.2354 -22.3810
13 47 1 -10.3226 -7.6694
13 47 3 -6.2454 -21.7721
13 47 5 4.0202 -9.9122
13 49 1 -1.4420 9.8373
13 49 3 -6.2043 -13.8314
13 51 1 -12.1426 4.9984
13 51 3 -8.7634 -13.5577
13 53 1 -7.2346 8.2894
13 53 3 -17.8985 0.1921
13 55 1 -8.1689 2.7925
13 55 3 15.8526 -5.6741
13 57 1 1.2395 9.9268
13 59 1 -13.7523 2.0518
14 0 2 -29.9709 12.2280
14 0 6 22.7095 -8.1820
14 2 0 -21.0620 0.0000
14 2 2 31.0762 6.9274
14 2 4 18.2394 -20.5186
14 2 6 -3.7789 14.4280
14 2 8 -6.2327 -3.1409
14 4 0 37.8567 -0.0000
14 4 2 -11.9159 -4.1479
14 4 4 14.7267 8.9508
14 4 6 15.2166 2.2095
14 4 8 -1.3736 -3.0124
14 6 0 -0.1162 -0.0000
14 6 2 -19.4504 4.9795
14 6 4 8.0749 -17.1050
14 6 6 -0.5148 -0.6766
14 6 8 -6.6739 15.6764
14 8 0 -12.2687 0.0000
14 8 2 24.9368 -25.1323
14 8 4 16.7667 16.9321
14 8 6 2.1505 -3.9826
14 8 8 -0.4025 -8.1166
14 10 0 11.3898 -0.0000
14 10 2 -7.2177 -0.2832
14 10 4 -1.5549 -12.0008
14 10 6 -1.4034 -14.1718
14 10 8 -11.7814 3.6513
14 12 0 18.7419 -0.0000
14 12 2 10.7959 -21.3145
14 12 4 15.9780 4.0388
14 12 6 -18.9712 -12.1305
14 12 8 10.5627 8.9781
14 14 0 10.0869 -0.0000
14 14 2 1.0496 -11.3102
14 14 4 3.4744 -1.5801
14 14 6 17.0914 29.7837
14 14 8 -7.9024 -6.6466
14 16 0 8.4960 -0.0000
14 16 2 10.1391 9.1584
14 16 4 7.5352 6.7440
14 16 6 -10.7047 0.6399
14 18 0 -9.9825 0.0000
14 18 2 10.9287 -9.5417
14 18 4 2.5874 -12.7815
14 18 6 19.6068 17.8073
14 20 0 -6.0442 0.0000
14 20 2 -1.4807 26.4388
14 20 4 56.6926 -3.1659
14 20 6 -7.4623 2.8855
14 22 0 1.7368 0.0000
14 22 2 9.2387 -23.7249
14 22 4 -6.2589 10.6770
14 22 6 13.5876 19.4610
14 24 0 -10.8492 0.0000
14 24 2 8.9006 17.6526
14 24 4 -20.0444 -1.3750
14 24 6 -9.1789 17.0146
14 26 0 -2.4705 0.0000
14 26 2 -7.3384 5.8404
14 26 4 29.1238 1.4705
14 26 6 -18.6888 1.4312
14 28 0 -8.2027 0.0000
14 28 2 4.8102 -2.5422
14 28 4 11.0749 18.8960
14 28 6 1.6956 -1.3965
14 30 0 -3.7596 0.0000
14 30 2 2.2669 -5.6179
14 30 4 -0.0939 -0.1969
14 30 6 -18.5494 -13.9233
14 32 0 6.6240 -0.0000
14 32 2 -13.7113 8.6435
14 32 4 -6.6838 9.6114
14 32 6 9.1783 11.5872
14 34 0 0.9850 -0.0000
14 34 2 6.8883 2.2469
14 34 4 -9.4520 0.8077
14 34 6 -13.8695 -1.0457
14 36 0 2.4523 -0.0000
14 36 2 -10.4434 -6.1486
14 36 4 8.3157 1.4334
14 36 6 6.3820 -15.5588
14 38 0 0.3227 0.0000
14 38 2 -4.6422 12.3728
14 38 4 16.1474 -27.0659
14 38 6 -12.4249 -18.4280
14 40 0 0.8361 -0.0000
14 40 2 -4.3454 7.8367
14 40 4 -6.6287 3.7321
14 40 6 10.6526 6.2620
14 42 0 -0.2564 -0.0000
14 42 2 -6.3259 9.0319
14 42 4 27.4945 -1.6390
14 44 0 -9.7005 0.0000
14 44 2 17.4371 -8.0107
14 44 4 -7.3573 4.1012
14 46 0 -4.2440 0.0000
14 46 2 -12.4025 0.9203
14 46 4 47.2855 -19.1405
14 48 0 1.3165 -0.0000
14 48 2 -5.7876 -1.2640
14 48 4 14.3073 -10.9932
14 50 0 14.3343 -0.0000
14 50 2 -7.4934 10.6673
14 50 4 20.3784 -6.2588
14 52 0 -4.0132 0.0000
14 52 2 -2.8557 -3.7467
14 52 4 7.7888 -9.5354
14 54 0 -14.3762 0.0000
14 54 2 -10.6169 -8.2720
14 56 0 1.4966 0.0000
14 56 2 14.1343 -0.0915
14 58 0 -4.7456 0.0000
15 1 1 -21.3621 -29.4577
15 1 3 7.2738 -0.4487
15 1 5 3.7501 1.3950
15 1 7 -6.9912 3.2452
15 3 1 -7.9513 26.5772
15 3 3 10.8512 -1.5753
15 3 5 9.7662 11.7111
15 3 7 4.9907 13.7083
15 5 1 -9.1234 -37.5836
15 5 3 -13.1927 -2.5647
15 5 5 4.3147 -7.5687
15 5 7 3.7466 0.7767
15 7 1 -31.6585 -23.5941
15 7 3 8.7745 0.4483
15 7 5 4.7318 6.6011
15 7 7 2.6326 26.0211
15 9 1 -5.2505 -24.3294
15 9 3 -1.3865 -6.8799
15 9 5 -16.6655 -14.1569
15 9 7 24.8489 -11.2758
15 11 1 -5.1023 -14.2352
15 11 3 -4.2404 -9.9925
15 11 5 -7.7612 -8.0513
15 11 7 5.5766 2.1214
15 13 1 -3.6514 -40.3742
15 13 3 5.8082 -11.1881
15 13 5 -6.1619 -11.5605
15 13 7 8.3572 -11.8225
15 15 1 16.2755 -7.8587
15 15 3 1.6046 -3.1458
15 15 5 7.7364 -14.4391
15 15 7 20.4411 34.0292
15 17 1 20.4437 -30.1703
15 17 3 6.8822 4.3116
15 17 5 -4.8705 -2.7030
15 17 7 -3.2712 -9.8764
15 19 1 6.9002 -4.8777
15 19 3 -1.4074 -36.4206
15 19 5 7.3383 -9.6189
15 19 7 9.5899 10.2784
15 21 1 7.6504 -14.7414
15 21 3 37.2268 18.4995
15 21 5 8.1887 -17.3574
15 21 7 2.4894 -11.3746
15 23 1 18.3913 -14.2713
15 23 3 -15.9673 -5.5823
15 23 5 13.1383 -1.1305
15 23 7 21.3153 20.2424
15 25 1 25.8686 -11.8554
15 25 3 -13.6893 -22.0983
15 25 5 -3.2978 26.6929
15 25 7 -7.7915 10.0557
15 27 1 1.2364 -11.0934
15 27 3 9.0776 9.0954
15 27 5 -22.1904 17.8462
15 27 7 4.5214 -14.8916
15 29 1 6.3984 2.5988
15 29 3 4.3592 -15.8567
15 29 5 27.9358 17.1215
15 29 7 5.9237 -5.9216
15 31 1 1.8427 7.0925
15 31 3 6.3904 -0.0972
15 31 5 -8.0185 -0.2974
15 31 7 -4.1102 -0.9124
15 33 1 -0.3237 -2.0681
15 33 3 -8.9935 6.6626
15 33 5 4.2675 16.5554
15 35 1 10.5852 6.0034
15 35 3 4.9937 -3.0261
15 35 5 -21.3573 17.0726
15 37 1 -9.9642 -3.4363
15 37 3 -20.6431 -3.9449
15 37 5 10.7011 -3.1084
15 39 1 5.3377 6.8216
15 39 3 10.4715 -5.3626
15 39 5 8.1637 -18.1161
15 41 1 -5.5797 -4.8816
15 41 3 -8.4094 11.8287
15 41 5 -12.4946 11.5221
15 43 1 3.6864 -14.8648
15 43 3 9.4536 19.0422
15 43 5 8.7710 -23.0089
15 45 1 -2.2153 -10.2895
15 45 3 -9.0253 -21.1798
15 45 5 3.9276 3.4158
15 47 1 -7.1201 -5.9179
15 47 3 2.2873 -12.8610
15 47 5 13.1976 -10.3947
15 49 1 2.9013 8.0532
15 49 3 -11.2566 -9.0121
15 51 1 2.3370 5.7687
15 51 3 -5.0151 -2.9045
15 53 1 -5.3723 -5.3412
15 53 3 7.8928 -3.7328
15 55 1 -10.9456 2.0227
15 55 3 -7.9731 2.4569
15 57 1 0.2208 8.2430
16 0 0 44.0002 -0.0000
16 0 4 35.2441 -7.0062
16 0 8 -10.4273 -9.7509
16 2 0 15.4479 -0.0000
16 2 2 -1.6286 -12.1028
16 2 4 11.0163 0.0735
16 2 6 32.7754 11.3779
16 2 8 -3.8944 2.2870
16 4 0 2.8118 0.0000
16 4 2 15.3931 11.1281
16 4 4 17.4029 -28.7476
16 4 6 -1.5906 15.3575
16 4 8 -5.3676 -9.7668
16 6 0 18.1500 -0.0000
16 6 2 -0.7349 -25.8965
16 6 4 15.9665 18.7956
16 6 6 18.8488 -1.4744
16 6 8 3.5939 1.3946
16 8 0 21.1635 -0.0000
16 8 2 -4.5732 -6.7115
16 8 4 -11.0694 -6.7298
16 8 6 -1.2735 -3.9193
16 8 8 -6.0811 8.1585
16 10 0 -8.2729 0.0000
16 10 2 16.4492 -17.5726
16 10 4 10.3719 13.4480
16 10 6 -6.4918 -1.0940
16 10 8 13.1425 -1.5113
16 12 0 8.2417 -0.0000
16 12 2 6.0061 -18.0411
16 12 4 -25.1243 -3.6736
16 12 6 12.3730 5.5910
16 12 8 -4.1386 -13.5116
16 14 0 -5.2461 0.0000
16 14 2 7.4573 -3.6726
16 14 4 4.5717 4.9929
16 14 6 -1.0133 -11.1858
16 16 0 -9.4470 0.0000
16 16 2 19.4822 -17.3230
16 16 4 13.2535 -1.8994
16 16 6 31.2854 29.4813
16 18 0 -1.0480 0.0000
16 18 2 4.6835 -0.1301
16 18 4 12.9248 4.1732
16 18 6 -18.6307 -11.0817
16 20 0 -10.8791 0.0000
16 20 2 8.5913 -32.5624
16 20 4 -3.1257 -5.2343
16 20 6 14.0255 3.6965
16 22 0 -10.7964 0.0000
16 22 2 -3.9678 25.6532
16 22 4 22.8516 -10.5109
16 22 6 2.7232 -5.6948
16 24 0 -6.7210 0.0000
16 24 2 3.5812 -2.5932
16 24 4 20.9052 -11.7821
16 24 6 12.5774 1.0240
16 26 0 2.9930 -0.0000
16 26 2 2.5284 -2.8691
16 26 4 -9.0976 15.8664
16 26 6 -28.2722 4.7200
16 28 0 3.9287 -0.0000
16 28 2 -14.9612 1.8251
16 28 4 8.4947 -10.5124
16 28 6 -15.8318 -2.8281
16 30 0 3.5165 -0.0000
16 30 2 5.5179 1.9292
16 30 4 0.8405 9.1759
16 30 6 28.1675 6.6720
16 32 0 -5.2556 0.0000
16 32 2 3.4073 7.5574
16 32 4 3.6403 -8.9497
16 32 6 -12.7798 -13.5478
16 34 0 5.0074 -0.0000
16 34 2 -3.5463 8.6316
16 34 4 -0.6255 3.8136
16 34 6 -0.9874 9.9176
16 36 0 9.7649 -0.0000
16 36 2 -3.1309 9.5440
16 36 4 -2.6874 -3.2498
16 36 6 -18.6003 -0.8486
16 38 0 -2.4405 0.0000
16 38 2 -18.6815 8.1547
16 38 4 2.5408 -11.2722
16 38 6 10.9973 -2.7820
16 40 0 -2.2745 0.0000
16 40 2 9.5901 5.5171
16 40 4 30.8810 -1.1701
16 40 6 0.6019 -15.6562
16 42 0 -3.3822 0.0000
16 42 2 10.2564 17.1159
16 42 4 -11.7629 7.2394
16 44 0 0.3650 0.0000
16 44 2 -7.2489 -0.0180
16 44 4 45.2121 -3.6994
16 46 0 6.7061 -0.0000
16 46 2 0.4131 -3.9965
16 46 4 4.8903 -3.5139
16 48 0 5.8084 -0.0000
16 48 2 -19.2029 0.2597
16 48 4 28.2157 -7.7232
16 50 0 4.5649 -0.0000
16 50 2 -0.5797 5.7040
16 50 4 4.9144 -8.5820
16 52 0 -1.9616 0.0000
16 52 2 5.9327 -2.9046
16 54 0 4.0440 -0.0000
16 54 2 4.1426 -13.2391
16 56 0 -18.2223 0.0000
16 56 2 -5.5060 -9.1669
16 58 0 15.6944 -0.0000
17 1 1 7.1116 4.1173
17 1 3 15.1141 10.8056
17 1 5 24.5907 10.5793
17 1 7 -8.2394 3.0585
17 3 1 -22.4433 -28.4854
17 3 3 -12.9522 -7.4849
17 3 5 15.7482 -2.1026
17 3 7 -6.9219 7.1670
17 5 1 -18.3998 26.4792
17 5 3 17.7902 -16.0811
17 5 5 6.7079 4.5280
17 5 7 9.7496 8.5711
17 7 1 -21.8697 -19.6164
17 7 3 -4.7255 6.0049
17 7 5 -8.5733 -19.2844
17 7 7 7.9819 -6.1756
17 9 1 -2.5638 -21.6075
17 9 3 -1.7159 -8.6475
17 9 5 1.0131 -0.8398
17 9 7 2.7133 11.7065
17 11 1 -20.3911 -18.4236
17 11 3 2.6687 6.0516
17 11 5 -10.4584 -12.4115
17 11 7 16.6108 -12.5004
17 13 1 14.4431 3.5748
17 13 3 -12.4301 -6.7818
17 13 5 -5.7343 -10.2584
17 13 7 15.0215 16.1135
17 15 1 -16.8286 -39.4130
17 15 3 17.2416 -2.4074
17 15 5 2.8533 -11.8445
17 15 7 -0.5453 -16.9496
17 17 1 9.4743 -2.7896
17 17 3 8.0363 -7.5073
17 17 5 10.5733 -13.0139
17 17 7 28.8474 21.4935
17 19 1 8.7354 -21.4156
17 19 3 24.6525 -8.8730
17 19 5 -11.3395 3.2651
17 19 7 -5.4704 -25.1521
17 21 1 3.7082 -4.4170
17 21 3 -20.0630 -22.5197
17 21 5 4.8011 -10.3423
17 21 7 19.1269 17.4687
17 23 1 12.1532 -11.9044
17 23 3 6.4048 1.4508
17 23 5 11.5571 -6.8030
17 23 7 6.4258 -7.3738
17 25 1 3.9787 -3.5792
17 25 3 4.1675 -5.4664
17 25 5 7.7375 14.0199
17 25 7 19.0797 -16.7671
17 27 1 14.2474 1.0039
17 27 3 -7.1553 -30.7264
17 27 5 11.9124 20.3388
17 27 7 -16.7544 6.0618
17 29 1 0.2444 -4.8602
17 29 3 2.5889 12.0918
17 29 5 -23.1479 3.2521
17 29 7 8.3827 -15.6880
17 31 1 8.3353 2.4048
17 31 3 -4.5838 -10.6359
17 31 5 35.3154 16.5488
17 33 1 7.9759 0.5034
17 33 3 12.1868 -0.1588
17 33 5 -8.5568 6.9964
17 35 1 -2.3049 6.6558
17 35 3 -9.9787 -10.5985
17 35 5 2.1336 10.2837
17 37 1 15.9095 4.7660
17 37 3 -7.1368 -5.3523
17 37 5 -7.7499 6.5862
17 39 1 -12.5093 -9.3902
17 39 3 -7.4352 2.8651
17 41 1 16.1783 -4.1434
17 41 3 13.0906 5.7464
17 41 5 12.7306 -16.4661
17 43 1 -1.4657 -7.3679
17 43 3 1.2768 -2.1232
17 43 5 -12.3310 2.7883
17 45 1 1.7700 -5.8431
17 45 3 5.5365 -4.1345
17 45 5 12.9580 -14.9643
17 47 1 12.2211 -0.8479
17 47 3 -14.2078 -11.1126
17 49 1 -4.8681 -10.5373
17 49 3 -8.1870 -0.8519
17 51 1 3.2520 -3.4375
17 51 3 -2.9305 10.3669
17 53 1 -3.5733 0.3783
17 53 3 17.1364 3.7744
17 55 1 11.4655 -6.5356
17 57 1 -3.8089 8.9149
18 0 2 40.3192 -25.7568
18 0 6 27.8426 36.5528
18 2 0 48.8263 -0.0000
18 2 2 10.5599 1.7205
18 2 4 42.0045 -12.2249
18 2 6 2.2564 10.4599
18 2 8 -5.1119 -20.7749
18 4 0 17.7859 -0.0000
18 4 2 -18.8516 -29.4221
18 4 4 13.8373 3.7133
18 4 6 22.7828 3.6986
18 4 8 3.8931 5.8201
18 6 0 -0.1992 0.0000
18 6 2 17.2672 -10.7664
18 6 4 1.8758 -12.7780
18 6 6 -3.3175 0.4912
18 6 8 -1.8465 -20.8586
18 8 0 -7.8368 0.0000
18 8 2 10.1344 -13.6228
18 8 4 2.3113 5.6064
18 8 6 4.3732 -5.3845
18 8 8 11.6379 3.1135
18 10 0 30.4978 -0.0000
18 10 2 6.4260 -23.0464
18 10 4 -17.7489 -0.1109
18 10 6 6.4459 4.6185
18 10 8 5.1321 -4.8641
18 12 0 -11.3596 0.0000
18 12 2 1.8327 -0.2147
18 12 4 9.1743 12.5336
18 12 6 5.2574 8.7668
18 14 0 -12.2094 0.0000
18 14 2 23.7575 -18.3541
18 14 4 -19.0759 7.3669
18 14 6 26.3119 19.8040
18 16 0 -23.4446 0.0000
18 16 2 -2.3446 -3.0567
18 16 4 8.3734 -6.4273
18 16 6 -7.8664 -28.6192
18 18 0 -7.5775 0.0000
18 18 2 4.4656 -20.2690
18 18 4 32.2977 0.8117
18 18 6 16.5108 8.9390
18 20 0 2.7787 0.0000
18 20 2 -5.7479 -3.3608
18 20 4 1.6568 -1.4881
18 20 6 -6.9544 -12.0272
18 22 0 -4.0073 0.0000
18 22 2 1.3354 -4.9190
18 22 4 -11.6966 -18.9859
18 22 6 15.6722 -6.6831
18 24 0 -2.8936 -0.0000
18 24 2 -17.4657 14.2600
18 24 4 14.8198 -5.0243
18 24 6 -23.3019 -10.6293
18 26 0 0.9604 0.0000
18 26 2 -4.1309 -0.9322
18 26 4 30.0304 -18.5421
18 26 6 11.8308 -18.1341
18 28 0 5.5485 -0.0000
18 28 2 6.0079 -5.4529
18 28 4 -14.7428 10.4373
18 28 6 -0.5429 0.4062
18 30 0 1.0247 0.0000
18 30 2 -5.3689 10.0031
18 30 4 -12.5528 -14.2863
18 30 6 -0.1763 1.7626
18 32 0 2.6964 -0.0000
18 32 2 6.3652 4.3786
18 32 4 3.8462 11.6807
18 32 6 14.5823 18.7532
18 34 0 1.5985 -0.0000
18 34 2 -1.5668 9.4333
18 34 4 10.8222 -2.1588
18 34 6 -19.8273 -19.3723
18 36 0 -7.4595 0.0000
18 36 2 -7.1433 13.9664
18 36 4 3.3645 -20.0650
18 36 6 12.4898 9.1690
18 38 0 1.4504 0.0000
18 38 2 6.7532 6.3199
18 38 4 6.9245 17.4054
18 38 6 -9.6535 -1.7887
18 40 0 -2.1485 0.0000
18 40 2 -6.2273 17.0865
18 40 4 -0.6901 1.4757
18 42 0 -2.6426 0.0000
18 42 2 9.1144 -4.8807
18 42 4 35.5924 10.3882
18 44 0 5.8450 -0.0000
18 44 2 0.8178 6.0695
18 44 4 6.9570 -5.3495
18 46 0 4.6230 -0.0000
18 46 2 -15.6227 8.1397
18 46 4 31.1198 -5.0387
18 48 0 13.1339 -0.0000
18 48 2 8.1354 2.0308
18 48 4 -6.6326 1.3598
18 50 0 0.4349 0.0000
18 50 2 -10.0564 -6.3751
18 50 4 3.1120 5.9338
18 52 0 -10.7093 0.0000
18 52 2 -1.6413 -15.0526
18 54 0 -3.5287 0.0000
18 54 2 16.2290 7.1781
18 56 0 17.4124 -0.0000
18 56 2 -2.1575 -5.7181
18 58 0 2.3518 -0.0000
19 1 1 8.3379 -2.6180
19 1 3 -0.3831 -21.4767
19 1 5 -2.2443 23.9475
19 1 7 -4.4185 11.3790
19 3 1 3.5257 11.2468
19 3 3 12.2505 -11.5054
19 3 5 28.2526 12.4943
19 3 7 4.9839 -9.2946
19 5 1 -35.3978 -31.9886
19 5 3 -10.1662 0.7170
19 5 5 -7.0319 -13.5687
19 5 7 -6.6443 -0.3230
19 7 1 1.2420 3.2869
19 7 3 5.2240 -19.0650
19 7 5 0.7006 -4.3719
19 7 7 13.7433 -7.6873
19 9 1 -20.7334 -5.1421
19 9 3 -6.2690 -1.2821
19 9 5 -12.5959 -15.9219
19 9 7 9.0531 -12.7722
19 11 1 20.5823 -7.9214
19 11 3 -5.7371 -10.9855
19 11 5 6.3810 5.3494
19 11 7 12.1958 18.2409
19 13 1 -23.2914 -23.6816
19 13 3 11.2119 12.2428
19 13 5 3.6211 -0.3904
19 13 7 7.4247 1.8521
19 15 1 14.0849 12.1051
19 15 3 -14.5599 -1.8650
19 15 5 -9.6654 2.6239
19 15 7 25.9563 13.6122
19 17 1 -19.6188 -15.7575
19 17 3 25.1639 -32.5520
19 17 5 -2.9022 3.5771
19 17 7 -11.0005 -33.8652
19 19 1 -9.8136 13.0119
19 19 3 5.2833 4.5792
19 19 5 10.0057 -15.2269
19 19 7 23.7717 14.1696
19 21 1 15.9939 -6.3175
19 21 3 0.1118 -2.1113
19 21 5 3.2276 -3.0131
19 21 7 4.8305 -9.7123
19 23 1 -0.9336 6.8012
19 23 3 -28.1734 -15.6167
19 23 5 -0.2011 14.0134
19 23 7 4.7784 -11.0655
19 25 1 -2.0563 4.3420
19 25 3 4.6050 -19.6893
19 25 5 2.6725 -1.0419
19 25 7 -6.0502 -14.3610
19 27 1 -0.3618 -0.0145
19 27 3 21.7474 7.1320
19 27 5 12.5134 -8.5270
19 27 7 14.9597 -37.4984
19 29 1 3.8843 2.3153
19 29 3 -7.7036 -18.5290
19 29 5 30.6968 -3.3342
19 29 7 -7.2884 13.1505
19 31 1 8.5978 -6.1819
19 31 3 4.2098 7.6300
19 31 5 -25.2930 21.0926
19 33 1 3.0733 6.5715
19 33 3 -10.4541 -18.1797
19 33 5 7.5145 25.5090
19 35 1 9.7793 -5.8824
19 35 3 2.3001 -7.1842
19 35 5 2.5222 -10.0383
19 37 1 -9.2567 3.1730
19 37 3 1.7153 -15.0282
19 37 5 -2.0436 -2.4150
19 39 1 17.7690 4.1371
19 39 3 1.8890 6.0437
19 39 5 -9.0669 4.4482
19 41 1 -5.9301 -10.7771
19 41 3 7.1244 6.1612
19 43 1 7.3160 -2.4071
19 43 3 4.3500 -15.0236
19 45 1 9.1726 -6.6440
19 45 3 -5.4148 -9.6002
19 45 5 -6.9687 -3.8575
19 47 1 -2.8689 1.0161
19 47 3 -0.1883 9.1600
19 49 1 16.1305 -7.9560
19 49 3 -8.3888 15.0993
19 51 1 -9.0030 -18.4249
19 51 3 8.9512 6.2197
19 53 1 2.7006 -10.8220
19 53 3 -16.3154 24.1960
19 55 1 0.9346 11.9135
19 57 1 16.4071 8.3461
20 0 0 44.2033 -0.0000
20 0 4 55.7916 -11.3447
20 0 8 -5.8965 -24.5793
20 2 0 1.2237 -0.0000
20 2 2 9.6142 -24.2270
20 2 4 1.4659 -11.2877
20 2 6 5.2831 20.1974
20 2 8 8.7640 -3.2341
20 4 0 18.5603 -0.0000
20 4 2 13.1063 -19.4166
20 4 4 25.4210 5.9434
20 4 6 1.0271 -7.4074
20 4 8 5.7338 -28.4107
20 6 0 1.6577 -0.0000
20 6 2 -18.2050 -14.3958
20 6 4 -4.6485 0.7638
20 6 6 -2.5692 -14.1365
20 6 8 9.1490 9.3592
20 8 0 7.3020 -0.0000
20 8 2 18.6612 -21.7316
20 8 4 2.6353 -8.4281
20 8 6 2.3331 -2.4130
20 10 0 -12.5819 0.0000
20 10 2 6.1007 3.2548
20 10 4 -0.4381 -0.5068
20 10 6 6.7854 3.0986
20 12 0 10.9661 -0.0000
20 12 2 17.3167 -16.7358
20 12 4 -7.6589 12.4171
20 12 6 26.9395 19.8025
20 14 0 -20.9148 0.0000
20 14 2 -7.0363 7.7836
20 14 4 15.1501 3.8124
20 14 6 2.5385 2.6854
20 16 0 -4.9413 0.0000
20 16 2 4.1162 -14.8953
20 16 4 5.9553 12.7907
20 16 6 7.8170 12.6655
20 18 0 -6.3789 0.0000
20 18 2 -12.7833 -16.3428
20 18 4 -1.9613 -8.7807
20 18 6 -6.6956 -22.0012
20 20 0 -4.0131 0.0000
20 20 2 -2.5377 15.8628
20 20 4 10.3284 -15.8207
20 20 6 22.4118 -6.6024
20 22 0 5.3109 -0.0000
20 22 2 -21.3184 14.3776
20 22 4 6.6612 -3.8051
20 22 6 -17.3780 -5.2486
20 24 0 7.9683 -0.0000
20 24 2 -7.0859 -7.6920
20 24 4 -4.0622 -9.6843
20 24 6 -2.7455 -23.3061
20 26 0 -3.6138 0.0000
20 26 2 -11.2070 -0.4235
20 26 4 -9.2150 0.2907
20 26 6 -12.9580 -7.4922
20 28 0 -2.5919 0.0000
20 28 2 11.5658 3.2942
20 28 4 12.9186 -22.2521
20 28 6 37.0723 -17.7399
20 30 0 -5.7281 0.0000
20 30 2 5.1978 5.3294
20 30 4 1.1279 12.7413
20 30 6 2.3205 1.5746
20 32 0 0.6451 -0.0000
20 32 2 -1.9726 8.6052
20 32 4 -11.2481 9.3647
20 32 6 -15.9790 0.6983
20 34 0 -6.8601 0.0000
20 34 2 -2.3649 4.8986
20 34 4 -8.2980 -2.9974
20 34 6 18.7400 23.7174
20 36 0 -1.5486 0.0000
20 36 2 0.9451 2.9927
20 36 4 11.4308 6.8901
20 36 6 -8.2199 -20.1513
20 38 0 -10.2726 0.0000
20 38 2 0.9122 11.5438
20 38 4 6.9837 -10.1106
20 38 6 17.7017 -0.1192
20 40 0 -2.7014 0.0000
20 40 2 15.3646 3.1965
20 40 4 7.9751 32.1316
20 42 0 5.8144 -0.0000
20 42 2 -8.0489 10.7616
20 42 4 15.6903 -6.9786
20 44 0 0.0811 -0.0000
20 44 2 -7.7982 -3.4967
20 44 4 24.1859 -1.2424
20 46 0 12.9792 -0.0000
20 46 2 5.1768 -4.2391
20 46 4 -1.9145 -2.3250
20 48 0 -3.9993 0.0000
20 48 2 -9.1967 18.7894
20 48 4 1.8143 -2.3481
20 50 0 -8.8260 0.0000
20 50 2 13.9244 -10.5668
20 50 4 1.5870 13.5201
20 52 0 17.1268 -0.0000
20 52 2 -2.4877 4.1094
20 54 0 -22.8113 0.0000
20 54 2 -17.5615 -17.5055
20 56 0 13.1613 -0.0000
20 56 2 4.2566 19.3058
21 1 3 2.8788 -10.8444
21 1 5 36.2452 4.4442
21 1 7 0.2612 -17.6875
21 3 1 -18.6373 -7.6955
21 3 3 -1.5359 -18.7442
21 3 5 -32.6780 2.7001
21 3 7 -2.9795 -3.5846
21 5 1 15.2700 3.3543
21 5 3 0.2674 -13.5938
21 5 5 7.6932 2.5948
21 5 7 16.7383 -22.9506
21 7 1 -17.2349 -33.4717
21 7 3 -17.1991 -3.0104
21 7 5 -18.7026 -13.2752
21 7 7 -3.1447 -5.0690
21 9 1 24.6178 -2.2358
21 9 3 5.4695 -17.0857
21 9 5 9.0962 3.5560
21 9 7 20.5187 0.8685
21 11 1 -9.3660 2.3092
21 11 3 -3.8542 -3.5211
21 11 5 -5.3158 0.2021
21 11 7 5.0938 1.3419
21 13 1 13.1125 0.1567
21 13 3 -7.0235 -1.0098
21 13 5 3.9093 15.2098
21 13 7 22.5064 21.3888
21 15 1 -18.2372 -7.6185
21 15 3 17.5018 -11.4987
21 15 5 1.7597 16.0733
21 15 7 -4.7505 -3.8220
21 17 1 -5.3741 28.1049
21 17 3 -3.1034 7.0904
21 17 5 -10.3185 9.8583
21 17 7 13.3478 7.5680
21 19 1 2.7451 2.1145
21 19 3 -0.7258 -17.5250
21 19 5 5.8372 -4.2937
21 19 7 -7.2251 -12.2320
21 21 1 -17.5859 24.9022
21 21 3 -20.4693 12.9381
21 21 5 9.2692 -5.5641
21 21 7 4.1570 -10.6772
21 23 1 -0.6558 13.7785
21 23 3 10.4934 -4.1757
21 23 5 0.1220 2.0389
21 23 7 0.0290 -17.4668
21 25 1 -5.3705 2.2334
21 25 3 -0.7401 -3.7021
21 25 5 6.2410 2.9700
21 25 7 -17.4274 -34.2467
21 27 1 -11.7316 3.5777
21 27 3 -1.8442 -12.8096
21 27 5 7.5076 -20.7003
21 27 7 1.1193 0.0613
21 29 1 8.0351 -4.4011
21 29 3 24.5894 7.2112
21 29 5 11.2926 4.3552
21 31 1 -10.2201 8.1894
21 31 3 -4.6385 -15.5878
21 31 5 9.4017 5.9082
21 33 1 6.7909 -6.0082
21 33 3 0.3194 -2.0620
21 33 5 -15.6311 9.3507
21 35 1 -3.7741 8.1454
21 35 3 -20.3386 -18.2838
21 35 5 -10.2306 11.9648
21 37 1 2.6698 -7.2527
21 37 3 9.3203 -0.9139
21 37 5 -3.0116 -15.8698
21 39 1 -4.6915 2.6425
21 39 3 12.8420 -3.3384
21 39 5 -10.4407 -9.2191
21 41 1 7.2403 9.8699
21 41 3 0.2664 -10.0886
21 43 1 2.6558 -4.9855
21 43 3 4.3368 -3.5465
21 45 1 -2.3596 2.3311
21 45 3 -1.9171 -8.5443
21 47 1 15.3290 -19.8969
21 47 3 -14.3022 9.4202
21 49 1 -12.4296 0.0865
21 49 3 13.9074 16.5750
21 51 1 10.0938 -1.5085
21 51 3 -7.8783 26.0667
21 53 1 4.5010 -10.0378
21 53 3 5.7382 18.7858
21 55 1 -5.3462 -3.4688
21 57 1 -4.1182 27.7382
22 0 2 -13.1138 -1.9964
22 0 6 -11.9384 5.3987
22 2 0 15.5487 -0.0000
22 2 2 -18.2378 -16.7896
22 2 4 36.2476 8.8419
22 2 6 -1.6902 -22.4620
22 4 0 -18.2786 0.0000
22 4 2 -18.2382 -1.9436
22 4 4 -20.4649 -10.6471
22 4 6 -24.1058 -18.0681
22 6 0 -0.8490 -0.0000
22 6 2 25.7783 -18.0947
22 6 4 11.2739 3.0766
22 6 6 3.2309 -15.9990
22 8 0 10.8740 -0.0000
22 8 2 -11.9730 -0.0476
22 8 4 -5.3628 1.0287
22 8 6 -4.7511 -12.5070
22 10 0 13.9318 -0.0000
22 10 2 14.7341 -10.7900
22 10 4 17.0132 4.7393
22 10 6 24.4428 18.9633
22 12 0 -28.2143 0.0000
22 12 2 5.2024 9.0040
22 12 4 -4.6702 -0.9403
22 12 6 8.9105 6.8221
22 14 0 -1.6843 0.0000
22 14 2 2.5463 -7.8496
22 14 4 2.5730 10.4080
22 14 6 15.7814 11.3429
22 16 0 1.3525 0.0000
22 16 2 -17.9505 -10.3733
22 16 4 16.3174 3.0152
22 16 6 -4.7294 10.8888
22 18 0 7.1922 -0.0000
22 18 2 4.3521 11.0277
22 18 4 -10.3492 1.1944
22 18 6 16.2207 10.9127
22 20 0 6.1434 -0.0000
22 20 2 -21.1580 10.2784
22 20 4 -17.3069 -9.3242
22 20 6 -6.7184 -2.5996
22 22 0 -6.2513 0.0000
22 22 2 -9.4919 11.6579
22 22 4 2.8898 -12.1018
22 22 6 -5.1770 -29.1395
22 24 0 -2.9967 0.0000
22 24 2 -13.8688 8.2316
22 24 4 10.1014 4.4976
22 24 6 -12.1490 0.6178
22 26 0 3.8592 -0.0000
22 26 2 14.1167 -13.7704
22 26 4 -4.2510 -9.1127
22 26 6 19.3841 -26.0085
22 28 0 -13.0857 0.0000
22 28 2 -4.2706 6.4834
22 28 4 -15.2958 8.0377
22 28 6 0.3627 -0.9147
22 30 0 -3.5755 0.0000
22 30 2 10.2406 -0.7172
22 30 4 8.9940 7.1011
22 30 6 13.5941 -4.2122
22 32 0 -10.1440 0.0000
22 32 2 -4.3024 8.6446
22 32 4 2.3462 2.6187
22 32 6 8.0609 0.3860
22 34 0 -3.2196 0.0000
22 34 2 2.4818 6.2590
22 34 4 -14.2669 8.2352
22 34 6 -4.8638 -4.3125
22 36 0 -11.4343 0.0000
22 36 2 -0.7515 -1.7774
22 36 4 -16.5929 6.8491
22 36 6 22.1870 16.9175
22 38 0 1.9972 -0.0000
22 38 2 6.7565 2.2121
22 38 4 1.5024 24.6627
22 40 0 0.1655 0.0000
22 40 2 -2.3351 5.4022
22 40 4 18.4123 -11.6230
22 42 0 -2.4433 0.0000
22 42 2 4.2195 -2.5218
22 42 4 10.8178 8.1818
22 44 0 9.9371 -0.0000
22 44 2 0.8810 5.3529
22 44 4 14.3972 -8.5416
22 46 0 -7.7363 0.0000
22 46 2 -4.8468 12.0119
22 46 4 -2.8640 -6.5153
22 48 0 1.3474 -0.0000
22 48 2 7.8525 -19.4823
22 48 4 1.4725 12.4338
22 50 0 9.4175 -0.0000
22 50 2 -12.8569 25.4912
22 52 0 -35.0059 0.0000
22 52 2 9.7070 0.9619
22 54 0 47.1447 -0.0000
22 54 2 -9.7911 21.7546
22 56 0 -27.3199 0.0000
23 1 3 -7.5703 -1.0830
23 1 5 -26.6148 17.1191
23 1 7 -7.9886 -12.1647
23 3 1 -5.7446 -11.9623
23 3 3 -16.0408 0.2436
23 3 5 6.8665 -8.8209
23 3 7 6.1825 -28.4898
23 5 1 -14.2066 -25.3260
23 5 3 -12.1260 -13.0371
23 5 5 -46.6403 -15.2709
23 5 7 -0.7272 -12.3953
23 7 1 36.1517 6.2317
23 7 3 4.6538 -11.3155
23 7 5 2.9997 0.9532
23 7 7 22.5978 -15.1401
23 9 1 10.6777 -18.2342
23 9 3 -12.3694 -8.0953
23 9 5 -5.3883 3.7824
23 9 7 -3.7852 7.4234
23 11 1 12.8495 -8.6483
23 11 3 11.9179 5.2865
23 11 5 11.1528 14.5445
23 11 7 21.8026 19.8313
23 13 1 -4.4207 8.7677
23 13 3 -7.8938 -8.6096
23 13 5 -13.0290 9.7196
23 13 7 3.1344 -2.7286
23 15 1 -12.0855 19.5459
23 15 3 8.6432 -7.8031
23 15 5 -0.4806 19.7321
23 15 7 6.8574 9.9605
23 17 1 0.4013 1.9734
23 17 3 9.3346 6.7325
23 17 5 10.0244 2.4649
23 17 7 -8.2197 13.8062
23 19 1 -5.7114 32.0401
23 19 3 -26.9830 26.6653
23 19 5 -1.1658 6.4220
23 19 7 0.0838 1.4746
23 21 1 -0.4420 11.4539
23 21 3 -6.2401 -1.9790
23 21 5 -3.3054 7.9324
23 21 7 -4.7918 -13.6292
23 23 1 -25.9563 15.2715
23 23 3 -2.5437 1.8302
23 23 5 9.2716 -6.4736
23 23 7 -26.3028 -34.4970
23 25 1 -11.0274 11.7957
23 25 3 26.3471 3.8597
23 25 5 9.9582 -21.4058
23 25 7 7.5673 -7.6174
23 27 1 1.6368 -9.0248
23 27 3 14.9446 4.9776
23 27 5 21.4200 -3.1724
23 29 1 -22.4795 12.1727
23 29 3 -11.4840 -13.0891
23 29 5 -10.6128 7.1518
23 31 1 5.6199 -1.3589
23 31 3 11.8091 -3.0334
23 31 5 3.2066 14.4373
23 33 1 -12.6279 10.5459
23 33 3 -19.6227 -9.4000
23 33 5 -1.2994 -13.9712
23 35 1 -6.7104 -4.6762
23 35 3 10.7393 -3.6855
23 35 5 -9.2473 -11.6017
23 37 1 -1.3412 18.2171
23 37 3 -19.2749 2.9507
23 37 5 -25.3886 10.2385
23 39 1 -5.9502 2.3319
23 39 3 3.7584 -5.3839
23 39 5 -4.0508 -10.0067
23 41 1 2.6895 2.3364
23 41 3 5.1912 -12.6757
23 41 5 6.2752 -9.3999
23 43 1 0.3033 8.4221
23 43 3 -1.4566 -18.9079
23 43 5 1.6115 -2.2397
23 45 1 8.9795 -8.1424
23 45 3 -0.4628 12.0301
23 47 1 -10.4741 7.8582
23 47 3 13.8948 2.7623
23 49 1 12.7719 -16.3176
23 49 3 -15.3376 13.1892
23 51 1 -4.2985 1.0312
23 51 3 7.8129 25.4838
23 53 1 -2.6001 19.3681
23 55 1 7.3513 11.4194
24 0 0 -0.0784 -0.0000
24 0 4 12.4495 12.6607
24 2 0 -15.8818 -0.0000
24 2 2 -41.8747 23.5490
24 2 4 -21.7209 9.3328
24 2 6 -28.0861 -28.4796
24 4 0 -10.3798 0.0000
24 4 2 -10.0088 -8.5339
24 4 4 6.0941 11.6239
24 4 6 -6.2478 -35.5245
24 6 0 -8.0603 0.0000
24 6 2 -19.0915 11.4873
24 6 4 -15.4623 -11.9886
24 6 6 -23.9239 -31.7957
24 8 0 9.2260 -0.0000
24 8 2 23.5387 -1.0126
24 8 4 16.4056 0.9532
24 8 6 17.5231 7.7586
24 10 0 -2.9120 0.0000
24 10 2 0.0104 -1.0169
24 10 4 -4.7360 11.2063
24 10 6 5.6291 -0.0566
24 12 0 2.0907 -0.0000
24 12 2 -0.6234 3.1382
24 12 4 8.7327 4.1111
24 12 6 18.5241 16.8304
24 14 0 -14.0965 0.0000
24 14 2 -11.3432 -12.8152
24 14 4 2.1413 0.6960
24 14 6 -1.5517 14.3932
24 16 0 5.3968 -0.0000
24 16 2 13.4361 -3.6025
24 16 4 -15.4274 -4.3880
24 16 6 20.4496 9.2506
24 18 0 10.3617 -0.0000
24 18 2 -19.0814 18.9744
24 18 4 -7.6903 -4.2889
24 18 6 4.6601 22.2235
24 20 0 -0.9848 0.0000
24 20 2 3.2682 15.3923
24 20 4 -13.9977 -2.5860
24 20 6 -5.0508 -6.2308
24 22 0 3.8884 -0.0000
24 22 2 -21.5723 6.0859
24 22 4 -8.1380 8.9741
24 22 6 -11.2656 8.4730
24 24 0 -11.5415 0.0000
24 24 2 13.6767 -14.8510
24 24 4 2.3580 -13.9749
24 24 6 3.5540 -35.2543
24 26 0 -11.1381 0.0000
24 26 2 7.9150 13.0733
24 26 4 7.4145 0.9022
24 26 6 17.6082 1.2322
24 28 0 0.8616 0.0000
24 28 2 8.3082 -9.6012
24 28 4 16.3350 7.6606
24 28 6 2.1578 -13.2168
24 30 0 -9.9924 0.0000
24 30 2 -11.8546 9.4981
24 30 4 -13.8107 13.0567
24 30 6 1.6548 4.7213
24 32 0 -3.0363 0.0000
24 32 2 7.8954 -0.9199
24 32 4 -16.7270 8.1484
24 32 6 12.3964 8.6084
24 34 0 -6.3042 0.0000
24 34 2 -2.2529 -1.6974
24 34 4 -1.4030 -1.5128
24 34 6 19.4054 -4.2403
24 36 0 3.6819 -0.0000
24 36 2 7.6576 5.8438
24 36 4 -19.7431 16.5897
24 36 6 -4.2130 -14.8893
24 38 0 -5.3446 0.0000
24 38 2 -2.8623 1.3672
24 38 4 -8.8279 16.3605
24 40 0 3.7414 -0.0000
24 40 2 0.7021 0.2492
24 40 4 2.5994 7.7269
24 42 0 7.8920 -0.0000
24 42 2 0.0691 -2.9729
24 42 4 21.0416 -16.7053
24 44 0 -4.6494 0.0000
24 44 2 7.1382 -4.9297
24 44 4 -3.0321 -3.3937
24 46 0 0.8856 -0.0000
24 46 2 10.2451 3.3352
24 46 4 15.5025 4.3715
24 48 0 -2.3309 0.0000
24 48 2 -6.7004 25.0710
24 48 4 5.9069 0.2264
24 50 0 -7.2189 0.0000
24 50 2 9.2686 -7.6967
24 52 0 33.0477 -0.0000
24 52 2 -28.4113 29.4811
24 54 0 -54.2050 0.0000
24 54 2 -11.5681 10.4757
24 56 0 57.2200 -0.0000
25 1 3 -14.8600 2.8029
25 1 5 -14.6497 -1.7983
25 1 7 6.8979 -16.6428
25 3 1 -5.9345 -7.3834
25 3 3 -11.3665 4.9144
25 3 5 -39.6476 0.6648
25 3 7 -0.6923 -18.0809
25 5 1 14.7775 -8.5505
25 5 3 -14.7055 14.3883
25 5 5 -4.7304 -15.8595
25 5 7 7.3675 -20.7268
25 7 1 11.7547 -19.9130
25 7 3 -2.4089 -18.8099
25 7 5 -16.7322 -8.8517
25 7 7 -3.9896 -4.0444
25 9 1 17.7633 8.4439
25 9 3 19.2993 6.9378
25 9 5 -0.4634 9.0876
25 9 7 14.4157 3.2705
25 11 1 11.7176 -9.3116
25 11 3 -19.6460 0.2177
25 11 5 -8.6830 6.3652
25 11 7 5.9714 3.7450
25 13 1 -16.9390 1.5512
25 13 3 22.5540 -5.4048
25 13 5 2.6915 21.7011
25 13 7 5.0674 17.8666
25 15 1 1.6420 4.7797
25 15 3 -0.1827 12.7965
25 15 5 -7.9488 -1.7177
25 15 7 1.9064 6.8725
25 17 1 -0.8472 24.2539
25 17 3 -14.2453 3.7094
25 17 5 9.1939 4.7611
25 17 7 -3.3425 9.3899
25 19 1 -4.1159 1.6609
25 19 3 -9.2752 27.2141
25 19 5 0.4436 2.8774
25 19 7 2.4807 8.3604
25 21 1 -15.6728 22.6040
25 21 3 -14.0037 11.0493
25 21 5 0.3480 10.0884
25 21 7 -19.1227 -12.2160
25 23 1 -6.3028 -0.1461
25 23 3 16.6072 5.9706
25 23 5 2.9087 -1.1015
25 23 7 -1.3323 -5.2344
25 25 1 -13.6022 -3.7620
25 25 3 8.4408 -1.0467
25 25 5 27.4250 -22.3312
25 27 1 -13.6642 20.6221
25 27 3 14.2531 -7.5517
25 27 5 2.5416 0.9224
25 29 1 -4.6754 -3.1860
25 29 3 14.6486 -0.0518
25 29 5 18.8095 7.5902
25 31 1 -20.3456 16.2852
25 31 3 -33.1508 -4.0145
25 31 5 -11.3663 0.7310
25 33 1 -3.8678 0.2122
25 33 3 2.2140 -7.0876
25 33 5 0.4289 1.3808
25 35 1 -7.1092 17.8576
25 35 3 -20.6841 10.4948
25 35 5 -12.8695 -16.6467
25 37 1 -13.7121 4.0535
25 37 3 9.6448 -5.2302
25 37 5 -10.2027 -12.7199
25 39 1 6.3242 21.6184
25 39 3 -24.0540 1.8990
25 39 5 -4.9001 13.7667
25 41 1 -6.5895 5.7005
25 41 3 -0.5743 -14.5750
25 41 5 -1.3245 -5.4851
25 43 1 5.9213 -6.2871
25 43 3 3.8275 -6.2002
25 45 1 0.9565 2.5265
25 45 3 8.5184 -12.8724
25 47 1 7.7890 -0.4306
25 47 3 2.7782 12.2862
25 49 1 -3.1211 20.1456
25 49 3 24.3761 16.0634
25 51 1 10.8633 -0.1816
25 51 3 -29.0053 15.5778
25 53 1 -4.6324 1.4669
25 55 1 -17.7008 40.3758
26 0 6 -27.7585 -45.6302
26 2 0 -23.0683 0.0000
26 2 4 -19.5207 8.2200
26 2 6 -17.8118 -20.7604
26 4 0 -12.3461 0.0000
26 4 2 -28.2414 34.4651
26 4 4 -17.6322 6.0907
26 4 6 -20.3951 -38.9867
26 6 0 7.7081 -0.0000
26 6 2 -3.2994 7.2315
26 6 4 7.1791 6.6085
26 6 6 1.1400 -12.4941
26 8 0 -2.0244 0.0000
26 8 2 -9.2218 2.4055
26 8 4 10.5182 -0.7408
26 8 6 -7.2226 -14.8681
26 10 0 -10.0019 0.0000
26 10 2 6.1549 17.1170
26 10 4 -8.2850 -7.2542
26 10 6 9.9513 8.9605
26 12 0 -13.0439 0.0000
26 12 2 -14.1097 -17.7411
26 12 4 6.9987 7.9850
26 12 6 -0.8011 1.4118
26 14 0 8.6236 -0.0000
26 14 2 8.6803 -10.0555
26 14 4 -8.3163 -6.5415
26 14 6 12.5115 14.6740
26 16 0 1.9850 0.0000
26 16 2 -13.6513 12.7134
26 16 4 -7.9263 -8.9751
26 16 6 13.0085 27.3957
26 18 0 0.4214 0.0000
26 18 2 21.1055 4.1245
26 18 4 -25.2989 -16.7515
26 18 6 7.2622 -8.5392
26 20 0 -3.8904 0.0000
26 20 2 -29.9500 21.0766
26 20 4 -5.7555 7.1281
26 20 6 -5.2424 13.5957
26 22 0 -9.5747 0.0000
26 22 2 20.3509 -12.8814
26 22 4 6.5147 -7.3231
26 22 6 -7.5622 -11.4767
26 24 0 6.7594 -0.0000
26 24 2 5.2827 3.9131
26 24 4 -4.4178 4.7230
26 24 6 21.3258 7.6176
26 26 0 -5.5832 0.0000
26 26 2 7.5136 -12.1532
26 26 4 20.3167 -8.7370
26 26 6 -4.7551 -26.3676
26 28 0 -6.2971 0.0000
26 28 2 5.0867 8.2748
26 28 4 7.4884 5.7295
26 28 6 16.3295 5.6022
26 30 0 2.5651 -0.0000
26 30 2 1.3097 2.0243
26 30 4 4.1952 0.2859
26 30 6 -1.3592 3.7160
26 32 0 -1.9403 0.0000
26 32 2 -4.0583 3.1064
26 32 4 -10.4914 1.9236
26 32 6 15.7379 4.1118
26 34 0 1.8724 -0.0000
26 34 2 9.5383 -5.0461
26 34 4 -39.8223 19.6930
26 34 6 6.3670 4.3932
26 36 0 0.2646 -0.0000
26 36 2 -3.5787 -0.2151
26 36 4 6.8019 11.1479
26 38 0 11.4122 -0.0000
26 38 2 4.9440 5.0915
26 38 4 -14.5903 2.1138
26 40 0 1.0792 0.0000
26 40 2 -0.7820 -2.7751
26 40 4 8.3783 6.4340
26 42 0 -1.6077 0.0000
26 42 2 10.0307 -8.5619
26 42 4 -2.3298 5.5113
26 44 0 0.7401 -0.0000
26 44 2 7.3115 -1.1015
26 44 4 14.9907 -6.8503
26 46 0 5.2417 -0.0000
26 46 2 1.5493 -5.9619
26 46 4 9.1333 5.6189
26 48 0 5.8754 -0.0000
26 48 2 13.9288 13.6476
26 50 0 2.5476 -0.0000
26 50 2 -7.1613 38.0213
26 52 0 -20.9557 0.0000
26 52 2 4.1817 13.4525
26 54 0 46.9137 -0.0000
27 1 3 -3.1499 12.7822
27 1 5 -12.2643 -13.9289
27 1 7 -8.7035 -9.2023
27 3 1 -1.5822 3.2928
27 3 3 -14.5671 19.4522
27 3 5 -28.6077 -22.9786
27 3 7 -0.6954 -12.4452
27 5 1 21.5569 -5.8152
27 5 3 3.0773 -10.8131
27 5 5 -8.9011 4.4858
27 5 7 0.7089 -10.5271
27 7 1 8.6172 4.8984
27 7 3 5.9225 24.8237
27 7 5 -0.7715 3.2167
27 7 7 -3.1802 -5.1865
27 9 1 9.6184 -17.0857
27 9 3 -5.0348 -5.9494
27 9 5 -2.2827 -6.7313
27 9 7 5.4421 -1.2842
27 11 1 -22.0412 14.5383
27 11 3 16.9584 -5.4962
27 11 5 -19.7556 13.3087
27 11 7 3.1968 -1.1269
27 13 1 -0.3947 -8.3041
27 13 3 -3.7561 12.6664
27 13 5 -6.5160 -5.7841
27 13 7 12.1379 2.1658
27 15 1 -0.6305 7.6622
27 15 3 3.4635 -9.5249
27 15 5 13.7498 10.0344
27 15 7 -10.4288 26.1433
27 17 1 -1.1172 -5.5338
27 17 3 -18.8099 40.3669
27 17 5 -10.9952 -4.0124
27 17 7 19.9897 7.2925
27 19 1 -0.7923 18.5174
27 19 3 -20.8018 -8.8232
27 19 5 3.9287 10.2395
27 19 7 -6.8811 -2.3051
27 21 1 -18.5300 -10.2081
27 21 3 7.6337 17.0464
27 21 5 1.2293 0.8384
27 21 7 1.0319 2.9463
27 23 1 -4.5596 7.1971
27 23 3 3.2728 3.4724
27 23 5 20.7570 -14.8318
27 25 1 1.3352 2.2170
27 25 3 10.8700 -5.1224
27 25 5 2.7489 8.2375
27 27 1 -17.4544 -1.0535
27 27 3 4.4945 -7.0365
27 27 5 26.3588 -4.6550
27 29 1 -9.0196 24.3756
27 29 3 -18.0636 -8.7715
27 29 5 0.3392 8.1427
27 31 1 -4.2076 -1.3825
27 31 3 6.6353 -1.3320
27 31 5 18.5958 -12.0064
27 33 1 -16.8330 13.9406
27 33 3 -24.2908 13.6501
27 33 5 -9.7208 -10.0829
27 35 1 -9.6865 8.8662
27 35 3 -6.4275 -4.7896
27 35 5 -11.6218 8.3348
27 37 1 2.5053 21.4271
27 37 3 -26.4560 15.3343
27 37 5 3.6054 -3.2184
27 39 1 -6.1649 3.3250
27 39 3 2.6944 -17.1956
27 39 5 -3.1895 -7.3187
27 41 1 9.9285 4.8619
27 41 3 -9.6410 -3.3506
27 41 5 4.2390 8.6042
27 43 1 -0.8201 4.1515
27 43 3 7.2546 -4.6374
27 45 1 0.0791 1.5744
27 45 3 7.3764 -8.1483
27 47 1 14.4995 6.9509
27 47 3 18.3710 -3.7190
27 49 1 12.4367 1.0887
27 49 3 -11.1469 17.4266
27 51 1 -3.8776 21.0412
27 53 1 3.4311 28.8488
28 0 0 -29.7153 0.0000
28 0 4 -32.6606 12.1915
28 2 0 -9.8290 0.0000
28 2 4 -2.2321 3.8115
28 2 6 -15.2940 -44.3132
28 4 0 -9.9672 0.0000
28 4 2 -4.1756 15.7076
28 4 4 -11.5053 -8.4653
28 4 6 -20.9577 -13.5594
28 6 0 7.8897 -0.0000
28 6 2 -11.0290 20.4292
28 6 4 21.9688 4.3054
28 6 6 -5.0897 -15.0830
28 8 0 -1.4233 0.0000
28 8 2 -11.1030 19.9694
28 8 4 -11.5626 5.7202
28 8 6 -3.2956 -0.4267
28 10 0 -14.5382 0.0000
28 10 2 -21.6245 -6.9176
28 10 4 31.5345 -5.3674
28 10 6 -8.8582 -15.2945
28 12 0 -14.6850 0.0000
28 12 2 1.9691 -2.7742
28 12 4 -24.5301 -19.7868
28 12 6 -3.1558 0.7962
28 14 0 -2.2378 0.0000
28 14 2 -15.0629 3.5100
28 14 4 17.7691 -13.5071
28 14 6 13.1710 14.0582
28 16 0 9.0448 -0.0000
28 16 2 21.0584 -2.3687
28 16 4 -18.4874 -19.9200
28 16 6 2.5603 -2.5400
28 18 0 -10.2096 0.0000
28 18 2 -30.7778 28.3941
28 18 4 -6.0298 -0.6937
28 18 6 4.0358 16.8426
28 20 0 -2.9597 0.0000
28 20 2 22.9888 -19.9097
28 20 4 5.5401 -15.2163
28 20 6 -5.2298 -10.5196
28 22 0 -0.5386 0.0000
28 22 2 -6.0150 8.4788
28 22 4 -5.0185 1.1008
28 22 6 18.9839 -0.8729
28 24 0 -0.5114 0.0000
28 24 2 19.2871 -5.9019
28 24 4 25.9206 -14.4923
28 24 6 -7.3190 -14.2367
28 26 0 11.4378 -0.0000
28 26 2 6.5674 -4.6014
28 26 4 3.6984 6.6132
28 26 6 15.5430 8.0034
28 28 0 0.5580 0.0000
28 28 2 -8.8426 6.6734
28 28 4 11.3788 -9.2821
28 28 6 -9.2436 -5.8512
28 30 0 0.6960 -0.0000
28 30 2 14.6981 0.3965
28 30 4 -1.7679 -3.8635
28 30 6 24.4873 11.5766
28 32 0 5.8513 -0.0000
28 32 2 10.7608 -4.5576
28 32 4 -18.3273 1.5445
28 32 6 -1.9589 -0.2219
28 34 0 1.0108 0.0000
28 34 2 -0.5156 1.8651
28 34 4 10.5863 6.6033
28 36 0 5.2821 -0.0000
28 36 2 4.6931 -1.3992
28 36 4 -41.0030 20.9260
28 38 0 0.8934 -0.0000
28 38 2 -4.3254 1.9833
28 38 4 25.5140 6.1894
28 40 0 10.0236 -0.0000
28 40 2 16.7377 -14.6013
28 40 4 -10.3692 2.5582
28 42 0 1.1060 0.0000
28 42 2 5.8858 -10.0960
28 42 4 8.6292 3.2968
28 44 0 0.2239 0.0000
28 44 2 8.3394 -9.6547
28 44 4 11.4404 18.8626
28 46 0 3.8645 -0.0000
28 46 2 7.0816 14.8630
28 46 4 14.9736 3.1164
28 48 0 11.9096 -0.0000
28 48 2 6.6797 0.5589
28 50 0 0.6229 -0.0000
28 50 2 13.4707 22.7934
28 52 0 -0.2818 0.0000
28 52 2 -28.6190 33.5439
28 54 0 -36.0228 0.0000
29 1 3 -3.7954 14.8235
29 1 5 -15.4228 -0.8395
29 1 7 -0.6798 -9.6975
29 3 3 0.1502 -7.0844
29 3 5 8.3521 2.7008
29 3 7 2.7751 -6.2176
29 5 1 -5.1167 11.9506
29 5 3 8.0983 17.7986
29 5 5 -11.2964 -7.3699
29 5 7 -10.9954 -1.3189
29 7 1 17.4955 -2.4265
29 7 3 7.6159 -12.0559
29 7 5 4.1813 9.7136
29 7 7 3.8910 -3.6722
29 9 1 -20.5535 13.5535
29 9 3 -6.0641 16.3592
29 9 5 -18.9767 17.3428
29 9 7 -2.1921 -11.0664
29 11 1 -10.3572 -18.0519
29 11 3 6.6403 1.9536
29 11 5 1.7715 -15.0073
29 11 7 16.4308 -0.2250
29 13 1 -11.8110 16.9807
29 13 3 4.8974 -24.6082
29 13 5 -8.2536 8.1171
29 13 7 -13.4994 6.2493
29 15 1 -0.3005 -10.2692
29 15 3 -13.3182 33.4596
29 15 5 -2.8618 -12.9619
29 15 7 28.1775 2.1896
29 17 1 6.2493 7.4457
29 17 3 -19.6264 -17.2581
29 17 5 7.2784 12.3430
29 17 7 -8.2013 15.8778
29 19 1 -21.8503 -14.3771
29 19 3 -7.8525 23.8344
29 19 5 -11.3722 9.8152
29 19 7 16.4544 3.7293
29 21 1 9.3094 6.6451
29 21 3 -4.1243 -10.0274
29 21 5 16.0507 -6.1735
29 23 1 -4.2934 -9.5352
29 23 3 7.7269 -1.1945
29 23 5 4.4128 -6.1682
29 25 1 -9.1499 11.4918
29 25 3 0.4115 -4.0826
29 25 5 19.8701 -8.1097
29 27 1 2.8308 6.2097
29 27 3 -13.4041 -9.5251
29 27 5 -3.1906 17.7359
29 29 1 -11.1245 -1.0718
29 29 3 -7.4894 0.1432
29 29 5 26.7470 -14.2035
29 31 1 -8.8405 11.2315
29 31 3 -16.4510 5.7095
29 31 5 -0.0548 -0.5484
29 33 1 -0.0396 4.5243
29 33 3 4.6202 -2.4370
29 33 5 2.2713 -11.4039
29 35 1 -10.9997 11.5990
29 35 3 -16.0253 17.1462
29 35 5 5.3546 -5.9158
29 37 1 -1.1223 10.2382
29 37 3 -18.8975 -9.2354
29 37 5 -4.9207 18.0408
29 39 1 6.2260 6.3954
29 39 3 -10.0135 9.2885
29 39 5 16.3665 2.4314
29 41 1 0.4900 -2.3303
29 41 3 8.3517 -11.6083
29 43 1 7.3317 -0.9724
29 43 3 -3.9884 -16.8966
29 45 1 13.8994 12.1013
29 45 3 15.3909 2.4072
29 47 1 0.1462 7.5153
29 47 3 -2.6378 3.1706
29 49 1 20.8137 -3.4769
29 49 3 10.0698 4.8054
29 51 1 8.2544 5.6346
29 53 1 -11.1517 16.7810
30 0 2 -45.7064 37.7427
30 0 6 -17.9355 -34.7093
30 2 0 -13.3512 0.0000
30 2 2 9.4635 11.4874
30 2 4 -9.8116 -0.2188
30 2 6 -7.0317 -7.1693
30 4 0 12.5095 -0.0000
30 4 2 -32.2902 23.7796
30 4 4 33.6079 3.9128
30 4 6 4.0085 -19.2476
30 6 0 -6.3762 0.0000
30 6 2 -10.4913 15.5303
30 6 4 -5.2633 -7.3529
30 6 6 -21.8142 1.2055
30 8 0 -5.2945 0.0000
30 8 2 -18.6613 20.4167
30 8 4 35.3773 -11.5341
30 8 6 -13.0619 -14.3838
30 10 0 -16.0074 0.0000
30 10 2 -16.4258 1.1824
30 10 4 -27.1854 0.3174
30 10 6 -10.9324 -7.8997
30 12 0 -2.1363 0.0000
30 12 2 -20.5099 5.0255
30 12 4 54.5908 -24.6226
30 12 6 0.3343 0.7625
30 14 0 -3.6338 0.0000
30 14 2 13.1104 -0.0202
30 14 4 -21.4525 -31.8957
30 14 6 -5.5540 -7.2004
30 16 0 -9.3399 0.0000
30 16 2 -23.9517 31.9814
30 16 4 18.4790 -17.2183
30 16 6 9.1715 6.7843
30 18 0 -2.2155 -0.0000
30 18 2 10.2568 -17.7321
30 18 4 13.8403 -11.6422
30 18 6 -17.1155 -9.8031
30 20 0 -7.6194 0.0000
30 20 2 -15.2990 12.4297
30 20 4 -4.9258 3.6871
30 20 6 13.5831 9.4159
30 22 0 16.0631 -0.0000
30 22 2 21.7562 -12.5649
30 22 4 24.0408 -16.6637
30 22 6 -0.8141 -11.5148
30 24 0 8.1608 -0.0000
30 24 2 2.0170 -4.6835
30 24 4 0.6663 0.8737
30 24 6 11.9428 -11.7416
30 26 0 -1.5349 -0.0000
30 26 2 -1.0033 14.7757
30 26 4 17.4504 -12.4385
30 26 6 -14.6757 -6.4498
30 28 0 11.3180 -0.0000
30 28 2 15.3485 -6.7832
30 28 4 -3.3056 -3.0780
30 28 6 12.8815 18.2983
30 30 0 3.5042 -0.0000
30 30 2 1.3695 5.0583
30 30 4 -11.9625 -7.1074
30 30 6 -3.0904 -3.6138
30 32 0 -2.1594 0.0000
30 32 2 17.6591 -7.0134
30 32 4 9.2365 5.5248
30 34 0 6.1975 -0.0000
30 34 2 10.1080 -5.2541
30 34 4 -20.7361 8.5171
30 36 0 0.7639 0.0000
30 36 2 -0.7133 9.3311
30 36 4 34.1633 -6.2692
30 38 0 3.4934 -0.0000
30 38 2 13.4680 -17.0115
30 38 4 -26.8299 24.7634
30 40 0 -5.5820 0.0000
30 40 2 0.2443 -8.5058
30 40 4 24.7859 7.9593
30 42 0 3.4862 -0.0000
30 42 2 14.7294 -19.5369
30 42 4 0.3733 14.6176
30 44 0 14.3086 -0.0000
30 44 2 -3.8308 -4.3548
30 44 4 10.2796 -1.3813
30 46 0 10.3862 -0.0000
30 46 2 14.9941 -5.4013
30 48 0 -11.3963 0.0000
30 48 2 14.8975 28.8394
30 50 0 -0.4503 0.0000
30 50 2 -5.7914 3.2744
30 52 0 -0.7093 0.0000
31 1 3 5.8121 -16.3203
31 1 5 -4.0374 5.9494
31 1 7 4.1084 1.7375
31 3 3 20.7896 12.4114
31 3 5 10.5367 9.7980
31 3 7 -4.9799 -2.0749
31 5 3 3.9998 -14.8783
31 5 5 20.0478 22.0505
31 5 7 5.7463 -3.8075
31 7 1 -20.3775 17.8134
31 7 3 -6.1224 13.1502
31 7 5 -14.0172 9.8769
31 7 7 -4.1178 -6.4454
31 9 1 -12.2629 -6.5339
31 9 3 7.9526 -8.0518
31 9 5 -9.5776 -5.6365
31 9 7 14.6800 -2.6130
31 11 1 -14.1546 14.9346
31 11 3 -11.2505 -6.1347
31 11 5 -11.1400 19.6791
31 11 7 -11.4003 -7.8333
31 13 1 -2.6154 -14.1757
31 13 3 1.5523 16.1003
31 13 5 14.9339 -17.6369
31 13 7 21.5271 8.1960
31 15 1 3.4123 11.8467
31 15 3 -15.7460 -26.3564
31 15 5 -4.2609 9.6994
31 15 7 -9.4130 1.5436
31 17 1 -17.6802 -10.7440
31 17 3 -7.1619 18.0459
31 17 5 -6.1136 6.9161
31 19 1 3.9574 1.0985
31 19 3 -3.9092 -13.6971
31 19 5 13.7043 1.3331
31 21 1 -8.8603 -8.7747
31 21 3 -0.7702 4.3780
31 21 5 -6.0859 0.7475
31 23 1 7.2254 7.5095
31 23 3 -4.9636 -7.8543
31 23 5 9.4716 -4.3655
31 25 1 -3.0040 -7.2675
31 25 3 -4.6457 -8.6581
31 25 5 -1.4055 3.6783
31 27 1 -6.7062 14.2940
31 27 3 -17.8309 2.0807
31 27 5 18.7860 -13.1282
31 29 1 0.9223 -4.5034
31 29 3 -10.3717 5.0427
31 29 5 -7.1544 3.7150
31 31 1 -2.6943 -1.2321
31 31 3 0.1063 0.8884
31 31 5 9.7430 -17.4627
31 33 1 -14.4931 2.4476
31 33 3 -7.5044 9.9716
31 33 5 4.3772 6.2528
31 35 1 13.4459 12.4439
31 35 3 -12.2460 -2.2566
31 35 5 6.2949 -1.4018
31 37 1 -1.5049 -1.2731
31 37 3 2.7874 6.1657
31 37 5 20.0120 -4.6066
31 39 1 -0.1652 0.2197
31 39 3 -6.3161 -4.9467
31 41 1 3.3868 1.0663
31 41 3 -6.9847 -0.4942
31 43 1 4.7926 10.4594
31 43 3 6.9251 -9.1833
31 45 1 10.9385 0.6134
31 45 3 -18.3115 -15.0276
31 47 1 27.9770 -9.5774
31 47 3 13.7402 11.6560
31 49 1 -9.3585 8.6572
31 51 1 12.8854 2.5170
32 0 0 -7.6651 0.0000
32 0 4 12.8286 -0.8123
32 2 0 7.9494 -0.0000
32 2 2 -19.9860 21.2021
32 2 4 19.0257 -5.4285
32 2 6 -6.8707 -15.5475
32 4 0 6.7439 -0.0000
32 4 2 8.3134 7.0587
32 4 4 12.0443 0.1586
32 4 6 -7.8548 7.1844
32 6 0 10.8046 -0.0000
32 6 2 -28.9163 28.5684
32 6 4 36.9418 -0.8761
32 6 6 -0.7738 -13.7854
32 8 0 -22.2792 0.0000
32 8 2 -12.7992 -2.4882
32 8 4 -15.6607 -2.0772
32 8 6 -16.5774 -5.9774
32 10 0 -6.5650 0.0000
32 10 2 -16.2935 26.1848
32 10 4 43.1296 -33.5423
32 10 6 -15.1730 -4.6737
32 12 0 -1.4123 0.0000
32 12 2 -3.9404 0.5404
32 12 4 -13.5737 -11.4667
32 12 6 -3.8529 -0.5359
32 14 0 2.6798 -0.0000
32 14 2 -16.9746 31.5092
32 14 4 50.2192 -25.3148
32 14 6 -0.7529 4.1961
32 16 0 -13.1548 0.0000
32 16 2 1.7111 -9.3714
32 16 4 12.9908 -15.1404
32 16 6 -19.8503 -10.1860
32 18 0 -7.8962 0.0000
32 18 2 -11.6245 15.1339
32 18 4 15.0379 -5.3890
32 18 6 11.7080 11.2234
32 20 0 13.1846 -0.0000
32 20 2 7.3162 -12.5692
32 20 4 34.2340 -6.4952
32 20 6 -11.7852 -14.4526
32 22 0 2.5895 -0.0000
32 22 2 -2.9745 0.2728
32 22 4 -6.9675 6.7719
32 22 6 2.5860 -3.6328
32 24 0 8.3053 -0.0000
32 24 2 2.7326 1.2287
32 24 4 15.9262 -6.8559
32 24 6 -11.8821 -6.6188
32 26 0 8.9468 -0.0000
32 26 2 5.0255 -1.5407
32 26 4 -0.8941 -3.4809
32 26 6 6.8496 3.1084
32 28 0 -1.3942 0.0000
32 28 2 4.2508 20.4772
32 28 4 -10.5091 -9.9788
32 28 6 -5.0398 -5.7959
32 30 0 4.3748 -0.0000
32 30 2 23.6347 -13.5715
32 30 4 3.6592 2.7711
32 32 0 0.5695 -0.0000
32 32 2 2.3751 -1.8160
32 32 4 -10.3723 -1.1088
32 34 0 -3.9491 0.0000
32 34 2 8.5783 6.9348
32 34 4 24.0179 -0.8060
32 36 0 3.9275 -0.0000
32 36 2 12.4710 -9.7753
32 36 4 -3.9476 17.3802
32 38 0 -4.2664 0.0000
32 38 2 9.1571 -8.1342
32 38 4 33.7740 -6.6688
32 40 0 -2.6803 0.0000
32 40 2 12.1356 -25.1980
32 40 4 -12.2552 28.2910
32 42 0 1.7884 -0.0000
32 42 2 -17.8217 -2.4377
32 42 4 22.1500 1.4669
32 44 0 4.0520 -0.0000
32 44 2 11.2987 -8.3281
32 46 0 7.0182 -0.0000
32 46 2 4.9675 1.1873
32 48 0 5.0076 -0.0000
32 48 2 11.1002 -11.9260
32 50 0 -17.7124 0.0000
32 50 2 -4.2711 39.8207
32 52 0 -26.1104 0.0000
33 1 1 -5.5460 -2.4263
33 1 3 29.3972 6.9025
33 1 5 31.1036 15.3142
33 1 7 4.0388 5.6569
33 3 1 2.6140 -8.2530
33 3 3 2.6603 -27.8298
33 3 5 -1.4127 22.0057
33 3 7 6.5291 4.5846
33 5 1 -1.3747 21.4285
33 5 3 9.5055 9.5209
33 5 5 9.5992 22.4729
33 5 7 -3.7008 -2.3649
33 7 1 -12.2719 -14.2504
33 7 3 -5.3569 0.7020
33 7 5 -2.4183 9.4802
33 7 7 15.7330 -9.1035
33 9 1 -13.2873 12.3604
33 9 3 -10.6058 2.6325
33 9 5 -3.8344 10.5397
33 9 7 -2.0368 -7.5089
33 11 1 -9.2002 -1.3203
33 11 3 6.0139 -2.5993
33 11 5 0.2164 -13.7738
33 11 7 9.7307 7.4328
33 13 1 5.3555 11.0967
33 13 3 -16.4150 -7.0059
33 13 5 -3.9243 17.8792
33 15 1 -9.7396 -11.6611
33 15 3 -3.5705 13.5232
33 15 5 10.9002 3.4422
33 17 1 -6.9703 -1.0353
33 17 3 3.1907 -17.6921
33 17 5 5.8870 8.6264
33 19 1 -5.0901 -0.0863
33 19 3 3.6129 0.5279
33 19 5 -2.3315 5.5491
33 21 1 2.6340 2.6396
33 21 3 2.8898 -4.3780
33 21 5 7.2587 -9.1473
33 23 1 -12.1871 -6.3298
33 23 3 -3.3938 -3.6271
33 23 5 -10.8893 4.4124
33 25 1 2.3263 9.3434
33 25 3 -27.8447 -4.6027
33 25 5 3.9582 -0.3837
33 27 1 -2.7058 -10.9800
33 27 3 -4.3218 7.3033
33 27 5 -0.1994 -3.1784
33 29 1 0.4894 10.7548
33 29 3 -9.5244 3.5382
33 29 5 4.8990 -20.0125
33 31 1 -9.2443 -8.7798
33 31 3 5.2968 5.8855
33 31 5 -9.6958 3.8893
33 33 1 11.5789 9.0405
33 33 3 -10.2183 -1.3251
33 33 5 8.7328 -15.2525
33 35 1 -8.0850 -4.4279
33 35 3 0.7536 2.3955
33 35 5 16.7658 12.1087
33 37 1 7.3982 6.0089
33 37 3 0.5056 10.2410
33 37 5 6.0315 3.5846
33 39 1 3.7753 -5.1268
33 39 3 8.5464 -3.3194
33 41 1 -3.6861 8.1974
33 41 3 -9.0913 -12.1003
33 43 1 7.6666 10.1111
33 43 3 -27.2683 -0.3181
33 45 1 8.0747 -3.1446
33 45 3 9.5366 3.6163
33 47 1 3.3419 -4.3200
33 47 3 -44.2908 -7.8682
33 49 1 28.9110 -17.2441
33 51 1 -20.2746 9.6261
34 0 2 10.5696 11.5612
34 0 6 1.6384 -14.1600
34 2 0 11.5271 0.0000
34 2 2 2.1122 -4.7437
34 2 4 28.1791 3.5240
34 2 6 10.2781 8.8372
34 4 0 7.8546 -0.0000
34 4 2 -15.9314 20.9373
34 4 4 15.8233 -4.5606
34 4 6 -10.3103 -3.2757
34 6 0 -6.1142 0.0000
34 6 2 7.8780 -4.7963
34 6 4 -8.6525 3.0835
34 6 6 -7.0615 5.7312
34 8 0 2.8093 -0.0000
34 8 2 -19.5442 33.1855
34 8 4 21.5570 -8.5231
34 8 6 -4.2560 -11.5369
34 10 0 -4.5057 0.0000
34 10 2 -2.1721 -9.3466
34 10 4 5.7343 -3.8103
34 10 6 3.0615 9.0976
34 12 0 3.0258 -0.0000
34 12 2 -4.5640 40.2797
34 12 4 34.0849 -34.0058
34 12 6 -15.1575 2.5440
34 14 0 -7.9300 0.0000
34 14 2 -5.2799 1.7801
34 14 4 14.1744 -2.3205
34 14 6 -10.0272 2.5716
34 16 0 -3.2008 0.0000
34 16 2 -6.8330 11.1731
34 16 4 36.4995 -2.3081
34 16 6 -2.6193 14.5969
34 18 0 -0.6489 -0.0000
34 18 2 -3.8766 -11.4018
34 18 4 37.7529 2.1715
34 18 6 -14.1739 -8.2595
34 20 0 10.9245 -0.0000
34 20 2 2.9774 1.9764
34 20 4 0.6514 2.8412
34 20 6 7.8870 4.5117
34 22 0 1.7489 -0.0000
34 22 2 1.1493 -6.7261
34 22 4 31.4897 2.8798
34 22 6 -17.9238 -18.6343
34 24 0 -3.1865 0.0000
34 24 2 -7.4842 9.6706
34 24 4 -5.0891 2.5822
34 24 6 -6.9781 7.2102
34 26 0 2.4433 -0.0000
34 26 2 0.7396 11.0576
34 26 4 -12.6015 -5.8280
34 26 6 -5.7664 0.7954
34 28 0 8.4058 -0.0000
34 28 2 11.2853 -3.0679
34 28 4 2.9997 2.6154
34 30 0 -3.3800 0.0000
34 30 2 3.7336 8.7452
34 30 4 -8.6840 -4.7017
34 32 0 4.4049 -0.0000
34 32 2 15.7942 3.3636
34 32 4 16.2449 -3.1336
34 34 0 1.2001 -0.0000
34 34 2 -0.4410 1.6982
34 34 4 9.1984 -2.2711
34 36 0 -8.8815 0.0000
34 36 2 15.5798 -9.0117
34 36 4 22.3844 3.5607
34 38 0 -6.4327 0.0000
34 38 2 7.5584 -14.7829
34 38 4 10.1595 30.3584
34 40 0 -1.4001 0.0000
34 40 2 -5.5436 -6.7355
34 40 4 25.6149 -11.8815
34 42 0 4.1511 -0.0000
34 42 2 0.7804 -13.6706
34 42 4 -3.9103 12.6983
34 44 0 1.3281 -0.0000
34 44 2 -11.8732 -0.4228
34 46 0 -11.4714 0.0000
34 46 2 11.7595 -9.3941
34 48 0 -3.7149 0.0000
34 48 2 -10.0391 14.6813
34 50 0 3.2606 -0.0000
35 1 1 3.5420 -2.8513
35 1 3 7.2894 -30.6479
35 1 5 -6.0297 28.1203
35 1 7 5.8414 -4.0420
35 3 1 -1.1383 10.3965
35 3 3 18.3017 7.7313
35 3 5 35.9390 24.2972
35 3 7 1.0689 -0.8568
35 5 1 -15.5924 -12.0395
35 5 3 -11.8292 -7.4794
35 5 5 -18.2168 8.3693
35 7 1 -0.0978 14.4824
35 7 3 -2.6671 8.2190
35 7 5 -2.0735 9.8809
35 9 1 -11.4027 -10.3278
35 9 3 -3.4070 8.6365
35 9 5 -0.0029 1.5878
35 11 1 8.4140 9.7179
35 11 3 -7.2616 5.2151
35 11 5 11.3596 7.2923
35 13 1 -6.8604 0.4050
35 13 3 -2.6845 2.9358
35 13 5 1.9775 -1.5207
35 15 1 -8.2352 -4.0215
35 15 3 8.7265 -1.3463
35 15 5 -0.3038 16.4864
35 17 1 -2.9376 -0.1094
35 17 3 1.6558 4.9291
35 17 5 9.6091 9.0733
35 19 1 -8.9306 -0.4524
35 19 3 11.6101 -5.4261
35 19 5 4.1468 -5.6479
35 21 1 -5.9951 -1.8817
35 21 3 2.6511 -6.3550
35 21 5 -8.0708 7.0037
35 23 1 -1.0431 1.3825
35 23 3 -14.1023 -5.7606
35 23 5 6.8742 -3.6386
35 25 1 -14.8474 -0.8083
35 25 3 -8.8377 9.7387
35 25 5 -1.4984 -2.8895
35 27 1 4.9685 8.7765
35 27 3 -26.5442 -4.0366
35 27 5 -8.7139 -8.9313
35 29 1 -12.4352 -10.7597
35 29 3 11.2495 5.7278
35 29 5 -1.5510 -0.3842
35 31 1 10.2023 14.5331
35 31 3 -10.6926 -1.4630
35 31 5 3.2040 -20.2287
35 33 1 -0.6514 -0.6364
35 33 3 5.3313 -0.1496
35 33 5 3.8322 7.7722
35 35 1 6.3764 5.9870
35 35 3 5.9370 9.5119
35 35 5 9.5854 -12.1558
35 37 1 -3.7486 -9.4768
35 37 3 11.9031 -4.6917
35 39 1 -8.8034 11.3103
35 39 3 -4.1775 10.6238
35 41 1 11.7130 13.8380
35 41 3 -16.0686 -2.6087
35 43 1 -3.3169 -0.6056
35 43 3 -6.1975 -9.7865
35 45 1 6.7013 0.6572
35 45 3 -41.1852 11.8072
35 47 1 5.0038 -12.5774
35 49 1 -13.7278 14.3083
36 0 0 14.3813 -0.0000
36 0 4 19.1943 2.4670
36 2 0 9.7410 -0.0000
36 2 2 14.5342 8.1132
36 2 4 3.3588 0.5587
36 2 6 0.4129 -2.3600
36 4 0 8.4252 -0.0000
36 4 2 1.7274 -9.9522
36 4 4 1.6058 7.5519
36 4 6 14.9966 8.7735
36 6 0 -5.7653 0.0000
36 6 2 -5.4217 20.7899
36 6 4 -6.2026 0.2448
36 6 6 -7.8685 -6.4173
36 8 0 -1.5567 -0.0000
36 8 2 12.5903 -12.7951
36 8 4 -2.7704 -1.4044
36 8 6 3.3940 20.7024
36 10 0 15.6960 -0.0000
36 10 2 -6.4417 37.2551
36 10 4 10.3935 -7.4912
36 10 6 -4.8215 -0.3884
36 12 0 1.1606 -0.0000
36 12 2 -2.6369 -1.6955
36 12 4 30.3869 3.7531
36 12 6 6.5619 13.8801
36 14 0 -8.3742 0.0000
36 14 2 7.7325 12.9672
36 14 4 21.7692 -6.8124
36 14 6 -13.4435 7.8794
36 16 0 -1.0533 0.0000
36 16 2 -6.1146 -1.0464
36 16 4 34.5359 10.0109
36 16 6 -5.2485 6.5600
36 18 0 17.6643 -0.0000
36 18 2 2.0967 -1.8357
36 18 4 13.6731 8.9900
36 18 6 1.3106 9.4283
36 20 0 -10.8189 0.0000
36 20 2 -3.8878 -11.6239
36 20 4 35.6758 12.6669
36 20 6 -18.9989 -16.2613
36 22 0 1.0561 -0.0000
36 22 2 -3.7264 7.0427
36 22 4 -3.2761 -0.5895
36 22 6 1.0888 13.2245
36 24 0 -1.7417 0.0000
36 24 2 3.5813 3.6195
36 24 4 13.0948 -1.3153
36 24 6 -4.2565 -7.2281
36 26 0 2.5578 -0.0000
36 26 2 -8.5853 21.7425
36 26 4 -3.5878 2.3168
36 28 0 -1.2907 0.0000
36 28 2 0.2329 -0.1342
36 28 4 -14.2492 -6.1465
36 30 0 7.6583 -0.0000
36 30 2 5.0354 4.6191
36 30 4 12.6878 -1.9635
36 32 0 4.6965 -0.0000
36 32 2 -6.7783 16.6350
36 32 4 11.1537 -12.1242
36 34 0 3.6205 0.0000
36 34 2 22.3598 -1.6092
36 34 4 19.8606 3.5360
36 36 0 -8.8847 0.0000
36 36 2 0.3278 -8.1805
36 36 4 23.9699 11.0668
36 38 0 -11.1640 0.0000
36 38 2 7.3160 -16.6995
36 38 4 14.0485 0.5499
36 40 0 -1.8155 0.0000
36 40 2 -13.7377 2.0181
36 40 4 14.0397 16.5856
36 42 0 -3.1119 0.0000
36 42 2 -5.7497 -1.3174
36 44 0 -3.2972 0.0000
36 44 2 8.1178 -17.7693
36 46 0 -3.1794 0.0000
36 46 2 -10.9275 3.6711
36 48 0 -9.1132 0.0000
37 1 1 -2.9804 10.8364
37 1 3 14.4148 5.3134
37 1 5 24.2847 7.7024
37 3 1 -6.9619 -2.2685
37 3 3 -4.5468 -14.3941
37 3 5 -11.6358 9.1841
37 5 1 1.0782 5.1758
37 5 3 1.4551 15.6657
37 5 5 15.9385 6.8429
37 7 1 -14.8581 -13.9246
37 7 3 -5.7669 5.7741
37 7 5 -8.8892 -1.5111
37 9 1 10.0380 18.7464
37 9 3 -2.6798 4.0137
37 9 5 1.8210 0.2892
37 11 1 -3.3695 -3.0923
37 11 3 -8.2305 11.1743
37 11 5 0.0568 10.4776
37 13 1 -3.6828 -8.1298
37 13 3 10.5964 12.3422
37 13 5 10.7627 4.6245
37 15 1 -3.3702 3.4672
37 15 3 0.2558 2.9081
37 15 5 8.0918 5.6565
37 17 1 -8.2743 3.0969
37 17 3 17.7358 -0.1583
37 17 5 -3.8587 0.4745
37 19 1 -0.8838 -0.2035
37 19 3 -1.0089 2.7502
37 19 5 -0.9900 3.6518
37 21 1 -13.9766 -7.8088
37 21 3 -4.9379 -6.9489
37 21 5 5.6492 -3.5230
37 23 1 -11.0494 0.2558
37 23 3 -12.8578 -0.3363
37 23 5 3.9285 2.8224
37 25 1 9.3453 6.9284
37 25 3 -19.6453 -6.1691
37 25 5 5.5432 -7.5939
37 27 1 -21.2458 5.0038
37 27 3 4.5177 10.1058
37 27 5 2.8299 -5.6642
37 29 1 5.8573 7.0357
37 29 3 -15.7701 -10.1369
37 29 5 -14.9381 -15.3224
37 31 1 -3.0570 5.6382
37 31 3 1.1455 -6.0027
37 31 5 9.2633 3.0198
37 33 1 6.4955 7.8199
37 33 3 4.0350 6.1291
37 33 5 9.0480 -14.1391
37 35 1 0.7351 -2.8721
37 35 3 22.5691 1.4027
37 37 1 -9.1627 6.6522
37 37 3 10.1961 12.5823
37 39 1 6.1604 8.3147
37 39 3 -9.6549 -9.8778
37 41 1 -16.1897 8.5684
37 41 3 -11.1930 10.0922
37 43 1 8.8260 9.8770
37 43 3 -18.1218 18.1859
37 45 1 -1.7046 -13.3546
37 47 1 0.0870 15.5117
38 0 2 14.5407 1.4054
38 0 6 11.5057 6.3134
38 2 0 9.4748 -0.0000
38 2 2 -8.2331 -6.5184
38 2 4 -11.8131 1.4491
38 2 6 3.4163 10.0253
38 4 0 -1.8255 -0.0000
38 4 2 19.6371 5.5731
38 4 4 -16.8033 4.2760
38 4 6 -3.0562 -3.1522
38 6 0 5.8460 -0.0000
38 6 2 7.8979 -13.9049
38 6 4 -4.7821 4.5763
38 6 6 20.4062 13.5686
38 8 0 8.5058 -0.0000
38 8 2 0.5274 16.8603
38 8 4 0.4635 4.2206
38 8 6 0.4687 0.9796
38 10 0 5.2286 -0.0000
38 10 2 4.4623 -1.7771
38 10 4 19.4194 -2.1065
38 10 6 3.1508 22.3983
38 12 0 0.2773 0.0000
38 12 2 7.9966 11.4936
38 12 4 -2.0070 6.5005
38 12 6 -6.0392 2.5531
38 14 0 2.5232 -0.0000
38 14 2 -4.8771 -3.2078
38 14 4 43.2569 12.6532
38 14 6 8.3252 14.0193
38 16 0 13.6215 -0.0000
38 16 2 7.0895 -4.5881
38 16 4 11.9123 7.2379
38 16 6 -0.1434 0.6940
38 18 0 -0.6883 0.0000
38 18 2 -0.6037 -1.1358
38 18 4 26.0159 13.7656
38 18 6 -6.4799 -7.4909
38 20 0 5.4775 -0.0000
38 20 2 2.4663 -0.4574
38 20 4 4.9839 2.1265
38 20 6 0.8050 10.1357
38 22 0 -18.7986 0.0000
38 22 2 -0.4185 -2.0018
38 22 4 24.1631 4.6204
38 24 0 8.3955 -0.0000
38 24 2 -14.8762 24.9421
38 24 4 -10.4934 -5.9521
38 26 0 4.5395 -0.0000
38 26 2 8.7278 -5.1700
38 26 4 7.2599 -2.1248
38 28 0 2.7928 -0.0000
38 28 2 -8.3139 20.5957
38 28 4 4.0363 0.0218
38 30 0 9.5860 -0.0000
38 30 2 -10.2709 14.5770
38 30 4 4.2605 -21.5404
38 32 0 4.8699 -0.0000
38 32 2 8.6337 3.1237
38 32 4 16.3766 -1.5916
38 34 0 -5.6081 0.0000
38 34 2 -5.2577 -1.4426
38 34 4 24.6553 2.6013
38 36 0 -2.9412 0.0000
38 36 2 19.7385 -11.2281
38 36 4 20.0055 11.4802
38 38 0 -3.7117 0.0000
38 38 2 -14.1045 6.0363
38 38 4 23.7397 1.1183
38 40 0 -11.1727 0.0000
38 40 2 3.6287 -12.6826
38 42 0 -4.8221 0.0000
38 42 2 -7.5489 -5.4375
38 44 0 -14.8490 0.0000
38 44 2 3.3063 1.6889
38 46 0 2.8268 -0.0000
38 46 2 -14.5571 -8.6920
38 48 0 -0.8980 -0.0000
39 1 1 -15.5970 2.9394
39 1 3 -5.5867 -7.5755
39 1 5 0.9038 8.7710
39 3 1 -2.9585 6.5386
39 3 3 -8.0247 10.3095
39 3 5 3.0486 -4.2643
39 5 1 -5.8510 -8.7485
39 5 3 -2.5136 -3.4500
39 5 5 -9.7538 -5.2842
39 7 1 5.4095 11.7054
39 7 3 -0.1219 7.7237
39 7 5 12.2482 1.4370
39 9 1 -3.3714 -3.2216
39 9 3 -2.5214 3.8096
39 9 5 4.4307 7.7713
39 11 1 -3.4622 4.7931
39 11 3 2.9045 9.2771
39 11 5 0.3310 -8.9031
39 13 1 -2.7384 -3.9347
39 13 3 -3.2352 7.9631
39 13 5 1.3893 16.3533
39 15 1 -4.7021 1.3970
39 15 3 11.7626 4.3810
39 15 5 1.0018 -5.4022
39 17 1 0.0060 5.2759
39 17 3 -4.5577 7.1103
39 17 5 3.2443 -5.6994
39 19 1 -9.2789 -5.6503
39 19 3 2.3984 -6.2465
39 19 5 -3.6412 -2.0381
39 21 1 -1.2910 -3.8118
39 21 3 -13.2144 2.8200
39 21 5 10.5250 -1.4390
39 23 1 -0.8871 3.2796
39 23 3 -19.1989 -4.5467
39 23 5 9.6101 -5.6013
39 25 1 -18.3956 7.3540
39 25 3 -9.4697 1.0943
39 25 5 3.6804 -5.2290
39 27 1 8.3576 -0.1667
39 27 3 -3.4811 -9.2845
39 27 5 -0.4994 -9.9230
39 29 1 -6.3921 19.0135
39 29 3 -5.3705 -2.9019
39 29 5 12.4061 -4.1658
39 31 1 5.5783 2.0118
39 31 3 0.5032 -2.5243
39 31 5 -8.5696 -15.2950
39 33 1 -6.6275 4.4485
39 33 3 15.4930 -4.3254
39 35 1 -9.9919 -2.5790
39 35 3 15.1615 6.8936
39 37 1 6.0314 7.5206
39 37 3 7.2857 1.7490
39 39 1 -10.8175 10.3824
39 39 3 -3.7208 12.2645
39 41 1 5.2266 6.9288
39 41 3 -4.5753 2.5805
39 43 1 -13.8397 -8.3615
39 45 1 2.6361 18.4685
39 47 1 -4.7878 -2.5360
40 0 0 11.3106 0.0000
40 0 4 -27.1457 -4.2044
40 2 0 -3.6026 0.0000
40 2 2 13.0283 2.2567
40 2 4 -12.7464 0.4874
40 2 6 10.9754 3.6387
40 4 0 -1.1587 0.0000
40 4 2 -1.0088 -11.4985
40 4 4 -20.9090 -0.1608
40 4 6 7.8083 10.4233
40 6 0 3.2536 -0.0000
40 6 2 16.1758 -0.9823
40 6 4 -5.3467 4.0511
40 6 6 -3.1508 3.7659
40 8 0 13.9284 -0.0000
40 8 2 -1.6821 -2.3195
40 8 4 18.1217 1.0642
40 8 6 14.5662 13.0270
40 10 0 -1.7125 0.0000
40 10 2 7.5072 -1.6264
40 10 4 1.2914 4.7947
40 10 6 5.9999 -1.6519
40 12 0 -3.8503 0.0000
40 12 2 2.4711 -1.6494
40 12 4 36.2137 2.8348
40 12 6 3.0210 13.3428
40 14 0 14.4001 -0.0000
40 14 2 5.9414 -5.4888
40 14 4 -2.4549 8.6494
40 14 6 2.9170 -3.2004
40 16 0 14.1045 -0.0000
40 16 2 -4.0797 -0.7818
40 16 4 25.0061 12.3851
40 16 6 5.8514 -3.3049
40 18 0 2.9620 -0.0000
40 18 2 5.7487 -8.4146
40 18 4 10.1541 1.6388
40 20 0 -13.2750 0.0000
40 20 2 8.0653 2.3356
40 20 4 16.0977 3.9505
40 22 0 16.7949 -0.0000
40 22 2 -1.3791 18.7169
40 22 4 -1.2072 -7.6391
40 24 0 -3.3079 0.0000
40 24 2 4.7733 -1.8255
40 24 4 14.0147 5.2409
40 26 0 0.9097 -0.0000
40 26 2 -14.5880 16.8642
40 26 4 -14.6381 -5.0673
40 28 0 13.8191 -0.0000
40 28 2 1.8746 6.1063
40 28 4 17.0830 -14.5160
40 30 0 5.8401 -0.0000
40 30 2 -2.3399 18.5622
40 30 4 8.4015 -1.9703
40 32 0 4.0643 -0.0000
40 32 2 -5.7669 5.7101
40 32 4 17.9833 -10.7177
40 34 0 -10.3542 0.0000
40 34 2 9.5373 -11.1586
40 34 4 20.8228 7.5166
40 36 0 -9.7163 0.0000
40 36 2 -12.8735 -1.8119
40 36 4 19.6754 -1.6439
40 38 0 -2.3472 0.0000
40 38 2 8.9593 -2.5237
40 40 0 0.1643 -0.0000
40 40 2 -6.7315 0.8989
40 42 0 -21.2408 0.0000
40 42 2 18.1943 -15.8944
40 44 0 1.4469 -0.0000
40 44 2 -13.8469 -1.1397
40 46 0 -9.8038 0.0000
41 1 1 7.6589 11.7636
41 1 3 -11.2379 -6.1538
41 1 5 -1.9582 -9.2490
41 3 1 -8.7688 -4.4656
41 3 3 -5.8694 -0.4481
41 3 5 -0.3962 -5.6144
41 5 1 -0.0838 4.6952
41 5 3 -7.2454 4.9996
41 5 5 3.0692 -0.0218
41 7 1 2.0185 3.9840
41 7 3 -0.5966 -11.6809
41 7 5 -2.3943 3.1264
41 9 1 -6.8147 5.1904
41 9 3 -3.0288 8.1496
41 9 5 9.4350 -3.8768
41 11 1 -3.9779 -10.5147
41 11 3 3.9538 0.4929
41 11 5 8.3788 11.9627
41 13 1 -6.5420 8.5470
41 13 3 3.0269 2.5475
41 13 5 -0.8699 -16.0556
41 15 1 0.9757 9.4331
41 15 3 -4.8156 8.3619
41 15 5 -4.9555 1.2781
41 17 1 -2.2827 -2.5819
41 17 3 -3.6266 -7.0933
41 17 5 -8.5791 -6.3060
41 19 1 -3.2534 -8.2246
41 19 3 -11.8142 8.7820
41 19 5 14.2934 -13.3325
41 21 1 3.3886 2.0441
41 21 3 -13.9623 -5.9519
41 21 5 4.6029 -0.2393
41 23 1 2.6863 8.3546
41 23 3 -8.8117 2.6588
41 23 5 10.2167 -10.3449
41 25 1 -0.8574 -1.8534
41 25 3 -1.2139 1.8617
41 25 5 2.2812 -5.9418
41 27 1 -10.7391 12.5745
41 27 3 -14.7040 -9.7419
41 27 5 -1.5158 -7.6927
41 29 1 8.0069 -4.6458
41 29 3 4.8532 -3.7779
41 31 1 -3.3401 14.5356
41 31 3 1.9610 -1.2483
41 33 1 -7.6915 -10.2627
41 33 3 20.8255 3.1006
41 35 1 -8.2313 5.4680
41 35 3 8.6800 0.0525
41 37 1 -7.6894 2.1022
41 37 3 -6.9715 0.9623
41 39 1 1.8244 4.4687
41 39 3 5.6444 8.4413
41 41 1 -6.9514 -2.7965
41 43 1 5.6070 7.7319
41 45 1 -7.3789 2.5688
42 0 2 -0.6502 9.2666
42 0 6 10.0856 5.3851
42 2 0 1.4635 0.0000
42 2 2 8.0203 -8.0611
42 2 4 -30.1175 -5.6612
42 2 6 -0.1708 -0.5580
42 4 0 -3.6681 0.0000
42 4 2 15.1668 0.4864
42 4 4 -4.0832 -1.1075
42 4 6 7.4374 1.2890
42 6 0 7.6500 -0.0000
42 6 2 -5.4300 -4.2631
42 6 4 12.0675 0.4326
42 6 6 7.6257 7.7628
42 8 0 -5.4256 0.0000
42 8 2 9.0451 -9.5985
42 8 4 -1.1501 -4.5765
42 8 6 -2.0839 1.3138
42 10 0 -4.8281 0.0000
42 10 2 2.2644 -2.2295
42 10 4 31.3132 1.8089
42 10 6 8.2622 5.0020
42 12 0 2.6260 -0.0000
42 12 2 5.3525 -16.3363
42 12 4 4.3439 -2.9537
42 12 6 12.0380 -6.6593
42 14 0 14.9361 -0.0000
42 14 2 -2.5565 1.0270
42 14 4 30.7393 5.7949
42 16 0 9.7763 -0.0000
42 16 2 3.7112 -6.1735
42 16 4 2.2070 0.8439
42 18 0 -3.0097 0.0000
42 18 2 11.1804 -4.4019
42 18 4 8.3798 3.1203
42 20 0 6.2874 -0.0000
42 20 2 4.3654 4.5113
42 20 4 13.2533 -7.8378
42 22 0 5.5279 -0.0000
42 22 2 7.4202 5.3470
42 22 4 5.9542 6.3266
42 24 0 14.0682 -0.0000
42 24 2 6.5922 9.1907
42 24 4 -10.0493 -0.9190
42 26 0 5.0956 -0.0000
42 26 2 6.3531 3.5255
42 26 4 18.2659 3.1048
42 28 0 0.1743 -0.0000
42 28 2 -10.4554 17.6151
42 28 4 -15.1786 -10.1838
42 30 0 6.4728 -0.0000
42 30 2 0.5264 7.7426
42 30 4 20.9600 -10.4804
42 32 0 -8.5708 0.0000
42 32 4 14.6954 9.9346
42 34 0 -2.1893 -0.0000
42 34 4 15.4839 -5.3966
42 36 0 -6.4055 0.0000
42 36 2 -1.2204 4.0176
42 38 0 -10.0748 0.0000
42 38 2 -7.6544 -7.6210
42 40 0 -11.8801 0.0000
42 40 2 15.3832 -12.5077
42 42 0 5.2736 -0.0000
42 42 2 -0.8452 3.4565
42 44 0 -11.7288 0.0000
43 1 1 -8.0702 1.2988
43 1 3 -13.7192 16.0639
43 1 5 -0.4593 -8.8902
43 3 1 12.3619 -1.2796
43 3 3 -10.4323 -3.5182
43 3 5 -0.0975 -2.9968
43 5 1 1.6078 6.6228
43 5 3 0.2080 -11.0881
43 5 5 -0.4981 2.4710
43 7 1 -8.5494 3.0882
43 7 3 -5.1011 6.8477
43 7 5 11.5392 3.1577
43 9 1 -2.5429 -5.7458
43 9 3 1.0620 -8.9250
43 9 5 -2.2542 1.0059
43 11 1 -12.5903 1.1932
43 11 3 -2.8488 4.3567
43 11 5 8.7119 -6.7538
43 13 1 -1.0833 7.0248
43 13 3 4.1331 -4.4462
43 13 5 -1.4914 1.9079
43 15 1 -1.9379 9.3412
43 15 3 -5.5514 -6.1749
43 15 5 -5.7618 -15.5109
43 17 1 -5.5450 -2.8411
43 17 3 -3.6184 14.6115
43 17 5 4.6912 -11.0223
43 19 1 10.7790 -2.1565
43 19 3 -12.1782 -13.4582
43 19 5 -1.9300 3.3837
43 21 1 3.8835 6.0612
43 21 3 -8.1787 6.3188
43 21 5 12.9389 -19.8560
43 23 1 -1.2785 -1.2663
43 23 3 1.6293 4.0474
43 23 5 -3.3948 0.5849
43 25 1 7.1573 7.3459
43 25 3 -2.1722 -5.6275
43 25 5 -0.7795 -9.7171
43 27 1 5.6415 -5.1474
43 27 3 4.2587 8.1896
43 29 1 -3.7761 9.0886
43 29 3 -12.9922 -6.5901
43 31 1 -11.7787 -12.9233
43 31 3 20.4230 1.3783
43 33 1 -9.3324 4.5337
43 33 3 -1.4511 4.3956
43 35 1 2.2892 -2.8548
43 35 3 -1.5372 1.7551
43 37 1 -7.8259 1.5420
43 37 3 1.7118 7.3664
43 39 1 -6.5931 -2.3534
43 41 1 -0.3377 -2.8667
43 43 1 3.0578 3.2830
44 0 0 -3.4521 -0.0000
44 0 4 -36.9330 -9.5894
44 2 0 -7.1430 0.0000
44 2 2 5.1911 10.9638
44 2 4 -3.6676 -1.1492
44 4 0 8.7393 -0.0000
44 4 2 7.1376 -9.5428
44 4 4 4.2132 1.0056
44 6 0 -5.6808 0.0000
44 6 2 7.8592 -2.2045
44 6 4 -2.5463 -7.0443
44 8 0 -10.3369 0.0000
44 8 2 4.1048 -3.7570
44 8 4 25.8759 -0.8759
44 10 0 -12.5522 0.0000
44 10 2 6.7881 -18.0495
44 10 4 -0.0333 -13.9399
44 12 0 10.0837 -0.0000
44 12 2 -2.3421 -1.9588
44 12 4 32.4054 6.9401
44 14 0 8.9672 -0.0000
44 14 2 -1.2576 -14.2022
44 14 4 3.7225 -8.8686
44 16 0 -2.6312 0.0000
44 16 2 10.6146 -8.6871
44 16 4 18.5079 2.0016
44 18 0 0.4459 0.0000
44 18 2 7.3437 4.5298
44 18 4 18.4275 -5.7409
44 20 0 15.7986 -0.0000
44 20 2 13.6363 -1.3946
44 20 4 1.3014 4.8319
44 22 0 8.2605 -0.0000
44 22 2 11.0344 -3.5421
44 22 4 4.8406 2.5298
44 24 0 3.0617 -0.0000
44 24 2 6.5871 -0.2304
44 24 4 6.5457 10.8453
44 26 0 8.6537 -0.0000
44 26 2 9.9194 11.4035
44 26 4 -13.1122 -4.7377
44 28 0 7.3650 -0.0000
44 28 2 7.3227 12.0534
44 28 4 20.2922 5.3194
44 30 0 -7.8774 0.0000
44 30 2 -9.1678 0.1044
44 30 4 -9.1238 -1.0749
44 32 0 -10.4090 0.0000
44 32 2 -3.0068 4.9086
44 32 4 14.4039 -5.7740
44 34 0 -5.2159 0.0000
44 34 2 -11.6147 5.8477
44 36 0 -0.1947 0.0000
44 36 2 -0.7558 2.9567
44 38 0 -1.3550 0.0000
44 38 2 2.2801 -2.7793
44 40 0 -10.2405 0.0000
44 40 2 2.0696 -8.2832
44 42 0 -11.0329 0.0000
45 1 1 8.9569 -5.3237
45 1 3 -15.4889 -8.5793
45 1 5 -8.7566 1.4540
45 3 1 0.2617 4.5843
45 3 3 -2.1516 4.8773
45 3 5 -7.6602 0.5763
45 5 1 4.8161 -0.7118
45 5 3 -4.3045 5.2794
45 5 5 9.5078 3.4271
45 7 1 -1.6439 -0.7806
45 7 3 -1.2685 -6.8326
45 7 5 -3.4481 -3.6619
45 9 1 -15.9410 -5.9723
45 9 3 -0.7339 8.5106
45 9 5 16.6603 2.4277
45 11 1 -0.4947 6.9163
45 11 3 5.9652 -8.9605
45 11 5 -10.7269 -5.0145
45 13 1 -7.1177 11.5035
45 13 3 -5.9996 -1.4868
45 13 5 0.9203 -5.6346
45 15 1 -7.8095 0.5913
45 15 3 5.1372 2.0399
45 15 5 -0.6818 -6.5080
45 17 1 6.4745 -2.7813
45 17 3 -6.9766 -15.0713
45 17 5 3.1941 -1.3605
45 19 1 -0.2690 10.7828
45 19 3 2.0007 14.9854
45 19 5 9.3421 -16.2009
45 21 1 11.0348 1.1524
45 21 3 6.0835 -6.3189
45 21 5 -6.0253 7.0920
45 23 1 4.9926 4.2329
45 23 3 3.7749 -0.6770
45 25 1 -2.6565 -8.8186
45 25 3 4.2619 6.9500
45 27 1 12.4390 5.7497
45 27 3 -4.9150 -4.4997
45 29 1 -5.4837 -6.7909
45 29 3 13.9788 12.1996
45 31 1 -8.8963 -1.2356
45 31 3 -10.7229 2.7943
45 33 1 -9.3493 -2.4050
45 33 3 1.2642 0.5790
45 35 1 -8.9098 -1.6513
45 35 3 -16.0959 10.8752
45 37 1 5.2308 1.3275
45 39 1 -4.8087 -7.0341
45 41 1 2.2793 0.6265
46 0 2 11.2423 10.4188
46 2 0 3.8325 -0.0000
46 2 2 9.5221 -7.6502
46 2 4 -14.2037 -2.7105
46 4 0 -3.2623 0.0000
46 4 2 4.1510 7.0793
46 4 4 -5.2555 -1.2326
46 6 0 -2.2731 -0.0000
46 6 2 9.0778 -9.1532
46 6 4 14.6144 -0.2692
46 8 0 -18.1028 0.0000
46 8 2 8.1252 -9.5024
46 8 4 -9.3622 -11.3246
46 10 0 -4.1183 -0.0000
46 10 2 3.7520 -6.8816
46 10 4 27.4143 2.4697
46 12 0 6.2559 -0.0000
46 12 2 -2.1231 -11.3952
46 12 4 2.1914 -11.5658
46 14 0 -1.7275 0.0000
46 14 2 3.8587 -7.4918
46 14 4 23.0129 7.7198
46 16 0 -8.4749 0.0000
46 16 2 7.0025 -6.4972
46 16 4 15.7277 -10.5043
46 18 0 4.6266 -0.0000
46 18 2 11.8384 -11.6513
46 18 4 14.3592 0.5166
46 20 0 5.7897 -0.0000
46 20 2 8.8179 4.3242
46 20 4 19.8052 5.5958
46 22 0 12.5264 -0.0000
46 22 2 15.0832 -9.0045
46 22 4 3.2952 12.0580
46 24 0 -0.7351 0.0000
46 24 2 14.7150 -3.7081
46 24 4 0.6515 2.1797
46 26 0 1.0544 -0.0000
46 26 2 3.5173 6.7442
46 26 4 7.8898 6.9967
46 28 0 1.5075 -0.0000
46 28 2 1.3108 4.8303
46 28 4 -11.8884 -3.8820
46 30 0 -4.2256 0.0000
46 30 2 4.0115 7.0089
46 32 0 2.3651 -0.0000
46 32 2 -17.7936 5.4262
46 34 0 -10.5837 0.0000
46 34 2 -2.5879 14.8920
46 36 0 1.5971 -0.0000
46 36 2 -13.2155 0.6115
46 38 0 -1.8953 0.0000
46 38 2 3.4522 -2.8709
46 40 0 4.1302 -0.0000
47 1 1 8.0530 1.9396
47 1 3 5.0236 8.1480
47 1 5 -2.5466 -6.5513
47 3 1 8.2312 1.4648
47 3 3 -2.0753 0.4418
47 3 5 -2.5551 3.5282
47 5 1 -1.1694 1.7172
47 5 3 1.2672 0.7052
47 5 5 -8.3501 -4.2269
47 7 1 -6.5176 -7.9796
47 7 3 -1.8632 15.3184
47 7 5 13.6373 -0.3838
47 9 1 -0.1408 0.0080
47 9 3 2.8919 -5.7944
47 9 5 -9.6469 -6.3864
47 11 1 -10.3027 11.3129
47 11 3 -2.2331 -1.3308
47 11 5 5.4648 5.7396
47 13 1 -1.0444 7.4386
47 13 3 9.9217 -0.3786
47 13 5 -10.8090 -7.3325
47 15 1 -2.8101 -1.8431
47 15 3 -5.3593 -3.5780
47 15 5 6.9408 3.9843
47 17 1 -3.6700 6.5176
47 17 3 7.4933 4.3783
47 17 5 4.9774 -5.8960
47 19 1 10.0279 1.9849
47 19 3 3.7688 -16.8775
47 21 1 -3.1900 11.4238
47 21 3 12.5996 11.9176
47 23 1 5.2954 -7.0941
47 23 3 13.6797 -2.5868
47 25 1 12.7810 3.3100
47 25 3 -1.4061 -2.1760
47 27 1 -10.0280 -6.5200
47 27 3 4.0974 5.7866
47 29 1 -2.5666 0.0157
47 29 3 -2.7433 2.2605
47 31 1 -7.2353 3.3080
47 31 3 3.2321 9.3565
47 33 1 0.0237 -5.1198
47 33 3 -24.5731 13.8588
47 35 1 -4.7425 6.2465
47 37 1 -12.1479 -5.5674
47 39 1 7.1447 1.8083
48 0 0 4.0002 0.0000
48 0 4 -12.6713 -2.9335
48 2 0 6.5692 -0.0000
48 2 2 7.5028 1.1198
48 2 4 5.8474 5.7668
48 4 0 3.9793 -0.0000
48 4 2 9.8822 -9.2971
48 4 4 -5.7880 -2.4574
48 6 0 -13.9233 0.0000
48 6 2 7.9239 -0.0597
48 6 4 -16.7595 -5.0366
48 8 0 -5.7927 0.0000
48 8 2 6.4101 -10.3830
48 8 4 13.5061 -2.0557
48 10 0 4.8397 -0.0000
48 10 2 -2.3213 -5.9762
48 10 4 -2.4011 -1.8821
48 12 0 -5.0302 0.0000
48 12 2 1.3937 -8.8536
48 12 4 14.7989 4.6457
48 14 0 -8.0007 0.0000
48 14 2 9.6892 -5.2741
48 14 4 10.9946 -8.2871
48 16 0 -8.6649 0.0000
48 16 2 4.5483 -4.8010
48 16 4 21.7078 4.1951
48 18 0 0.6964 -0.0000
48 18 2 7.8617 1.4125
48 18 4 20.6908 0.0454
48 20 0 3.5905 -0.0000
48 20 2 9.2859 -20.6813
48 20 4 9.7693 3.9602
48 22 0 -8.0201 0.0000
48 22 2 9.4528 -0.3112
48 22 4 15.8773 6.8185
48 24 0 5.6103 -0.0000
48 24 2 11.7791 1.4364
48 24 4 7.0231 5.0576
48 26 0 0.3698 0.0000
48 26 2 4.8001 -0.0210
48 28 0 -5.3427 0.0000
48 28 2 -0.5550 -1.9335
48 30 0 3.8325 -0.0000
48 30 2 -14.6528 5.4142
48 32 0 -4.5321 0.0000
48 32 2 2.2616 18.1943
48 34 0 16.7335 -0.0000
48 34 2 -15.2780 2.5924
48 36 0 -3.7642 0.0000
48 38 0 1.5156 -0.0000
49 1 1 1.8555 2.6267
49 1 3 9.0760 4.2904
49 1 5 -10.3955 0.0219
49 3 1 3.1581 -2.4957
49 3 3 12.1010 -0.1533
49 3 5 4.9806 -9.8031
49 5 1 0.3844 2.9524
49 5 3 -3.4014 12.4574
49 5 5 3.4990 -5.6138
49 7 1 -0.4610 -4.9814
49 7 3 2.6645 -7.2687
49 7 5 -8.1525 -3.5801
49 9 1 -2.8117 10.8648
49 9 3 -2.8319 3.7385
49 9 5 -0.9515 4.7700
49 11 1 5.3440 3.3276
49 11 3 7.4041 -0.5710
49 13 1 -7.1397 3.2325
49 13 3 -8.5399 -3.0069
49 15 1 3.5519 0.4910
49 15 3 8.7790 1.9828
49 17 1 3.4938 6.1480
49 17 3 -2.6722 -3.1809
49 19 1 -3.3489 11.2952
49 19 3 13.9532 7.6587
49 21 1 3.2504 -6.1444
49 21 3 8.0516 -15.8283
49 23 1 1.1531 5.3935
49 23 3 2.0919 6.5835
49 25 1 -0.4588 -1.5526
49 25 3 7.9775 -1.7206
49 27 1 1.8463 3.2171
49 27 3 2.0471 4.0100
49 29 1 -13.1472 2.0952
49 29 3 -0.0060 0.7384
49 31 1 -2.1339 -1.6883
49 33 1 -4.8917 8.3522
49 35 1 0.0559 -2.7436
50 0 2 2.6861 -11.0675
50 2 0 6.1976 -0.0000
50 2 2 5.3246 -5.6006
50 2 4 -9.4622 -6.5829
50 4 0 1.0766 -0.0000
50 4 2 2.6098 -1.6234
50 4 4 -0.1133 0.4165
50 6 0 -5.8345 0.0000
50 6 2 4.1826 -8.7806
50 6 4 -5.6021 -5.9420
50 8 0 0.1496 -0.0000
50 8 2 0.4478 -1.2888
50 8 4 -7.6954 1.7146
50 10 0 3.4173 0.0000
50 10 2 0.0413 -7.1252
50 10 4 2.7779 -0.2314
50 12 0 0.5828 0.0000
50 12 2 7.2917 -1.3195
50 12 4 7.7461 2.0458
50 14 0 -21.0673 0.0000
50 14 2 1.6301 -3.1596
50 14 4 9.5043 1.3318
50 16 0 -1.4472 0.0000
50 16 2 12.1404 0.5673
50 16 4 13.8137 -2.8182
50 18 0 -3.8105 0.0000
50 18 2 -1.0613 -2.9869
50 18 4 14.3455 5.1229
50 20 0 -6.1388 0.0000
50 20 2 9.3864 0.0839
50 20 4 18.6126 3.9250
50 22 0 -5.5261 0.0000
50 22 2 6.2920 -11.8853
50 24 0 -7.5530 0.0000
50 24 2 -1.1979 2.2687
50 26 0 2.3551 -0.0000
50 26 2 5.6895 -0.4207
50 28 0 5.7706 -0.0000
50 28 2 -9.7053 -0.4421
50 30 0 -1.1969 -0.0000
50 30 2 -0.0983 4.2541
50 32 0 9.3099 -0.0000
50 32 2 -13.1600 2.6870
50 34 0 1.6460 0.0000
50 36 0 18.4419 -0.0000
51 1 1 -2.6585 -2.6904
51 1 3 9.0678 -18.2360
51 3 1 1.9736 12.7562
51 3 3 5.5850 3.9559
51 5 1 -0.7655 -12.7122
51 5 3 7.8142 -9.9543
51 7 1 1.0771 14.1366
51 7 3 -9.1444 2.9896
51 9 1 6.6169 -0.4841
51 9 3 4.0121 -13.5830
51 11 1 3.4067 11.8338
51 11 3 -9.6823 -0.5620
51 13 1 10.0418 -11.9713
51 13 3 5.6331 3.4934
51 15 1 -1.4657 7.3004
51 15 3 -14.0409 0.1866
51 17 1 6.4831 3.4429
51 17 3 5.7579 1.7395
51 19 1 1.1449 5.1949
51 19 3 -0.8259 0.4984
51 21 1 -0.4245 3.6478
51 21 3 5.6862 8.3522
51 23 1 1.6369 -2.3410
51 23 3 -1.3636 -12.5745
51 25 1 -4.4041 4.9496
51 25 3 -1.4016 6.6120
51 27 1 -8.4103 6.9068
51 27 3 5.9999 -4.1253
51 29 1 -0.4748 3.1891
51 31 1 -5.4969 1.1918
51 33 1 -3.8938 1.8647
52 0 0 6.3694 -0.0000
52 0 4 1.7010 -8.7988
52 2 0 4.5869 -0.0000
52 2 2 -5.2262 -6.2587
52 2 4 1.2410 -2.1221
52 4 0 -6.5388 -0.0000
52 4 2 5.8553 -6.0381
52 4 4 -13.4749 -13.0112
52 6 0 0.9979 0.0000
52 6 2 -4.3774 1.4334
52 6 4 8.4846 -2.4288
52 8 0 4.0535 -0.0000
52 8 2 -5.2280 -6.5045
52 8 4 -6.3567 -0.3273
52 10 0 2.4316 0.0000
52 10 2 5.3428 -0.7946
52 10 4 1.8692 3.1844
52 12 0 -11.6166 0.0000
52 12 2 5.9328 -0.6531
52 12 4 -4.6133 -0.7341
52 14 0 -0.3237 0.0000
52 14 2 12.8357 2.6404
52 14 4 10.5954 0.8467
52 16 0 -12.3253 0.0000
52 16 2 -5.6308 6.9825
52 16 4 4.2019 3.2822
52 18 0 0.4150 -0.0000
52 18 2 10.4026 -5.4884
52 20 0 -9.3980 0.0000
52 20 2 -1.6309 2.8240
52 22 0 -5.8889 0.0000
52 22 2 2.4978 7.2192
52 24 0 -1.3140 0.0000
52 24 2 1.8918 -4.9211
52 26 0 -0.2926 0.0000
52 26 2 -12.4177 -5.3904
52 28 0 4.7225 -0.0000
52 28 2 3.7210 1.4070
52 30 0 6.2361 -0.0000
52 30 2 -5.9520 0.2648
52 32 0 8.5538 -0.0000
53 1 1 0.0252 9.5315
53 1 3 16.7544 5.2961
53 3 1 -2.7540 -10.7075
53 3 3 -0.1074 -15.2869
53 5 1 3.8997 17.1972
53 5 3 -10.0476 -7.9646
53 7 1 3.4943 -8.1950
53 7 3 7.6417 -21.5148
53 9 1 6.5673 15.9354
53 9 3 -11.9395 -1.8662
53 11 1 9.1429 -15.7769
53 11 3 -0.9600 -10.1198
53 13 1 7.2690 8.6469
53 13 3 -15.4942 2.6150
53 15 1 13.2102 -9.0694
53 15 3 -1.0041 2.6638
53 17 1 -0.2668 12.2057
53 17 3 -9.2036 7.6780
53 19 1 5.0334 -6.2667
53 19 3 -2.1997 0.3851
53 21 1 4.4707 4.0408
53 21 3 -10.5199 1.9035
53 23 1 -1.4311 5.5682
53 23 3 -1.2353 11.3342
53 25 1 -3.5329 5.5855
53 27 1 -6.2994 3.8407
53 29 1 -3.2914 0.7030
54 0 2 -3.9273 -0.2160
54 2 0 -5.7196 0.0000
54 2 2 3.6560 1.4973
54 2 4 0.4042 -12.4145
54 4 0 -0.6133 0.0000
54 4 2 -12.7377 8.0631
54 4 4 10.4308 -5.8270
54 6 0 -4.0700 0.0000
54 6 2 0.2674 -9.3037
54 6 4 -13.7532 -2.3255
54 8 0 6.3075 -0.0000
54 8 2 1.1079 0.5723
54 8 4 13.1688 -5.9454
54 10 0 -2.5984 0.0000
54 10 2 3.7567 -3.8235
54 12 0 -7.8204 0.0000
54 12 2 10.7395 -1.3738
54 14 0 -6.3259 0.0000
54 14 2 1.0247 8.5985
54 16 0 8.1167 -0.0000
54 16 2 9.4080 -2.7536
54 18 0 -10.0886 0.0000
54 18 2 -4.0623 10.9005
54 20 0 -2.5459 -0.0000
54 20 2 3.6276 -2.2731
54 22 0 -1.1308 -0.0000
54 22 2 -3.6082 6.7578
54 24 0 2.4789 -0.0000
54 24 2 -5.0062 3.0815
54 26 0 6.8113 -0.0000
54 26 2 1.6743 -1.9598
54 28 0 -1.0234 0.0000
54 30 0 7.1665 -0.0000
55 1 3 -1.5640 -9.9987
55 3 1 -0.0924 10.0815
55 3 3 -4.0322 -3.0243
55 5 1 -3.1883 -8.8121
55 5 3 -0.8334 -13.4731
55 7 1 6.2873 17.5489
55 7 3 -14.5903 -13.2207
55 9 1 8.0714 -13.5379
55 9 3 4.4261 -20.5121
55 11 1 7.4738 4.4439
55 11 3 -8.3773 1.6908
55 13 1 7.2858 -14.6710
55 13 3 -10.0712 -6.8907
55 15 1 6.1481 13.2808
55 15 3 -9.8943 7.8647
55 17 1 9.8569 -11.7464
55 17 3 -5.3515 0.2834
55 19 1 4.7421 6.7413
55 21 1 1.5024 -5.4585
55 23 1 4.1198 5.5665
55 25 1 -3.4357 8.2066
55 27 1 1.1219 -1.5968
56 0 0 -3.8155 -0.0000
56 2 0 -1.5254 0.0000
56 2 2 -3.2059 12.2575
56 4 0 -11.9779 0.0000
56 4 2 3.0849 -3.0002
56 6 0 3.6924 0.0000
56 6 2 -10.6030 7.9981
56 8 0 -0.7831 -0.0000
56 8 2 6.2480 -12.4183
56 10 0 -3.8057 0.0000
56 10 2 12.1555 -4.5155
56 12 0 -1.7445 0.0000
56 12 2 5.1791 1.7617
56 14 0 -0.2835 -0.0000
56 14 2 4.2604 -3.6618
56 16 0 -1.2304 0.0000
56 16 2 -2.2029 5.5825
56 18 0 4.4958 -0.0000
56 18 2 5.1212 -2.6858
56 20 0 -2.6891 0.0000
56 20 2 -2.7495 12.0001
56 22 0 2.0725 -0.0000
56 24 0 10.6925 -0.0000
56 26 0 1.8438 -0.0000
57 1 3 -11.8501 3.7488
57 3 1 2.8212 -2.7883
57 3 3 -4.3863 -2.2341
57 5 1 -2.3683 11.5694
57 5 3 -8.6021 -10.7375
57 7 1 -1.2460 -6.5301
57 7 3 2.7004 -10.2552
57 9 1 3.5933 4.0283
57 9 3 -7.3351 -6.7056
57 11 1 6.5143 -11.6416
57 13 1 4.7939 6.2817
57 15 1 1.4629 -8.9623
57 17 1 4.6439 1.9952
57 19 1 4.8663 -11.3242
57 21 1 7.3894 3.7154
58 0 2 3.6180 15.8263
58 2 0 -5.6704 -0.0000
58 2 2 -2.7223 3.2872
58 4 0 2.6031 -0.0000
58 4 2 -4.6523 3.3754
58 6 0 -1.3941 -0.0000
58 6 2 9.4453 -12.1273
58 8 0 -0.1721 -0.0000
58 8 2 1.9646 -2.0766
58 10 0 -1.6881 -0.0000
58 10 2 7.3943 -7.7338
58 12 0 -0.1073 -0.0000
58 12 2 6.8820 -4.1769
58 14 0 6.1230 -0.0000
58 14 2 0.0426 -3.3676
58 16 0 -2.3362 0.0000
58 16 2 3.8053 -2.9408
58 18 0 -2.7302 0.0000
58 20 0 5.0784 -0.0000
59 1 1 2.8230 0.8252
59 3 1 -11.4022 1.9033
59 5 1 1.5515 0.0082
59 7 1 -1.3496 4.8459
59 9 1 -1.1063 -5.3623
59 11 1 -1.2691 2.2049
59 13 1 -0.2712 -0.3095
59 15 1 1.4699 -4.4476
59 17 1 -2.4356 -8.9893
60 0 0 2.3657 -0.0000
60 2 0 -4.6306 0.0000
60 2 2 -0.2318 -2.3461
60 4 0 3.0840 -0.0000
60 4 2 -1.6067 -1.8327
60 6 0 7.3599 -0.0000
60 8 0 3.8964 -0.0000
60 10 0 0.1247 -0.0000
60 12 0 6.1243 -0.0000
60 14 0 -1.3316 -0.0000
61 1 1 -8.7355 -0.4935
61 3 1 -2.6752 3.5736
61 5 1 -13.2626 3.6141
61 7 1 0.1935 -1.7870
0 0 0 0.0 0.0
;
_olex2_submission_special_instructions 'No special instructions were received'
_oxdiff_exptl_absorpt_empirical_details
;
Empirical correction (ABSPACK) includes:
- Absorption correction using spherical harmonics
- Frame scaling
;
_oxdiff_exptl_absorpt_empirical_full_max 1.657
_oxdiff_exptl_absorpt_empirical_full_min 0.163
loop_
_space_group_symop_operation_xyz
'x, y, z'
'-x, -y, z'
'x+1/4, -y+1/4, z+1/4'
'-x+1/4, y+1/4, z+1/4'
'x, y+1/2, z+1/2'
'-x, -y+1/2, z+1/2'
'x+1/4, -y+3/4, z+3/4'
'-x+1/4, y+3/4, z+3/4'
'x+1/2, y, z+1/2'
'-x+1/2, -y, z+1/2'
'x+3/4, -y+1/4, z+3/4'
'-x+3/4, y+1/4, z+3/4'
'x+1/2, y+1/2, z'
'-x+1/2, -y+1/2, z'
'x+3/4, -y+3/4, z+1/4'
'-x+3/4, y+3/4, z+1/4'
loop_
_atom_site_label
_atom_site_type_symbol
_atom_site_fract_x
_atom_site_fract_y
_atom_site_fract_z
_atom_site_U_iso_or_equiv
_atom_site_adp_type
_atom_site_occupancy
_atom_site_site_symmetry_order
_atom_site_calc_flag
_atom_site_refinement_flags_posn
_atom_site_refinement_flags_adp
_atom_site_refinement_flags_occupancy
_atom_site_disorder_assembly
_atom_site_disorder_group
Au1 Au 0.56164(2) 0.69032(2) 0.31542(11) 0.02187(19) Uani 1 1 d . U . . .
S1 S 0.53726(9) 0.73673(9) -0.3839(6) 0.0294(10) Uani 1 1 d . . . . .
S2 S 0.58709(8) 0.77209(8) -0.2163(7) 0.0326(10) Uani 1 1 d . . . . .
S4 S 0.49109(9) 0.68807(9) -0.2869(7) 0.0323(10) Uani 1 1 d . . . . .
S3 S 0.46908(9) 0.64214(9) 0.0185(7) 0.0368(11) Uani 1 1 d . . . . .
N1 N 0.5632(3) 0.7156(3) 0.109(2) 0.029(2) Uani 1 1 d . U . . .
O1 O 0.6645(3) 0.6388(3) 1.245(2) 0.044(4) Uani 1 1 d . . . . .
N4 N 0.5323(3) 0.6783(3) 0.172(2) 0.026(2) Uani 1 1 d . U . . .
O2 O 0.6353(3) 0.5815(3) 0.5088(19) 0.045(4) Uani 1 1 d . . . . .
N2 N 0.5921(3) 0.7052(3) 0.4350(19) 0.023(2) Uani 1 1 d . U . . .
C3 C 0.5729(3) 0.7455(3) -0.099(3) 0.028(2) Uani 1 1 d . U . . .
N3 N 0.5571(3) 0.6628(3) 0.499(2) 0.028(2) Uani 1 1 d . U . . .
N8 N 0.5452(3) 0.8076(3) -0.199(3) 0.041(4) Uani 1 1 d . . . . .
C6 C 0.6064(3) 0.7253(3) 0.360(2) 0.025(2) Uani 1 1 d . U . . .
C2 C 0.5515(3) 0.7313(3) -0.164(3) 0.026(2) Uani 1 1 d . U . . .
N7 N 0.4911(4) 0.7599(3) -0.257(2) 0.042(4) Uani 1 1 d . . . . .
C19 C 0.5275(3) 0.6914(3) 0.006(2) 0.023(3) Uani 1 1 d . . . . .
N10 N 0.4416(3) 0.7048(3) -0.180(4) 0.052(4) Uani 1 1 d . . . . .
C9 C 0.6046(3) 0.6935(3) 0.582(2) 0.021(2) Uani 1 1 d . U . . .
C4 C 0.5806(3) 0.7345(3) 0.074(3) 0.028(2) Uani 1 1 d . U . . .
C1 C 0.5452(3) 0.7126(3) -0.031(3) 0.024(2) Uani 1 1 d . U . . .
C28 C 0.6171(3) 0.6775(3) 0.994(2) 0.027(4) Uani 1 1 d . . . . .
H28 H 0.608169 0.693024 1.007252 0.033 Uiso 1 1 calc R . . . .
C5 C 0.6017(3) 0.7391(3) 0.200(2) 0.025(4) Uani 1 1 d . . . . .
C12 C 0.5611(3) 0.6385(3) 0.758(2) 0.026(2) Uani 1 1 d . U . . .
H12 H 0.567326 0.631794 0.869705 0.031 Uiso 1 1 calc R . . . .
C34 C 0.6371(4) 0.5985(3) 0.653(3) 0.034(4) Uani 1 1 d . . . . .
C16 C 0.5147(3) 0.6592(3) 0.207(3) 0.026(2) Uani 1 1 d . U . . .
C15 C 0.5172(3) 0.6436(3) 0.368(2) 0.026(2) Uani 1 1 d . U . . .
C14 C 0.5363(3) 0.6459(3) 0.500(2) 0.024(2) Uani 1 1 d . U . . .
C46 C 0.5097(4) 0.7508(4) -0.310(2) 0.028(4) Uani 1 1 d . . . . .
C8 C 0.6281(3) 0.7080(3) 0.607(2) 0.025(2) Uani 1 1 d . U . . .
H8 H 0.640571 0.704657 0.696953 0.030 Uiso 1 1 calc R . . . .
N9 N 0.4897(4) 0.5925(3) -0.069(3) 0.050(5) Uani 1 1 d . U . . .
C11 C 0.5728(3) 0.6591(3) 0.647(2) 0.023(2) Uani 1 1 d . U . . .
C49 C 0.4613(3) 0.6984(4) -0.216(3) 0.033(4) Uani 1 1 d . U . . .
C18 C 0.5058(4) 0.6801(3) -0.072(3) 0.032(4) Uani 1 1 d . . . . .
C31 C 0.6431(3) 0.6305(4) 0.969(2) 0.027(4) Uani 1 1 d . . . . .
C17 C 0.4977(3) 0.6600(3) 0.054(3) 0.027(4) Uani 1 1 d . . . . .
C27 C 0.6128(3) 0.6628(3) 0.840(3) 0.030(3) Uani 1 1 d . . . . .
C44 C 0.4734(4) 0.6270(3) 0.477(3) 0.034(4) Uani 1 1 d . . . . .
H44 H 0.467624 0.644000 0.489129 0.040 Uiso 1 1 calc R . . . .
C20 C 0.6223(3) 0.7579(3) 0.138(2) 0.027(4) Uani 1 1 d . . . . .
C30 C 0.6474(3) 0.6476(4) 1.120(3) 0.034(4) Uani 1 1 d . . . . .
C7 C 0.6292(3) 0.7268(3) 0.479(3) 0.028(3) Uani 1 1 d . U . . .
H7 H 0.642292 0.739016 0.466961 0.033 Uiso 1 1 calc R . . . .
C33 C 0.6535(3) 0.5912(3) 0.797(3) 0.034(4) Uani 1 1 d . . . . .
H33 H 0.662386 0.575575 0.788682 0.040 Uiso 1 1 calc R . . . .
C47 C 0.5624(4) 0.7931(3) -0.199(4) 0.036(4) Uani 1 1 d . . . . .
C36 C 0.6263(3) 0.6383(3) 0.823(3) 0.028(3) Uani 1 1 d . . . . .
C32 C 0.6567(3) 0.6067(3) 0.953(3) 0.030(3) Uani 1 1 d . . . . .
H32 H 0.667896 0.601529 1.047633 0.036 Uiso 1 1 calc R . . . .
C25 C 0.6236(4) 0.7829(3) 0.200(3) 0.033(4) Uani 1 1 d . . . . .
H25 H 0.611694 0.789026 0.286092 0.039 Uiso 1 1 calc R . . . .
C10 C 0.5958(3) 0.6718(3) 0.686(2) 0.022(3) Uani 1 1 d . . . . .
C13 C 0.5396(3) 0.6308(3) 0.670(3) 0.028(2) Uani 1 1 d . U . . .
H13 H 0.528598 0.617837 0.711140 0.034 Uiso 1 1 calc R . . . .
C21 C 0.6414(4) 0.7484(4) 0.017(3) 0.040(5) Uani 1 1 d . . . . .
H21 H 0.641301 0.731160 -0.020987 0.048 Uiso 1 1 calc R . . . .
C23 C 0.6612(4) 0.7899(4) 0.015(4) 0.056(7) Uani 1 1 d . . . . .
C24 C 0.6429(4) 0.7995(4) 0.134(3) 0.045(6) Uani 1 1 d . . . . .
H24 H 0.643227 0.816883 0.169924 0.054 Uiso 1 1 calc R . . . .
C29 C 0.6345(3) 0.6704(3) 1.135(3) 0.032(4) Uani 1 1 d . . . . .
H29 H 0.637105 0.681199 1.237222 0.038 Uiso 1 1 calc R . . . .
C35 C 0.6229(3) 0.6216(4) 0.664(3) 0.033(4) Uani 1 1 d . . . . .
H35 H 0.611441 0.626045 0.569412 0.040 Uiso 1 1 calc R . . . .
C22 C 0.6602(4) 0.7650(4) -0.043(4) 0.057(7) Uani 1 1 d . . . . .
H22 H 0.672623 0.758909 -0.125997 0.068 Uiso 1 1 calc R . . . .
C39 C 0.4980(3) 0.6226(3) 0.407(3) 0.029(4) Uani 1 1 d . . . . .
N6 N 0.4351(4) 0.5445(4) 0.595(4) 0.085(9) Uani 1 1 d . U . . .
C42 C 0.4660(4) 0.5819(4) 0.508(3) 0.038(5) Uani 1 1 d . . . . .
C37 C 0.6712(5) 0.6565(5) 1.398(3) 0.058(7) Uani 1 1 d . . . . .
H37A H 0.679207 0.671825 1.348088 0.088 Uiso 1 1 calc GR . . . .
H37B H 0.682971 0.647983 1.481982 0.088 Uiso 1 1 calc GR . . . .
H37C H 0.655975 0.661293 1.465312 0.088 Uiso 1 1 calc GR . . . .
C48 C 0.4822(4) 0.6132(4) -0.033(3) 0.037(5) Uani 1 1 d . . . . .
C43 C 0.4574(4) 0.6070(4) 0.528(3) 0.036(5) Uani 1 1 d . . . . .
H43 H 0.441083 0.610337 0.574611 0.043 Uiso 1 1 calc R . . . .
C45 C 0.4488(4) 0.5612(4) 0.559(5) 0.063(5) Uani 1 1 d . U . . .
C41 C 0.4903(4) 0.5766(4) 0.443(4) 0.050(6) Uani 1 1 d . . . . .
H41 H 0.495936 0.559471 0.435409 0.060 Uiso 1 1 calc R . . . .
C38 C 0.6178(5) 0.5864(4) 0.364(3) 0.051(6) Uani 1 1 d . . . . .
H38A H 0.625862 0.597029 0.270421 0.077 Uiso 1 1 calc GR . . . .
H38B H 0.603125 0.595367 0.413776 0.077 Uiso 1 1 calc GR . . . .
H38C H 0.612450 0.570279 0.309337 0.077 Uiso 1 1 calc GR . . . .
C40 C 0.5064(4) 0.5966(3) 0.389(3) 0.040(5) Uani 1 1 d . . . . .
H40 H 0.522679 0.593006 0.341438 0.048 Uiso 1 1 calc R . . . .
C26 C 0.6809(5) 0.8072(4) -0.056(4) 0.063(5) Uani 1 1 d . U . . .
N5 N 0.6959(6) 0.8203(5) -0.132(9) 0.19(3) Uani 1 1 d . . . . .
loop_
_atom_site_aniso_label
_atom_site_aniso_U_11
_atom_site_aniso_U_22
_atom_site_aniso_U_33
_atom_site_aniso_U_23
_atom_site_aniso_U_13
_atom_site_aniso_U_12
Au1 0.0171(3) 0.0232(3) 0.0252(3) 0.0007(3) -0.0030(3) 0.0005(3)
S1 0.029(2) 0.034(2) 0.026(2) 0.0008(17) -0.0015(18) 0.0058(17)
S2 0.030(2) 0.030(2) 0.038(3) 0.0052(19) 0.001(2) -0.0001(17)
S4 0.030(2) 0.034(2) 0.033(2) -0.0005(19) -0.007(2) -0.0013(18)
S3 0.028(2) 0.037(2) 0.045(3) 0.003(2) -0.014(2) -0.0072(18)
N1 0.026(4) 0.027(4) 0.034(3) 0.003(3) -0.005(3) 0.001(3)
O1 0.039(8) 0.047(8) 0.046(9) -0.009(7) -0.011(7) 0.009(6)
N4 0.021(3) 0.025(3) 0.031(3) 0.001(3) -0.005(2) 0.000(3)
O2 0.056(9) 0.039(7) 0.039(9) -0.008(6) -0.002(7) 0.015(6)
N2 0.022(3) 0.027(4) 0.020(4) -0.006(3) 0.004(3) -0.001(3)
C3 0.025(4) 0.026(4) 0.034(4) 0.003(3) -0.004(3) 0.002(3)
N3 0.021(2) 0.031(3) 0.033(3) 0.005(3) -0.006(2) -0.002(2)
N8 0.044(9) 0.037(8) 0.043(10) -0.002(8) -0.016(10) 0.007(8)
C6 0.023(3) 0.030(4) 0.023(4) -0.003(3) 0.002(3) -0.003(3)
C2 0.022(4) 0.023(4) 0.032(3) 0.000(3) -0.002(3) 0.005(3)
N7 0.051(11) 0.050(10) 0.025(9) -0.001(8) 0.002(8) 0.008(9)
C19 0.017(7) 0.038(9) 0.013(8) -0.003(7) -0.003(6) 0.001(7)
N10 0.032(9) 0.060(10) 0.064(11) -0.004(13) -0.004(11) 0.010(8)
C9 0.021(3) 0.024(3) 0.017(4) -0.008(3) 0.005(3) 0.000(3)
C4 0.025(3) 0.025(4) 0.034(4) 0.002(3) -0.004(3) 0.002(3)
C1 0.020(3) 0.021(4) 0.031(4) -0.002(3) 0.000(3) 0.007(3)
C28 0.029(9) 0.027(8) 0.026(9) -0.003(7) -0.006(8) 0.005(7)
C5 0.029(9) 0.018(7) 0.027(9) -0.009(7) 0.007(8) -0.003(7)
C12 0.018(3) 0.028(4) 0.031(2) 0.002(3) -0.003(2) 0.001(3)
C34 0.043(11) 0.025(9) 0.036(11) -0.004(8) 0.001(9) -0.002(8)
C16 0.021(3) 0.025(3) 0.032(3) 0.001(3) -0.005(3) 0.001(3)
C15 0.020(3) 0.026(4) 0.032(3) 0.002(3) -0.005(2) 0.001(3)
C14 0.017(3) 0.025(3) 0.030(3) 0.001(3) -0.003(2) 0.002(2)
C46 0.031(10) 0.042(10) 0.012(8) 0.005(7) 0.005(7) 0.005(8)
C8 0.024(3) 0.029(4) 0.023(4) -0.003(3) 0.001(3) -0.004(3)
N9 0.067(13) 0.037(10) 0.047(12) 0.000(9) 0.011(10) 0.006(9)
C11 0.017(3) 0.025(4) 0.028(3) 0.000(3) -0.002(2) 0.003(3)
C49 0.027(9) 0.042(10) 0.031(12) -0.005(9) -0.009(9) 0.004(7)
C18 0.029(10) 0.024(8) 0.043(11) -0.008(8) -0.005(9) 0.007(7)
C31 0.018(8) 0.043(10) 0.019(9) 0.008(8) -0.003(7) -0.001(7)
C17 0.029(8) 0.021(7) 0.032(9) -0.013(8) 0.001(9) 0.004(6)
C27 0.021(6) 0.032(6) 0.037(8) 0.007(6) 0.004(6) 0.001(5)
C44 0.031(10) 0.028(9) 0.041(11) -0.011(8) 0.015(9) -0.007(8)
C20 0.024(9) 0.028(8) 0.028(9) -0.001(7) -0.010(7) 0.003(7)
C30 0.028(9) 0.049(11) 0.026(10) 0.007(8) -0.006(8) -0.002(8)
C7 0.025(3) 0.032(4) 0.026(5) 0.000(3) 0.000(3) -0.005(3)
C33 0.039(9) 0.029(8) 0.034(11) -0.001(9) 0.004(10) 0.007(7)
C47 0.037(9) 0.030(8) 0.040(12) 0.026(11) -0.007(9) -0.006(8)
C36 0.027(8) 0.029(8) 0.028(9) -0.001(9) -0.001(9) -0.003(6)
C32 0.021(6) 0.032(6) 0.037(8) 0.007(6) 0.004(6) 0.001(5)
C25 0.029(9) 0.031(9) 0.038(11) -0.010(8) -0.002(9) 0.003(8)
C10 0.020(8) 0.018(7) 0.027(9) 0.001(7) 0.003(7) 0.001(6)
C13 0.020(3) 0.031(4) 0.034(3) 0.005(3) -0.006(2) -0.002(3)
C21 0.040(10) 0.031(9) 0.050(14) -0.012(9) 0.006(10) -0.005(8)
C23 0.038(11) 0.034(10) 0.10(2) 0.005(11) 0.039(13) -0.001(8)
C24 0.048(12) 0.028(10) 0.059(14) -0.007(9) 0.013(11) -0.002(9)
C29 0.025(9) 0.031(9) 0.040(11) -0.006(8) 0.004(8) 0.007(7)
C35 0.020(9) 0.043(10) 0.037(11) 0.002(9) -0.003(8) 0.000(8)
C22 0.039(12) 0.046(12) 0.085(18) 0.003(12) 0.037(13) -0.010(10)
C39 0.026(9) 0.027(8) 0.036(10) 0.014(8) -0.015(8) -0.014(7)
N6 0.059(12) 0.062(13) 0.14(2) 0.027(15) -0.070(16) -0.020(10)
C42 0.037(10) 0.034(9) 0.041(12) 0.008(8) -0.018(9) -0.008(8)
C37 0.045(13) 0.083(17) 0.048(14) -0.008(13) -0.027(12) 0.021(12)
C48 0.047(12) 0.050(13) 0.013(9) 0.005(9) 0.000(9) -0.015(10)
C43 0.030(9) 0.049(11) 0.030(12) -0.007(9) -0.002(8) -0.001(8)
C45 0.044(8) 0.046(9) 0.100(14) 0.016(10) 0.032(11) -0.010(7)
C41 0.040(12) 0.037(11) 0.072(16) 0.009(11) 0.000(11) 0.006(9)
C38 0.083(17) 0.044(12) 0.028(12) -0.007(9) -0.010(11) 0.002(11)
C40 0.027(9) 0.028(9) 0.064(14) -0.005(9) -0.004(9) 0.001(7)
C26 0.044(8) 0.046(9) 0.100(14) 0.016(10) 0.032(11) -0.010(7)
N5 0.11(2) 0.056(15) 0.42(8) -0.02(3) 0.15(4) -0.031(16)
loop_
_atom_type_symbol
_atom_type_description
_atom_type_scat_dispersion_real
_atom_type_scat_dispersion_imag
_atom_type_scat_source
C C 0.0181 0.0091 'International Tables Vol C Tables 4.2.6.8 and 6.1.1.4'
H H 0.0000 0.0000 'International Tables Vol C Tables 4.2.6.8 and 6.1.1.4'
Au Au -4.4197 7.2980 'International Tables Vol C Tables 4.2.6.8 and 6.1.1.4'
N N 0.0311 0.0180 'International Tables Vol C Tables 4.2.6.8 and 6.1.1.4'
O O 0.0492 0.0322 'International Tables Vol C Tables 4.2.6.8 and 6.1.1.4'
S S 0.3331 0.5567 'International Tables Vol C Tables 4.2.6.8 and 6.1.1.4'
loop_
_geom_angle_atom_site_label_1
_geom_angle_atom_site_label_2
_geom_angle_atom_site_label_3
_geom_angle
_geom_angle_site_symmetry_1
_geom_angle_site_symmetry_3
_geom_angle_publ_flag
N4 Au1 N1 81.3(6) . . ?
N4 Au1 N2 173.3(6) . . ?
N2 Au1 N1 92.1(6) . . ?
N3 Au1 N1 172.6(6) . . ?
N3 Au1 N4 91.6(6) . . ?
N3 Au1 N2 95.0(6) . . ?
C46 S1 C2 98.4(8) . . ?
C47 S2 C3 98.3(9) . . ?
C49 S4 C18 101.8(9) . . ?
C48 S3 C17 98.6(9) . . ?
C4 N1 Au1 130.0(13) . . ?
C4 N1 C1 113.4(15) . . ?
C1 N1 Au1 116.3(11) . . ?
C30 O1 C37 116.5(16) . . ?
C19 N4 Au1 115.8(11) . . ?
C16 N4 Au1 131.3(12) . . ?
C16 N4 C19 112.9(14) . . ?
C34 O2 C38 119.1(15) . . ?
C6 N2 Au1 123.9(11) . . ?
C9 N2 Au1 123.2(10) . . ?
C9 N2 C6 111.8(13) . . ?
C2 C3 S2 125.1(14) . . ?
C2 C3 C4 107.8(15) . . ?
C4 C3 S2 127.1(13) . . ?
C14 N3 Au1 123.7(11) . . ?
C11 N3 Au1 124.0(11) . . ?
C11 N3 C14 112.2(14) . . ?
N2 C6 C7 104.5(14) . . ?
C5 C6 N2 128.1(16) . . ?
C5 C6 C7 127.1(16) . . ?
C3 C2 S1 123.0(13) . . ?
C1 C2 S1 128.5(13) . . ?
C1 C2 C3 108.4(16) . . ?
N4 C19 C1 114.1(14) . . ?
C18 C19 N4 106.5(15) . . ?
C18 C19 C1 139.4(16) . . ?
N2 C9 C8 105.5(13) . . ?
N2 C9 C10 126.3(14) . . ?
C10 C9 C8 128.2(16) . . ?
N1 C4 C3 105.1(15) . . ?
N1 C4 C5 120.6(17) . . ?
C3 C4 C5 134.3(16) . . ?
N1 C1 C2 105.2(14) . . ?
N1 C1 C19 112.5(15) . . ?
C2 C1 C19 142.3(16) . . ?
C27 C28 C29 123.1(16) . . ?
C6 C5 C4 125.2(16) . . ?
C6 C5 C20 116.7(16) . . ?
C4 C5 C20 117.5(16) . . ?
C13 C12 C11 108.0(15) . . ?
O2 C34 C33 115.5(16) . . ?
O2 C34 C35 123.7(18) . . ?
C33 C34 C35 120.7(18) . . ?
N4 C16 C15 119.8(15) . . ?
N4 C16 C17 104.7(15) . . ?
C17 C16 C15 135.4(16) . . ?
C16 C15 C39 119.9(15) . . ?
C14 C15 C16 125.2(15) . . ?
C14 C15 C39 114.9(15) . . ?
N3 C14 C13 104.2(14) . . ?
C15 C14 N3 127.9(16) . . ?
C15 C14 C13 127.8(15) . . ?
N7 C46 S1 178.8(19) . . ?
C7 C8 C9 109.1(15) . . ?
N3 C11 C12 105.9(14) . . ?
N3 C11 C10 127.5(16) . . ?
C10 C11 C12 126.6(16) . . ?
N10 C49 S4 176(2) . . ?
C19 C18 S4 127.2(15) . . ?
C19 C18 C17 106.9(16) . . ?
C17 C18 S4 125.9(14) . . ?
C30 C31 C36 119.4(16) . . ?
C30 C31 C32 121.2(16) . . ?
C36 C31 C32 119.3(17) . . ?
C16 C17 S3 128.5(14) . . ?
C16 C17 C18 109.1(15) . . ?
C18 C17 S3 122.2(14) . . ?
C28 C27 C36 118.3(17) . . ?
C28 C27 C10 122.0(15) . . ?
C36 C27 C10 119.7(17) . . ?
C43 C44 C39 122.1(17) . . ?
C25 C20 C5 123.3(17) . . ?
C25 C20 C21 119.2(17) . . ?
C21 C20 C5 117.5(15) . . ?
O1 C30 C31 114.0(17) . . ?
O1 C30 C29 124.9(18) . . ?
C29 C30 C31 121.0(17) . . ?
C8 C7 C6 109.0(15) . . ?
C32 C33 C34 121.3(16) . . ?
N8 C47 S2 176(3) . . ?
C31 C36 C27 118.6(17) . . ?
C31 C36 C35 119.4(15) . . ?
C35 C36 C27 122.0(17) . . ?
C33 C32 C31 120.1(17) . . ?
C20 C25 C24 120.4(18) . . ?
C9 C10 C27 116.2(14) . . ?
C11 C10 C9 123.0(15) . . ?
C11 C10 C27 120.9(14) . . ?
C12 C13 C14 109.7(16) . . ?
C22 C21 C20 119.1(18) . . ?
C24 C23 C26 119(2) . . ?
C22 C23 C24 120.5(19) . . ?
C22 C23 C26 120(2) . . ?
C23 C24 C25 119.2(18) . . ?
C30 C29 C28 119.5(17) . . ?
C34 C35 C36 119.2(17) . . ?
C23 C22 C21 121(2) . . ?
C44 C39 C15 124.4(16) . . ?
C44 C39 C40 118.2(16) . . ?
C40 C39 C15 117.1(17) . . ?
C43 C42 C45 117.8(19) . . ?
C43 C42 C41 121.3(18) . . ?
C41 C42 C45 120.9(19) . . ?
N9 C48 S3 175(2) . . ?
C42 C43 C44 118.7(18) . . ?
N6 C45 C42 178(4) . . ?
C42 C41 C40 120.4(19) . . ?
C41 C40 C39 119.2(19) . . ?
N5 C26 C23 173(4) . . ?
loop_
_geom_bond_atom_site_label_1
_geom_bond_atom_site_label_2
_geom_bond_distance
_geom_bond_site_symmetry_2
_geom_bond_publ_flag
Au1 N1 1.966(15) . ?
Au1 N4 1.943(14) . ?
Au1 N2 1.958(14) . ?
Au1 N3 1.942(15) . ?
S1 C2 1.758(19) . ?
S1 C46 1.693(19) . ?
S2 C3 1.766(18) . ?
S2 C47 1.68(2) . ?
S4 C49 1.716(19) . ?
S4 C18 1.76(2) . ?
S3 C17 1.769(16) . ?
S3 C48 1.68(2) . ?
N1 C4 1.35(2) . ?
N1 C1 1.38(2) . ?
O1 C30 1.34(2) . ?
O1 C37 1.47(3) . ?
N4 C19 1.39(2) . ?
N4 C16 1.37(2) . ?
O2 C34 1.35(2) . ?
O2 C38 1.40(3) . ?
N2 C6 1.38(2) . ?
N2 C9 1.38(2) . ?
C3 C2 1.41(2) . ?
C3 C4 1.42(3) . ?
N3 C14 1.39(2) . ?
N3 C11 1.35(2) . ?
N8 C47 1.17(2) . ?
C6 C5 1.36(2) . ?
C6 C7 1.46(2) . ?
C2 C1 1.39(2) . ?
N7 C46 1.14(2) . ?
C19 C1 1.45(2) . ?
C19 C18 1.39(2) . ?
N10 C49 1.11(2) . ?
C9 C8 1.44(2) . ?
C9 C10 1.42(2) . ?
C4 C5 1.44(3) . ?
C28 C27 1.35(3) . ?
C28 C29 1.40(2) . ?
C5 C20 1.51(2) . ?
C12 C11 1.46(2) . ?
C12 C13 1.34(2) . ?
C34 C33 1.39(3) . ?
C34 C35 1.40(3) . ?
C16 C15 1.41(2) . ?
C16 C17 1.41(3) . ?
C15 C14 1.37(2) . ?
C15 C39 1.50(2) . ?
C14 C13 1.45(2) . ?
C8 C7 1.34(2) . ?
N9 C48 1.16(3) . ?
C11 C10 1.39(2) . ?
C18 C17 1.43(3) . ?
C31 C30 1.41(3) . ?
C31 C36 1.42(3) . ?
C31 C32 1.42(3) . ?
C27 C36 1.45(2) . ?
C27 C10 1.48(3) . ?
C44 C39 1.39(3) . ?
C44 C43 1.37(3) . ?
C20 C25 1.36(2) . ?
C20 C21 1.41(3) . ?
C30 C29 1.36(3) . ?
C33 C32 1.38(3) . ?
C36 C35 1.43(3) . ?
C25 C24 1.40(3) . ?
C21 C22 1.37(3) . ?
C23 C24 1.37(3) . ?
C23 C22 1.35(3) . ?
C23 C26 1.45(3) . ?
C39 C40 1.41(3) . ?
N6 C45 1.15(3) . ?
C42 C43 1.37(3) . ?
C42 C45 1.44(3) . ?
C42 C41 1.37(3) . ?
C41 C40 1.38(3) . ?
C26 N5 1.16(4) . ?
loop_
_smtbx_masks_void_nr
_smtbx_masks_void_average_x
_smtbx_masks_void_average_y
_smtbx_masks_void_average_z
_smtbx_masks_void_volume
_smtbx_masks_void_count_electrons
_smtbx_masks_void_content
1 0.000 0.000 -0.915 443.5 105.8 ?
2 0.000 0.500 -0.683 443.5 105.8 ?
3 0.250 0.250 -0.324 443.5 105.8 ?
4 0.250 0.750 -0.824 443.5 105.8 ?
5 0.500 0.500 -0.927 443.5 105.8 ?
6 0.500 1.000 -0.427 443.5 105.8 ?
7 0.750 0.250 -0.824 443.5 105.8 ?
8 0.750 0.750 -0.324 443.5 105.8 ?
