#------------------------------------------------------------------------------
#$Date: 2016-08-07 10:57:37 +0300 (Sun, 07 Aug 2016) $
#$Revision: 185114 $
#$URL: file:///home/coder/svn-repositories/cod/cif/1/54/25/1542594.cif $
#------------------------------------------------------------------------------
#
# This file is available in the Crystallography Open Database (COD),
# http://www.crystallography.net/
#
# All data on this site have been placed in the public domain by the
# contributors.
#
data_1542594
loop_
_publ_author_name
'Fukui, Norihito'
'Lee, Seung-Kyu'
'Kato, Kenichi'
'Shimizu, Daiki'
'Tanaka, Takayuki'
'Lee, Sangsu'
'Yorimitsu, Hideki'
'Kim, Dongho'
'Osuka, Atsuhiro'
_publ_section_title
;
 Regioselective phenylene-fusion reactions of Ni(ii)-porphyrins controlled
 by an electron-withdrawing meso-substituent
;
_journal_issue                   7
_journal_name_full               'Chem. Sci.'
_journal_page_first              4059
_journal_paper_doi               10.1039/C5SC04748J
_journal_volume                  7
_journal_year                    2016
_chemical_formula_sum            'C74 H77 N4 Ni O P'
_chemical_formula_weight         1128.07
_chemical_name_systematic
'doubly 10,12- and 18,20-phenylene-fused meso-diphenylphosphinylporphyrin'
_space_group_crystal_system      monoclinic
_space_group_IT_number           14
_space_group_name_Hall           '-P 2yn'
_space_group_name_H-M_alt        'P 1 21/n 1'
_symmetry_space_group_name_Hall  '-P 2yn'
_symmetry_space_group_name_H-M   'P 1 21/n 1'
_atom_sites_solution_hydrogens   geom
_audit_creation_method           SHELXL-2014/7
_audit_update_record
;
2015-10-27 deposited with the CCDC.
2016-03-01 downloaded from the CCDC.
;
_cell_angle_alpha                90
_cell_angle_beta                 96.168(4)
_cell_angle_gamma                90
_cell_formula_units_Z            9
_cell_length_a                   12.3714(16)
_cell_length_b                   28.233(3)
_cell_length_c                   41.360(6)
_cell_measurement_reflns_used    5527
_cell_measurement_temperature    93(2)
_cell_measurement_theta_max      68.2
_cell_measurement_theta_min      31.2
_cell_volume                     14363(3)
_computing_structure_refinement  'SHELXL-2014/7 (Sheldrick, 2014)'
_diffrn_ambient_temperature      93(2)
_diffrn_detector_area_resol_mean 5.8140
_diffrn_measured_fraction_theta_full 0.990
_diffrn_measured_fraction_theta_max 0.988
_diffrn_measurement_device_type  'Rigaku XtaLAB P200'
_diffrn_measurement_method       \w
_diffrn_radiation_type           CuK\a
_diffrn_radiation_wavelength     1.54187
_diffrn_reflns_av_R_equivalents  0.0701
_diffrn_reflns_av_unetI/netI     0.0700
_diffrn_reflns_Laue_measured_fraction_full 0.990
_diffrn_reflns_Laue_measured_fraction_max 0.988
_diffrn_reflns_limit_h_max       14
_diffrn_reflns_limit_h_min       -14
_diffrn_reflns_limit_k_max       32
_diffrn_reflns_limit_k_min       -33
_diffrn_reflns_limit_l_max       49
_diffrn_reflns_limit_l_min       -49
_diffrn_reflns_number            94969
_diffrn_reflns_point_group_measured_fraction_full 0.990
_diffrn_reflns_point_group_measured_fraction_max 0.988
_diffrn_reflns_theta_full        67.687
_diffrn_reflns_theta_max         68.336
_diffrn_reflns_theta_min         6.558
_diffrn_source                   'fine-focus sealed tube'
_exptl_absorpt_coefficient_mu    1.024
_exptl_absorpt_correction_T_max  1.000
_exptl_absorpt_correction_T_min  0.742
_exptl_absorpt_correction_type   multi-scan
_exptl_absorpt_process_details   'REQAB (Rigaku, 1998)'
_exptl_crystal_colour            Red
_exptl_crystal_density_diffrn    1.174
_exptl_crystal_description       Prism
_exptl_crystal_F_000             5400
_exptl_crystal_size_max          0.160
_exptl_crystal_size_mid          0.050
_exptl_crystal_size_min          0.010
_refine_diff_density_max         0.877
_refine_diff_density_min         -0.658
_refine_diff_density_rms         0.081
_refine_ls_extinction_method     none
_refine_ls_goodness_of_fit_ref   1.049
_refine_ls_hydrogen_treatment    constr
_refine_ls_matrix_type           full
_refine_ls_number_parameters     1732
_refine_ls_number_reflns         26005
_refine_ls_number_restraints     1
_refine_ls_restrained_S_all      1.049
_refine_ls_R_factor_all          0.1063
_refine_ls_R_factor_gt           0.0739
_refine_ls_shift/su_max          0.005
_refine_ls_shift/su_mean         0.000
_refine_ls_structure_factor_coef Fsqd
_refine_ls_weighting_details
'w=1/[\s^2^(Fo^2^)+(0.1185P)^2^+18.8594P] where P=(Fo^2^+2Fc^2^)/3'
_refine_ls_weighting_scheme      calc
_refine_ls_wR_factor_gt          0.1927
_refine_ls_wR_factor_ref         0.2330
_reflns_Friedel_coverage         0.000
_reflns_number_gt                18452
_reflns_number_total             26005
_reflns_threshold_expression     'I > 2\s(I)'
_cod_data_source_file            c5sc04748j2.cif
_cod_data_source_block           40426FU
_cod_depositor_comments
;
The following automatic conversions were performed:

'_exptl_absorpt_correction_type' value 'Multi-scan' changed to
'multi-scan' according to
/usr/data/users/saulius/crontab/automatic-downloads/rss-feeds/RSC/lib/dictionaries/cif_core.dic
dictionary named 'cif_core.dic' version 2.4.2 from 2011-04-26.

Automatic conversion script
Id: cif_fix_values 4268 2015-11-12 08:31:59Z antanas 

 Adding full bibliography for 1542591--1542594.cif.
;
_cod_database_code               1542594
_shelx_shelxl_version_number     2014/7
_shelx_space_group_comment
;
The symmetry employed for this shelxl refinement is uniquely defined
by the following loop, which should always be used as a source of
symmetry information in preference to the above space-group names.
They are only intended as comments.
;
_shelx_estimated_absorpt_t_min   0.853
_shelx_estimated_absorpt_t_max   0.990
_shelx_res_file
;

    40426FU.res created by SHELXL-2014/7

TITL
REM  Yadorkari-X generated
CELL 1.54187 12.3714 28.2330 41.3600 90.0000 96.1680 90.0000
ZERR 9.0 0.0016 0.0030 0.0060 0.0000 0.0040 0.0000
LATT 1
SYMM 1/2-X, 1/2+Y, 1/2-Z
REM  SPGR P21/n monoclinic
SFAC C H N Ni O P
UNIT 666 693 36 9 9 9
SIZE 0.16 0.05 0.01
TEMP -180.0
L.S. 10
FMAP 2
PLAN -100
ACTA
CONF
HTAB
LIST 4
BOND $H
MERG 2
EQIV $1 1/2+X, 1/2-Y, -1/2+Z
EQIV $2 -X, 1-Y, 1-Z
EQIV $3 1-X, 1-Y, 1-Z
EQIV $4 -1/2+X, 1/2-Y, 1/2+Z

DFIX 1.37 0.01 O7 C172
HTAB C94 O3_$2
HTAB C39 O8_$3
HTAB C112 O2
HTAB C105 O4_$4
HTAB O4 O2_$1
HTAB C94 O3_$2
HTAB C39 O8_$3

WGHT    0.118500   18.859400
FVAR       0.93332   0.73525   0.74894   0.63658
NI1   4    0.004572    0.319460    0.380251    11.00000    0.02771    0.01945 =
         0.02857   -0.00102    0.00607    0.00057
NI2   4    0.685787    0.282320    0.413277    11.00000    0.03160    0.02084 =
         0.02960   -0.00039    0.00311   -0.00120
P3    6   -0.028002    0.319770    0.501995    11.00000    0.03239    0.02824 =
         0.02830   -0.00260    0.00568   -0.00311
P4    6    0.545944    0.448709    0.381983    11.00000    0.03010    0.02078 =
         0.03758    0.00023    0.00243   -0.00088
N6    3   -0.024624    0.270177    0.411080    11.00000    0.03013    0.02361 =
         0.02540   -0.00276    0.00563    0.00094
N8    3    0.040226    0.365500    0.350069    11.00000    0.02670    0.02353 =
         0.02759   -0.00111    0.00469    0.00118
N7    3    0.058894    0.275083    0.351919    11.00000    0.02808    0.02153 =
         0.02774    0.00158    0.00338   -0.00037
N5    3   -0.053289    0.367157    0.407652    11.00000    0.02749    0.02211 =
         0.03012   -0.00019    0.00551   -0.00146
N1    3    0.670763    0.241399    0.448722    11.00000    0.03590    0.02251 =
         0.02905   -0.00308    0.00430   -0.00112
O2    5   -0.097988    0.286925    0.518598    11.00000    0.04146    0.03644 =
         0.03391   -0.00062    0.00714   -0.00741
N2    3    0.705881    0.322551    0.375837    11.00000    0.02465    0.02528 =
         0.03514   -0.00235    0.00191   -0.00077
N3    3    0.708641    0.226913    0.389531    11.00000    0.02976    0.02273 =
         0.03250    0.00238    0.00222   -0.00039
C75   1    0.010996    0.411272    0.352001    11.00000    0.02804    0.02322 =
         0.03232    0.00078    0.00574    0.00285
C10   1    0.841510    0.259488    0.283284    11.00000    0.02743    0.02899 =
         0.03550   -0.00029    0.00365    0.00025
AFIX  43
H1    2    0.864040    0.291667    0.283554    11.00000   -1.20000
AFIX   0
N4    3    0.651905    0.338052    0.438235    11.00000    0.02811    0.02232 =
         0.03271    0.00250    0.00323   -0.00192
C1    1    0.743335    0.227633    0.360022    11.00000    0.02680    0.02453 =
         0.03088    0.00153    0.00134    0.00143
O1    5    0.593849    0.493985    0.395175    11.00000    0.04259    0.02314 =
         0.04678   -0.00447    0.00164   -0.00322
C96   1   -0.054031    0.320865    0.457848    11.00000    0.02611    0.02614 =
         0.03088   -0.00448    0.00866   -0.00304
C114  1    0.044897    0.228114    0.355096    11.00000    0.02716    0.02258 =
         0.02715   -0.00008    0.00400    0.00151
C133  1    0.179710    0.348734    0.256135    11.00000    0.02633    0.02454 =
         0.03051   -0.00065    0.00236    0.00031
AFIX  43
H2    2    0.114256    0.366583    0.254520    11.00000   -1.20000
AFIX   0
C129  1    0.114463    0.279405    0.324447    11.00000    0.02790    0.02209 =
         0.02664   -0.00099    0.00503    0.00074
C115  1   -0.006334    0.109437    0.383574    11.00000    0.03229    0.02457 =
         0.02801   -0.00044    0.00096   -0.00072
AFIX  43
H3    2   -0.043462    0.110473    0.402509    11.00000   -1.20000
AFIX   0
C92   1   -0.074083    0.362291    0.439685    11.00000    0.02362    0.02838 =
         0.02923   -0.00645    0.00451   -0.00276
C2    1    0.675952    0.368597    0.371365    11.00000    0.02572    0.02113 =
         0.03580   -0.00009    0.00118   -0.00115
C147  1    0.124529    0.412690    0.313716    11.00000    0.03245    0.02526 =
         0.02854   -0.00058    0.00455   -0.00426
AFIX  43
H4    2    0.170084    0.422146    0.297791    11.00000   -1.20000
AFIX   0
C130  1    0.131882    0.232844    0.311431    11.00000    0.02962    0.02380 =
         0.02533   -0.00189    0.00367    0.00354
AFIX  43
H5    2    0.167658    0.225997    0.292769    11.00000   -1.20000
AFIX   0
C97   1   -0.034903    0.378513    0.518517    11.00000    0.03218    0.03531 =
         0.02394   -0.00096    0.00426   -0.00411
C3    1    0.690986    0.178830    0.395261    11.00000    0.03192    0.02369 =
         0.02951   -0.00181    0.00016   -0.00189
C134  1    0.336193    0.320484    0.232787    11.00000    0.02967    0.03003 =
         0.02986    0.00055    0.00750   -0.00037
AFIX  43
H6    2    0.377918    0.318666    0.214839    11.00000   -1.20000
AFIX   0
C4    1    0.744102    0.182208    0.344660    11.00000    0.02994    0.02286 =
         0.03171   -0.00122    0.00159    0.00217
C135  1    0.308542    0.297559    0.286644    11.00000    0.02842    0.02546 =
         0.03181    0.00241    0.00257   -0.00162
AFIX  43
H7    2    0.331796    0.281090    0.306189    11.00000   -1.20000
AFIX   0
C20   1    0.737540    0.111906    0.281887    11.00000    0.03535    0.02716 =
         0.03135   -0.00272    0.00048    0.00031
C46   1    0.624650    0.327390    0.550743    11.00000    0.03174    0.02662 =
         0.03521   -0.00025    0.00481   -0.00095
AFIX  43
H8    2    0.634279    0.360150    0.546661    11.00000   -1.20000
AFIX   0
C42   1    0.660228    0.257309    0.478662    11.00000    0.03264    0.02139 =
         0.03398   -0.00145    0.00227   -0.00274
C131  1    0.087916    0.200547    0.330666    11.00000    0.02810    0.02365 =
         0.02827   -0.00101    0.00342    0.00263
C109  1   -0.024104    0.221028    0.406918    11.00000    0.02983    0.02242 =
         0.03135    0.00015    0.00473    0.00092
C116  1    0.020087    0.150928    0.368710    11.00000    0.03032    0.02190 =
         0.02857   -0.00225    0.00224   -0.00244
C148  1    0.108239    0.365015    0.325216    11.00000    0.02704    0.02289 =
         0.02763    0.00148    0.00377    0.00149
C43   1    0.657269    0.192807    0.450929    11.00000    0.03740    0.02254 =
         0.02656    0.00175    0.00184   -0.00004
C5    1    0.756428    0.310502    0.348094    11.00000    0.02616    0.02516 =
         0.03259    0.00153    0.00193   -0.00048
C117  1    0.073869    0.066058    0.342544    11.00000    0.03357    0.02223 =
         0.03425   -0.00115    0.00002    0.00101
AFIX  43
H9    2    0.093054    0.036492    0.333796    11.00000   -1.20000
AFIX   0
C136  1    0.211386    0.323614    0.284520    11.00000    0.02714    0.02116 =
         0.03029   -0.00110    0.00333   -0.00258
C36   1    0.623310    0.395468    0.393437    11.00000    0.02561    0.02267 =
         0.03317    0.00010    0.00178   -0.00519
C118  1    0.100085    0.107485    0.326178    11.00000    0.03125    0.02767 =
         0.02885   -0.00147    0.00192    0.00286
C60   1    0.562360    0.088876    0.407022    11.00000    0.03538    0.02370 =
         0.02750    0.00128    0.00236   -0.00009
AFIX  43
H10   2    0.524492    0.107183    0.390165    11.00000   -1.20000
AFIX   0
C93   1   -0.084373    0.413908    0.399461    11.00000    0.02748    0.02261 =
         0.03009   -0.00170    0.00278    0.00296
C41   1    0.651019    0.302563    0.491588    11.00000    0.02966    0.02811 =
         0.03081   -0.00241    0.00336   -0.00141
C47   1    0.632263    0.294793    0.526251    11.00000    0.03162    0.02966 =
         0.02934   -0.00259    0.00273   -0.00100
C110  1   -0.041665    0.276921    0.443164    11.00000    0.03066    0.03038 =
         0.03072    0.00024    0.00755    0.00142
C37   1    0.609021    0.388459    0.479338    11.00000    0.03443    0.02633 =
         0.03427   -0.00142    0.00507   -0.00102
AFIX  43
H11   2    0.599576    0.400347    0.500338    11.00000   -1.20000
AFIX   0
C113  1    0.004863    0.200881    0.378872    11.00000    0.02643    0.02093 =
         0.03067    0.00011    0.00344   -0.00008
C74   1    0.663707    0.161852    0.424890    11.00000    0.03332    0.02433 =
         0.03091    0.00127   -0.00338   -0.00034
C137  1    0.242605    0.348211    0.229837    11.00000    0.03076    0.02312 =
         0.03031   -0.00129    0.00254   -0.00214
C111  1   -0.043199    0.198331    0.436662    11.00000    0.04285    0.02331 =
         0.03157    0.00315    0.00981   -0.00078
AFIX  43
H12   2   -0.049880    0.165185    0.439868    11.00000   -1.20000
AFIX   0
C61   1    0.640872    0.110737    0.428682    11.00000    0.03458    0.02043 =
         0.03007   -0.00057    0.00675   -0.00067
C21   1    0.618006    0.110721    0.289424    11.00000    0.03618    0.03443 =
         0.03826   -0.00118   -0.00039   -0.00387
AFIX  33
H13   2    0.612616    0.124823    0.310842    11.00000   -1.50000
H14   2    0.572861    0.128757    0.272820    11.00000   -1.50000
H15   2    0.592674    0.077831    0.289392    11.00000   -1.50000
AFIX   0
C11   1    0.778113    0.190829    0.311821    11.00000    0.02629    0.02758 =
         0.02949    0.00165    0.00202    0.00348
C119  1    0.021720    0.065557    0.370684    11.00000    0.03015    0.02238 =
         0.03472    0.00153   -0.00018    0.00185
C24   1    0.517810    0.452036    0.338358    11.00000    0.03150    0.02353 =
         0.04709    0.00624    0.00273    0.00381
C120  1    0.071998    0.150781    0.339413    11.00000    0.03018    0.02467 =
         0.02985    0.00115    0.00155    0.00112
C48   1    0.619918    0.245438    0.531735    11.00000    0.03547    0.02939 =
         0.03101   -0.00241   -0.00067   -0.00277
C6    1    0.711552    0.151669    0.367244    11.00000    0.03138    0.02230 =
         0.03402    0.00304    0.00091   -0.00033
AFIX  43
H16   2    0.703856    0.118335    0.364855    11.00000   -1.20000
AFIX   0
C76   1    0.021279    0.489959    0.336675    11.00000    0.03706    0.02326 =
         0.03298   -0.00030    0.00231    0.00119
C12   1    0.804031    0.240356    0.310409    11.00000    0.02554    0.02596 =
         0.02988    0.00069    0.00149    0.00251
C7    1    0.712892    0.386771    0.341908    11.00000    0.03279    0.02332 =
         0.03458    0.00226    0.00677   -0.00108
AFIX  43
H17   2    0.702769    0.418052    0.333673    11.00000   -1.20000
AFIX   0
C38   1    0.642226    0.341702    0.471901    11.00000    0.03045    0.02420 =
         0.03204   -0.00217    0.00018   -0.00180
C132  1    0.144419    0.323051    0.312251    11.00000    0.02474    0.02553 =
         0.02924    0.00052    0.00384    0.00085
C44   1    0.633794    0.180274    0.483425    11.00000    0.04665    0.02345 =
         0.02876    0.00269    0.00212   -0.00120
AFIX  43
H18   2    0.618788    0.149481    0.491055    11.00000   -1.20000
AFIX   0
C139  1    0.210310    0.378485    0.199696    11.00000    0.03692    0.03180 =
         0.03025    0.00524    0.00451    0.00096
C30   1    0.413078    0.436769    0.394501    11.00000    0.03415    0.03275 =
         0.03366   -0.00333    0.00046   -0.00033
C94   1   -0.132679    0.435611    0.425693    11.00000    0.02803    0.02434 =
         0.03438   -0.00645    0.00492    0.00164
AFIX  43
H19   2   -0.164945    0.466158    0.425501    11.00000   -1.20000
AFIX   0
C39   1    0.593508    0.412664    0.451224    11.00000    0.03230    0.02650 =
         0.03585   -0.00288    0.00567    0.00019
AFIX  43
H20   2    0.568620    0.444410    0.448639    11.00000   -1.20000
AFIX   0
C125  1    0.157005    0.104559    0.295123    11.00000    0.03791    0.02347 =
         0.03160   -0.00269    0.00634    0.00171
C103  1    0.189965    0.321616    0.488856    11.00000    0.03937    0.04364 =
         0.04401   -0.00495    0.00811   -0.00037
AFIX  43
H21   2    0.164814    0.337012    0.469043    11.00000   -1.20000
AFIX   0
C138  1    0.371246    0.295319    0.260895    11.00000    0.02774    0.02536 =
         0.03633    0.00081    0.00477    0.00016
C126  1    0.088345    0.129689    0.267059    11.00000    0.04118    0.02870 =
         0.03188   -0.00277    0.00347    0.00103
AFIX  33
H22   2    0.076275    0.162682    0.273101    11.00000   -1.50000
H23   2    0.126783    0.128862    0.247547    11.00000   -1.50000
H24   2    0.018181    0.113554    0.262628    11.00000   -1.50000
AFIX   0
C8    1    0.774824    0.263700    0.340495    11.00000    0.02869    0.02492 =
         0.03467    0.00231   -0.00016   -0.00138
C66   1    0.726591    0.008314    0.486566    11.00000    0.04303    0.03120 =
         0.03571    0.00673   -0.00014    0.00139
C77   1   -0.052439    0.435323    0.372254    11.00000    0.02608    0.02359 =
         0.03329   -0.00293    0.00371    0.00032
C40   1    0.621498    0.381692    0.425759    11.00000    0.02817    0.02497 =
         0.03318   -0.00112    0.00234   -0.00074
C112  1   -0.050020    0.231799    0.459167    11.00000    0.03909    0.02914 =
         0.03570    0.00219    0.00886   -0.00138
AFIX  43
H25   2   -0.058715    0.226869    0.481461    11.00000   -1.20000
AFIX   0
C95   1   -0.124079    0.405038    0.450500    11.00000    0.02892    0.03184 =
         0.02846   -0.00643    0.00434    0.00072
AFIX  43
H26   2   -0.146660    0.410369    0.471436    11.00000   -1.20000
AFIX   0
C98   1    0.033846    0.457432    0.528561    11.00000    0.03774    0.03507 =
         0.03334   -0.00526    0.00256   -0.00590
AFIX  43
H27   2    0.088839    0.480537    0.526956    11.00000   -1.20000
AFIX   0
C78   1   -0.090490    0.568930    0.357750    11.00000    0.04473    0.02567 =
         0.03592   -0.00354   -0.00061    0.00377
C84   1    0.121668    0.541922    0.298634    11.00000    0.04971    0.02314 =
         0.03537    0.00197    0.00367   -0.00085
C62   1    0.537892    0.041144    0.409362    11.00000    0.03700    0.02674 =
         0.03118    0.00094    0.00247   -0.00425
C79   1   -0.016498    0.572950    0.335182    11.00000    0.04690    0.01954 =
         0.03833    0.00130    0.00165    0.00204
AFIX  43
H28   2   -0.003997    0.603536    0.326761    11.00000   -1.20000
AFIX   0
C49   1    0.602665    0.312204    0.581730    11.00000    0.03552    0.03710 =
         0.03015   -0.00267    0.00542    0.00170
C50   1    0.585381    0.263932    0.586158    11.00000    0.04472    0.03304 =
         0.03032    0.00187    0.00369   -0.00389
AFIX  43
H29   2    0.567261    0.253643    0.606770    11.00000   -1.20000
AFIX   0
C22   1    0.808203    0.080691    0.306582    11.00000    0.04362    0.02770 =
         0.03939   -0.00104   -0.00013   -0.00066
AFIX  33
H30   2    0.808057    0.094042    0.328449    11.00000   -1.50000
H31   2    0.778455    0.048501    0.306208    11.00000   -1.50000
H32   2    0.882868    0.079752    0.300736    11.00000   -1.50000
AFIX   0
C63   1    0.592752    0.015631    0.434942    11.00000    0.04047    0.02250 =
         0.03595    0.00074    0.00391   -0.00140
AFIX  43
H33   2    0.576309   -0.017022    0.437027    11.00000   -1.20000
AFIX   0
C99   1   -0.056704    0.468644    0.544001    11.00000    0.05803    0.03123 =
         0.04467   -0.01003    0.01461   -0.00320
AFIX  43
H34   2   -0.064718    0.499533    0.552536    11.00000   -1.20000
AFIX   0
C100  1    0.044798    0.413018    0.515505    11.00000    0.03265    0.03416 =
         0.03267   -0.00481    0.00347   -0.00102
AFIX  43
H35   2    0.106279    0.405800    0.504480    11.00000   -1.20000
AFIX   0
C80   1    0.060626    0.441402    0.330554    11.00000    0.03425    0.02268 =
         0.03159   -0.00114    0.00592    0.00171
C31   1    0.373197    0.391412    0.398987    11.00000    0.03283    0.03639 =
         0.04573    0.00113    0.00033    0.00132
AFIX  43
H36   2    0.418187    0.364796    0.396134    11.00000   -1.20000
AFIX   0
C64   1    0.695685    0.083659    0.453697    11.00000    0.03491    0.02697 =
         0.03047   -0.00032    0.00114   -0.00200
AFIX  43
H37   2    0.750764    0.098041    0.468230    11.00000   -1.20000
AFIX   0
C25   1    0.458029    0.417777    0.320112    11.00000    0.03731    0.02701 =
         0.04211    0.00378    0.00068   -0.00003
AFIX  43
H38   2    0.431336    0.391019    0.330697    11.00000   -1.20000
AFIX   0
C127  1    0.270313    0.127831    0.301652    11.00000    0.03864    0.03008 =
         0.04161   -0.00048    0.00840    0.00542
AFIX  33
H39   2    0.262095    0.160742    0.308512    11.00000   -1.50000
H40   2    0.314114    0.110364    0.318858    11.00000   -1.50000
H41   2    0.306582    0.127146    0.281726    11.00000   -1.50000
AFIX   0
C51   1    0.593187    0.229733    0.561975    11.00000    0.04791    0.03056 =
         0.03082    0.00075    0.00042   -0.00505
C81   1    0.041502    0.534642    0.323880    11.00000    0.04560    0.02184 =
         0.02930    0.00135    0.00380    0.00125
C13   1    0.847126    0.232399    0.255204    11.00000    0.02652    0.03264 =
         0.03610   -0.00028    0.00228    0.00220
C14   1    0.779501    0.163175    0.283978    11.00000    0.02697    0.02802 =
         0.03544    0.00014   -0.00031    0.00430
C9    1    0.764244    0.351325    0.328263    11.00000    0.03421    0.02636 =
         0.03109   -0.00065    0.00328   -0.00246
AFIX  43
H42   2    0.799299    0.353131    0.308959    11.00000   -1.20000
AFIX   0
C15   1    0.814842    0.185188    0.256507    11.00000    0.03513    0.03096 =
         0.03236   -0.00304    0.00502    0.00256
AFIX  43
H43   2    0.816878    0.166558    0.237454    11.00000   -1.20000
AFIX   0
C143  1    0.503107    0.241555    0.295141    11.00000    0.03199    0.04706 =
         0.05171    0.00951    0.00672    0.01294
AFIX  33
H44   2    0.443797    0.220040    0.299121    11.00000   -1.50000
H45   2    0.570660    0.223482    0.294934    11.00000   -1.50000
H46   2    0.512201    0.265434    0.312415    11.00000   -1.50000
AFIX   0
C65   1    0.670825    0.036030    0.457623    11.00000    0.03469    0.02627 =
         0.03174    0.00158    0.00136    0.00013
C16   1    0.881614    0.253851    0.224015    11.00000    0.04310    0.03846 =
         0.03325    0.00335    0.00404   -0.00243
C23   1    0.740643    0.089571    0.248387    11.00000    0.04949    0.03283 =
         0.03802   -0.00472    0.00482   -0.00056
AFIX  33
H47   2    0.712985    0.057063    0.248666    11.00000   -1.50000
H48   2    0.695236    0.108118    0.232136    11.00000   -1.50000
H49   2    0.815700    0.089193    0.242853    11.00000   -1.50000
AFIX   0
C26   1    0.437106    0.422159    0.286969    11.00000    0.04847    0.03803 =
         0.04240    0.00105   -0.00706    0.00194
AFIX  43
H50   2    0.395768    0.398602    0.274783    11.00000   -1.20000
AFIX   0
C121  1   -0.130838    0.016199    0.388197    11.00000    0.04732    0.03127 =
         0.04522    0.00761    0.00277   -0.00732
AFIX  33
H51   2   -0.166279    0.015585    0.365841    11.00000   -1.50000
H52   2   -0.148405   -0.012905    0.399440    11.00000   -1.50000
H53   2   -0.156748    0.043657    0.399642    11.00000   -1.50000
AFIX   0
C104  1    0.115256    0.304925    0.509232    11.00000    0.03968    0.02944 =
         0.03772   -0.00752    0.00153    0.00061
C85   1    0.235410    0.523734    0.311954    11.00000    0.04451    0.03153 =
         0.03755    0.00468    0.00896   -0.00167
AFIX  33
H54   2    0.286062    0.528572    0.295593    11.00000   -1.50000
H55   2    0.261148    0.541184    0.331780    11.00000   -1.50000
H56   2    0.231262    0.489894    0.316951    11.00000   -1.50000
AFIX   0
C144  1    0.476176    0.265952    0.262449    11.00000    0.03252    0.04179 =
         0.04006    0.00221    0.00692    0.00849
C82   1   -0.107806    0.524043    0.371210    11.00000    0.04096    0.02415 =
         0.04009   -0.00340    0.00474    0.00484
AFIX  43
H57   2   -0.157741    0.520372    0.386948    11.00000   -1.20000
AFIX   0
C32   1    0.202665    0.422852    0.410752    11.00000    0.03053    0.07042 =
         0.03677   -0.00637    0.00412   -0.00495
AFIX  43
H58   2    0.131848    0.418310    0.417104    11.00000   -1.20000
AFIX   0
C88   1   -0.154689    0.611800    0.367936    11.00000    0.04916    0.02593 =
         0.04589   -0.00245    0.00588    0.00573
C83   1   -0.051246    0.485457    0.361227    11.00000    0.03507    0.02047 =
         0.03351   -0.00012    0.00272    0.00253
C52   1    0.600850    0.347867    0.609224    11.00000    0.06413    0.03511 =
         0.03532   -0.00401    0.01725   -0.00174
C101  1   -0.124150    0.389317    0.534436    11.00000    0.04009    0.03432 =
         0.04561   -0.00400    0.01361   -0.00661
AFIX  43
H59   2   -0.177701    0.365835    0.536843    11.00000   -1.20000
AFIX   0
C45   1    0.637452    0.221465    0.500996    11.00000    0.04107    0.02775 =
         0.03044    0.00353    0.00143   -0.00210
C122  1    0.048372    0.020706    0.422552    11.00000    0.04891    0.03616 =
         0.04249    0.01217    0.00393   -0.00002
AFIX  33
H60   2    0.023837    0.048605    0.433825    11.00000   -1.50000
H61   2    0.029284   -0.008028    0.433959    11.00000   -1.50000
H62   2    0.127396    0.022153    0.422232    11.00000   -1.50000
AFIX   0
C56   1    0.572842    0.177682    0.569009    11.00000    0.08355    0.02926 =
         0.03286    0.00194    0.00980   -0.00979
C33   1    0.269393    0.384352    0.407512    11.00000    0.03837    0.04723 =
         0.04265    0.00283    0.00206   -0.00999
AFIX  43
H63   2    0.244157    0.353215    0.411115    11.00000   -1.20000
AFIX   0
C34   1    0.343830    0.475056    0.397008    11.00000    0.04010    0.03831 =
         0.03821   -0.00668    0.00081    0.00268
AFIX  43
H64   2    0.368852    0.506219    0.393375    11.00000   -1.20000
AFIX   0
C86   1    0.079600    0.515501    0.267306    11.00000    0.05673    0.03048 =
         0.03295    0.00191    0.00497    0.00414
AFIX  33
H65   2    0.130552    0.519990    0.250987    11.00000   -1.50000
H66   2    0.073294    0.481650    0.271999    11.00000   -1.50000
H67   2    0.008125    0.528012    0.258952    11.00000   -1.50000
AFIX   0
C27   1    0.555740    0.491576    0.322407    11.00000    0.04766    0.02933 =
         0.04987    0.00705   -0.00138   -0.00805
AFIX  43
H68   2    0.596244    0.515469    0.334502    11.00000   -1.20000
AFIX   0
C123  1    0.033424   -0.024166    0.370945    11.00000    0.06828    0.02283 =
         0.06021    0.00356    0.02040   -0.00127
AFIX  33
H69   2   -0.000895   -0.025593    0.348480    11.00000   -1.50000
H70   2    0.112543   -0.022433    0.370953    11.00000   -1.50000
H71   2    0.014431   -0.052615    0.382679    11.00000   -1.50000
AFIX   0
C102  1   -0.135913    0.434372    0.546937    11.00000    0.05452    0.04259 =
         0.04861   -0.01040    0.02118   -0.00431
AFIX  43
H72   2   -0.198176    0.441861    0.557530    11.00000   -1.20000
AFIX   0
C124  1   -0.006846    0.019751    0.387675    11.00000    0.04126    0.02422 =
         0.04098    0.00100    0.00743   -0.00074
C105  1    0.152187    0.281157    0.537335    11.00000    0.04788    0.04104 =
         0.04557   -0.00104    0.00059    0.00700
AFIX  43
H73   2    0.101805    0.269244    0.551110    11.00000   -1.20000
AFIX   0
C128  1    0.173459    0.053392    0.284508    11.00000    0.05989    0.02712 =
         0.03711   -0.00166    0.01224    0.00512
AFIX  33
H74   2    0.210000    0.053210    0.264628    11.00000   -1.50000
H75   2    0.218251    0.036474    0.301779    11.00000   -1.50000
H76   2    0.102666    0.037713    0.280319    11.00000   -1.50000
AFIX   0
C28   1    0.476135    0.460814    0.271318    11.00000    0.06240    0.04859 =
         0.03942    0.01174   -0.00450    0.00148
AFIX  43
H77   2    0.463050    0.463343    0.248326    11.00000   -1.20000
AFIX   0
C87   1    0.133464    0.594454    0.289745    11.00000    0.07177    0.02447 =
         0.04284    0.00664    0.01197    0.00109
AFIX  33
H78   2    0.185389    0.597487    0.273562    11.00000   -1.50000
H79   2    0.062649    0.606922    0.280724    11.00000   -1.50000
H80   2    0.159866    0.612411    0.309289    11.00000   -1.50000
AFIX   0
C35   1    0.239001    0.468289    0.404726    11.00000    0.03799    0.06585 =
         0.04136   -0.01422    0.00064    0.01448
AFIX  43
H81   2    0.191825    0.494635    0.405915    11.00000   -1.20000
AFIX   0
C67   1    0.700477    0.032323    0.517956    11.00000    0.06013    0.06691 =
         0.04009    0.01482    0.00602    0.01519
AFIX  33
H82   2    0.621548    0.032880    0.518633    11.00000   -1.50000
H83   2    0.734759    0.014639    0.536715    11.00000   -1.50000
H84   2    0.728394    0.064832    0.518632    11.00000   -1.50000
AFIX   0
C57   1    0.476926    0.159242    0.545683    11.00000    0.08082    0.04038 =
         0.04821   -0.00162    0.01720   -0.02593
AFIX  33
H85   2    0.464198    0.125779    0.550307    11.00000   -1.50000
H86   2    0.411533    0.177611    0.548682    11.00000   -1.50000
H87   2    0.493909    0.162582    0.523191    11.00000   -1.50000
AFIX   0
C17   1    0.874544    0.307677    0.224160    11.00000    0.06654    0.04560 =
         0.04681    0.01159    0.02294    0.00700
AFIX  33
H88   2    0.799514    0.317329    0.226239    11.00000   -1.50000
H89   2    0.922643    0.320216    0.242545    11.00000   -1.50000
H90   2    0.896922    0.320137    0.203789    11.00000   -1.50000
AFIX   0
C70   1    0.488085    0.027024    0.350237    11.00000    0.07130    0.05017 =
         0.03967   -0.00231    0.00007   -0.01963
AFIX  33
H91   2    0.498388    0.060979    0.346722    11.00000   -1.50000
H92   2    0.556569    0.010279    0.348437    11.00000   -1.50000
H93   2    0.431893    0.014881    0.333820    11.00000   -1.50000
AFIX   0
C71   1    0.452819    0.019113    0.384150    11.00000    0.05253    0.03156 =
         0.03376    0.00062   -0.00487   -0.01069
C29   1    0.533898    0.495678    0.288893    11.00000    0.06213    0.04468 =
         0.05295    0.02282    0.00087   -0.00558
AFIX  43
H94   2    0.558844    0.522583    0.278065    11.00000   -1.20000
AFIX   0
C53   1    0.520681    0.388804    0.597934    11.00000    0.11829    0.04844 =
         0.05853    0.00271    0.02664    0.02963
AFIX  33
H95   2    0.542360    0.403076    0.578016    11.00000   -1.50000
H96   2    0.446795    0.376111    0.593671    11.00000   -1.50000
H97   2    0.522571    0.412919    0.615028    11.00000   -1.50000
AFIX   0
C106  1    0.300290    0.315816    0.497411    11.00000    0.03600    0.05000 =
         0.07570   -0.01325    0.01072   -0.00074
AFIX  43
H98   2    0.351100    0.328135    0.483926    11.00000   -1.20000
AFIX   0
C58   1    0.675982    0.149298    0.565425    11.00000    0.09829    0.03076 =
         0.03976    0.00395   -0.00347    0.00205
AFIX  33
H99   2    0.663124    0.115809    0.569935    11.00000   -1.50000
H100  2    0.695539    0.152654    0.543198    11.00000   -1.50000
H101  2    0.735458    0.161217    0.580841    11.00000   -1.50000
AFIX   0
C140  1    0.090679    0.371322    0.187564    11.00000    0.04962    0.09776 =
         0.04338    0.02492   -0.00145    0.00263
AFIX  33
H102  2    0.077906    0.337983    0.181762    11.00000   -1.50000
H103  2    0.045790    0.380171    0.204742    11.00000   -1.50000
H104  2    0.071430    0.391208    0.168387    11.00000   -1.50000
AFIX   0
C145  1    0.464225    0.227962    0.235797    11.00000    0.07293    0.05852 =
         0.04932   -0.00348    0.01076    0.03103
AFIX  33
H105  2    0.446850    0.243134    0.214563    11.00000   -1.50000
H106  2    0.532565    0.210368    0.235950    11.00000   -1.50000
H107  2    0.405625    0.206109    0.239848    11.00000   -1.50000
AFIX   0
C68   1    0.687195   -0.042801    0.487931    11.00000    0.07437    0.04780 =
         0.07075    0.02782   -0.01512   -0.00778
AFIX  33
H108  2    0.608251   -0.043136    0.488590    11.00000   -1.50000
H109  2    0.705265   -0.059880    0.468596    11.00000   -1.50000
H110  2    0.722772   -0.058208    0.507483    11.00000   -1.50000
AFIX   0
C69   1    0.847819    0.007501    0.485581    11.00000    0.05022    0.05386 =
         0.04385    0.01060   -0.00040    0.00716
AFIX  33
H111  2    0.874973    0.040032    0.484695    11.00000   -1.50000
H112  2    0.882469   -0.008194    0.505146    11.00000   -1.50000
H113  2    0.864961   -0.009866    0.466260    11.00000   -1.50000
AFIX   0
C18   1    0.998987    0.240062    0.220762    11.00000    0.07506    0.07220 =
         0.07701    0.03787    0.04377    0.02760
AFIX  33
H114  2    1.005359    0.205466    0.220618    11.00000   -1.50000
H115  2    1.020698    0.252885    0.200409    11.00000   -1.50000
H116  2    1.046419    0.252964    0.239165    11.00000   -1.50000
AFIX   0
C72   1    0.436481   -0.033186    0.390034    11.00000    0.08451    0.04094 =
         0.04770    0.00163   -0.00859   -0.02492
AFIX  33
H117  2    0.413927   -0.037790    0.411816    11.00000   -1.50000
H118  2    0.380131   -0.045514    0.373739    11.00000   -1.50000
H119  2    0.504807   -0.050116    0.388356    11.00000   -1.50000
AFIX   0
C146  1    0.570253    0.299129    0.257096    11.00000    0.02910    0.07434 =
         0.08008    0.03133    0.01413    0.01123
AFIX  33
H120  2    0.554724    0.315282    0.236139    11.00000   -1.50000
H121  2    0.578947    0.322664    0.274599    11.00000   -1.50000
H122  2    0.637406    0.280711    0.257117    11.00000   -1.50000
AFIX   0
C73   1    0.342595    0.044099    0.385918    11.00000    0.04506    0.05843 =
         0.06646    0.00375   -0.00720   -0.00570
AFIX  33
H123  2    0.350810    0.078125    0.382184    11.00000   -1.50000
H124  2    0.288565    0.031003    0.369237    11.00000   -1.50000
H125  2    0.318449    0.039029    0.407456    11.00000   -1.50000
AFIX   0
C59   1    0.542786    0.169841    0.603662    11.00000    0.14388    0.03354 =
         0.04098    0.00432    0.01732   -0.01753
AFIX  33
H126  2    0.530469    0.136012    0.607105    11.00000   -1.50000
H127  2    0.602281    0.180966    0.619384    11.00000   -1.50000
H128  2    0.476417    0.187540    0.606620    11.00000   -1.50000
AFIX   0
C141  1    0.274744    0.366849    0.171718    11.00000    0.07727    0.09312 =
         0.05036    0.02885    0.02229    0.03348
AFIX  33
H129  2    0.264253    0.333416    0.165826    11.00000   -1.50000
H130  2    0.249721    0.386745    0.152981    11.00000   -1.50000
H131  2    0.352073    0.372834    0.178190    11.00000   -1.50000
AFIX   0
C107  1    0.262547    0.274598    0.545543    11.00000    0.05586    0.05121 =
         0.06109   -0.00111   -0.01176    0.01119
AFIX  43
H132  2    0.287532    0.258055    0.564916    11.00000   -1.20000
AFIX   0
C54   1    0.563892    0.327383    0.639693    11.00000    0.13557    0.04611 =
         0.04611   -0.00460    0.04060   -0.00192
AFIX  33
H133  2    0.491287    0.313601    0.634767    11.00000   -1.50000
H134  2    0.614929    0.302713    0.648223    11.00000   -1.50000
H135  2    0.561343    0.352468    0.655970    11.00000   -1.50000
AFIX   0
C19   1    0.807357    0.236570    0.194487    11.00000    0.14963    0.10356 =
         0.03338    0.01025   -0.01043   -0.07367
AFIX  33
H136  2    0.809686    0.201906    0.193537    11.00000   -1.50000
H137  2    0.732671    0.246934    0.196338    11.00000   -1.50000
H138  2    0.832064    0.249781    0.174639    11.00000   -1.50000
AFIX   0
C55   1    0.713221    0.369323    0.616540    11.00000    0.08420    0.08251 =
         0.06033   -0.02999    0.01762   -0.02484
AFIX  33
H139  2    0.736739    0.382603    0.596551    11.00000   -1.50000
H140  2    0.710970    0.394492    0.632771    11.00000   -1.50000
H141  2    0.764555    0.344737    0.625024    11.00000   -1.50000
AFIX   0
C108  1    0.336334    0.291816    0.525902    11.00000    0.04286    0.05730 =
         0.08090   -0.01729   -0.00797    0.01115
AFIX  43
H142  2    0.411990    0.287319    0.531793    11.00000   -1.20000
AFIX   0
C142  1    0.227441    0.430072    0.208427    11.00000    0.16529    0.03900 =
         0.05731    0.01683   -0.03332   -0.00902
AFIX  33
H143  2    0.185970    0.438050    0.226579    11.00000   -1.50000
H144  2    0.304913    0.435867    0.214789    11.00000   -1.50000
H145  2    0.202560    0.449778    0.189579    11.00000   -1.50000
AFIX   0
C149  1    0.360950    0.217197    0.376464    11.00000    0.07768    0.05484 =
         0.05224   -0.00428   -0.00064    0.00046
AFIX  43
H164  2    0.362838    0.213421    0.353707    11.00000   -1.20000
AFIX   0
C150  1    0.408567    0.255234    0.391712    11.00000    0.06191    0.05056 =
         0.06673    0.00008    0.00764   -0.00810
AFIX  43
H165  2    0.441063    0.278971    0.379655    11.00000   -1.20000
AFIX   0
C151  1    0.307939    0.187111    0.427099    11.00000    0.05355    0.05388 =
         0.06758    0.00884    0.00440    0.00386
C152  1    0.409670    0.259391    0.425164    11.00000    0.05841    0.05898 =
         0.06528   -0.00999    0.00145   -0.00874
AFIX  43
H166  2    0.444380    0.285769    0.436118    11.00000   -1.20000
AFIX   0
C153  1    0.308912    0.183339    0.393894    11.00000    0.06648    0.04627 =
         0.06185   -0.00298   -0.01202   -0.00642
AFIX  43
H167  2    0.273608    0.157285    0.382706    11.00000   -1.20000
AFIX   0
C154  1    0.361288    0.225875    0.442367    11.00000    0.06405    0.06330 =
         0.05302   -0.00844    0.00033    0.00407
AFIX  43
H168  2    0.363932    0.228968    0.465310    11.00000   -1.20000
AFIX   0
C155  1    0.254660    0.150693    0.446469    11.00000    0.09283    0.06156 =
         0.08965    0.01557    0.01732   -0.00601
AFIX  33
H169  2    0.262846    0.159797    0.469467    11.00000   -1.50000
H170  2    0.177210    0.148642    0.438598    11.00000   -1.50000
H171  2    0.289092    0.119830    0.444007    11.00000   -1.50000
AFIX   0
C156  1    0.279422    0.063160    0.737213    11.00000    0.11006    0.07836 =
         0.17218   -0.05251    0.06232   -0.02881
C157  1    0.346211    0.053133    0.714263    11.00000    0.12952    0.09662 =
         0.12707   -0.02416    0.03015   -0.00393
AFIX  43
H172  2    0.413757    0.037355    0.719277    11.00000   -1.20000
AFIX   0
C158  1    0.324194    0.053280    0.771686    11.00000    0.14776    0.19773 =
         0.15099   -0.08241    0.01190    0.04472
AFIX  33
H173  2    0.269862    0.061694    0.786292    11.00000   -1.50000
H174  2    0.341891    0.019544    0.774099    11.00000   -1.50000
H175  2    0.390094    0.072145    0.777201    11.00000   -1.50000
AFIX   0
C159  1    0.307888    0.068025    0.681688    11.00000    0.10844    0.11109 =
         0.18741   -0.05228    0.04395   -0.01728
AFIX  43
H176  2    0.355167    0.060505    0.665784    11.00000   -1.20000
AFIX   0
C160  1    0.179845    0.087438    0.727244    11.00000    0.08598    0.12756 =
         0.40754   -0.15729    0.11714   -0.05156
AFIX  43
H177  2    0.138627    0.097335    0.744132    11.00000   -1.20000
AFIX   0
C161  1    0.136835    0.098120    0.695935    11.00000    0.15686    0.19928 =
         0.20396   -0.12478   -0.00509   -0.02690
AFIX  43
H178  2    0.063527    0.108391    0.691805    11.00000   -1.20000
AFIX   0
C162  1    0.205218    0.093557    0.668652    11.00000    0.12090    0.34813 =
         0.54585   -0.35756    0.08761   -0.06181
AFIX  43
H179  2    0.187560    0.104648    0.647044    11.00000   -1.20000
AFIX   0
O4    5    0.426009    0.269803    0.070591    11.00000    0.12844    0.07849 =
         0.08229   -0.03871    0.04671   -0.03345
AFIX  83
H180  2    0.409598    0.255704    0.052858    11.00000   -1.50000
AFIX   0
C164  1    0.365448    0.451187    0.528278    11.00000    0.07260    0.07816 =
         0.04767   -0.00317   -0.00305   -0.00218
C165  1    0.334882    0.464831    0.493387    11.00000    0.06253    0.08205 =
         0.05236    0.00829    0.00403   -0.00410
C167  1    0.392513    0.242763    0.095940    11.00000    0.06344    0.11470 =
         0.06482    0.00682    0.01004    0.00504
AFIX  23
H184  2    0.428095    0.211336    0.096198    11.00000   -1.20000
H185  2    0.312932    0.237801    0.092206    11.00000   -1.20000
AFIX   0
C168  1    0.420096    0.266279    0.127999    11.00000    0.22415    0.15752 =
         0.06694   -0.03163    0.00617    0.09408
AFIX  33
H186  2    0.395555    0.246436    0.145229    11.00000   -1.50000
H187  2    0.498980    0.270714    0.131925    11.00000   -1.50000
H188  2    0.383902    0.297160    0.127936    11.00000   -1.50000
PART 1
AFIX   0
C90   1   -0.113732    0.658505    0.353029    21.00000    0.04602    0.02219 =
         0.05351   -0.00157    0.00886    0.00468
AFIX  33
H146  2   -0.120456    0.655792    0.329276    21.00000   -1.50000
H147  2   -0.157674    0.685218    0.359243    21.00000   -1.50000
H148  2   -0.037385    0.663790    0.361221    21.00000   -1.50000
AFIX   0
C89   1   -0.274319    0.605034    0.353578    21.00000    0.04166    0.03843 =
         0.04576   -0.00246    0.00642    0.00886
AFIX  33
H149  2   -0.277980    0.602357    0.329862    21.00000   -1.50000
H150  2   -0.303407    0.576124    0.362500    21.00000   -1.50000
H151  2   -0.317396    0.632332    0.359272    21.00000   -1.50000
AFIX   0
C91   1   -0.144363    0.616067    0.403885    21.00000    0.06661    0.03560 =
         0.03261   -0.00722    0.00517    0.01353
AFIX  33
H152  2   -0.185807    0.643614    0.410032    21.00000   -1.50000
H153  2   -0.172840    0.587363    0.413256    21.00000   -1.50000
H154  2   -0.067621    0.620041    0.412115    21.00000   -1.50000
PART 2
AFIX   0
C173  1   -0.220608    0.599103    0.401969   -21.00000    0.04839    0.03497 =
         0.04368   -0.00946    0.02306    0.00298
AFIX  33
H155  2   -0.166835    0.590223    0.420097   -21.00000   -1.50000
H156  2   -0.260741    0.627120    0.407975   -21.00000   -1.50000
H157  2   -0.271412    0.572808    0.397023   -21.00000   -1.50000
AFIX   0
C174  1   -0.078373    0.649666    0.381226   -21.00000    0.10998    0.02853 =
         0.12891   -0.03643    0.08241   -0.02652
AFIX  33
H158  2   -0.024103    0.636053    0.397620   -21.00000   -1.50000
H159  2   -0.041730    0.663369    0.363558   -21.00000   -1.50000
H160  2   -0.119146    0.674455    0.391233   -21.00000   -1.50000
AFIX   0
C175  1   -0.242127    0.624276    0.343143   -21.00000    0.18312    0.07555 =
         0.05530    0.03057    0.05934    0.09328
AFIX  33
H161  2   -0.285214    0.595987    0.336823   -21.00000   -1.50000
H162  2   -0.288806    0.648174    0.351772   -21.00000   -1.50000
H163  2   -0.211390    0.637089    0.324096   -21.00000   -1.50000
PART 1
AFIX   0
O3    5    0.298298    0.475183    0.548439    31.00000    0.04643    0.06303 =
         0.05447   -0.01735    0.00030    0.00130
PART 2
O8    5    0.454816    0.463473    0.543646   -31.00000    0.04691    0.07125 =
         0.06765   -0.00804    0.01846   -0.02409
PART 1
O7    5    0.474341    0.357759    0.067033    41.00000    0.14334    0.08179 =
         0.13962   -0.01364    0.04278    0.00133
AFIX  83
H189  2    0.519144    0.376517    0.076900    41.00000   -1.50000
AFIX   0
C171  1    0.546329    0.364497    0.019120    41.00000    0.17979    0.09344 =
         0.09596   -0.04779    0.05762   -0.08301
AFIX  33
H190  2    0.531918    0.373189   -0.003879    41.00000   -1.50000
H191  2    0.603837    0.384853    0.029678    41.00000   -1.50000
H192  2    0.569617    0.331336    0.020896    41.00000   -1.50000
AFIX   0
C172  1    0.459371    0.369886    0.033089    41.00000    0.22669    0.07761 =
         0.13687    0.05205    0.08198    0.06967
AFIX  23
H193  2    0.401167    0.349775    0.022004    41.00000   -1.20000
H194  2    0.435381    0.403282    0.030785    41.00000   -1.20000
PART 2
AFIX   0
O9    5    0.159626    0.107054    0.596270   -41.00000    0.07065    0.04097 =
         0.06673    0.00903    0.00057   -0.00576
AFIX  83
H197  2    0.100906    0.117863    0.587095   -41.00000   -1.50000
AFIX   0
C176  1    0.224338    0.186659    0.614647   -41.00000    0.07536    0.05919 =
         0.05161    0.00660   -0.00501   -0.02075
AFIX  33
H198  2    0.287391    0.207043    0.612646   -41.00000   -1.50000
H199  2    0.158115    0.202747    0.605241   -41.00000   -1.50000
H200  2    0.218914    0.179977    0.637668   -41.00000   -1.50000
AFIX   0
C177  1    0.237636    0.140572    0.596682   -41.00000    0.07419    0.06383 =
         0.10391   -0.00124    0.02340   -0.02660
AFIX  23
H201  2    0.246322    0.148630    0.573810   -41.00000   -1.20000
H202  2    0.306775    0.125989    0.606053   -41.00000   -1.20000
PART 0

AFIX   0
HKLF 4 1 1 0 0 0 1 0 0 0 1

REM
REM R1 =  0.0739 for   18452 Fo > 4sig(Fo)  and  0.1063 for all   26005 data
REM   1732 parameters refined using      1 restraints

END

WGHT      0.1188     18.8136

REM Instructions for potential hydrogen bonds
HTAB C94 O3_$2
HTAB C39 O8_$3
HTAB C112 O2
HTAB C105 O4_$4
HTAB O4 O2_$1

REM Highest difference peak  0.877,  deepest hole -0.658,  1-sigma level  0.081
Q1    1   0.0827  0.1599  0.5699  11.00000  0.05    0.85
Q2    1   0.2106  0.0836  0.6753  11.00000  0.05    0.78
Q3    1   0.0916  0.1322  0.5542  11.00000  0.05    0.74
Q4    1   0.1081  0.1512  0.5397  11.00000  0.05    0.68
Q5    1   0.6734  0.3202  0.6439  11.00000  0.05    0.68
Q6    1   0.1043  0.4046  0.2004  11.00000  0.05    0.67
Q7    1   0.4015  0.0995  0.7665  11.00000  0.05    0.65
Q8    1   0.1962  0.3493  0.1723  11.00000  0.05    0.59
Q9    1  -0.0702  0.1356  0.5206  11.00000  0.05    0.57
Q10   1   0.0517  0.1220  0.5117  11.00000  0.05    0.52
Q11   1   0.0040  0.1189  0.5222  11.00000  0.05    0.50
Q12   1   0.3878  0.4169  0.5342  11.00000  0.05    0.49
Q13   1   0.2587  0.1418  0.6311  11.00000  0.05    0.49
Q14   1   0.6355  0.3946  0.6070  11.00000  0.05    0.49
Q15   1   0.3028  0.4126  0.1970  11.00000  0.05    0.46
Q16   1   0.1472  0.0976  0.7045  11.00000  0.05    0.46
Q17   1   0.2688  0.4526  0.4872  11.00000  0.05    0.45
Q18   1   0.1097  0.1313  0.6428  11.00000  0.05    0.45
Q19   1   0.2731  0.1902  0.6063  11.00000  0.05    0.44
Q20   1   0.1441  0.1200  0.6243  11.00000  0.05    0.43
Q21   1   0.3886  0.4463  0.4728  11.00000  0.05    0.42
Q22   1   0.3430  0.5004  0.4896  11.00000  0.05    0.41
Q23   1   0.8480  0.0379  0.5000  11.00000  0.05    0.40
Q24   1   0.1969  0.1952  0.6214  11.00000  0.05    0.39
Q25   1   0.1846  0.0790  0.7333  11.00000  0.05    0.39
Q26   1   0.1225  0.1192  0.6744  11.00000  0.05    0.38
Q27   1   0.3544  0.2595  0.0725  11.00000  0.05    0.38
Q28   1   0.0563  0.0894  0.7015  11.00000  0.05    0.36
Q29   1   0.4797  0.3499  0.6152  11.00000  0.05    0.35
Q30   1   0.6561  0.5141  0.4316  11.00000  0.05    0.35
Q31   1   0.7459  0.4488  0.3309  11.00000  0.05    0.35
Q32   1   0.2696  0.1102  0.6242  11.00000  0.05    0.34
Q33   1   0.6533 -0.0003  0.5099  11.00000  0.05    0.34
Q34   1   0.3537  0.2214  0.4076  11.00000  0.05    0.34
Q35   1   0.4679  0.4357  0.3875  11.00000  0.05    0.33
Q36   1   0.3275  0.1434  0.4549  11.00000  0.05    0.33
Q37   1  -0.0718  0.3397  0.3864  11.00000  0.05    0.32
Q38   1   0.0899  0.1562  0.5146  11.00000  0.05    0.32
Q39   1   0.0880  0.4163  0.1749  11.00000  0.05    0.31
Q40   1   0.7815 -0.0430  0.4689  11.00000  0.05    0.31
Q41   1  -0.1748  0.2982  0.5263  11.00000  0.05    0.31
Q42   1   0.6917  0.3596  0.4114  11.00000  0.05    0.31
Q43   1  -0.0201  0.3002  0.4092  11.00000  0.05    0.31
Q44   1  -0.0552  0.3303  0.4728  11.00000  0.05    0.30
Q45   1   0.4193  0.0401  0.3613  11.00000  0.05    0.30
Q46   1   0.2694  0.4138  0.2962  11.00000  0.05    0.29
Q47   1   0.0170  0.4910  0.3475  11.00000  0.05    0.29
Q48   1   0.2043  0.1223  0.4275  11.00000  0.05    0.29
Q49   1   0.6302  0.3361  0.4428  11.00000  0.05    0.29
Q50   1   0.7975  0.2210  0.3121  11.00000  0.05    0.28
Q51   1   0.6419  0.3015  0.3872  11.00000  0.05    0.28
Q52   1   0.6070  0.1326  0.5634  11.00000  0.05    0.28
Q53   1   0.1341  0.0851  0.7550  11.00000  0.05    0.28
Q54   1   0.9377  0.2102  0.2104  11.00000  0.05    0.28
Q55   1  -0.1097  0.3107  0.5501  11.00000  0.05    0.27
Q56   1   0.2009  0.1743  0.4559  11.00000  0.05    0.27
Q57   1   0.0339  0.5108  0.3312  11.00000  0.05    0.27
Q58   1   0.6043  0.2675  0.4224  11.00000  0.05    0.27
Q59   1   0.8794  0.2068  0.2012  11.00000  0.05    0.27
Q60   1   0.8386  0.0931  0.3318  11.00000  0.05    0.27
Q61   1   0.4399  0.3210  0.6000  11.00000  0.05    0.27
Q62   1  -0.0154  0.3390  0.3503  11.00000  0.05    0.27
Q63   1   0.5590 -0.0085  0.3553  11.00000  0.05    0.27
Q64   1  -0.0470  0.4318  0.3804  11.00000  0.05    0.27
Q65   1  -0.0475  0.3480  0.4490  11.00000  0.05    0.27
Q66   1   0.1871  0.3735  0.1444  11.00000  0.05    0.27
Q67   1   0.0100  0.0402  0.3807  11.00000  0.05    0.26
Q68   1   0.6210  0.2529  0.4808  11.00000  0.05    0.26
Q69   1   0.2510  0.0764  0.7107  11.00000  0.05    0.26
Q70   1   0.6465  0.2686  0.4801  11.00000  0.05    0.26
Q71   1   0.0259  0.3601  0.3964  11.00000  0.05    0.26
Q72   1   0.5609 -0.0335  0.3679  11.00000  0.05    0.26
Q73   1   0.0800  0.3476  0.3740  11.00000  0.05    0.26
Q74   1  -0.0199  0.4889  0.3396  11.00000  0.05    0.26
Q75   1  -0.0373  0.3007  0.3547  11.00000  0.05    0.26
Q76   1   0.4501  0.3037  0.1200  11.00000  0.05    0.26
Q77   1   0.1616  0.1611  0.6484  11.00000  0.05    0.25
Q78   1   0.0650  0.5406  0.3242  11.00000  0.05    0.25
Q79   1   0.0978  0.5990  0.3606  11.00000  0.05    0.25
Q80   1   0.4453  0.2219  0.3910  11.00000  0.05    0.25
Q81   1  -0.0824  0.4276  0.5635  11.00000  0.05    0.25
Q82   1   0.3868  0.2587  0.1249  11.00000  0.05    0.25
Q83   1   0.1772  0.4992  0.3883  11.00000  0.05    0.25
Q84   1  -0.0480  0.0239  0.3868  11.00000  0.05    0.25
Q85   1   0.5498  0.6687  0.2121  11.00000  0.05    0.25
Q86   1   0.6824  0.6163  0.0997  11.00000  0.05    0.25
Q87   1   0.3083  0.2688  0.3930  11.00000  0.05    0.25
Q88   1   0.6389  0.2599  0.3900  11.00000  0.05    0.25
Q89   1   0.2897  0.1599  0.3164  11.00000  0.05    0.25
Q90   1  -0.0218  0.2519  0.4564  11.00000  0.05    0.25
Q91   1   0.4758  0.1713  0.5161  11.00000  0.05    0.25
Q92   1   0.5230  0.1891  0.2356  11.00000  0.05    0.24
Q93   1   0.1389  0.3211  0.1141  11.00000  0.05    0.24
Q94   1   0.5230  0.2182  0.1680  11.00000  0.05    0.24
Q95   1   0.6157  0.3804  0.3805  11.00000  0.05    0.24
Q96   1   0.5039  0.3785  0.5195  11.00000  0.05    0.24
Q97   1   0.4238  0.3607  0.5884  11.00000  0.05    0.24
Q98   1   0.5264  0.5555  0.2639  11.00000  0.05    0.24
Q99   1   0.6118  0.3100  0.4171  11.00000  0.05    0.24
Q100  1   0.3291  0.2867  0.3492  11.00000  0.05    0.24
;
_shelx_res_checksum              10761
loop_
_space_group_symop_operation_xyz
'x, y, z'
'-x+1/2, y+1/2, -z+1/2'
'-x, -y, -z'
'x-1/2, -y-1/2, z-1/2'
loop_
_atom_site_label
_atom_site_type_symbol
_atom_site_fract_x
_atom_site_fract_y
_atom_site_fract_z
_atom_site_U_iso_or_equiv
_atom_site_adp_type
_atom_site_occupancy
_atom_site_site_symmetry_order
_atom_site_calc_flag
_atom_site_refinement_flags_posn
_atom_site_refinement_flags_adp
_atom_site_refinement_flags_occupancy
_atom_site_disorder_assembly
_atom_site_disorder_group
Ni1 Ni 0.00457(4) 0.31946(2) 0.38025(2) 0.02502(15) Uani 1 1 d . . . . .
Ni2 Ni 0.68579(5) 0.28232(2) 0.41328(2) 0.02736(15) Uani 1 1 d . . . . .
P3 P -0.02800(7) 0.31977(3) 0.50199(2) 0.0295(2) Uani 1 1 d . . . . .
P4 P 0.54594(7) 0.44871(3) 0.38198(2) 0.0296(2) Uani 1 1 d . . . . .
N6 N -0.0246(2) 0.27018(10) 0.41108(7) 0.0262(6) Uani 1 1 d . . . . .
N8 N 0.0402(2) 0.36550(10) 0.35007(7) 0.0258(6) Uani 1 1 d . . . . .
N7 N 0.0589(2) 0.27508(10) 0.35192(7) 0.0258(6) Uani 1 1 d . . . . .
N5 N -0.0533(2) 0.36716(10) 0.40765(7) 0.0264(6) Uani 1 1 d . . . . .
N1 N 0.6708(2) 0.24140(10) 0.44872(7) 0.0291(6) Uani 1 1 d . . . . .
O2 O -0.0980(2) 0.28692(10) 0.51860(6) 0.0370(6) Uani 1 1 d . . . . .
N2 N 0.7059(2) 0.32255(10) 0.37584(7) 0.0284(6) Uani 1 1 d . . . . .
N3 N 0.7086(2) 0.22691(10) 0.38953(7) 0.0284(6) Uani 1 1 d . . . . .
C75 C 0.0110(3) 0.41127(12) 0.35200(8) 0.0277(7) Uani 1 1 d . . . . .
C10 C 0.8415(3) 0.25949(13) 0.28328(9) 0.0306(7) Uani 1 1 d . . . . .
H1 H 0.8640 0.2917 0.2836 0.037 Uiso 1 1 calc R U . . .
N4 N 0.6519(2) 0.33805(10) 0.43823(7) 0.0277(6) Uani 1 1 d . . . . .
C1 C 0.7433(3) 0.22763(12) 0.36002(8) 0.0275(7) Uani 1 1 d . . . . .
O1 O 0.5938(2) 0.49398(9) 0.39517(7) 0.0377(6) Uani 1 1 d . . . . .
C96 C -0.0540(3) 0.32086(12) 0.45785(8) 0.0273(7) Uani 1 1 d . . . . .
C114 C 0.0449(3) 0.22811(12) 0.35510(8) 0.0256(7) Uani 1 1 d . . . . .
C133 C 0.1797(3) 0.34873(12) 0.25613(8) 0.0272(7) Uani 1 1 d . . . . .
H2 H 0.1143 0.3666 0.2545 0.033 Uiso 1 1 calc R U . . .
C129 C 0.1145(3) 0.27941(12) 0.32445(8) 0.0254(7) Uani 1 1 d . . . . .
C115 C -0.0063(3) 0.10944(12) 0.38357(8) 0.0285(7) Uani 1 1 d . . . . .
H3 H -0.0435 0.1105 0.4025 0.034 Uiso 1 1 calc R U . . .
C92 C -0.0741(3) 0.36229(12) 0.43968(8) 0.0270(7) Uani 1 1 d . . . . .
C2 C 0.6760(3) 0.36860(12) 0.37136(8) 0.0277(7) Uani 1 1 d . . . . .
C147 C 0.1245(3) 0.41269(12) 0.31372(8) 0.0287(7) Uani 1 1 d . . . . .
H4 H 0.1701 0.4221 0.2978 0.034 Uiso 1 1 calc R U . . .
C130 C 0.1319(3) 0.23284(12) 0.31143(8) 0.0262(7) Uani 1 1 d . . . . .
H5 H 0.1677 0.2260 0.2928 0.031 Uiso 1 1 calc R U . . .
C97 C -0.0349(3) 0.37851(13) 0.51852(8) 0.0304(7) Uani 1 1 d . . . . .
C3 C 0.6910(3) 0.17883(12) 0.39526(8) 0.0286(7) Uani 1 1 d . . . . .
C134 C 0.3362(3) 0.32048(13) 0.23279(8) 0.0295(7) Uani 1 1 d . . . . .
H6 H 0.3779 0.3187 0.2148 0.035 Uiso 1 1 calc R U . . .
C4 C 0.7441(3) 0.18221(12) 0.34466(8) 0.0283(7) Uani 1 1 d . . . . .
C135 C 0.3085(3) 0.29756(12) 0.28664(8) 0.0286(7) Uani 1 1 d . . . . .
H7 H 0.3318 0.2811 0.3062 0.034 Uiso 1 1 calc R U . . .
C20 C 0.7375(3) 0.11191(13) 0.28189(8) 0.0315(8) Uani 1 1 d . . . . .
C46 C 0.6246(3) 0.32739(13) 0.55074(9) 0.0311(7) Uani 1 1 d . . . . .
H8 H 0.6343 0.3602 0.5467 0.037 Uiso 1 1 calc R U . . .
C42 C 0.6602(3) 0.25731(12) 0.47866(9) 0.0294(7) Uani 1 1 d . . . . .
C131 C 0.0879(3) 0.20055(12) 0.33067(8) 0.0266(7) Uani 1 1 d . . . . .
C109 C -0.0241(3) 0.22103(12) 0.40692(8) 0.0278(7) Uani 1 1 d . . . . .
C116 C 0.0201(3) 0.15093(12) 0.36871(8) 0.0270(7) Uani 1 1 d . . . . .
C148 C 0.1082(3) 0.36501(12) 0.32522(8) 0.0258(7) Uani 1 1 d . . . . .
C43 C 0.6573(3) 0.19281(12) 0.45093(8) 0.0290(7) Uani 1 1 d . . . . .
C5 C 0.7564(3) 0.31050(12) 0.34809(8) 0.0281(7) Uani 1 1 d . . . . .
C117 C 0.0739(3) 0.06606(13) 0.34254(9) 0.0303(7) Uani 1 1 d . . . . .
H9 H 0.0931 0.0365 0.3338 0.036 Uiso 1 1 calc R U . . .
C136 C 0.2114(3) 0.32361(12) 0.28452(8) 0.0262(7) Uani 1 1 d . . . . .
C36 C 0.6233(3) 0.39547(12) 0.39344(8) 0.0273(7) Uani 1 1 d . . . . .
C118 C 0.1001(3) 0.10749(13) 0.32618(8) 0.0294(7) Uani 1 1 d . . . . .
C60 C 0.5624(3) 0.08888(12) 0.40702(8) 0.0289(7) Uani 1 1 d . . . . .
H10 H 0.5245 0.1072 0.3902 0.035 Uiso 1 1 calc R U . . .
C93 C -0.0844(3) 0.41391(12) 0.39946(8) 0.0267(7) Uani 1 1 d . . . . .
C41 C 0.6510(3) 0.30256(13) 0.49159(8) 0.0295(7) Uani 1 1 d . . . . .
C47 C 0.6323(3) 0.29479(13) 0.52625(8) 0.0302(7) Uani 1 1 d . . . . .
C110 C -0.0417(3) 0.27692(13) 0.44316(8) 0.0303(7) Uani 1 1 d . . . . .
C37 C 0.6090(3) 0.38846(13) 0.47934(9) 0.0316(8) Uani 1 1 d . . . . .
H11 H 0.5996 0.4003 0.5003 0.038 Uiso 1 1 calc R U . . .
C113 C 0.0049(3) 0.20088(12) 0.37887(8) 0.0260(7) Uani 1 1 d . . . . .
C74 C 0.6637(3) 0.16185(13) 0.42489(8) 0.0300(7) Uani 1 1 d . . . . .
C137 C 0.2426(3) 0.34821(12) 0.22984(8) 0.0281(7) Uani 1 1 d . . . . .
C111 C -0.0432(3) 0.19833(13) 0.43666(9) 0.0322(8) Uani 1 1 d . . . . .
H12 H -0.0499 0.1652 0.4399 0.039 Uiso 1 1 calc R U . . .
C61 C 0.6409(3) 0.11074(12) 0.42868(8) 0.0281(7) Uani 1 1 d . . . . .
C21 C 0.6180(3) 0.11072(14) 0.28942(9) 0.0366(8) Uani 1 1 d . . . . .
H13 H 0.6126 0.1248 0.3108 0.055 Uiso 1 1 calc R U . . .
H14 H 0.5729 0.1288 0.2728 0.055 Uiso 1 1 calc R U . . .
H15 H 0.5927 0.0778 0.2894 0.055 Uiso 1 1 calc R U . . .
C11 C 0.7781(3) 0.19083(12) 0.31182(8) 0.0279(7) Uani 1 1 d . . . . .
C119 C 0.0217(3) 0.06556(12) 0.37068(9) 0.0293(7) Uani 1 1 d . . . . .
C24 C 0.5178(3) 0.45204(13) 0.33836(10) 0.0341(8) Uani 1 1 d . . . . .
C120 C 0.0720(3) 0.15078(12) 0.33941(8) 0.0284(7) Uani 1 1 d . . . . .
C48 C 0.6199(3) 0.24544(13) 0.53174(9) 0.0323(8) Uani 1 1 d . . . . .
C6 C 0.7116(3) 0.15167(13) 0.36724(8) 0.0294(7) Uani 1 1 d . . . . .
H16 H 0.7039 0.1183 0.3649 0.035 Uiso 1 1 calc R U . . .
C76 C 0.0213(3) 0.48996(13) 0.33668(9) 0.0312(7) Uani 1 1 d . . . . .
C12 C 0.8040(3) 0.24036(12) 0.31041(8) 0.0272(7) Uani 1 1 d . . . . .
C7 C 0.7129(3) 0.38677(13) 0.34191(9) 0.0300(7) Uani 1 1 d . . . . .
H17 H 0.7028 0.4181 0.3337 0.036 Uiso 1 1 calc R U . . .
C38 C 0.6422(3) 0.34170(12) 0.47190(8) 0.0291(7) Uani 1 1 d . . . . .
C132 C 0.1444(3) 0.32305(12) 0.31225(8) 0.0264(7) Uani 1 1 d . . . . .
C44 C 0.6338(3) 0.18027(13) 0.48343(9) 0.0331(8) Uani 1 1 d . . . . .
H18 H 0.6188 0.1495 0.4911 0.040 Uiso 1 1 calc R U . . .
C139 C 0.2103(3) 0.37848(13) 0.19970(9) 0.0329(8) Uani 1 1 d . . . . .
C30 C 0.4131(3) 0.43677(14) 0.39450(9) 0.0337(8) Uani 1 1 d . . . . .
C94 C -0.1327(3) 0.43561(13) 0.42569(8) 0.0288(7) Uani 1 1 d . . . . .
H19 H -0.1649 0.4662 0.4255 0.035 Uiso 1 1 calc R U . . .
C39 C 0.5935(3) 0.41266(13) 0.45122(9) 0.0314(7) Uani 1 1 d . . . . .
H20 H 0.5686 0.4444 0.4486 0.038 Uiso 1 1 calc R U . . .
C125 C 0.1570(3) 0.10456(12) 0.29512(8) 0.0308(7) Uani 1 1 d . . . . .
C103 C 0.1900(3) 0.32162(15) 0.48886(10) 0.0421(9) Uani 1 1 d . . . . .
H21 H 0.1648 0.3370 0.4690 0.050 Uiso 1 1 calc R U . . .
C138 C 0.3712(3) 0.29532(13) 0.26090(9) 0.0297(7) Uani 1 1 d . . . . .
C126 C 0.0883(3) 0.12969(13) 0.26706(9) 0.0340(8) Uani 1 1 d . . . . .
H22 H 0.0763 0.1627 0.2731 0.051 Uiso 1 1 calc R U . . .
H23 H 0.1268 0.1289 0.2475 0.051 Uiso 1 1 calc R U . . .
H24 H 0.0182 0.1136 0.2626 0.051 Uiso 1 1 calc R U . . .
C8 C 0.7748(3) 0.26370(13) 0.34049(9) 0.0297(7) Uani 1 1 d . . . . .
C66 C 0.7266(3) 0.00831(14) 0.48657(9) 0.0370(8) Uani 1 1 d . . . . .
C77 C -0.0524(3) 0.43532(12) 0.37225(8) 0.0276(7) Uani 1 1 d . . . . .
C40 C 0.6215(3) 0.38169(12) 0.42576(8) 0.0288(7) Uani 1 1 d . . . . .
C112 C -0.0500(3) 0.23180(13) 0.45917(9) 0.0343(8) Uani 1 1 d . . . . .
H25 H -0.0587 0.2269 0.4815 0.041 Uiso 1 1 calc R U . . .
C95 C -0.1241(3) 0.40504(13) 0.45050(8) 0.0297(7) Uani 1 1 d . . . . .
H26 H -0.1467 0.4104 0.4714 0.036 Uiso 1 1 calc R U . . .
C98 C 0.0338(3) 0.45743(14) 0.52856(9) 0.0355(8) Uani 1 1 d . . . . .
H27 H 0.0888 0.4805 0.5270 0.043 Uiso 1 1 calc R U . . .
C78 C -0.0905(3) 0.56893(13) 0.35775(9) 0.0358(8) Uani 1 1 d . . . . .
C84 C 0.1217(3) 0.54192(13) 0.29863(9) 0.0361(8) Uani 1 1 d . . . . .
C62 C 0.5379(3) 0.04114(13) 0.40936(9) 0.0317(8) Uani 1 1 d . . . . .
C79 C -0.0165(3) 0.57295(13) 0.33518(9) 0.0351(8) Uani 1 1 d . . . . .
H28 H -0.0040 0.6035 0.3268 0.042 Uiso 1 1 calc R U . . .
C49 C 0.6027(3) 0.31220(14) 0.58173(9) 0.0341(8) Uani 1 1 d . . . . .
C50 C 0.5854(3) 0.26393(14) 0.58616(9) 0.0360(8) Uani 1 1 d . . . . .
H29 H 0.5673 0.2536 0.6068 0.043 Uiso 1 1 calc R U . . .
C22 C 0.8082(3) 0.08069(14) 0.30658(9) 0.0372(8) Uani 1 1 d . . . . .
H30 H 0.8081 0.0940 0.3284 0.056 Uiso 1 1 calc R U . . .
H31 H 0.7785 0.0485 0.3062 0.056 Uiso 1 1 calc R U . . .
H32 H 0.8829 0.0798 0.3007 0.056 Uiso 1 1 calc R U . . .
C63 C 0.5928(3) 0.01563(13) 0.43494(9) 0.0330(8) Uani 1 1 d . . . . .
H33 H 0.5763 -0.0170 0.4370 0.040 Uiso 1 1 calc R U . . .
C99 C -0.0567(4) 0.46864(15) 0.54400(10) 0.0440(10) Uani 1 1 d . . . . .
H34 H -0.0647 0.4995 0.5525 0.053 Uiso 1 1 calc R U . . .
C100 C 0.0448(3) 0.41302(13) 0.51551(9) 0.0332(8) Uani 1 1 d . . . . .
H35 H 0.1063 0.4058 0.5045 0.040 Uiso 1 1 calc R U . . .
C80 C 0.0606(3) 0.44140(12) 0.33055(8) 0.0293(7) Uani 1 1 d . . . . .
C31 C 0.3732(3) 0.39141(15) 0.39899(10) 0.0386(9) Uani 1 1 d . . . . .
H36 H 0.4182 0.3648 0.3961 0.046 Uiso 1 1 calc R U . . .
C64 C 0.6957(3) 0.08366(13) 0.45370(8) 0.0310(7) Uani 1 1 d . . . . .
H37 H 0.7508 0.0980 0.4682 0.037 Uiso 1 1 calc R U . . .
C25 C 0.4580(3) 0.41778(13) 0.32011(9) 0.0357(8) Uani 1 1 d . . . . .
H38 H 0.4313 0.3910 0.3307 0.043 Uiso 1 1 calc R U . . .
C127 C 0.2703(3) 0.12783(14) 0.30165(10) 0.0365(8) Uani 1 1 d . . . . .
H39 H 0.2621 0.1607 0.3085 0.055 Uiso 1 1 calc R U . . .
H40 H 0.3141 0.1104 0.3189 0.055 Uiso 1 1 calc R U . . .
H41 H 0.3066 0.1271 0.2817 0.055 Uiso 1 1 calc R U . . .
C51 C 0.5932(3) 0.22973(14) 0.56198(9) 0.0367(8) Uani 1 1 d . . . . .
C81 C 0.0415(3) 0.53464(13) 0.32388(8) 0.0323(8) Uani 1 1 d . . . . .
C13 C 0.8471(3) 0.23240(13) 0.25520(9) 0.0318(8) Uani 1 1 d . . . . .
C14 C 0.7795(3) 0.16317(13) 0.28398(9) 0.0304(7) Uani 1 1 d . . . . .
C9 C 0.7642(3) 0.35132(13) 0.32826(8) 0.0306(7) Uani 1 1 d . . . . .
H42 H 0.7993 0.3531 0.3090 0.037 Uiso 1 1 calc R U . . .
C15 C 0.8148(3) 0.18519(13) 0.25651(9) 0.0327(8) Uani 1 1 d . . . . .
H43 H 0.8169 0.1666 0.2375 0.039 Uiso 1 1 calc R U . . .
C143 C 0.5031(3) 0.24155(16) 0.29514(10) 0.0434(10) Uani 1 1 d . . . . .
H44 H 0.4438 0.2200 0.2991 0.065 Uiso 1 1 calc R U . . .
H45 H 0.5707 0.2235 0.2949 0.065 Uiso 1 1 calc R U . . .
H46 H 0.5122 0.2654 0.3124 0.065 Uiso 1 1 calc R U . . .
C65 C 0.6708(3) 0.03603(13) 0.45762(8) 0.0311(7) Uani 1 1 d . . . . .
C16 C 0.8816(3) 0.25385(15) 0.22402(9) 0.0383(9) Uani 1 1 d . . . . .
C23 C 0.7406(4) 0.08957(14) 0.24839(9) 0.0401(9) Uani 1 1 d . . . . .
H47 H 0.7130 0.0571 0.2487 0.060 Uiso 1 1 calc R U . . .
H48 H 0.6952 0.1081 0.2321 0.060 Uiso 1 1 calc R U . . .
H49 H 0.8157 0.0892 0.2429 0.060 Uiso 1 1 calc R U . . .
C26 C 0.4371(4) 0.42216(15) 0.28697(10) 0.0438(9) Uani 1 1 d . . . . .
H50 H 0.3958 0.3986 0.2748 0.053 Uiso 1 1 calc R U . . .
C121 C -0.1308(3) 0.01620(15) 0.38820(10) 0.0414(9) Uani 1 1 d . . . . .
H51 H -0.1663 0.0156 0.3658 0.062 Uiso 1 1 calc R U . . .
H52 H -0.1484 -0.0129 0.3994 0.062 Uiso 1 1 calc R U . . .
H53 H -0.1567 0.0437 0.3996 0.062 Uiso 1 1 calc R U . . .
C104 C 0.1153(3) 0.30492(14) 0.50923(9) 0.0358(8) Uani 1 1 d . . . . .
C85 C 0.2354(3) 0.52373(14) 0.31195(9) 0.0375(8) Uani 1 1 d . . . . .
H54 H 0.2861 0.5286 0.2956 0.056 Uiso 1 1 calc R U . . .
H55 H 0.2611 0.5412 0.3318 0.056 Uiso 1 1 calc R U . . .
H56 H 0.2313 0.4899 0.3170 0.056 Uiso 1 1 calc R U . . .
C144 C 0.4762(3) 0.26595(15) 0.26245(9) 0.0379(9) Uani 1 1 d . . . . .
C82 C -0.1078(3) 0.52404(13) 0.37121(9) 0.0350(8) Uani 1 1 d . . . . .
H57 H -0.1577 0.5204 0.3869 0.042 Uiso 1 1 calc R U . . .
C32 C 0.2027(3) 0.42285(18) 0.41075(10) 0.0459(10) Uani 1 1 d . . . . .
H58 H 0.1318 0.4183 0.4171 0.055 Uiso 1 1 calc R U . . .
C88 C -0.1547(4) 0.61180(14) 0.36794(10) 0.0403(9) Uani 1 1 d . . . . .
C83 C -0.0512(3) 0.48546(12) 0.36123(9) 0.0298(7) Uani 1 1 d . . . . .
C52 C 0.6008(4) 0.34787(15) 0.60922(10) 0.0440(10) Uani 1 1 d . . . . .
C101 C -0.1242(3) 0.38932(14) 0.53444(10) 0.0394(9) Uani 1 1 d . . . . .
H59 H -0.1777 0.3658 0.5368 0.047 Uiso 1 1 calc R U . . .
C45 C 0.6375(3) 0.22146(13) 0.50100(9) 0.0333(8) Uani 1 1 d . . . . .
C122 C 0.0484(4) 0.02071(15) 0.42255(10) 0.0426(9) Uani 1 1 d . . . . .
H60 H 0.0238 0.0486 0.4338 0.064 Uiso 1 1 calc R U . . .
H61 H 0.0293 -0.0080 0.4340 0.064 Uiso 1 1 calc R U . . .
H62 H 0.1274 0.0222 0.4222 0.064 Uiso 1 1 calc R U . . .
C56 C 0.5728(4) 0.17768(15) 0.56901(10) 0.0483(11) Uani 1 1 d . . . . .
C33 C 0.2694(3) 0.38435(16) 0.40751(10) 0.0429(9) Uani 1 1 d . . . . .
H63 H 0.2442 0.3532 0.4111 0.051 Uiso 1 1 calc R U . . .
C34 C 0.3438(3) 0.47506(15) 0.39701(9) 0.0391(9) Uani 1 1 d . . . . .
H64 H 0.3689 0.5062 0.3934 0.047 Uiso 1 1 calc R U . . .
C86 C 0.0796(4) 0.51550(14) 0.26731(9) 0.0400(9) Uani 1 1 d . . . . .
H65 H 0.1306 0.5200 0.2510 0.060 Uiso 1 1 calc R U . . .
H66 H 0.0733 0.4817 0.2720 0.060 Uiso 1 1 calc R U . . .
H67 H 0.0081 0.5280 0.2590 0.060 Uiso 1 1 calc R U . . .
C27 C 0.5557(4) 0.49158(14) 0.32241(11) 0.0428(9) Uani 1 1 d . . . . .
H68 H 0.5962 0.5155 0.3345 0.051 Uiso 1 1 calc R U . . .
C123 C 0.0334(4) -0.02417(14) 0.37094(12) 0.0495(11) Uani 1 1 d . . . . .
H69 H -0.0009 -0.0256 0.3485 0.074 Uiso 1 1 calc R U . . .
H70 H 0.1125 -0.0224 0.3710 0.074 Uiso 1 1 calc R U . . .
H71 H 0.0144 -0.0526 0.3827 0.074 Uiso 1 1 calc R U . . .
C102 C -0.1359(4) 0.43437(16) 0.54694(11) 0.0474(10) Uani 1 1 d . . . . .
H72 H -0.1982 0.4419 0.5575 0.057 Uiso 1 1 calc R U . . .
C124 C -0.0068(3) 0.01975(13) 0.38767(9) 0.0353(8) Uani 1 1 d . . . . .
C105 C 0.1522(4) 0.28116(15) 0.53733(11) 0.0452(10) Uani 1 1 d . . . . .
H73 H 0.1018 0.2692 0.5511 0.054 Uiso 1 1 calc R U . . .
C128 C 0.1735(4) 0.05339(14) 0.28451(10) 0.0409(9) Uani 1 1 d . . . . .
H74 H 0.2100 0.0532 0.2646 0.061 Uiso 1 1 calc R U . . .
H75 H 0.2183 0.0365 0.3018 0.061 Uiso 1 1 calc R U . . .
H76 H 0.1027 0.0377 0.2803 0.061 Uiso 1 1 calc R U . . .
C28 C 0.4761(4) 0.46081(17) 0.27132(11) 0.0509(11) Uani 1 1 d . . . . .
H77 H 0.4630 0.4633 0.2483 0.061 Uiso 1 1 calc R U . . .
C87 C 0.1335(4) 0.59445(14) 0.28975(10) 0.0459(10) Uani 1 1 d . . . . .
H78 H 0.1854 0.5975 0.2736 0.069 Uiso 1 1 calc R U . . .
H79 H 0.0626 0.6069 0.2807 0.069 Uiso 1 1 calc R U . . .
H80 H 0.1599 0.6124 0.3093 0.069 Uiso 1 1 calc R U . . .
C35 C 0.2390(3) 0.46829(18) 0.40473(10) 0.0487(11) Uani 1 1 d . . . . .
H81 H 0.1918 0.4946 0.4059 0.058 Uiso 1 1 calc R U . . .
C67 C 0.7005(4) 0.03232(19) 0.51796(11) 0.0557(12) Uani 1 1 d . . . . .
H82 H 0.6215 0.0329 0.5186 0.084 Uiso 1 1 calc R U . . .
H83 H 0.7348 0.0146 0.5367 0.084 Uiso 1 1 calc R U . . .
H84 H 0.7284 0.0648 0.5186 0.084 Uiso 1 1 calc R U . . .
C57 C 0.4769(4) 0.15924(17) 0.54568(11) 0.0557(12) Uani 1 1 d . . . . .
H85 H 0.4642 0.1258 0.5503 0.084 Uiso 1 1 calc R U . . .
H86 H 0.4115 0.1776 0.5487 0.084 Uiso 1 1 calc R U . . .
H87 H 0.4939 0.1626 0.5232 0.084 Uiso 1 1 calc R U . . .
C17 C 0.8745(4) 0.30768(16) 0.22416(11) 0.0518(11) Uani 1 1 d . . . . .
H88 H 0.7995 0.3173 0.2262 0.078 Uiso 1 1 calc R U . . .
H89 H 0.9226 0.3202 0.2425 0.078 Uiso 1 1 calc R U . . .
H90 H 0.8969 0.3201 0.2038 0.078 Uiso 1 1 calc R U . . .
C70 C 0.4881(4) 0.02702(18) 0.35024(10) 0.0541(12) Uani 1 1 d . . . . .
H91 H 0.4984 0.0610 0.3467 0.081 Uiso 1 1 calc R U . . .
H92 H 0.5566 0.0103 0.3484 0.081 Uiso 1 1 calc R U . . .
H93 H 0.4319 0.0149 0.3338 0.081 Uiso 1 1 calc R U . . .
C71 C 0.4528(4) 0.01911(14) 0.38415(9) 0.0400(9) Uani 1 1 d . . . . .
C29 C 0.5339(4) 0.49568(17) 0.28889(11) 0.0536(12) Uani 1 1 d . . . . .
H94 H 0.5588 0.5226 0.2781 0.064 Uiso 1 1 calc R U . . .
C53 C 0.5207(6) 0.38880(19) 0.59793(13) 0.0738(17) Uani 1 1 d . . . . .
H95 H 0.5424 0.4031 0.5780 0.111 Uiso 1 1 calc R U . . .
H96 H 0.4468 0.3761 0.5937 0.111 Uiso 1 1 calc R U . . .
H97 H 0.5226 0.4129 0.6150 0.111 Uiso 1 1 calc R U . . .
C106 C 0.3003(4) 0.31582(17) 0.49741(13) 0.0536(12) Uani 1 1 d . . . . .
H98 H 0.3511 0.3281 0.4839 0.064 Uiso 1 1 calc R U . . .
C58 C 0.6760(5) 0.14930(16) 0.56542(11) 0.0571(13) Uani 1 1 d . . . . .
H99 H 0.6631 0.1158 0.5699 0.086 Uiso 1 1 calc R U . . .
H100 H 0.6955 0.1527 0.5432 0.086 Uiso 1 1 calc R U . . .
H101 H 0.7355 0.1612 0.5808 0.086 Uiso 1 1 calc R U . . .
C140 C 0.0907(4) 0.3713(2) 0.18756(12) 0.0641(15) Uani 1 1 d . . . . .
H102 H 0.0779 0.3380 0.1818 0.096 Uiso 1 1 calc R U . . .
H103 H 0.0458 0.3802 0.2047 0.096 Uiso 1 1 calc R U . . .
H104 H 0.0714 0.3912 0.1684 0.096 Uiso 1 1 calc R U . . .
C145 C 0.4642(5) 0.22796(19) 0.23580(12) 0.0600(13) Uani 1 1 d . . . . .
H105 H 0.4469 0.2431 0.2146 0.090 Uiso 1 1 calc R U . . .
H106 H 0.5326 0.2104 0.2359 0.090 Uiso 1 1 calc R U . . .
H107 H 0.4056 0.2061 0.2398 0.090 Uiso 1 1 calc R U . . .
C68 C 0.6872(5) -0.04280(18) 0.48793(14) 0.0660(15) Uani 1 1 d . . . . .
H108 H 0.6083 -0.0431 0.4886 0.099 Uiso 1 1 calc R U . . .
H109 H 0.7053 -0.0599 0.4686 0.099 Uiso 1 1 calc R U . . .
H110 H 0.7228 -0.0582 0.5075 0.099 Uiso 1 1 calc R U . . .
C69 C 0.8478(4) 0.00750(17) 0.48558(11) 0.0497(11) Uani 1 1 d . . . . .
H111 H 0.8750 0.0400 0.4847 0.075 Uiso 1 1 calc R U . . .
H112 H 0.8825 -0.0082 0.5051 0.075 Uiso 1 1 calc R U . . .
H113 H 0.8650 -0.0099 0.4663 0.075 Uiso 1 1 calc R U . . .
C18 C 0.9990(5) 0.2401(2) 0.22076(15) 0.0722(17) Uani 1 1 d . . . . .
H114 H 1.0054 0.2055 0.2206 0.108 Uiso 1 1 calc R U . . .
H115 H 1.0207 0.2529 0.2004 0.108 Uiso 1 1 calc R U . . .
H116 H 1.0464 0.2530 0.2392 0.108 Uiso 1 1 calc R U . . .
C72 C 0.4365(5) -0.03319(17) 0.39003(12) 0.0589(13) Uani 1 1 d . . . . .
H117 H 0.4139 -0.0378 0.4118 0.088 Uiso 1 1 calc R U . . .
H118 H 0.3801 -0.0455 0.3737 0.088 Uiso 1 1 calc R U . . .
H119 H 0.5048 -0.0501 0.3884 0.088 Uiso 1 1 calc R U . . .
C146 C 0.5703(3) 0.2991(2) 0.25710(14) 0.0606(14) Uani 1 1 d . . . . .
H120 H 0.5547 0.3153 0.2361 0.091 Uiso 1 1 calc R U . . .
H121 H 0.5789 0.3227 0.2746 0.091 Uiso 1 1 calc R U . . .
H122 H 0.6374 0.2807 0.2571 0.091 Uiso 1 1 calc R U . . .
C73 C 0.3426(4) 0.04410(19) 0.38592(13) 0.0576(12) Uani 1 1 d . . . . .
H123 H 0.3508 0.0781 0.3822 0.086 Uiso 1 1 calc R U . . .
H124 H 0.2886 0.0310 0.3692 0.086 Uiso 1 1 calc R U . . .
H125 H 0.3184 0.0390 0.4075 0.086 Uiso 1 1 calc R U . . .
C59 C 0.5428(6) 0.16984(17) 0.60366(12) 0.0723(18) Uani 1 1 d . . . . .
H126 H 0.5305 0.1360 0.6071 0.108 Uiso 1 1 calc R U . . .
H127 H 0.6023 0.1810 0.6194 0.108 Uiso 1 1 calc R U . . .
H128 H 0.4764 0.1875 0.6066 0.108 Uiso 1 1 calc R U . . .
C141 C 0.2747(5) 0.3668(2) 0.17172(13) 0.0725(17) Uani 1 1 d . . . . .
H129 H 0.2643 0.3334 0.1658 0.109 Uiso 1 1 calc R U . . .
H130 H 0.2497 0.3867 0.1530 0.109 Uiso 1 1 calc R U . . .
H131 H 0.3521 0.3728 0.1782 0.109 Uiso 1 1 calc R U . . .
C107 C 0.2625(4) 0.27460(18) 0.54554(13) 0.0574(12) Uani 1 1 d . . . . .
H132 H 0.2875 0.2581 0.5649 0.069 Uiso 1 1 calc R U . . .
C54 C 0.5639(6) 0.32738(19) 0.63969(12) 0.0737(18) Uani 1 1 d . . . . .
H133 H 0.4913 0.3136 0.6348 0.111 Uiso 1 1 calc R U . . .
H134 H 0.6149 0.3027 0.6482 0.111 Uiso 1 1 calc R U . . .
H135 H 0.5613 0.3525 0.6560 0.111 Uiso 1 1 calc R U . . .
C19 C 0.8074(7) 0.2366(3) 0.19449(12) 0.097(3) Uani 1 1 d . . . . .
H136 H 0.8097 0.2019 0.1935 0.145 Uiso 1 1 calc R U . . .
H137 H 0.7327 0.2469 0.1963 0.145 Uiso 1 1 calc R U . . .
H138 H 0.8321 0.2498 0.1746 0.145 Uiso 1 1 calc R U . . .
C55 C 0.7132(5) 0.3693(2) 0.61654(14) 0.0750(17) Uani 1 1 d . . . . .
H139 H 0.7367 0.3826 0.5966 0.112 Uiso 1 1 calc R U . . .
H140 H 0.7110 0.3945 0.6328 0.112 Uiso 1 1 calc R U . . .
H141 H 0.7646 0.3447 0.6250 0.112 Uiso 1 1 calc R U . . .
C108 C 0.3363(4) 0.29182(19) 0.52590(14) 0.0614(14) Uani 1 1 d . . . . .
H142 H 0.4120 0.2873 0.5318 0.074 Uiso 1 1 calc R U . . .
C142 C 0.2274(7) 0.43007(19) 0.20843(14) 0.090(2) Uani 1 1 d . . . . .
H143 H 0.1860 0.4381 0.2266 0.136 Uiso 1 1 calc R U . . .
H144 H 0.3049 0.4359 0.2148 0.136 Uiso 1 1 calc R U . . .
H145 H 0.2026 0.4498 0.1896 0.136 Uiso 1 1 calc R U . . .
C149 C 0.3610(5) 0.21720(19) 0.37646(13) 0.0621(13) Uani 1 1 d . . . . .
H164 H 0.3628 0.2134 0.3537 0.075 Uiso 1 1 calc R U . . .
C150 C 0.4086(4) 0.25523(19) 0.39171(13) 0.0597(12) Uani 1 1 d . . . . .
H165 H 0.4411 0.2790 0.3797 0.072 Uiso 1 1 calc R U . . .
C151 C 0.3079(4) 0.18711(19) 0.42710(13) 0.0585(12) Uani 1 1 d . . . . .
C152 C 0.4097(4) 0.2594(2) 0.42516(13) 0.0613(13) Uani 1 1 d . . . . .
H166 H 0.4444 0.2858 0.4361 0.074 Uiso 1 1 calc R U . . .
C153 C 0.3089(4) 0.18334(18) 0.39389(13) 0.0596(13) Uani 1 1 d . . . . .
H167 H 0.2736 0.1573 0.3827 0.071 Uiso 1 1 calc R U . . .
C154 C 0.3613(4) 0.2259(2) 0.44237(13) 0.0606(13) Uani 1 1 d . . . . .
H168 H 0.3639 0.2290 0.4653 0.073 Uiso 1 1 calc R U . . .
C155 C 0.2547(6) 0.1507(2) 0.44647(17) 0.0808(17) Uani 1 1 d . . . . .
H169 H 0.2628 0.1598 0.4695 0.121 Uiso 1 1 calc R U . . .
H170 H 0.1772 0.1486 0.4386 0.121 Uiso 1 1 calc R U . . .
H171 H 0.2891 0.1198 0.4440 0.121 Uiso 1 1 calc R U . . .
C156 C 0.2794(8) 0.0632(3) 0.7372(3) 0.117(3) Uani 1 1 d . . . . .
C157 C 0.3462(9) 0.0531(3) 0.7143(3) 0.117(3) Uani 1 1 d . . . . .
H172 H 0.4138 0.0374 0.7193 0.140 Uiso 1 1 calc R U . . .
C158 C 0.3242(10) 0.0533(5) 0.7717(3) 0.166(5) Uani 1 1 d . . . . .
H173 H 0.2699 0.0617 0.7863 0.249 Uiso 1 1 calc R U . . .
H174 H 0.3419 0.0195 0.7741 0.249 Uiso 1 1 calc R U . . .
H175 H 0.3901 0.0721 0.7772 0.249 Uiso 1 1 calc R U . . .
C159 C 0.3079(9) 0.0680(4) 0.6817(3) 0.134(4) Uani 1 1 d . . . . .
H176 H 0.3552 0.0605 0.6658 0.160 Uiso 1 1 calc R U . . .
C160 C 0.1798(9) 0.0874(4) 0.7272(5) 0.200(9) Uani 1 1 d . . . . .
H177 H 0.1386 0.0973 0.7441 0.241 Uiso 1 1 calc R U . . .
C161 C 0.1368(13) 0.0981(6) 0.6959(4) 0.188(8) Uani 1 1 d . . . . .
H178 H 0.0635 0.1084 0.6918 0.226 Uiso 1 1 calc R U . . .
C162 C 0.2052(12) 0.0936(7) 0.6687(6) 0.335(17) Uani 1 1 d . . . . .
H179 H 0.1876 0.1046 0.6470 0.401 Uiso 1 1 calc R U . . .
O4 O 0.4260(4) 0.26980(16) 0.07059(11) 0.0938(15) Uani 1 1 d . . . . .
H180 H 0.4096 0.2557 0.0529 0.141 Uiso 1 1 calc R U . . .
C164 C 0.3654(5) 0.4512(2) 0.52828(12) 0.0668(14) Uani 1 1 d . . . . .
C165 C 0.3349(5) 0.4648(2) 0.49339(13) 0.0658(14) Uani 1 1 d . . . . .
C167 C 0.3925(5) 0.2428(3) 0.09594(14) 0.0808(18) Uani 1 1 d . . . . .
H184 H 0.4281 0.2113 0.0962 0.097 Uiso 1 1 calc R U . . .
H185 H 0.3129 0.2378 0.0922 0.097 Uiso 1 1 calc R U . . .
C168 C 0.4201(10) 0.2663(4) 0.12800(19) 0.150(5) Uani 1 1 d . . . . .
H186 H 0.3956 0.2464 0.1452 0.225 Uiso 1 1 calc R U . . .
H187 H 0.4990 0.2707 0.1319 0.225 Uiso 1 1 calc R U . . .
H188 H 0.3839 0.2972 0.1279 0.225 Uiso 1 1 calc R U . . .
C90 C -0.1137(5) 0.65851(18) 0.35303(17) 0.0403(15) Uani 0.735(11) 1 d . . P A
1
H146 H -0.1205 0.6558 0.3293 0.060 Uiso 0.735(11) 1 calc R U P A 1
H147 H -0.1577 0.6852 0.3592 0.060 Uiso 0.735(11) 1 calc R U P A 1
H148 H -0.0374 0.6638 0.3612 0.060 Uiso 0.735(11) 1 calc R U P A 1
C89 C -0.2743(5) 0.6050(2) 0.35358(18) 0.0418(16) Uani 0.735(11) 1 d . . P A 1
H149 H -0.2780 0.6024 0.3299 0.063 Uiso 0.735(11) 1 calc R U P A 1
H150 H -0.3034 0.5761 0.3625 0.063 Uiso 0.735(11) 1 calc R U P A 1
H151 H -0.3174 0.6323 0.3593 0.063 Uiso 0.735(11) 1 calc R U P A 1
C91 C -0.1444(6) 0.6161(2) 0.40388(13) 0.0450(19) Uani 0.735(11) 1 d . . P A 1
H152 H -0.1858 0.6436 0.4100 0.067 Uiso 0.735(11) 1 calc R U P A 1
H153 H -0.1728 0.5874 0.4133 0.067 Uiso 0.735(11) 1 calc R U P A 1
H154 H -0.0676 0.6200 0.4121 0.067 Uiso 0.735(11) 1 calc R U P A 1
C173 C -0.2206(16) 0.5991(6) 0.4020(4) 0.041(5) Uani 0.265(11) 1 d . . P A 2
H155 H -0.1668 0.5902 0.4201 0.062 Uiso 0.265(11) 1 calc R U P A 2
H156 H -0.2607 0.6271 0.4080 0.062 Uiso 0.265(11) 1 calc R U P A 2
H157 H -0.2714 0.5728 0.3970 0.062 Uiso 0.265(11) 1 calc R U P A 2
C174 C -0.078(2) 0.6497(7) 0.3812(8) 0.084(11) Uani 0.265(11) 1 d . . P A 2
H158 H -0.0241 0.6361 0.3976 0.126 Uiso 0.265(11) 1 calc R U P A 2
H159 H -0.0417 0.6634 0.3636 0.126 Uiso 0.265(11) 1 calc R U P A 2
H160 H -0.1191 0.6745 0.3912 0.126 Uiso 0.265(11) 1 calc R U P A 2
C175 C -0.242(3) 0.6243(11) 0.3431(5) 0.101(13) Uani 0.265(11) 1 d . . P A 2
H161 H -0.2852 0.5960 0.3368 0.152 Uiso 0.265(11) 1 calc R U P A 2
H162 H -0.2888 0.6482 0.3518 0.152 Uiso 0.265(11) 1 calc R U P A 2
H163 H -0.2114 0.6371 0.3241 0.152 Uiso 0.265(11) 1 calc R U P A 2
O3 O 0.2983(3) 0.47518(17) 0.54844(11) 0.0550(14) Uani 0.749(9) 1 d . . P B 1
O8 O 0.4548(10) 0.4635(5) 0.5436(3) 0.061(5) Uani 0.251(9) 1 d . . P B 2
O7 O 0.4743(8) 0.3578(3) 0.0670(2) 0.120(3) Uani 0.637(6) 1 d D . P C 1
H189 H 0.5191 0.3765 0.0769 0.179 Uiso 0.637(6) 1 calc R U P C 1
C171 C 0.5463(13) 0.3645(4) 0.0191(3) 0.120(6) Uani 0.637(6) 1 d . . P C 1
H190 H 0.5319 0.3732 -0.0039 0.180 Uiso 0.637(6) 1 calc R U P C 1
H191 H 0.6038 0.3849 0.0297 0.180 Uiso 0.637(6) 1 calc R U P C 1
H192 H 0.5696 0.3313 0.0209 0.180 Uiso 0.637(6) 1 calc R U P C 1
C172 C 0.4594(16) 0.3699(5) 0.0331(3) 0.143(7) Uani 0.637(6) 1 d D . P C 1
H193 H 0.4012 0.3498 0.0220 0.171 Uiso 0.637(6) 1 calc R U P C 1
H194 H 0.4354 0.4033 0.0308 0.171 Uiso 0.637(6) 1 calc R U P C 1
O9 O 0.1596(8) 0.1071(3) 0.5963(2) 0.060(3) Uani 0.363(6) 1 d . . P C 2
H197 H 0.1009 0.1179 0.5871 0.090 Uiso 0.363(6) 1 calc R U P C 2
C176 C 0.2243(13) 0.1867(5) 0.6146(3) 0.063(4) Uani 0.363(6) 1 d . . P C 2
H198 H 0.2874 0.2070 0.6126 0.094 Uiso 0.363(6) 1 calc R U P C 2
H199 H 0.1581 0.2027 0.6052 0.094 Uiso 0.363(6) 1 calc R U P C 2
H200 H 0.2189 0.1800 0.6377 0.094 Uiso 0.363(6) 1 calc R U P C 2
C177 C 0.2376(15) 0.1406(6) 0.5967(5) 0.080(5) Uani 0.363(6) 1 d . . P C 2
H201 H 0.2463 0.1486 0.5738 0.096 Uiso 0.363(6) 1 calc R U P C 2
H202 H 0.3068 0.1260 0.6061 0.096 Uiso 0.363(6) 1 calc R U P C 2
loop_
_atom_site_aniso_label
_atom_site_aniso_U_11
_atom_site_aniso_U_22
_atom_site_aniso_U_33
_atom_site_aniso_U_23
_atom_site_aniso_U_13
_atom_site_aniso_U_12
Ni1 0.0277(3) 0.0194(3) 0.0286(3) -0.0010(2) 0.0061(2) 0.0006(2)
Ni2 0.0316(3) 0.0208(3) 0.0296(3) -0.0004(2) 0.0031(2) -0.0012(2)
P3 0.0324(5) 0.0282(5) 0.0283(4) -0.0026(3) 0.0057(3) -0.0031(4)
P4 0.0301(5) 0.0208(4) 0.0376(5) 0.0002(4) 0.0024(3) -0.0009(3)
N6 0.0301(15) 0.0236(14) 0.0254(13) -0.0028(11) 0.0056(11) 0.0009(11)
N8 0.0267(14) 0.0235(15) 0.0276(14) -0.0011(11) 0.0047(11) 0.0012(11)
N7 0.0281(14) 0.0215(14) 0.0277(14) 0.0016(11) 0.0034(11) -0.0004(11)
N5 0.0275(14) 0.0221(14) 0.0301(14) -0.0002(11) 0.0055(11) -0.0015(11)
N1 0.0359(16) 0.0225(15) 0.0291(14) -0.0031(12) 0.0043(12) -0.0011(12)
O2 0.0415(15) 0.0364(15) 0.0339(13) -0.0006(11) 0.0071(11) -0.0074(12)
N2 0.0246(14) 0.0253(15) 0.0351(15) -0.0023(12) 0.0019(11) -0.0008(12)
N3 0.0298(15) 0.0227(15) 0.0325(15) 0.0024(12) 0.0022(12) -0.0004(12)
C75 0.0280(17) 0.0232(17) 0.0323(17) 0.0008(14) 0.0057(13) 0.0029(14)
C10 0.0274(17) 0.0290(19) 0.0355(18) -0.0003(15) 0.0037(14) 0.0002(14)
N4 0.0281(14) 0.0223(15) 0.0327(15) 0.0025(12) 0.0032(11) -0.0019(11)
C1 0.0268(17) 0.0245(17) 0.0309(17) 0.0015(14) 0.0013(13) 0.0014(13)
O1 0.0426(15) 0.0231(13) 0.0468(15) -0.0045(11) 0.0016(12) -0.0032(11)
C96 0.0261(16) 0.0261(18) 0.0309(17) -0.0045(14) 0.0087(13) -0.0030(13)
C114 0.0272(16) 0.0226(17) 0.0271(16) -0.0001(13) 0.0040(13) 0.0015(13)
C133 0.0263(16) 0.0245(17) 0.0305(17) -0.0006(13) 0.0024(13) 0.0003(13)
C129 0.0279(17) 0.0221(17) 0.0266(16) -0.0010(13) 0.0050(13) 0.0007(13)
C115 0.0323(18) 0.0246(18) 0.0280(16) -0.0004(13) 0.0010(13) -0.0007(14)
C92 0.0236(16) 0.0284(18) 0.0292(16) -0.0065(14) 0.0045(13) -0.0028(13)
C2 0.0257(16) 0.0211(17) 0.0358(18) -0.0001(14) 0.0012(13) -0.0011(13)
C147 0.0324(18) 0.0253(18) 0.0285(16) -0.0006(13) 0.0046(13) -0.0043(14)
C130 0.0296(17) 0.0238(17) 0.0253(15) -0.0019(13) 0.0037(13) 0.0035(13)
C97 0.0322(18) 0.035(2) 0.0239(16) -0.0010(14) 0.0043(13) -0.0041(15)
C3 0.0319(18) 0.0237(17) 0.0295(17) -0.0018(13) 0.0002(13) -0.0019(14)
C134 0.0297(18) 0.0300(19) 0.0299(17) 0.0005(14) 0.0075(13) -0.0004(14)
C4 0.0299(17) 0.0229(17) 0.0317(17) -0.0012(14) 0.0016(13) 0.0022(14)
C135 0.0284(17) 0.0255(18) 0.0318(17) 0.0024(14) 0.0026(13) -0.0016(14)
C20 0.0353(19) 0.0272(19) 0.0313(17) -0.0027(14) 0.0005(14) 0.0003(15)
C46 0.0317(18) 0.0266(18) 0.0352(18) -0.0003(14) 0.0048(14) -0.0009(14)
C42 0.0326(18) 0.0214(17) 0.0340(18) -0.0015(14) 0.0023(14) -0.0027(14)
C131 0.0281(17) 0.0236(17) 0.0283(16) -0.0010(13) 0.0034(13) 0.0026(14)
C109 0.0298(17) 0.0224(17) 0.0314(17) 0.0001(13) 0.0047(13) 0.0009(14)
C116 0.0303(17) 0.0219(17) 0.0286(16) -0.0023(13) 0.0022(13) -0.0024(14)
C148 0.0270(16) 0.0229(17) 0.0276(16) 0.0015(13) 0.0038(13) 0.0015(13)
C43 0.0374(19) 0.0225(17) 0.0266(16) 0.0017(13) 0.0018(14) 0.0000(14)
C5 0.0262(17) 0.0252(18) 0.0326(17) 0.0015(14) 0.0019(13) -0.0005(14)
C117 0.0336(18) 0.0222(17) 0.0342(17) -0.0012(14) 0.0000(14) 0.0010(14)
C136 0.0271(16) 0.0212(17) 0.0303(16) -0.0011(13) 0.0033(13) -0.0026(13)
C36 0.0256(16) 0.0227(17) 0.0332(17) 0.0001(14) 0.0018(13) -0.0052(13)
C118 0.0313(18) 0.0277(18) 0.0289(17) -0.0015(14) 0.0019(13) 0.0029(14)
C60 0.0354(18) 0.0237(17) 0.0275(16) 0.0013(13) 0.0024(13) -0.0001(14)
C93 0.0275(17) 0.0226(17) 0.0301(16) -0.0017(13) 0.0028(13) 0.0030(13)
C41 0.0297(17) 0.0281(18) 0.0308(17) -0.0024(14) 0.0034(13) -0.0014(14)
C47 0.0316(18) 0.0297(19) 0.0293(17) -0.0026(14) 0.0027(13) -0.0010(15)
C110 0.0307(18) 0.0304(19) 0.0307(17) 0.0002(14) 0.0075(14) 0.0014(14)
C37 0.0344(19) 0.0263(18) 0.0343(18) -0.0014(14) 0.0051(14) -0.0010(15)
C113 0.0264(16) 0.0209(17) 0.0307(16) 0.0001(13) 0.0034(13) -0.0001(13)
C74 0.0333(18) 0.0243(18) 0.0309(17) 0.0013(14) -0.0034(14) -0.0003(14)
C137 0.0308(17) 0.0231(17) 0.0303(17) -0.0013(14) 0.0025(13) -0.0021(14)
C111 0.043(2) 0.0233(18) 0.0316(17) 0.0031(14) 0.0098(15) -0.0008(15)
C61 0.0346(18) 0.0204(17) 0.0301(17) -0.0006(13) 0.0068(14) -0.0007(14)
C21 0.036(2) 0.034(2) 0.0383(19) -0.0012(16) -0.0004(15) -0.0039(16)
C11 0.0263(17) 0.0276(18) 0.0295(17) 0.0016(14) 0.0020(13) 0.0035(14)
C119 0.0301(17) 0.0224(17) 0.0347(17) 0.0015(14) -0.0002(14) 0.0019(14)
C24 0.0315(18) 0.0235(18) 0.047(2) 0.0062(16) 0.0027(15) 0.0038(14)
C120 0.0302(17) 0.0247(18) 0.0299(16) 0.0011(14) 0.0016(13) 0.0011(14)
C48 0.0355(19) 0.0294(19) 0.0310(17) -0.0024(14) -0.0007(14) -0.0028(15)
C6 0.0314(18) 0.0223(17) 0.0340(18) 0.0030(14) 0.0009(14) -0.0003(14)
C76 0.0371(19) 0.0233(18) 0.0330(17) -0.0003(14) 0.0023(14) 0.0012(15)
C12 0.0255(16) 0.0260(18) 0.0299(16) 0.0007(14) 0.0015(13) 0.0025(13)
C7 0.0328(18) 0.0233(18) 0.0346(18) 0.0023(14) 0.0068(14) -0.0011(14)
C38 0.0304(17) 0.0242(18) 0.0320(17) -0.0022(14) 0.0002(13) -0.0018(14)
C132 0.0247(16) 0.0255(18) 0.0292(16) 0.0005(13) 0.0038(13) 0.0008(13)
C44 0.047(2) 0.0235(18) 0.0288(17) 0.0027(14) 0.0021(15) -0.0012(15)
C139 0.0369(19) 0.032(2) 0.0303(17) 0.0052(15) 0.0045(14) 0.0010(15)
C30 0.0342(19) 0.033(2) 0.0337(18) -0.0033(15) 0.0005(14) -0.0003(15)
C94 0.0280(17) 0.0243(18) 0.0344(18) -0.0065(14) 0.0049(13) 0.0016(14)
C39 0.0323(18) 0.0265(18) 0.0358(18) -0.0029(15) 0.0057(14) 0.0002(15)
C125 0.0379(19) 0.0235(18) 0.0316(17) -0.0027(14) 0.0063(14) 0.0017(15)
C103 0.039(2) 0.044(2) 0.044(2) -0.0049(18) 0.0081(17) -0.0004(18)
C138 0.0277(17) 0.0254(18) 0.0363(18) 0.0008(14) 0.0048(14) 0.0002(14)
C126 0.041(2) 0.0287(19) 0.0319(18) -0.0028(15) 0.0035(15) 0.0010(16)
C8 0.0287(17) 0.0249(18) 0.0347(18) 0.0023(14) -0.0002(14) -0.0014(14)
C66 0.043(2) 0.031(2) 0.0357(19) 0.0067(16) -0.0001(16) 0.0014(16)
C77 0.0261(17) 0.0236(17) 0.0333(17) -0.0029(14) 0.0037(13) 0.0003(13)
C40 0.0282(17) 0.0250(18) 0.0332(17) -0.0011(14) 0.0023(13) -0.0007(14)
C112 0.039(2) 0.0291(19) 0.0357(19) 0.0022(15) 0.0089(15) -0.0014(16)
C95 0.0289(17) 0.0318(19) 0.0285(16) -0.0064(14) 0.0043(13) 0.0007(14)
C98 0.038(2) 0.035(2) 0.0333(18) -0.0053(16) 0.0026(15) -0.0059(16)
C78 0.045(2) 0.0257(19) 0.0359(19) -0.0035(15) -0.0006(16) 0.0038(16)
C84 0.050(2) 0.0231(18) 0.0354(19) 0.0020(15) 0.0037(16) -0.0008(16)
C62 0.0370(19) 0.0267(18) 0.0312(17) 0.0009(14) 0.0025(14) -0.0042(15)
C79 0.047(2) 0.0195(17) 0.0383(19) 0.0013(15) 0.0017(16) 0.0020(15)
C49 0.0355(19) 0.037(2) 0.0301(18) -0.0027(15) 0.0054(14) 0.0017(16)
C50 0.045(2) 0.033(2) 0.0303(18) 0.0019(15) 0.0037(15) -0.0039(17)
C22 0.044(2) 0.0277(19) 0.039(2) -0.0010(16) -0.0001(16) -0.0007(16)
C63 0.040(2) 0.0225(18) 0.0360(18) 0.0007(14) 0.0039(15) -0.0014(15)
C99 0.058(3) 0.031(2) 0.045(2) -0.0100(17) 0.0146(19) -0.0032(19)
C100 0.0327(18) 0.034(2) 0.0327(18) -0.0048(15) 0.0035(14) -0.0010(15)
C80 0.0342(18) 0.0227(17) 0.0316(17) -0.0011(14) 0.0059(14) 0.0017(14)
C31 0.0328(19) 0.036(2) 0.046(2) 0.0011(17) 0.0003(16) 0.0013(16)
C64 0.0349(18) 0.0270(18) 0.0305(17) -0.0003(14) 0.0011(14) -0.0020(15)
C25 0.037(2) 0.0270(19) 0.042(2) 0.0038(16) 0.0007(16) 0.0000(16)
C127 0.039(2) 0.030(2) 0.042(2) -0.0005(16) 0.0084(16) 0.0054(16)
C51 0.048(2) 0.031(2) 0.0308(18) 0.0008(15) 0.0004(16) -0.0050(17)
C81 0.046(2) 0.0218(18) 0.0293(17) 0.0014(14) 0.0038(15) 0.0012(15)
C13 0.0265(17) 0.033(2) 0.0361(18) -0.0003(15) 0.0023(14) 0.0022(15)
C14 0.0270(17) 0.0280(19) 0.0354(18) 0.0001(15) -0.0003(14) 0.0043(14)
C9 0.0342(18) 0.0264(18) 0.0311(17) -0.0006(14) 0.0033(14) -0.0025(15)
C15 0.0351(19) 0.0310(19) 0.0324(18) -0.0030(15) 0.0050(14) 0.0026(15)
C143 0.032(2) 0.047(2) 0.052(2) 0.0095(19) 0.0067(17) 0.0129(18)
C65 0.0347(19) 0.0263(18) 0.0317(17) 0.0016(14) 0.0014(14) 0.0001(15)
C16 0.043(2) 0.038(2) 0.0333(19) 0.0034(16) 0.0040(16) -0.0024(17)
C23 0.049(2) 0.033(2) 0.038(2) -0.0047(16) 0.0048(17) -0.0006(18)
C26 0.048(2) 0.038(2) 0.042(2) 0.0011(18) -0.0071(18) 0.0019(18)
C121 0.047(2) 0.031(2) 0.045(2) 0.0076(17) 0.0028(17) -0.0073(17)
C104 0.040(2) 0.0294(19) 0.0377(19) -0.0075(16) 0.0015(16) 0.0006(16)
C85 0.045(2) 0.032(2) 0.0375(19) 0.0047(16) 0.0090(16) -0.0017(17)
C144 0.0325(19) 0.042(2) 0.040(2) 0.0022(17) 0.0069(15) 0.0085(17)
C82 0.041(2) 0.0241(18) 0.0401(19) -0.0034(15) 0.0047(16) 0.0048(16)
C32 0.031(2) 0.070(3) 0.037(2) -0.006(2) 0.0041(16) -0.005(2)
C88 0.049(2) 0.026(2) 0.046(2) -0.0024(16) 0.0059(18) 0.0057(17)
C83 0.0351(19) 0.0205(17) 0.0335(17) -0.0001(14) 0.0027(14) 0.0025(14)
C52 0.064(3) 0.035(2) 0.035(2) -0.0040(17) 0.0172(18) -0.002(2)
C101 0.040(2) 0.034(2) 0.046(2) -0.0040(17) 0.0136(17) -0.0066(17)
C45 0.041(2) 0.0278(19) 0.0304(17) 0.0035(14) 0.0014(15) -0.0021(15)
C122 0.049(2) 0.036(2) 0.042(2) 0.0122(17) 0.0039(18) 0.0000(18)
C56 0.084(3) 0.029(2) 0.033(2) 0.0019(16) 0.010(2) -0.010(2)
C33 0.038(2) 0.047(2) 0.043(2) 0.0028(18) 0.0021(17) -0.0100(19)
C34 0.040(2) 0.038(2) 0.038(2) -0.0067(17) 0.0008(16) 0.0027(17)
C86 0.057(2) 0.030(2) 0.0329(19) 0.0019(15) 0.0050(17) 0.0041(18)
C27 0.048(2) 0.029(2) 0.050(2) 0.0071(17) -0.0014(18) -0.0081(17)
C123 0.068(3) 0.023(2) 0.060(3) 0.0036(18) 0.020(2) -0.0013(19)
C102 0.055(3) 0.043(2) 0.049(2) -0.0104(19) 0.021(2) -0.004(2)
C124 0.041(2) 0.0242(19) 0.041(2) 0.0010(15) 0.0074(16) -0.0007(15)
C105 0.048(2) 0.041(2) 0.046(2) -0.0010(18) 0.0006(18) 0.0070(19)
C128 0.060(3) 0.027(2) 0.037(2) -0.0017(16) 0.0122(18) 0.0051(18)
C28 0.062(3) 0.049(3) 0.039(2) 0.0117(19) -0.0045(19) 0.001(2)
C87 0.072(3) 0.024(2) 0.043(2) 0.0066(17) 0.012(2) 0.0011(19)
C35 0.038(2) 0.066(3) 0.041(2) -0.014(2) 0.0006(17) 0.014(2)
C67 0.060(3) 0.067(3) 0.040(2) 0.015(2) 0.006(2) 0.015(2)
C57 0.081(3) 0.040(3) 0.048(2) -0.002(2) 0.017(2) -0.026(2)
C17 0.067(3) 0.046(3) 0.047(2) 0.012(2) 0.023(2) 0.007(2)
C70 0.071(3) 0.050(3) 0.040(2) -0.002(2) 0.000(2) -0.020(2)
C71 0.053(2) 0.032(2) 0.0338(19) 0.0006(16) -0.0049(17) -0.0107(18)
C29 0.062(3) 0.045(3) 0.053(3) 0.023(2) 0.001(2) -0.006(2)
C53 0.118(5) 0.048(3) 0.059(3) 0.003(2) 0.027(3) 0.030(3)
C106 0.036(2) 0.050(3) 0.076(3) -0.013(2) 0.011(2) -0.001(2)
C58 0.098(4) 0.031(2) 0.040(2) 0.0040(18) -0.003(2) 0.002(2)
C140 0.050(3) 0.098(4) 0.043(2) 0.025(3) -0.001(2) 0.003(3)
C145 0.073(3) 0.059(3) 0.049(3) -0.003(2) 0.011(2) 0.031(3)
C68 0.074(3) 0.048(3) 0.071(3) 0.028(3) -0.015(3) -0.008(3)
C69 0.050(3) 0.054(3) 0.044(2) 0.011(2) -0.0004(19) 0.007(2)
C18 0.075(4) 0.072(4) 0.077(4) 0.038(3) 0.044(3) 0.028(3)
C72 0.085(4) 0.041(3) 0.048(2) 0.002(2) -0.009(2) -0.025(2)
C146 0.029(2) 0.074(3) 0.080(3) 0.031(3) 0.014(2) 0.011(2)
C73 0.045(3) 0.058(3) 0.066(3) 0.004(2) -0.007(2) -0.006(2)
C59 0.144(6) 0.034(2) 0.041(2) 0.004(2) 0.017(3) -0.018(3)
C141 0.077(4) 0.093(4) 0.050(3) 0.029(3) 0.022(3) 0.033(3)
C107 0.056(3) 0.051(3) 0.061(3) -0.001(2) -0.012(2) 0.011(2)
C54 0.136(5) 0.046(3) 0.046(3) -0.005(2) 0.041(3) -0.002(3)
C19 0.150(6) 0.104(5) 0.033(2) 0.010(3) -0.010(3) -0.074(5)
C55 0.084(4) 0.083(4) 0.060(3) -0.030(3) 0.018(3) -0.025(3)
C108 0.043(3) 0.057(3) 0.081(4) -0.017(3) -0.008(2) 0.011(2)
C142 0.165(7) 0.039(3) 0.057(3) 0.017(2) -0.033(4) -0.009(4)
C149 0.078(4) 0.055(3) 0.052(3) -0.004(2) -0.001(2) 0.000(3)
C150 0.062(3) 0.051(3) 0.067(3) 0.000(2) 0.008(2) -0.008(2)
C151 0.054(3) 0.054(3) 0.068(3) 0.009(2) 0.004(2) 0.004(2)
C152 0.058(3) 0.059(3) 0.065(3) -0.010(3) 0.001(2) -0.009(2)
C153 0.066(3) 0.046(3) 0.062(3) -0.003(2) -0.012(2) -0.006(2)
C154 0.064(3) 0.063(3) 0.053(3) -0.008(2) 0.000(2) 0.004(3)
C155 0.093(5) 0.062(4) 0.090(4) 0.016(3) 0.017(3) -0.006(3)
C156 0.110(6) 0.078(5) 0.172(9) -0.053(6) 0.062(6) -0.029(5)
C157 0.130(7) 0.097(6) 0.127(7) -0.024(6) 0.030(6) -0.004(5)
C158 0.148(9) 0.198(13) 0.151(10) -0.082(9) 0.012(8) 0.045(9)
C159 0.108(7) 0.111(7) 0.187(11) -0.052(7) 0.044(7) -0.017(6)
C160 0.086(6) 0.128(9) 0.41(2) -0.157(13) 0.117(11) -0.052(6)
C161 0.157(12) 0.199(15) 0.204(14) -0.125(12) -0.005(10) -0.027(10)
C162 0.121(11) 0.35(2) 0.55(4) -0.36(3) 0.088(16) -0.062(13)
O4 0.128(4) 0.078(3) 0.082(3) -0.039(2) 0.047(3) -0.033(3)
C164 0.073(4) 0.078(4) 0.048(3) -0.003(3) -0.003(2) -0.002(3)
C165 0.063(3) 0.082(4) 0.052(3) 0.008(3) 0.004(2) -0.004(3)
C167 0.063(3) 0.115(6) 0.065(3) 0.007(3) 0.010(3) 0.005(4)
C168 0.224(12) 0.158(9) 0.067(4) -0.032(5) 0.006(6) 0.094(9)
C90 0.046(3) 0.022(3) 0.054(4) -0.002(2) 0.009(3) 0.005(2)
C89 0.042(3) 0.038(4) 0.046(4) -0.002(3) 0.006(3) 0.009(3)
C91 0.067(5) 0.036(3) 0.033(3) -0.007(2) 0.005(3) 0.014(3)
C173 0.048(11) 0.035(9) 0.044(8) -0.009(7) 0.023(7) 0.003(8)
C174 0.110(19) 0.029(10) 0.13(2) -0.036(12) 0.082(18) -0.027(11)
C175 0.18(3) 0.076(19) 0.055(13) 0.031(12) 0.059(17) 0.09(2)
O3 0.046(2) 0.063(3) 0.054(3) -0.017(2) 0.0003(18) 0.001(2)
O8 0.047(8) 0.071(10) 0.068(9) -0.008(7) 0.018(6) -0.024(7)
O7 0.143(8) 0.082(6) 0.140(8) -0.014(5) 0.043(6) 0.001(5)
C171 0.180(14) 0.093(9) 0.096(8) -0.048(7) 0.058(9) -0.083(9)
C172 0.227(19) 0.078(9) 0.137(12) 0.052(8) 0.082(13) 0.070(10)
O9 0.071(6) 0.041(5) 0.067(6) 0.009(4) 0.001(5) -0.006(4)
C176 0.075(10) 0.059(9) 0.052(7) 0.007(6) -0.005(7) -0.021(7)
C177 0.074(11) 0.064(10) 0.104(13) -0.001(9) 0.023(9) -0.027(8)
loop_
_atom_type_symbol
_atom_type_description
_atom_type_scat_dispersion_real
_atom_type_scat_dispersion_imag
_atom_type_scat_source
C C 0.0181 0.0091 'International Tables Vol C Tables 4.2.6.8 and 6.1.1.4'
H H 0.0000 0.0000 'International Tables Vol C Tables 4.2.6.8 and 6.1.1.4'
N N 0.0311 0.0180 'International Tables Vol C Tables 4.2.6.8 and 6.1.1.4'
Ni Ni -3.0029 0.5091 'International Tables Vol C Tables 4.2.6.8 and 6.1.1.4'
O O 0.0492 0.0322 'International Tables Vol C Tables 4.2.6.8 and 6.1.1.4'
P P 0.2955 0.4335 'International Tables Vol C Tables 4.2.6.8 and 6.1.1.4'
loop_
_geom_angle_atom_site_label_1
_geom_angle_atom_site_label_2
_geom_angle_atom_site_label_3
_geom_angle
N8 Ni1 N7 85.55(12)
N8 Ni1 N5 92.03(12)
N7 Ni1 N5 177.24(12)
N8 Ni1 N6 176.81(12)
N7 Ni1 N6 92.04(12)
N5 Ni1 N6 90.42(12)
N3 Ni2 N1 85.96(12)
N3 Ni2 N4 175.98(13)
N1 Ni2 N4 92.17(12)
N3 Ni2 N2 91.75(12)
N1 Ni2 N2 177.37(13)
N4 Ni2 N2 90.19(12)
O2 P3 C97 110.24(16)
O2 P3 C104 112.76(18)
C97 P3 C104 103.63(17)
O2 P3 C96 115.16(16)
C97 P3 C96 110.79(16)
C104 P3 C96 103.52(17)
O1 P4 C24 110.41(17)
O1 P4 C30 113.20(17)
C24 P4 C30 102.28(17)
O1 P4 C36 115.92(16)
C24 P4 C36 110.10(16)
C30 P4 C36 103.93(17)
C110 N6 C109 105.0(3)
C110 N6 Ni1 126.1(2)
C109 N6 Ni1 128.7(2)
C75 N8 C148 103.9(3)
C75 N8 Ni1 122.6(2)
C148 N8 Ni1 133.0(2)
C114 N7 C129 104.2(3)
C114 N7 Ni1 122.4(2)
C129 N7 Ni1 133.4(2)
C92 N5 C93 104.5(3)
C92 N5 Ni1 127.4(2)
C93 N5 Ni1 128.1(2)
C42 N1 C43 104.3(3)
C42 N1 Ni2 122.7(2)
C43 N1 Ni2 132.7(2)
C2 N2 C5 105.0(3)
C2 N2 Ni2 127.4(2)
C5 N2 Ni2 127.6(2)
C1 N3 C3 103.9(3)
C1 N3 Ni2 123.0(2)
C3 N3 Ni2 133.0(2)
N8 C75 C77 132.8(3)
N8 C75 C80 113.7(3)
C77 C75 C80 113.3(3)
C12 C10 C13 121.0(3)
C12 C10 H1 119.5
C13 C10 H1 119.5
C40 N4 C38 104.8(3)
C40 N4 Ni2 126.2(2)
C38 N4 Ni2 128.7(2)
N3 C1 C8 133.1(3)
N3 C1 C4 114.2(3)
C8 C1 C4 112.6(3)
C110 C96 C92 122.1(3)
C110 C96 P3 113.9(3)
C92 C96 P3 123.7(3)
N7 C114 C113 132.7(3)
N7 C114 C131 114.1(3)
C113 C114 C131 113.0(3)
C136 C133 C137 121.3(3)
C136 C133 H2 119.4
C137 C133 H2 119.4
N7 C129 C132 123.0(3)
N7 C129 C130 109.3(3)
C132 C129 C130 127.7(3)
C116 C115 C119 120.0(3)
C116 C115 H3 120.0
C119 C115 H3 120.0
N5 C92 C96 123.9(3)
N5 C92 C95 110.0(3)
C96 C92 C95 126.0(3)
N2 C2 C36 124.6(3)
N2 C2 C7 110.4(3)
C36 C2 C7 124.8(3)
C80 C147 C148 105.9(3)
C80 C147 H4 127.0
C148 C147 H4 127.0
C131 C130 C129 107.9(3)
C131 C130 H5 126.1
C129 C130 H5 126.1
C101 C97 C100 119.7(4)
C101 C97 P3 117.3(3)
C100 C97 P3 123.0(3)
C74 C3 N3 122.7(3)
C74 C3 C6 127.5(3)
N3 C3 C6 109.7(3)
C138 C134 C137 122.8(3)
C138 C134 H6 118.6
C137 C134 H6 118.6
C6 C4 C1 104.2(3)
C6 C4 C11 149.8(3)
C1 C4 C11 106.0(3)
C138 C135 C136 121.5(3)
C138 C135 H7 119.3
C136 C135 H7 119.3
C23 C20 C14 113.5(3)
C23 C20 C21 107.0(3)
C14 C20 C21 109.5(3)
C23 C20 C22 107.2(3)
C14 C20 C22 109.6(3)
C21 C20 C22 109.9(3)
C47 C46 C49 120.1(3)
C47 C46 H8 120.0
C49 C46 H8 120.0
N1 C42 C41 133.1(3)
N1 C42 C45 114.2(3)
C41 C42 C45 112.0(3)
C130 C131 C114 104.6(3)
C130 C131 C120 149.0(3)
C114 C131 C120 106.1(3)
C113 C109 N6 121.3(3)
C113 C109 C111 128.6(3)
N6 C109 C111 109.6(3)
C115 C116 C120 121.6(3)
C115 C116 C113 129.5(3)
C120 C116 C113 108.9(3)
C132 C148 N8 122.4(3)
C132 C148 C147 127.0(3)
N8 C148 C147 110.4(3)
N1 C43 C74 123.5(3)
N1 C43 C44 109.9(3)
C74 C43 C44 126.6(3)
C8 C5 N2 121.0(3)
C8 C5 C9 128.3(3)
N2 C5 C9 109.7(3)
C119 C117 C118 124.3(3)
C119 C117 H9 117.9
C118 C117 H9 117.9
C133 C136 C135 118.8(3)
C133 C136 C132 121.8(3)
C135 C136 C132 119.4(3)
C40 C36 C2 122.0(3)
C40 C36 P4 114.7(3)
C2 C36 P4 123.2(3)
C120 C118 C117 117.3(3)
C120 C118 C125 122.1(3)
C117 C118 C125 120.6(3)
C62 C60 C61 121.9(3)
C62 C60 H10 119.1
C61 C60 H10 119.1
C77 C93 N5 121.1(3)
C77 C93 C94 127.8(3)
N5 C93 C94 110.2(3)
C38 C41 C42 121.0(3)
C38 C41 C47 132.7(3)
C42 C41 C47 105.1(3)
C46 C47 C48 121.3(3)
C46 C47 C41 129.6(3)
C48 C47 C41 109.1(3)
N6 C110 C96 125.2(3)
N6 C110 C112 110.2(3)
C96 C110 C112 124.6(3)
C39 C37 C38 107.6(3)
C39 C37 H11 126.2
C38 C37 H11 126.2
C109 C113 C114 121.1(3)
C109 C113 C116 133.1(3)
C114 C113 C116 105.1(3)
C3 C74 C43 120.2(3)
C3 C74 C61 119.7(3)
C43 C74 C61 120.0(3)
C134 C137 C133 117.6(3)
C134 C137 C139 121.9(3)
C133 C137 C139 120.5(3)
C112 C111 C109 108.1(3)
C112 C111 H12 125.9
C109 C111 H12 125.9
C60 C61 C64 118.8(3)
C60 C61 C74 119.4(3)
C64 C61 C74 121.8(3)
C20 C21 H13 109.5
C20 C21 H14 109.5
H13 C21 H14 109.5
C20 C21 H15 109.5
H13 C21 H15 109.5
H14 C21 H15 109.5
C14 C11 C12 119.3(3)
C14 C11 C4 134.0(3)
C12 C11 C4 106.4(3)
C117 C119 C115 117.6(3)
C117 C119 C124 122.9(3)
C115 C119 C124 119.4(3)
C25 C24 C27 118.9(4)
C25 C24 P4 122.8(3)
C27 C24 P4 118.3(3)
C118 C120 C116 119.1(3)
C118 C120 C131 133.9(3)
C116 C120 C131 106.9(3)
C51 C48 C47 119.5(3)
C51 C48 C45 134.0(3)
C47 C48 C45 106.5(3)
C4 C6 C3 107.8(3)
C4 C6 H16 126.1
C3 C6 H16 126.1
C81 C76 C83 119.9(3)
C81 C76 C80 133.8(3)
C83 C76 C80 106.3(3)
C10 C12 C11 120.9(3)
C10 C12 C8 130.1(3)
C11 C12 C8 108.8(3)
C9 C7 C2 107.3(3)
C9 C7 H17 126.3
C2 C7 H17 126.3
C41 C38 N4 121.1(3)
C41 C38 C37 128.7(3)
N4 C38 C37 109.7(3)
C148 C132 C129 120.2(3)
C148 C132 C136 121.1(3)
C129 C132 C136 118.7(3)
C45 C44 C43 106.6(3)
C45 C44 H18 126.7
C43 C44 H18 126.7
C142 C139 C141 108.7(5)
C142 C139 C140 108.2(5)
C141 C139 C140 107.0(4)
C142 C139 C137 109.1(3)
C141 C139 C137 113.0(3)
C140 C139 C137 110.7(3)
C34 C30 C31 118.4(4)
C34 C30 P4 117.6(3)
C31 C30 P4 123.8(3)
C95 C94 C93 107.5(3)
C95 C94 H19 126.3
C93 C94 H19 126.3
C37 C39 C40 107.5(3)
C37 C39 H20 126.2
C40 C39 H20 126.2
C128 C125 C118 112.3(3)
C128 C125 C126 107.4(3)
C118 C125 C126 110.0(3)
C128 C125 C127 107.8(3)
C118 C125 C127 108.7(3)
C126 C125 C127 110.7(3)
C106 C103 C104 120.3(4)
C106 C103 H21 119.9
C104 C103 H21 119.9
C135 C138 C134 118.0(3)
C135 C138 C144 122.2(3)
C134 C138 C144 119.8(3)
C125 C126 H22 109.5
C125 C126 H23 109.5
H22 C126 H23 109.5
C125 C126 H24 109.5
H22 C126 H24 109.5
H23 C126 H24 109.5
C1 C8 C5 120.5(3)
C1 C8 C12 105.8(3)
C5 C8 C12 132.4(3)
C69 C66 C68 108.0(4)
C69 C66 C67 109.4(4)
C68 C66 C67 106.9(4)
C69 C66 C65 110.7(3)
C68 C66 C65 113.2(3)
C67 C66 C65 108.6(3)
C93 C77 C75 120.8(3)
C93 C77 C83 133.1(3)
C75 C77 C83 104.8(3)
N4 C40 C36 125.4(3)
N4 C40 C39 110.4(3)
C36 C40 C39 124.2(3)
C111 C112 C110 107.0(3)
C111 C112 H25 126.5
C110 C112 H25 126.5
C94 C95 C92 107.6(3)
C94 C95 H26 126.2
C92 C95 H26 126.2
C100 C98 C99 120.5(4)
C100 C98 H27 119.8
C99 C98 H27 119.8
C79 C78 C82 118.7(3)
C79 C78 C88 121.5(3)
C82 C78 C88 119.8(4)
C81 C84 C86 109.0(3)
C81 C84 C87 112.2(3)
C86 C84 C87 107.4(3)
C81 C84 C85 110.2(3)
C86 C84 C85 110.7(3)
C87 C84 C85 107.4(3)
C60 C62 C63 117.6(3)
C60 C62 C71 119.1(3)
C63 C62 C71 123.3(3)
C78 C79 C81 124.1(3)
C78 C79 H28 117.9
C81 C79 H28 117.9
C50 C49 C46 117.7(3)
C50 C49 C52 122.3(3)
C46 C49 C52 120.0(3)
C49 C50 C51 123.8(3)
C49 C50 H29 118.1
C51 C50 H29 118.1
C20 C22 H30 109.5
C20 C22 H31 109.5
H30 C22 H31 109.5
C20 C22 H32 109.5
H30 C22 H32 109.5
H31 C22 H32 109.5
C62 C63 C65 122.8(3)
C62 C63 H33 118.6
C65 C63 H33 118.6
C98 C99 C102 119.6(4)
C98 C99 H34 120.2
C102 C99 H34 120.2
C98 C100 C97 119.9(3)
C98 C100 H35 120.1
C97 C100 H35 120.1
C147 C80 C75 106.0(3)
C147 C80 C76 148.0(3)
C75 C80 C76 106.0(3)
C33 C31 C30 121.3(4)
C33 C31 H36 119.4
C30 C31 H36 119.4
C65 C64 C61 121.2(3)
C65 C64 H37 119.4
C61 C64 H37 119.4
C26 C25 C24 120.8(4)
C26 C25 H38 119.6
C24 C25 H38 119.6
C125 C127 H39 109.5
C125 C127 H40 109.5
H39 C127 H40 109.5
C125 C127 H41 109.5
H39 C127 H41 109.5
H40 C127 H41 109.5
C48 C51 C50 117.4(4)
C48 C51 C56 122.4(3)
C50 C51 C56 120.2(3)
C76 C81 C79 116.7(3)
C76 C81 C84 122.3(3)
C79 C81 C84 121.0(3)
C15 C13 C10 116.8(3)
C15 C13 C16 121.3(3)
C10 C13 C16 121.9(3)
C11 C14 C15 116.9(3)
C11 C14 C20 122.7(3)
C15 C14 C20 120.2(3)
C7 C9 C5 107.3(3)
C7 C9 H42 126.4
C5 C9 H42 126.4
C13 C15 C14 124.7(3)
C13 C15 H43 117.6
C14 C15 H43 117.6
C144 C143 H44 109.5
C144 C143 H45 109.5
H44 C143 H45 109.5
C144 C143 H46 109.5
H44 C143 H46 109.5
H45 C143 H46 109.5
C64 C65 C63 117.7(3)
C64 C65 C66 119.9(3)
C63 C65 C66 122.4(3)
C17 C16 C18 108.1(4)
C17 C16 C13 111.8(3)
C18 C16 C13 109.2(3)
C17 C16 C19 107.0(4)
C18 C16 C19 110.2(5)
C13 C16 C19 110.5(4)
C20 C23 H47 109.5
C20 C23 H48 109.5
H47 C23 H48 109.5
C20 C23 H49 109.5
H47 C23 H49 109.5
H48 C23 H49 109.5
C25 C26 C28 120.1(4)
C25 C26 H50 120.0
C28 C26 H50 120.0
C124 C121 H51 109.5
C124 C121 H52 109.5
H51 C121 H52 109.5
C124 C121 H53 109.5
H51 C121 H53 109.5
H52 C121 H53 109.5
C105 C104 C103 119.5(4)
C105 C104 P3 118.8(3)
C103 C104 P3 121.3(3)
C84 C85 H54 109.5
C84 C85 H55 109.5
H54 C85 H55 109.5
C84 C85 H56 109.5
H54 C85 H56 109.5
H55 C85 H56 109.5
C143 C144 C146 108.0(4)
C143 C144 C145 108.5(4)
C146 C144 C145 109.9(4)
C143 C144 C138 112.6(3)
C146 C144 C138 108.4(3)
C145 C144 C138 109.4(3)
C83 C82 C78 119.2(4)
C83 C82 H57 120.4
C78 C82 H57 120.4
C33 C32 C35 120.1(4)
C33 C32 H58 120.0
C35 C32 H58 120.0
C175 C88 C174 118.7(19)
C175 C88 C78 111.5(9)
C91 C88 C78 110.4(4)
C174 C88 C78 110.0(9)
C91 C88 C89 111.8(5)
C78 C88 C89 107.5(4)
C91 C88 C90 109.3(4)
C78 C88 C90 111.0(4)
C89 C88 C90 106.9(4)
C175 C88 C173 104.1(14)
C174 C88 C173 100.5(11)
C78 C88 C173 111.2(6)
C82 C83 C76 121.2(3)
C82 C83 C77 129.5(3)
C76 C83 C77 109.2(3)
C54 C52 C55 110.0(5)
C54 C52 C49 113.8(4)
C55 C52 C49 109.1(4)
C54 C52 C53 107.2(4)
C55 C52 C53 107.6(5)
C49 C52 C53 109.0(4)
C97 C101 C102 120.2(4)
C97 C101 H59 119.9
C102 C101 H59 119.9
C44 C45 C42 104.9(3)
C44 C45 C48 147.8(4)
C42 C45 C48 106.9(3)
C124 C122 H60 109.5
C124 C122 H61 109.5
H60 C122 H61 109.5
C124 C122 H62 109.5
H60 C122 H62 109.5
H61 C122 H62 109.5
C51 C56 C58 109.3(4)
C51 C56 C59 112.3(4)
C58 C56 C59 107.7(4)
C51 C56 C57 109.8(4)
C58 C56 C57 111.0(4)
C59 C56 C57 106.8(4)
C32 C33 C31 119.5(4)
C32 C33 H63 120.2
C31 C33 H63 120.2
C35 C34 C30 120.7(4)
C35 C34 H64 119.6
C30 C34 H64 119.6
C84 C86 H65 109.5
C84 C86 H66 109.5
H65 C86 H66 109.5
C84 C86 H67 109.5
H65 C86 H67 109.5
H66 C86 H67 109.5
C29 C27 C24 119.8(4)
C29 C27 H68 120.1
C24 C27 H68 120.1
C124 C123 H69 109.5
C124 C123 H70 109.5
H69 C123 H70 109.5
C124 C123 H71 109.5
H69 C123 H71 109.5
H70 C123 H71 109.5
C101 C102 C99 120.1(4)
C101 C102 H72 119.9
C99 C102 H72 119.9
C122 C124 C123 107.9(3)
C122 C124 C119 108.4(3)
C123 C124 C119 112.0(3)
C122 C124 C121 109.4(3)
C123 C124 C121 109.1(3)
C119 C124 C121 109.9(3)
C104 C105 C107 120.1(5)
C104 C105 H73 119.9
C107 C105 H73 119.9
C125 C128 H74 109.5
C125 C128 H75 109.5
H74 C128 H75 109.5
C125 C128 H76 109.5
H74 C128 H76 109.5
H75 C128 H76 109.5
C29 C28 C26 120.3(4)
C29 C28 H77 119.8
C26 C28 H77 119.8
C84 C87 H78 109.5
C84 C87 H79 109.5
H78 C87 H79 109.5
C84 C87 H80 109.5
H78 C87 H80 109.5
H79 C87 H80 109.5
C34 C35 C32 119.9(4)
C34 C35 H81 120.1
C32 C35 H81 120.1
C66 C67 H82 109.5
C66 C67 H83 109.5
H82 C67 H83 109.5
C66 C67 H84 109.5
H82 C67 H84 109.5
H83 C67 H84 109.5
C56 C57 H85 109.5
C56 C57 H86 109.5
H85 C57 H86 109.5
C56 C57 H87 109.5
H85 C57 H87 109.5
H86 C57 H87 109.5
C16 C17 H88 109.5
C16 C17 H89 109.5
H88 C17 H89 109.5
C16 C17 H90 109.5
H88 C17 H90 109.5
H89 C17 H90 109.5
C71 C70 H91 109.5
C71 C70 H92 109.5
H91 C70 H92 109.5
C71 C70 H93 109.5
H91 C70 H93 109.5
H92 C70 H93 109.5
C72 C71 C70 110.2(4)
C72 C71 C62 112.4(3)
C70 C71 C62 108.8(3)
C72 C71 C73 107.7(4)
C70 C71 C73 108.5(4)
C62 C71 C73 109.1(3)
C28 C29 C27 120.1(4)
C28 C29 H94 119.9
C27 C29 H94 119.9
C52 C53 H95 109.5
C52 C53 H96 109.5
H95 C53 H96 109.5
C52 C53 H97 109.5
H95 C53 H97 109.5
H96 C53 H97 109.5
C103 C106 C108 119.5(5)
C103 C106 H98 120.2
C108 C106 H98 120.2
C56 C58 H99 109.5
C56 C58 H100 109.5
H99 C58 H100 109.5
C56 C58 H101 109.5
H99 C58 H101 109.5
H100 C58 H101 109.5
C139 C140 H102 109.5
C139 C140 H103 109.5
H102 C140 H103 109.5
C139 C140 H104 109.5
H102 C140 H104 109.5
H103 C140 H104 109.5
C144 C145 H105 109.5
C144 C145 H106 109.5
H105 C145 H106 109.5
C144 C145 H107 109.5
H105 C145 H107 109.5
H106 C145 H107 109.5
C66 C68 H108 109.5
C66 C68 H109 109.5
H108 C68 H109 109.5
C66 C68 H110 109.5
H108 C68 H110 109.5
H109 C68 H110 109.5
C66 C69 H111 109.5
C66 C69 H112 109.5
H111 C69 H112 109.5
C66 C69 H113 109.5
H111 C69 H113 109.5
H112 C69 H113 109.5
C16 C18 H114 109.5
C16 C18 H115 109.5
H114 C18 H115 109.5
C16 C18 H116 109.5
H114 C18 H116 109.5
H115 C18 H116 109.5
C71 C72 H117 109.5
C71 C72 H118 109.5
H117 C72 H118 109.5
C71 C72 H119 109.5
H117 C72 H119 109.5
H118 C72 H119 109.5
C144 C146 H120 109.5
C144 C146 H121 109.5
H120 C146 H121 109.5
C144 C146 H122 109.5
H120 C146 H122 109.5
H121 C146 H122 109.5
C71 C73 H123 109.5
C71 C73 H124 109.5
H123 C73 H124 109.5
C71 C73 H125 109.5
H123 C73 H125 109.5
H124 C73 H125 109.5
C56 C59 H126 109.5
C56 C59 H127 109.5
H126 C59 H127 109.5
C56 C59 H128 109.5
H126 C59 H128 109.5
H127 C59 H128 109.5
C139 C141 H129 109.5
C139 C141 H130 109.5
H129 C141 H130 109.5
C139 C141 H131 109.5
H129 C141 H131 109.5
H130 C141 H131 109.5
C108 C107 C105 120.5(5)
C108 C107 H132 119.7
C105 C107 H132 119.7
C52 C54 H133 109.5
C52 C54 H134 109.5
H133 C54 H134 109.5
C52 C54 H135 109.5
H133 C54 H135 109.5
H134 C54 H135 109.5
C16 C19 H136 109.5
C16 C19 H137 109.5
H136 C19 H137 109.5
C16 C19 H138 109.5
H136 C19 H138 109.5
H137 C19 H138 109.5
C52 C55 H139 109.5
C52 C55 H140 109.5
H139 C55 H140 109.5
C52 C55 H141 109.5
H139 C55 H141 109.5
H140 C55 H141 109.5
C107 C108 C106 120.0(5)
C107 C108 H142 120.0
C106 C108 H142 120.0
C139 C142 H143 109.5
C139 C142 H144 109.5
H143 C142 H144 109.5
C139 C142 H145 109.5
H143 C142 H145 109.5
H144 C142 H145 109.5
C150 C149 C153 120.4(5)
C150 C149 H164 119.8
C153 C149 H164 119.8
C149 C150 C152 119.4(5)
C149 C150 H165 120.3
C152 C150 H165 120.3
C153 C151 C154 117.2(5)
C153 C151 C155 122.1(5)
C154 C151 C155 120.7(5)
C154 C152 C150 120.3(5)
C154 C152 H166 119.8
C150 C152 H166 119.8
C151 C153 C149 121.0(5)
C151 C153 H167 119.5
C149 C153 H167 119.5
C152 C154 C151 121.5(5)
C152 C154 H168 119.2
C151 C154 H168 119.2
C151 C155 H169 109.5
C151 C155 H170 109.5
H169 C155 H170 109.5
C151 C155 H171 109.5
H169 C155 H171 109.5
H170 C155 H171 109.5
C157 C156 C160 118.0(12)
C157 C156 C158 115.9(10)
C160 C156 C158 125.6(11)
C156 C157 C159 115.5(11)
C156 C157 H172 122.3
C159 C157 H172 122.3
C156 C158 H173 109.5
C156 C158 H174 109.5
H173 C158 H174 109.5
C156 C158 H175 109.5
H173 C158 H175 109.5
H174 C158 H175 109.5
C157 C159 C162 130.8(13)
C157 C159 H176 114.6
C162 C159 H176 114.6
C161 C160 C156 127.5(13)
C161 C160 H177 116.3
C156 C160 H177 116.3
C160 C161 C162 120.0(17)
C160 C161 H178 120.0
C162 C161 H178 120.0
C161 C162 C159 107(2)
C161 C162 H179 126.4
C159 C162 H179 126.4
C167 O4 H180 109.5
O8 C164 C165 122.0(8)
O3 C164 C165 109.9(5)
O4 C167 C168 111.5(7)
O4 C167 H184 109.3
C168 C167 H184 109.3
O4 C167 H185 109.3
C168 C167 H185 109.3
H184 C167 H185 108.0
C167 C168 H186 109.5
C167 C168 H187 109.5
H186 C168 H187 109.5
C167 C168 H188 109.5
H186 C168 H188 109.5
H187 C168 H188 109.5
C88 C90 H146 109.5
C88 C90 H147 109.5
H146 C90 H147 109.5
C88 C90 H148 109.5
H146 C90 H148 109.5
H147 C90 H148 109.5
C88 C89 H149 109.5
C88 C89 H150 109.5
H149 C89 H150 109.5
C88 C89 H151 109.5
H149 C89 H151 109.5
H150 C89 H151 109.5
C88 C91 H152 109.5
C88 C91 H153 109.5
H152 C91 H153 109.5
C88 C91 H154 109.5
H152 C91 H154 109.5
H153 C91 H154 109.5
C88 C173 H155 109.5
C88 C173 H156 109.5
H155 C173 H156 109.5
C88 C173 H157 109.5
H155 C173 H157 109.5
H156 C173 H157 109.5
C88 C174 H158 109.5
C88 C174 H159 109.5
H158 C174 H159 109.5
C88 C174 H160 109.5
H158 C174 H160 109.5
H159 C174 H160 109.5
C88 C175 H161 109.5
C88 C175 H162 109.5
H161 C175 H162 109.5
C88 C175 H163 109.5
H161 C175 H163 109.5
H162 C175 H163 109.5
C172 O7 H189 109.5
C172 C171 H190 109.5
C172 C171 H191 109.5
H190 C171 H191 109.5
C172 C171 H192 109.5
H190 C171 H192 109.5
H191 C171 H192 109.5
C171 C172 O7 112.6(14)
C171 C172 H193 109.1
O7 C172 H193 109.1
C171 C172 H194 109.1
O7 C172 H194 109.1
H193 C172 H194 107.8
C177 O9 H197 109.5
C177 C176 H198 109.5
C177 C176 H199 109.5
H198 C176 H199 109.5
C177 C176 H200 109.5
H198 C176 H200 109.5
H199 C176 H200 109.5
O9 C177 C176 119.5(15)
O9 C177 H201 107.4
C176 C177 H201 107.4
O9 C177 H202 107.4
C176 C177 H202 107.4
H201 C177 H202 107.0
loop_
_geom_bond_atom_site_label_1
_geom_bond_atom_site_label_2
_geom_bond_distance
Ni1 N8 1.887(3)
Ni1 N7 1.888(3)
Ni1 N5 1.945(3)
Ni1 N6 1.947(3)
Ni2 N3 1.884(3)
Ni2 N1 1.891(3)
Ni2 N4 1.952(3)
Ni2 N2 1.958(3)
P3 O2 1.486(3)
P3 C97 1.799(4)
P3 C104 1.814(4)
P3 C96 1.820(4)
P4 O1 1.488(3)
P4 C24 1.803(4)
P4 C30 1.807(4)
P4 C36 1.817(4)
N6 C110 1.379(4)
N6 C109 1.398(4)
N8 C75 1.347(4)
N8 C148 1.397(4)
N7 C114 1.346(4)
N7 C129 1.395(4)
N5 C92 1.383(4)
N5 C93 1.406(4)
N1 C42 1.337(5)
N1 C43 1.386(5)
N2 C2 1.359(4)
N2 C5 1.406(5)
N3 C1 1.337(5)
N3 C3 1.399(4)
C75 C77 1.386(5)
C75 C80 1.416(5)
C10 C12 1.370(5)
C10 C13 1.399(5)
C10 H1 0.9500
N4 C40 1.373(5)
N4 C38 1.414(5)
C1 C8 1.381(5)
C1 C4 1.432(5)
C96 C110 1.397(5)
C96 C92 1.398(5)
C114 C113 1.381(5)
C114 C131 1.423(5)
C133 C136 1.391(5)
C133 C137 1.404(5)
C133 H2 0.9500
C129 C132 1.397(5)
C129 C130 1.445(5)
C115 C116 1.378(5)
C115 C119 1.407(5)
C115 H3 0.9500
C92 C95 1.449(5)
C2 C36 1.400(5)
C2 C7 1.441(5)
C147 C80 1.373(5)
C147 C148 1.449(5)
C147 H4 0.9500
C130 C131 1.361(5)
C130 H5 0.9500
C97 C101 1.379(5)
C97 C100 1.401(5)
C3 C74 1.391(5)
C3 C6 1.435(5)
C134 C138 1.391(5)
C134 C137 1.392(5)
C134 H6 0.9500
C4 C6 1.363(5)
C4 C11 1.485(5)
C135 C138 1.385(5)
C135 C136 1.404(5)
C135 H7 0.9500
C20 C23 1.527(5)
C20 C14 1.537(5)
C20 C21 1.544(5)
C20 C22 1.547(5)
C46 C47 1.379(5)
C46 C49 1.405(5)
C46 H8 0.9500
C42 C41 1.394(5)
C42 C45 1.419(5)
C131 C120 1.469(5)
C109 C113 1.374(5)
C109 C111 1.429(5)
C116 C120 1.431(5)
C116 C113 1.489(5)
C148 C132 1.394(5)
C43 C74 1.396(5)
C43 C44 1.449(5)
C5 C8 1.383(5)
C5 C9 1.424(5)
C117 C119 1.390(5)
C117 C118 1.407(5)
C117 H9 0.9500
C136 C132 1.485(5)
C36 C40 1.395(5)
C118 C120 1.398(5)
C118 C125 1.532(5)
C60 C62 1.387(5)
C60 C61 1.393(5)
C60 H10 0.9500
C93 C77 1.372(5)
C93 C94 1.431(5)
C41 C38 1.370(5)
C41 C47 1.493(5)
C47 C48 1.423(5)
C110 C112 1.444(5)
C37 C39 1.345(5)
C37 C38 1.426(5)
C37 H11 0.9500
C74 C61 1.482(5)
C137 C139 1.529(5)
C111 C112 1.335(5)
C111 H12 0.9500
C61 C64 1.401(5)
C21 H13 0.9800
C21 H14 0.9800
C21 H15 0.9800
C11 C14 1.393(5)
C11 C12 1.437(5)
C119 C124 1.531(5)
C24 C25 1.390(5)
C24 C27 1.403(5)
C48 C51 1.400(5)
C48 C45 1.477(5)
C6 H16 0.9500
C76 C81 1.401(5)
C76 C83 1.431(5)
C76 C80 1.486(5)
C12 C8 1.487(5)
C7 C9 1.342(5)
C7 H17 0.9500
C44 C45 1.369(5)
C44 H18 0.9500
C139 C142 1.510(7)
C139 C141 1.510(6)
C139 C140 1.524(6)
C30 C34 1.390(5)
C30 C31 1.392(6)
C94 C95 1.336(5)
C94 H19 0.9500
C39 C40 1.440(5)
C39 H20 0.9500
C125 C128 1.530(5)
C125 C126 1.536(5)
C125 C127 1.545(5)
C103 C106 1.382(6)
C103 C104 1.398(6)
C103 H21 0.9500
C138 C144 1.536(5)
C126 H22 0.9800
C126 H23 0.9800
C126 H24 0.9800
C66 C69 1.505(6)
C66 C68 1.526(6)
C66 C67 1.530(6)
C66 C65 1.531(5)
C77 C83 1.488(5)
C112 H25 0.9500
C95 H26 0.9500
C98 C100 1.378(5)
C98 C99 1.384(6)
C98 H27 0.9500
C78 C79 1.380(6)
C78 C82 1.410(5)
C78 C88 1.531(5)
C84 C81 1.529(5)
C84 C86 1.537(5)
C84 C87 1.539(5)
C84 C85 1.543(6)
C62 C63 1.394(5)
C62 C71 1.532(5)
C79 C81 1.405(5)
C79 H28 0.9500
C49 C50 1.395(6)
C49 C52 1.521(5)
C50 C51 1.401(5)
C50 H29 0.9500
C22 H30 0.9800
C22 H31 0.9800
C22 H32 0.9800
C63 C65 1.396(5)
C63 H33 0.9500
C99 C102 1.392(6)
C99 H34 0.9500
C100 H35 0.9500
C31 C33 1.382(6)
C31 H36 0.9500
C64 C65 1.393(5)
C64 H37 0.9500
C25 C26 1.373(6)
C25 H38 0.9500
C127 H39 0.9800
C127 H40 0.9800
C127 H41 0.9800
C51 C56 1.524(5)
C13 C15 1.394(5)
C13 C16 1.527(5)
C14 C15 1.405(5)
C9 H42 0.9500
C15 H43 0.9500
C143 C144 1.522(6)
C143 H44 0.9800
C143 H45 0.9800
C143 H46 0.9800
C16 C17 1.522(6)
C16 C18 1.523(6)
C16 C19 1.527(6)
C23 H47 0.9800
C23 H48 0.9800
C23 H49 0.9800
C26 C28 1.382(6)
C26 H50 0.9500
C121 C124 1.540(6)
C121 H51 0.9800
C121 H52 0.9800
C121 H53 0.9800
C104 C105 1.377(6)
C85 H54 0.9800
C85 H55 0.9800
C85 H56 0.9800
C144 C146 1.529(6)
C144 C145 1.534(6)
C82 C83 1.382(5)
C82 H57 0.9500
C32 C33 1.380(6)
C32 C35 1.391(7)
C32 H58 0.9500
C88 C175 1.45(3)
C88 C91 1.483(7)
C88 C174 1.49(2)
C88 C89 1.546(7)
C88 C90 1.563(7)
C88 C173 1.738(15)
C52 C54 1.502(6)
C52 C55 1.517(7)
C52 C53 1.561(7)
C101 C102 1.387(6)
C101 H59 0.9500
C122 C124 1.529(6)
C122 H60 0.9800
C122 H61 0.9800
C122 H62 0.9800
C56 C58 1.527(7)
C56 C59 1.535(6)
C56 C57 1.538(7)
C33 H63 0.9500
C34 C35 1.382(6)
C34 H64 0.9500
C86 H65 0.9800
C86 H66 0.9800
C86 H67 0.9800
C27 C29 1.388(6)
C27 H68 0.9500
C123 C124 1.529(6)
C123 H69 0.9800
C123 H70 0.9800
C123 H71 0.9800
C102 H72 0.9500
C105 C107 1.383(7)
C105 H73 0.9500
C128 H74 0.9800
C128 H75 0.9800
C128 H76 0.9800
C28 C29 1.377(7)
C28 H77 0.9500
C87 H78 0.9800
C87 H79 0.9800
C87 H80 0.9800
C35 H81 0.9500
C67 H82 0.9800
C67 H83 0.9800
C67 H84 0.9800
C57 H85 0.9800
C57 H86 0.9800
C57 H87 0.9800
C17 H88 0.9800
C17 H89 0.9800
C17 H90 0.9800
C70 C71 1.529(6)
C70 H91 0.9800
C70 H92 0.9800
C70 H93 0.9800
C71 C72 1.514(6)
C71 C73 1.544(7)
C29 H94 0.9500
C53 H95 0.9800
C53 H96 0.9800
C53 H97 0.9800
C106 C108 1.391(8)
C106 H98 0.9500
C58 H99 0.9800
C58 H100 0.9800
C58 H101 0.9800
C140 H102 0.9800
C140 H103 0.9800
C140 H104 0.9800
C145 H105 0.9800
C145 H106 0.9800
C145 H107 0.9800
C68 H108 0.9800
C68 H109 0.9800
C68 H110 0.9800
C69 H111 0.9800
C69 H112 0.9800
C69 H113 0.9800
C18 H114 0.9800
C18 H115 0.9800
C18 H116 0.9800
C72 H117 0.9800
C72 H118 0.9800
C72 H119 0.9800
C146 H120 0.9800
C146 H121 0.9800
C146 H122 0.9800
C73 H123 0.9800
C73 H124 0.9800
C73 H125 0.9800
C59 H126 0.9800
C59 H127 0.9800
C59 H128 0.9800
C141 H129 0.9800
C141 H130 0.9800
C141 H131 0.9800
C107 C108 1.374(8)
C107 H132 0.9500
C54 H133 0.9800
C54 H134 0.9800
C54 H135 0.9800
C19 H136 0.9800
C19 H137 0.9800
C19 H138 0.9800
C55 H139 0.9800
C55 H140 0.9800
C55 H141 0.9800
C108 H142 0.9500
C142 H143 0.9800
C142 H144 0.9800
C142 H145 0.9800
C149 C150 1.348(7)
C149 C153 1.396(8)
C149 H164 0.9500
C150 C152 1.387(7)
C150 H165 0.9500
C151 C153 1.379(8)
C151 C154 1.394(7)
C151 C155 1.499(8)
C152 C154 1.361(8)
C152 H166 0.9500
C153 H167 0.9500
C154 H168 0.9500
C155 H169 0.9800
C155 H170 0.9800
C155 H171 0.9800
C156 C157 1.354(12)
C156 C160 1.431(17)
C156 C158 1.499(15)
C157 C159 1.442(14)
C157 H172 0.9500
C158 H173 0.9800
C158 H174 0.9800
C158 H175 0.9800
C159 C162 1.51(2)
C159 H176 0.9500
C160 C161 1.38(2)
C160 H177 0.9500
C161 C162 1.49(2)
C161 H178 0.9500
C162 H179 0.9500
O4 C167 1.395(8)
O4 H180 0.8400
C164 O8 1.263(14)
C164 O3 1.412(7)
C164 C165 1.502(7)
C167 C168 1.489(10)
C167 H184 0.9900
C167 H185 0.9900
C168 H186 0.9800
C168 H187 0.9800
C168 H188 0.9800
C90 H146 0.9800
C90 H147 0.9800
C90 H148 0.9800
C89 H149 0.9800
C89 H150 0.9800
C89 H151 0.9800
C91 H152 0.9800
C91 H153 0.9800
C91 H154 0.9800
C173 H155 0.9800
C173 H156 0.9800
C173 H157 0.9800
C174 H158 0.9800
C174 H159 0.9800
C174 H160 0.9800
C175 H161 0.9800
C175 H162 0.9800
C175 H163 0.9800
O7 C172 1.438(9)
O7 H189 0.8400
C171 C172 1.284(19)
C171 H190 0.9800
C171 H191 0.9800
C171 H192 0.9800
C172 H193 0.9900
C172 H194 0.9900
O9 C177 1.350(17)
O9 H197 0.8400
C176 C177 1.52(2)
C176 H198 0.9800
C176 H199 0.9800
C176 H200 0.9800
C177 H201 0.9900
C177 H202 0.9900
loop_
_geom_hbond_atom_site_label_D
_geom_hbond_atom_site_label_H
_geom_hbond_atom_site_label_A
_geom_hbond_distance_DH
_geom_hbond_distance_HA
_geom_hbond_distance_DA
_geom_hbond_angle_DHA
_geom_hbond_site_symmetry_A
C94 H19 O3 0.95 2.65 3.487(5) 147.6 3_566
C39 H20 O8 0.95 2.64 3.558(16) 162.6 3_666
C112 H25 O2 0.95 2.37 3.022(5) 125.2 .
C105 H73 O4 0.95 2.64 3.552(7) 161.1 4_566
O4 H180 O2 0.84 1.85 2.672(5) 164.3 4_665
C94 H19 O3 0.95 2.65 3.487(5) 147.6 3_566
C39 H20 O8 0.95 2.64 3.558(16) 162.6 3_666
loop_
_geom_torsion_atom_site_label_1
_geom_torsion_atom_site_label_2
_geom_torsion_atom_site_label_3
_geom_torsion_atom_site_label_4
_geom_torsion
N7 Ni1 N8 C75 171.7(3)
N5 Ni1 N8 C75 -7.0(3)
N7 Ni1 N8 C148 -18.0(3)
N5 Ni1 N8 C148 163.3(3)
N8 Ni1 N7 C114 -169.0(3)
N6 Ni1 N7 C114 13.1(3)
N8 Ni1 N7 C129 8.6(3)
N6 Ni1 N7 C129 -169.3(3)
N3 Ni2 N1 C42 174.0(3)
N4 Ni2 N1 C42 -9.6(3)
N3 Ni2 N1 C43 -13.2(3)
N4 Ni2 N1 C43 163.2(3)
N1 Ni2 N3 C1 -169.6(3)
N2 Ni2 N3 C1 9.1(3)
N1 Ni2 N3 C3 14.5(3)
N2 Ni2 N3 C3 -166.8(3)
C148 N8 C75 C77 -177.8(4)
Ni1 N8 C75 C77 -5.1(6)
C148 N8 C75 C80 -2.7(4)
Ni1 N8 C75 C80 170.0(2)
C3 N3 C1 C8 -179.7(4)
Ni2 N3 C1 C8 3.4(6)
C3 N3 C1 C4 3.4(4)
Ni2 N3 C1 C4 -173.5(2)
O2 P3 C96 C110 -58.8(3)
C97 P3 C96 C110 175.3(3)
C104 P3 C96 C110 64.8(3)
O2 P3 C96 C92 127.3(3)
C97 P3 C96 C92 1.3(3)
C104 P3 C96 C92 -109.2(3)
C129 N7 C114 C113 173.2(4)
Ni1 N7 C114 C113 -8.6(5)
C129 N7 C114 C131 -0.6(4)
Ni1 N7 C114 C131 177.6(2)
C114 N7 C129 C132 179.3(3)
Ni1 N7 C129 C132 1.3(5)
C114 N7 C129 C130 0.4(4)
Ni1 N7 C129 C130 -177.5(2)
C93 N5 C92 C96 -179.5(3)
Ni1 N5 C92 C96 1.1(5)
C93 N5 C92 C95 3.5(4)
Ni1 N5 C92 C95 -175.9(2)
C110 C96 C92 N5 -19.2(5)
P3 C96 C92 N5 154.3(3)
C110 C96 C92 C95 157.3(3)
P3 C96 C92 C95 -29.2(5)
C5 N2 C2 C36 -179.3(3)
Ni2 N2 C2 C36 -0.6(5)
C5 N2 C2 C7 -3.5(4)
Ni2 N2 C2 C7 175.3(2)
N7 C129 C130 C131 -0.1(4)
C132 C129 C130 C131 -178.9(3)
O2 P3 C97 C101 -21.3(3)
C104 P3 C97 C101 -142.2(3)
C96 P3 C97 C101 107.4(3)
O2 P3 C97 C100 159.5(3)
C104 P3 C97 C100 38.6(3)
C96 P3 C97 C100 -71.9(3)
C1 N3 C3 C74 173.8(3)
Ni2 N3 C3 C74 -9.8(5)
C1 N3 C3 C6 -2.9(4)
Ni2 N3 C3 C6 173.6(2)
N3 C1 C4 C6 -2.6(4)
C8 C1 C4 C6 179.9(3)
N3 C1 C4 C11 176.6(3)
C8 C1 C4 C11 -0.9(4)
C43 N1 C42 C41 -170.2(4)
Ni2 N1 C42 C41 4.3(6)
C43 N1 C42 C45 -1.4(4)
Ni2 N1 C42 C45 173.1(3)
C129 C130 C131 C114 -0.2(4)
C129 C130 C131 C120 -172.0(5)
N7 C114 C131 C130 0.5(4)
C113 C114 C131 C130 -174.6(3)
N7 C114 C131 C120 176.1(3)
C113 C114 C131 C120 1.1(4)
C110 N6 C109 C113 -171.5(3)
Ni1 N6 C109 C113 3.6(5)
C110 N6 C109 C111 1.2(4)
Ni1 N6 C109 C111 176.3(2)
C119 C115 C116 C120 2.6(5)
C119 C115 C116 C113 -176.0(3)
C75 N8 C148 C132 -170.8(3)
Ni1 N8 C148 C132 17.6(5)
C75 N8 C148 C147 3.7(4)
Ni1 N8 C148 C147 -167.9(2)
C80 C147 C148 C132 170.7(3)
C80 C147 C148 N8 -3.5(4)
C42 N1 C43 C74 -179.0(3)
Ni2 N1 C43 C74 7.2(6)
C42 N1 C43 C44 2.2(4)
Ni2 N1 C43 C44 -171.5(3)
C2 N2 C5 C8 -164.8(3)
Ni2 N2 C5 C8 16.4(5)
C2 N2 C5 C9 4.8(4)
Ni2 N2 C5 C9 -173.9(2)
C137 C133 C136 C135 0.3(5)
C137 C133 C136 C132 -178.7(3)
C138 C135 C136 C133 -1.9(5)
C138 C135 C136 C132 177.1(3)
N2 C2 C36 C40 17.1(5)
C7 C2 C36 C40 -158.2(3)
N2 C2 C36 P4 -159.2(3)
C7 C2 C36 P4 25.5(5)
O1 P4 C36 C40 72.3(3)
C24 P4 C36 C40 -161.5(3)
C30 P4 C36 C40 -52.6(3)
O1 P4 C36 C2 -111.1(3)
C24 P4 C36 C2 15.1(3)
C30 P4 C36 C2 124.1(3)
C119 C117 C118 C120 0.4(5)
C119 C117 C118 C125 -179.6(3)
C92 N5 C93 C77 164.6(3)
Ni1 N5 C93 C77 -16.0(5)
C92 N5 C93 C94 -5.1(4)
Ni1 N5 C93 C94 174.3(2)
N1 C42 C41 C38 5.7(6)
C45 C42 C41 C38 -163.2(3)
N1 C42 C41 C47 175.3(4)
C45 C42 C41 C47 6.3(4)
C49 C46 C47 C48 -1.0(6)
C49 C46 C47 C41 177.7(4)
C38 C41 C47 C46 -17.0(7)
C42 C41 C47 C46 175.2(4)
C38 C41 C47 C48 161.9(4)
C42 C41 C47 C48 -5.9(4)
C109 N6 C110 C96 -176.4(3)
Ni1 N6 C110 C96 8.3(5)
C109 N6 C110 C112 0.9(4)
Ni1 N6 C110 C112 -174.3(2)
C92 C96 C110 N6 14.4(6)
P3 C96 C110 N6 -159.7(3)
C92 C96 C110 C112 -162.6(3)
P3 C96 C110 C112 23.4(5)
N6 C109 C113 C114 6.5(5)
C111 C109 C113 C114 -164.6(4)
N6 C109 C113 C116 175.1(3)
C111 C109 C113 C116 4.0(7)
N7 C114 C113 C109 -4.1(6)
C131 C114 C113 C109 169.7(3)
N7 C114 C113 C116 -175.5(4)
C131 C114 C113 C116 -1.7(4)
C115 C116 C113 C109 10.5(6)
C120 C116 C113 C109 -168.3(4)
C115 C116 C113 C114 -179.6(4)
C120 C116 C113 C114 1.6(4)
N3 C3 C74 C43 -2.7(5)
C6 C3 C74 C43 173.4(3)
N3 C3 C74 C61 177.0(3)
C6 C3 C74 C61 -7.0(6)
N1 C43 C74 C3 3.8(6)
C44 C43 C74 C3 -177.6(4)
N1 C43 C74 C61 -175.8(3)
C44 C43 C74 C61 2.7(6)
C138 C134 C137 C133 -2.7(5)
C138 C134 C137 C139 175.3(3)
C136 C133 C137 C134 1.9(5)
C136 C133 C137 C139 -176.1(3)
C113 C109 C111 C112 169.0(4)
N6 C109 C111 C112 -3.0(4)
C62 C60 C61 C64 -0.6(5)
C62 C60 C61 C74 179.8(3)
C3 C74 C61 C60 -54.5(5)
C43 C74 C61 C60 125.2(4)
C3 C74 C61 C64 125.9(4)
C43 C74 C61 C64 -54.4(5)
C6 C4 C11 C14 9.4(9)
C1 C4 C11 C14 -169.0(4)
C6 C4 C11 C12 -177.1(6)
C1 C4 C11 C12 4.5(4)
C118 C117 C119 C115 -0.1(5)
C118 C117 C119 C124 179.3(3)
C116 C115 C119 C117 -1.4(5)
C116 C115 C119 C124 179.2(3)
O1 P4 C24 C25 -170.0(3)
C30 P4 C24 C25 -49.2(4)
C36 P4 C24 C25 60.8(4)
O1 P4 C24 C27 8.4(4)
C30 P4 C24 C27 129.1(3)
C36 P4 C24 C27 -120.9(3)
C117 C118 C120 C116 0.8(5)
C125 C118 C120 C116 -179.3(3)
C117 C118 C120 C131 177.5(4)
C125 C118 C120 C131 -2.5(6)
C115 C116 C120 C118 -2.3(5)
C113 C116 C120 C118 176.6(3)
C115 C116 C120 C131 -179.9(3)
C113 C116 C120 C131 -1.0(4)
C130 C131 C120 C118 -5.2(9)
C114 C131 C120 C118 -177.0(4)
C130 C131 C120 C116 171.8(5)
C114 C131 C120 C116 0.0(4)
C46 C47 C48 C51 3.8(6)
C41 C47 C48 C51 -175.1(3)
C46 C47 C48 C45 -177.7(3)
C41 C47 C48 C45 3.3(4)
C1 C4 C6 C3 0.6(4)
C11 C4 C6 C3 -177.9(6)
C74 C3 C6 C4 -175.1(4)
N3 C3 C6 C4 1.4(4)
C13 C10 C12 C11 5.4(5)
C13 C10 C12 C8 -169.2(3)
C14 C11 C12 C10 -7.3(5)
C4 C11 C12 C10 178.1(3)
C14 C11 C12 C8 168.3(3)
C4 C11 C12 C8 -6.3(4)
N2 C2 C7 C9 0.8(4)
C36 C2 C7 C9 176.7(3)
C42 C41 C38 N4 -5.7(5)
C47 C41 C38 N4 -171.9(3)
C42 C41 C38 C37 165.0(4)
C47 C41 C38 C37 -1.2(7)
C40 N4 C38 C41 170.5(3)
Ni2 N4 C38 C41 -3.7(5)
C40 N4 C38 C37 -1.8(4)
Ni2 N4 C38 C37 -176.0(2)
C39 C37 C38 C41 -168.8(4)
C39 C37 C38 N4 2.7(4)
N8 C148 C132 C129 -1.2(5)
C147 C148 C132 C129 -174.7(3)
N8 C148 C132 C136 176.4(3)
C147 C148 C132 C136 2.8(5)
N7 C129 C132 C148 -7.5(5)
C130 C129 C132 C148 171.2(3)
N7 C129 C132 C136 175.0(3)
C130 C129 C132 C136 -6.4(5)
C133 C136 C132 C148 -51.4(5)
C135 C136 C132 C148 129.6(4)
C133 C136 C132 C129 126.2(4)
C135 C136 C132 C129 -52.8(5)
N1 C43 C44 C45 -2.3(4)
C74 C43 C44 C45 179.0(4)
C134 C137 C139 C142 -108.5(5)
C133 C137 C139 C142 69.4(5)
C134 C137 C139 C141 12.5(6)
C133 C137 C139 C141 -169.6(4)
C134 C137 C139 C140 132.5(4)
C133 C137 C139 C140 -49.6(5)
O1 P4 C30 C34 36.7(3)
C24 P4 C30 C34 -82.1(3)
C36 P4 C30 C34 163.3(3)
O1 P4 C30 C31 -149.1(3)
C24 P4 C30 C31 92.1(3)
C36 P4 C30 C31 -22.5(4)
C77 C93 C94 C95 -163.9(3)
N5 C93 C94 C95 4.9(4)
C38 C37 C39 C40 -2.4(4)
C120 C118 C125 C128 -176.8(3)
C117 C118 C125 C128 3.1(5)
C120 C118 C125 C126 -57.3(4)
C117 C118 C125 C126 122.6(3)
C120 C118 C125 C127 64.0(4)
C117 C118 C125 C127 -116.0(4)
C136 C135 C138 C134 1.1(5)
C136 C135 C138 C144 -178.4(3)
C137 C134 C138 C135 1.2(5)
C137 C134 C138 C144 -179.3(3)
N3 C1 C8 C5 -11.2(6)
C4 C1 C8 C5 165.7(3)
N3 C1 C8 C12 -179.8(4)
C4 C1 C8 C12 -2.9(4)
N2 C5 C8 C1 0.3(5)
C9 C5 C8 C1 -167.3(3)
N2 C5 C8 C12 165.3(3)
C9 C5 C8 C12 -2.2(6)
C10 C12 C8 C1 -179.2(4)
C11 C12 C8 C1 5.7(4)
C10 C12 C8 C5 14.1(6)
C11 C12 C8 C5 -160.9(4)
N5 C93 C77 C75 0.3(5)
C94 C93 C77 C75 168.0(3)
N5 C93 C77 C83 -164.7(3)
C94 C93 C77 C83 3.0(6)
N8 C75 C77 C93 11.1(6)
C80 C75 C77 C93 -163.9(3)
N8 C75 C77 C83 179.9(4)
C80 C75 C77 C83 4.8(4)
C38 N4 C40 C36 176.7(3)
Ni2 N4 C40 C36 -8.9(5)
C38 N4 C40 C39 0.3(4)
Ni2 N4 C40 C39 174.7(2)
C2 C36 C40 N4 -12.2(5)
P4 C36 C40 N4 164.5(3)
C2 C36 C40 C39 163.8(3)
P4 C36 C40 C39 -19.6(5)
C37 C39 C40 N4 1.4(4)
C37 C39 C40 C36 -175.1(3)
C109 C111 C112 C110 3.4(4)
N6 C110 C112 C111 -2.8(4)
C96 C110 C112 C111 174.6(4)
C93 C94 C95 C92 -2.6(4)
N5 C92 C95 C94 -0.6(4)
C96 C92 C95 C94 -177.5(3)
C61 C60 C62 C63 1.8(5)
C61 C60 C62 C71 -178.3(3)
C82 C78 C79 C81 1.8(6)
C88 C78 C79 C81 -177.3(4)
C47 C46 C49 C50 -2.2(5)
C47 C46 C49 C52 176.4(4)
C46 C49 C50 C51 2.8(6)
C52 C49 C50 C51 -175.8(4)
C60 C62 C63 C65 -0.7(6)
C71 C62 C63 C65 179.5(4)
C100 C98 C99 C102 1.4(6)
C99 C98 C100 C97 -1.5(6)
C101 C97 C100 C98 0.3(5)
P3 C97 C100 C98 179.5(3)
C148 C147 C80 C75 1.7(4)
C148 C147 C80 C76 -179.6(6)
N8 C75 C80 C147 0.7(4)
C77 C75 C80 C147 176.7(3)
N8 C75 C80 C76 -178.6(3)
C77 C75 C80 C76 -2.6(4)
C81 C76 C80 C147 0.1(9)
C83 C76 C80 C147 -179.6(6)
C81 C76 C80 C75 178.8(4)
C83 C76 C80 C75 -0.9(4)
C34 C30 C31 C33 -3.6(6)
P4 C30 C31 C33 -177.8(3)
C60 C61 C64 C65 -1.7(5)
C74 C61 C64 C65 177.8(3)
C27 C24 C25 C26 0.6(6)
P4 C24 C25 C26 178.9(3)
C47 C48 C51 C50 -3.2(6)
C45 C48 C51 C50 178.8(4)
C47 C48 C51 C56 176.7(4)
C45 C48 C51 C56 -1.3(7)
C49 C50 C51 C48 0.0(6)
C49 C50 C51 C56 -180.0(4)
C83 C76 C81 C79 -3.1(5)
C80 C76 C81 C79 177.2(4)
C83 C76 C81 C84 177.5(3)
C80 C76 C81 C84 -2.3(7)
C78 C79 C81 C76 0.1(6)
C78 C79 C81 C84 179.6(4)
C86 C84 C81 C76 64.0(5)
C87 C84 C81 C76 -177.2(4)
C85 C84 C81 C76 -57.5(5)
C86 C84 C81 C79 -115.4(4)
C87 C84 C81 C79 3.3(5)
C85 C84 C81 C79 123.0(4)
C12 C10 C13 C15 -1.2(5)
C12 C10 C13 C16 176.0(3)
C12 C11 C14 C15 4.8(5)
C4 C11 C14 C15 177.6(4)
C12 C11 C14 C20 -171.1(3)
C4 C11 C14 C20 1.7(6)
C23 C20 C14 C11 176.5(3)
C21 C20 C14 C11 57.0(4)
C22 C20 C14 C11 -63.7(4)
C23 C20 C14 C15 0.7(5)
C21 C20 C14 C15 -118.8(4)
C22 C20 C14 C15 120.6(4)
C2 C7 C9 C5 2.2(4)
C8 C5 C9 C7 164.2(4)
N2 C5 C9 C7 -4.5(4)
C10 C13 C15 C14 -1.2(5)
C16 C13 C15 C14 -178.4(3)
C11 C14 C15 C13 -0.7(5)
C20 C14 C15 C13 175.3(3)
C61 C64 C65 C63 2.7(5)
C61 C64 C65 C66 -175.8(3)
C62 C63 C65 C64 -1.5(6)
C62 C63 C65 C66 177.0(4)
C69 C66 C65 C64 -60.7(5)
C68 C66 C65 C64 177.9(4)
C67 C66 C65 C64 59.4(5)
C69 C66 C65 C63 120.9(4)
C68 C66 C65 C63 -0.5(6)
C67 C66 C65 C63 -119.0(4)
C15 C13 C16 C17 159.8(4)
C10 C13 C16 C17 -17.2(5)
C15 C13 C16 C18 -80.6(5)
C10 C13 C16 C18 102.4(5)
C15 C13 C16 C19 40.7(6)
C10 C13 C16 C19 -136.2(5)
C24 C25 C26 C28 0.4(6)
C106 C103 C104 C105 -2.3(6)
C106 C103 C104 P3 170.4(3)
O2 P3 C104 C105 -26.5(4)
C97 P3 C104 C105 92.7(3)
C96 P3 C104 C105 -151.6(3)
O2 P3 C104 C103 160.7(3)
C97 P3 C104 C103 -80.1(3)
C96 P3 C104 C103 35.6(4)
C135 C138 C144 C143 -1.5(5)
C134 C138 C144 C143 179.0(4)
C135 C138 C144 C146 -121.0(4)
C134 C138 C144 C146 59.5(5)
C135 C138 C144 C145 119.2(4)
C134 C138 C144 C145 -60.3(5)
C79 C78 C82 C83 -0.6(6)
C88 C78 C82 C83 178.5(3)
C79 C78 C88 C175 76.1(17)
C82 C78 C88 C175 -103.0(17)
C79 C78 C88 C91 -128.4(5)
C82 C78 C88 C91 52.5(6)
C79 C78 C88 C174 -57.8(13)
C82 C78 C88 C174 123.2(13)
C79 C78 C88 C89 109.4(5)
C82 C78 C88 C89 -69.6(5)
C79 C78 C88 C90 -7.1(6)
C82 C78 C88 C90 173.8(4)
C79 C78 C88 C173 -168.2(8)
C82 C78 C88 C173 12.7(9)
C78 C82 C83 C76 -2.3(6)
C78 C82 C83 C77 178.0(4)
C81 C76 C83 C82 4.3(5)
C80 C76 C83 C82 -175.9(3)
C81 C76 C83 C77 -176.0(3)
C80 C76 C83 C77 3.8(4)
C93 C77 C83 C82 -18.9(7)
C75 C77 C83 C82 174.4(4)
C93 C77 C83 C76 161.5(4)
C75 C77 C83 C76 -5.2(4)
C50 C49 C52 C54 -8.0(6)
C46 C49 C52 C54 173.4(4)
C50 C49 C52 C55 115.2(5)
C46 C49 C52 C55 -63.4(5)
C50 C49 C52 C53 -127.5(5)
C46 C49 C52 C53 53.9(5)
C100 C97 C101 C102 1.1(6)
P3 C97 C101 C102 -178.2(3)
C43 C44 C45 C42 1.3(4)
C43 C44 C45 C48 173.5(6)
N1 C42 C45 C44 0.1(4)
C41 C42 C45 C44 171.3(3)
N1 C42 C45 C48 -175.6(3)
C41 C42 C45 C48 -4.4(4)
C51 C48 C45 C44 6.5(10)
C47 C48 C45 C44 -171.7(6)
C51 C48 C45 C42 178.6(4)
C47 C48 C45 C42 0.4(4)
C48 C51 C56 C58 61.7(5)
C50 C51 C56 C58 -118.3(4)
C48 C51 C56 C59 -178.9(5)
C50 C51 C56 C59 1.1(7)
C48 C51 C56 C57 -60.2(6)
C50 C51 C56 C57 119.7(4)
C35 C32 C33 C31 1.5(6)
C30 C31 C33 C32 1.9(6)
C31 C30 C34 C35 1.9(6)
P4 C30 C34 C35 176.5(3)
C25 C24 C27 C29 -0.5(6)
P4 C24 C27 C29 -178.9(4)
C97 C101 C102 C99 -1.2(7)
C98 C99 C102 C101 -0.1(7)
C117 C119 C124 C122 121.6(4)
C115 C119 C124 C122 -59.0(4)
C117 C119 C124 C123 2.7(5)
C115 C119 C124 C123 -178.0(4)
C117 C119 C124 C121 -118.8(4)
C115 C119 C124 C121 60.6(4)
C103 C104 C105 C107 1.1(6)
P3 C104 C105 C107 -171.9(3)
C25 C26 C28 C29 -1.6(7)
C30 C34 C35 C32 1.4(6)
C33 C32 C35 C34 -3.1(6)
C60 C62 C71 C72 179.5(4)
C63 C62 C71 C72 -0.6(6)
C60 C62 C71 C70 57.2(5)
C63 C62 C71 C70 -123.0(4)
C60 C62 C71 C73 -61.0(5)
C63 C62 C71 C73 118.8(4)
C26 C28 C29 C27 1.7(8)
C24 C27 C29 C28 -0.7(7)
C104 C103 C106 C108 2.2(7)
C104 C105 C107 C108 0.3(7)
C105 C107 C108 C106 -0.4(8)
C103 C106 C108 C107 -0.8(7)
C153 C149 C150 C152 2.9(9)
C149 C150 C152 C154 -1.3(9)
C154 C151 C153 C149 -0.3(8)
C155 C151 C153 C149 -178.7(5)
C150 C149 C153 C151 -2.1(8)
C150 C152 C154 C151 -1.1(8)
C153 C151 C154 C152 1.9(8)
C155 C151 C154 C152 -179.7(5)
C160 C156 C157 C159 -0.6(12)
C158 C156 C157 C159 -172.8(9)
C156 C157 C159 C162 0.6(17)
C157 C156 C160 C161 7.2(17)
C158 C156 C160 C161 178.5(13)
C156 C160 C161 C162 -13(2)
C160 C161 C162 C159 10.7(19)
C157 C159 C162 C161 -5.5(18)
