#------------------------------------------------------------------------------
#$Date: 2017-05-06 00:41:24 +0300 (Sat, 06 May 2017) $
#$Revision: 196316 $
#$URL: file:///home/coder/svn-repositories/cod/cif/1/54/40/1544031.cif $
#------------------------------------------------------------------------------
#
# This file is available in the Crystallography Open Database (COD),
# http://www.crystallography.net/
#
# All data on this site have been placed in the public domain by the
# contributors.
#
data_1544031
loop_
_publ_author_name
'Wang, Yingxia'
'Cui, Hao'
'Wei, Zhang-Wen'
'Wang, Hai-Ping'
'Zhang, Li'
'Su, Cheng-Yong'
_publ_section_title
;
 Engineering catalytic coordination space in a chemically stable
 Ir-porphyrin MOF with a confinement effect inverting conventional Si-H
 insertion chemoselectivity.
;
_journal_issue                   1
_journal_name_full               'Chemical science'
_journal_page_first              775
_journal_page_last               780
_journal_paper_doi               10.1039/c6sc03288e
_journal_volume                  8
_journal_year                    2017
_chemical_formula_sum            'C144 H72 Cl3 Hf12 Ir3 N12 O64'
_chemical_formula_weight         5818.96
_space_group_crystal_system      cubic
_space_group_IT_number           229
_space_group_name_Hall           '-I 4 2 3'
_space_group_name_H-M_alt        'I m -3 m'
_symmetry_space_group_name_Hall  '-I 4 2 3'
_symmetry_space_group_name_H-M   'I m -3 m'
_atom_sites_solution_hydrogens   geom
_audit_creation_method           SHELXL-2014/7
_audit_update_record
;
2016-07-07 deposited with the CCDC.
2016-09-01 downloaded from the CCDC.
;
_cell_angle_alpha                90
_cell_angle_beta                 90
_cell_angle_gamma                90
_cell_formula_units_Z            4
_cell_length_a                   38.3207(2)
_cell_length_b                   38.3207(2)
_cell_length_c                   38.32070(2)
_cell_measurement_reflns_used    11933
_cell_measurement_temperature    173(2)
_cell_measurement_theta_max      64.7640
_cell_measurement_theta_min      3.4310
_cell_volume                     56273.0(4)
_computing_cell_refinement       'CrysAlisPro 1.171.38.41 (Rigaku OD, 2015)'
_computing_data_collection       'CrysAlisPro 1.171.38.41 (Rigaku OD, 2015)'
_computing_data_reduction        'CrysAlisPro 1.171.38.41 (Rigaku OD, 2015)'
_computing_structure_refinement  'SHELXL-2014/7 (Sheldrick, 2014)'
_diffrn_ambient_temperature      173(2)
_diffrn_measured_fraction_theta_full 0.977
_diffrn_measured_fraction_theta_max 0.977
_diffrn_measurement_device_type  'SuperNova, Dual, Cu at zero, Atlas'
_diffrn_radiation_type           CuK\a
_diffrn_radiation_wavelength     1.54184
_diffrn_reflns_av_R_equivalents  0.0398
_diffrn_reflns_av_unetI/netI     0.0273
_diffrn_reflns_Laue_measured_fraction_full 0.977
_diffrn_reflns_Laue_measured_fraction_max 0.977
_diffrn_reflns_limit_h_max       29
_diffrn_reflns_limit_h_min       -26
_diffrn_reflns_limit_k_max       39
_diffrn_reflns_limit_k_min       -31
_diffrn_reflns_limit_l_max       24
_diffrn_reflns_limit_l_min       -44
_diffrn_reflns_number            18019
_diffrn_reflns_point_group_measured_fraction_full 0.977
_diffrn_reflns_point_group_measured_fraction_max 0.977
_diffrn_reflns_theta_full        64.772
_diffrn_reflns_theta_max         64.772
_diffrn_reflns_theta_min         3.647
_diffrn_source                   'micro-focus sealed X-ray tube'
_exptl_absorpt_coefficient_mu    5.633
_exptl_absorpt_correction_T_max  1.00000
_exptl_absorpt_correction_T_min  0.58601
_exptl_absorpt_correction_type   multi-scan
_exptl_absorpt_process_details
;
CrysAlisPro 1.171.38.41 (Rigaku Oxford Diffraction, 2015)
Empirical absorption correction using spherical harmonics,
 implemented in SCALE3 ABSPACK scaling algorithm.
;
_exptl_crystal_colour            Red
_exptl_crystal_density_diffrn    0.687
_exptl_crystal_description       Block
_exptl_crystal_F_000             10712
_exptl_crystal_size_max          0.100
_exptl_crystal_size_mid          0.100
_exptl_crystal_size_min          0.100
_refine_diff_density_max         1.485
_refine_diff_density_min         -5.540
_refine_diff_density_rms         0.184
_refine_ls_extinction_method     none
_refine_ls_goodness_of_fit_ref   1.017
_refine_ls_hydrogen_treatment    constr
_refine_ls_matrix_type           full
_refine_ls_number_parameters     102
_refine_ls_number_reflns         4361
_refine_ls_number_restraints     97
_refine_ls_restrained_S_all      1.099
_refine_ls_R_factor_all          0.1011
_refine_ls_R_factor_gt           0.0991
_refine_ls_shift/su_max          0.001
_refine_ls_shift/su_mean         0.000
_refine_ls_structure_factor_coef Fsqd
_refine_ls_weighting_details
'w=1/[\s^2^(Fo^2^)+(0.0912P)^2^+1988.9337P] where P=(Fo^2^+2Fc^2^)/3'
_refine_ls_weighting_scheme      calc
_refine_ls_wR_factor_gt          0.2464
_refine_ls_wR_factor_ref         0.2476
_reflns_Friedel_coverage         0.000
_reflns_number_gt                4146
_reflns_number_total             4361
_reflns_threshold_expression     'I > 2\s(I)'
_cod_data_source_file            c6sc03288e2.cif
_cod_data_source_block           shelx
_cod_depositor_comments
;Adding full bibliography for 1544031.cif.

 Adding full bibliography for 1544031.cif.
;
_cod_original_cell_volume        56273.0(9)
_cod_database_code               1544031
_shelx_shelxl_version_number     2014/7
_shelx_space_group_comment
;
The symmetry employed for this shelxl refinement is uniquely defined
by the following loop, which should always be used as a source of
symmetry information in preference to the above space-group names.
They are only intended as comments.
;
_shelx_estimated_absorpt_t_min   0.603
_shelx_estimated_absorpt_t_max   0.603
_exptl_absorpt_special_details
;
Empirical correction (ABSPACK) includes:
- Absorption correction using spherical harmonics
- Frame scaling
- Detector area scaling
;
_shelx_res_file
;

    shelx.res created by SHELXL-2014/7


TITL 1 in Im-3m #229
CELL 1.54184 38.3207 38.3207 38.3207 90 90 90
ZERR 4 0.0002 0.0002 0.00002 0 0 0
LATT 2
SYMM -Y,+X,+Z
SYMM -X,-Y,+Z
SYMM +Y,-X,+Z
SYMM +X,-Z,+Y
SYMM +X,-Y,-Z
SYMM +X,+Z,-Y
SYMM +Z,+Y,-X
SYMM -X,+Y,-Z
SYMM -Z,+Y,+X
SYMM +Z,+X,+Y
SYMM +Y,+Z,+X
SYMM -Y,-Z,+X
SYMM +Z,-X,-Y
SYMM -Y,+Z,-X
SYMM -Z,-X,+Y
SYMM -Z,+X,-Y
SYMM +Y,-Z,-X
SYMM +Y,+X,-Z
SYMM -Y,-X,-Z
SYMM -X,+Z,+Y
SYMM -X,-Z,-Y
SYMM +Z,-Y,+X
SYMM -Z,-Y,-X

SFAC C H Cl Hf Ir N O
UNIT 576 288 12 48 12 48 256
DFIX 2.376 Hf1 O4 Hf1 O3 Hf1 O1 Hf1 O2
FLAT C3 C4 C2 C1 N1 Ir1
ISOR 0.01 0.05 IR1 CL1
ISOR 0.01 0.05 C5 C7 C4 C3 C1 C2 N1 C8 O2
ISOR 0.01 0.05 O1 O3 O4 C6

L.S. 50 0  126
PLAN  20
TEMP -100
SIZE 0.1 0.1 0.1
BOND $H
fmap 2
acta

ABIN
ACTA
WGHT    0.091200 1988.933716
FVAR       0.02643
HF1   4    0.271439    0.207208    0.207208    10.50000    0.08054    0.08011 =
         0.08011    0.04949    0.05887    0.05887
IR1   5    0.500000    0.250000    0.000000    10.12500    0.04717    0.28800 =
         0.04717    0.00000    0.00000    0.00000
CL1   3    0.500000    0.314344    0.000000    10.12500    0.36951    0.19660 =
         0.27840    0.00000    0.00000    0.00000
O1    7    0.315460    0.222434    0.172137    11.00000    0.07412    0.09905 =
         0.08598    0.01610    0.03873    0.02555
O2    7    0.305627    0.242211    0.242211    10.50000    0.14298    0.09141 =
         0.09141    0.02681    0.01147    0.01147
O3    7    0.249625    0.195718    0.152760    11.00000    0.15039    0.24865 =
         0.11018    0.02538    0.09262    0.03215
O4    7    0.214370    0.214370    0.214370    10.16667    0.06089    0.06089 =
         0.06089    0.01849    0.01849    0.01849
N1    6    0.500000    0.247933    0.052189    10.50000    0.05408    0.11067 =
         0.01357    0.00533    0.00000    0.00000
C1    1    0.471247    0.246806    0.072418    11.00000    0.04105    0.13230 =
         0.03404    0.00640    0.01572    0.00343
C2    1    0.481441    0.244284    0.108737    11.00000    0.07336    0.14301 =
         0.05541    0.00986    0.02061   -0.00140
AFIX  43
H2    2    0.466461    0.242917    0.128442    11.00000   -1.20000
AFIX   0
C3    1    0.437277    0.250000    0.062723    10.50000    0.03948    0.09746 =
         0.03948    0.00581    0.00683    0.00581
C4    1    0.409252    0.250000    0.090748    10.50000    0.07424    0.10721 =
         0.07424    0.00508    0.01144    0.00508
C5    1    0.402829    0.279052    0.108752    11.00000    0.10519    0.11945 =
         0.09640    0.00467    0.03571   -0.01183
AFIX  43
H5    2    0.416299    0.299419    0.104475    11.00000   -1.20000
AFIX   0
C6    1    0.376381    0.279756    0.133907    11.00000    0.08579    0.10662 =
         0.07883   -0.00083    0.03264    0.00144
AFIX  43
H6    2    0.370868    0.300862    0.145685    11.00000   -1.20000
AFIX   0
C7    1    0.358683    0.250000    0.141317    10.50000    0.06650    0.09208 =
         0.06650    0.00776    0.02529    0.00776
C8    1    0.330251    0.250000    0.169749    10.50000    0.07732    0.09411 =
         0.07732    0.00885    0.01762    0.00885

HKLF 4

REM  1 in Im-3m #229
REM R1 =  0.0991 for    4146 Fo > 4sig(Fo)  and  0.1011 for all    4361 data
REM    102 parameters refined using     97 restraints

END

WGHT      0.1571   1199.8071

REM Highest difference peak  1.485,  deepest hole -5.540,  1-sigma level  0.184
Q1    1   0.5000  0.2465  0.0331  10.50000  0.05    1.48
Q2    1   0.5000  0.2302  0.0379  10.50000  0.05    1.39
Q3    1   0.5000  0.2572  0.0391  10.50000  0.05    1.35
Q4    1   0.5000  0.2661  0.0420  10.50000  0.05    1.31
Q5    1   0.2850  0.2311  0.2311  10.50000  0.05    1.30
Q6    1   0.2883  0.2088  0.2088  10.50000  0.05    1.27
Q7    1   0.2795  0.2189  0.2118  11.00000  0.05    1.22
Q8    1   0.5000  0.2700  0.0502  10.50000  0.05    1.13
Q9    1   0.2659  0.1971  0.1971  10.50000  0.05    1.03
Q10   1   0.2699  0.2064  0.1827  11.00000  0.05    0.97
Q11   1   0.2310  0.2310  0.1496  10.50000  0.05    0.96
Q12   1   0.5000  0.3046  0.0000  10.25000  0.05    0.92
Q13   1   0.2231  0.2231  0.2231  10.16667  0.05    0.89
Q14   1   0.2308  0.2308  0.1384  10.50000  0.05    0.89
Q15   1   0.2297  0.2460  0.2297  10.50000  0.05    0.89
Q16   1   0.5000  0.2271  0.0474  10.50000  0.05    0.81
Q17   1   0.4362  0.2219  0.0609  11.00000  0.05    0.75
Q18   1   0.3211  0.2454  0.2454  10.50000  0.05    0.72
Q19   1   0.3093  0.2097  0.1782  11.00000  0.05    0.72
Q20   1   0.2500  0.2500  0.2500  10.08333  0.05    0.71
;
_shelx_res_checksum              6010
_shelx_fab_file
;
    2    2    2   1709.84      0.00
    0    1    3     48.49      0.00
    1    2    3    -41.91      0.00
    2    3    3   -326.53      0.00
    0    0    4   -659.88      0.00
    1    1    4    562.47      0.00
    0    2    4   -350.54      0.00
    2    2    4   -417.99      0.00
    1    3    4     44.76      0.00
    3    3    4      9.89      0.00
    2    4    4    351.99      0.00
    4    4    4   -120.72      0.00
    0    1    5    -85.81      0.00
    1    2    5     83.18      0.00
    2    3    5    -63.87      0.00
    0    3    5     -2.31      0.00
    3    4    5    120.53      0.00
    1    4    5   -164.59      0.00
    2    5    5   -119.49      0.00
    4    5    5     -3.23      0.00
    0    0    6    120.17      0.00
    1    1    6   -275.00      0.00
    0    2    6    211.03      0.00
    2    2    6    -36.23      0.00
    1    3    6    -91.08      0.00
    3    3    6    134.49      0.00
    2    4    6    -30.14      0.00
    0    4    6   -171.65      0.00
    4    4    6     13.77      0.00
    3    5    6     80.49      0.00
    1    5    6   -115.01      0.00
    5    5    6    112.46      0.00
    2    6    6     57.00      0.00
    4    6    6     29.39      0.00
    6    6    6    -88.55      0.00
    0    1    7    169.81      0.00
    1    2    7   -171.05      0.00
    2    3    7      1.43      0.00
    0    3    7     13.56      0.00
    3    4    7     21.49      0.00
    1    4    7    150.59      0.00
    4    5    7    -85.51      0.00
    2    5    7     -4.31      0.00
    0    5    7    -50.54      0.00
    5    6    7     19.25      0.00
    3    6    7     -3.17      0.00
    1    6    7    -21.39      0.00
    2    7    7    -73.75      0.00
    4    7    7     44.02      0.00
    6    7    7    -15.98      0.00
    0    0    8     47.19      0.00
    1    1    8   -114.95      0.00
    0    2    8    -17.01      0.00
    2    2    8    137.35      0.00
    1    3    8    133.03      0.00
    3    3    8    -33.08      0.00
    2    4    8     35.43      0.00
    0    4    8   -361.31      0.00
    4    4    8    258.03      0.00
    3    5    8      7.15      0.00
    1    5    8    161.90      0.00
    5    5    8    -25.32      0.00
    4    6    8     65.11      0.00
    2    6    8      8.90      0.00
    0    6    8   -162.49      0.00
    6    6    8    -16.41      0.00
    5    7    8     -0.90      0.00
    3    7    8     34.42      0.00
    1    7    8    -18.51      0.00
    7    7    8     41.51      0.00
    2    8    8     78.18      0.00
    4    8    8     51.93      0.00
    6    8    8    -19.58      0.00
    8    8    8     65.31      0.00
    0    1    9    128.23      0.00
    1    2    9      4.25      0.00
    2    3    9    -37.14      0.00
    0    3    9     26.44      0.00
    3    4    9     52.56      0.00
    1    4    9    -56.83      0.00
    4    5    9     13.13      0.00
    2    5    9      9.00      0.00
    0    5    9     -7.48      0.00
    5    6    9    -73.96      0.00
    3    6    9     17.94      0.00
    1    6    9     82.81      0.00
    6    7    9    -30.00      0.00
    4    7    9     24.15      0.00
    2    7    9    -25.33      0.00
    0    7    9      4.80      0.00
    7    8    9     21.87      0.00
    5    8    9     13.73      0.00
    3    8    9    -29.05      0.00
    1    8    9    -23.07      0.00
    0    9    9     74.90      0.00
    2    9    9     21.17      0.00
    4    9    9    -45.44      0.00
    6    9    9     26.27      0.00
    8    9    9     -6.03      0.00
    0    0   10    191.44      0.00
    1    1   10     70.94      0.00
    0    2   10   -141.82      0.00
    2    2   10   -360.39      0.00
    1    3   10     20.33      0.00
    3    3   10     63.43      0.00
    2    4   10    -44.55      0.00
    0    4   10     51.95      0.00
    4    4   10    148.88      0.00
    3    5   10    -25.63      0.00
    1    5   10    -33.55      0.00
    5    5   10    -38.67      0.00
    4    6   10    -38.90      0.00
    2    6   10     75.92      0.00
    0    6   10    -16.96      0.00
    6    6   10     -4.34      0.00
    5    7   10     -2.17      0.00
    3    7   10     -0.71      0.00
    1    7   10     18.73      0.00
    7    7   10    -12.98      0.00
    6    8   10     34.48      0.00
    4    8   10     20.48      0.00
    2    8   10    -19.07      0.00
    0    8   10     26.19      0.00
    8    8   10    -55.11      0.00
    7    9   10     -9.65      0.00
    5    9   10     -6.05      0.00
    3    9   10      5.00      0.00
    1    9   10    -35.56      0.00
    9    9   10      6.85      0.00
    0   10   10     28.03      0.00
    2   10   10     74.12      0.00
    4   10   10    -20.71      0.00
    6   10   10     58.20      0.00
    8   10   10     32.00      0.00
    0    1   11     13.88      0.00
    1    2   11     -8.18      0.00
    2    3   11    -19.21      0.00
    0    3   11     27.22      0.00
    3    4   11    -33.26      0.00
    1    4   11     58.13      0.00
    4    5   11   -120.62      0.00
    2    5   11    -18.69      0.00
    0    5   11     19.15      0.00
    5    6   11     -3.18      0.00
    3    6   11     -7.38      0.00
    1    6   11    -57.02      0.00
    6    7   11     32.30      0.00
    4    7   11    -46.63      0.00
    2    7   11     34.95      0.00
    0    7   11     -0.26      0.00
    7    8   11      8.94      0.00
    5    8   11      8.51      0.00
    3    8   11     34.59      0.00
    1    8   11     23.23      0.00
    8    9   11    -20.78      0.00
    6    9   11     17.02      0.00
    4    9   11     60.61      0.00
    2    9   11    -27.29      0.00
    0    9   11    -19.64      0.00
    9   10   11    -13.85      0.00
    7   10   11     15.21      0.00
    5   10   11    -26.40      0.00
    3   10   11    -12.96      0.00
    1   10   11    -22.56      0.00
    0   11   11     73.70      0.00
    2   11   11     14.95      0.00
    4   11   11    -49.95      0.00
    6   11   11    -33.47      0.00
    8   11   11     50.64      0.00
    0    0   12   -148.14      0.00
    1    1   12      4.04      0.00
    0    2   12     68.71      0.00
    2    2   12     30.14      0.00
    1    3   12    -19.90      0.00
    3    3   12     10.82      0.00
    2    4   12     23.11      0.00
    0    4   12     -9.91      0.00
    4    4   12    -60.40      0.00
    3    5   12     11.64      0.00
    1    5   12      2.91      0.00
    5    5   12    -12.92      0.00
    4    6   12     13.02      0.00
    2    6   12      5.28      0.00
    0    6   12     37.51      0.00
    6    6   12      2.61      0.00
    5    7   12     21.65      0.00
    3    7   12     20.68      0.00
    1    7   12     12.00      0.00
    7    7   12     37.94      0.00
    6    8   12      5.03      0.00
    4    8   12     -1.86      0.00
    2    8   12    -12.88      0.00
    0    8   12    -34.19      0.00
    8    8   12    -12.92      0.00
    7    9   12     11.17      0.00
    5    9   12     -2.23      0.00
    3    9   12     22.53      0.00
    1    9   12     38.77      0.00
    9    9   12    -16.61      0.00
    8   10   12    -32.06      0.00
    6   10   12     11.41      0.00
    4   10   12     -9.29      0.00
    2   10   12    -17.28      0.00
    0   10   12     -4.66      0.00
    9   11   12     35.38      0.00
    7   11   12    -18.95      0.00
    5   11   12     37.94      0.00
    3   11   12      1.40      0.00
    1   11   12      7.13      0.00
    0   12   12     70.57      0.00
    2   12   12    -20.11      0.00
    4   12   12    -23.01      0.00
    6   12   12     -3.77      0.00
    8   12   12     11.91      0.00
    0    1   13     47.45      0.00
    1    2   13    -19.62      0.00
    2    3   13    -36.96      0.00
    0    3   13     20.01      0.00
    3    4   13     54.30      0.00
    1    4   13    -47.43      0.00
    4    5   13     -3.06      0.00
    2    5   13    -11.18      0.00
    0    5   13     52.62      0.00
    5    6   13    -37.06      0.00
    3    6   13     19.21      0.00
    1    6   13     18.41      0.00
    6    7   13     23.25      0.00
    4    7   13      4.70      0.00
    2    7   13    -11.79      0.00
    0    7   13     15.41      0.00
    7    8   13     -9.45      0.00
    5    8   13    -25.77      0.00
    3    8   13    -38.97      0.00
    1    8   13    -10.15      0.00
    8    9   13     28.82      0.00
    6    9   13    -24.31      0.00
    4    9   13     -8.89      0.00
    2    9   13    -12.52      0.00
    0    9   13      1.24      0.00
    9   10   13    -34.18      0.00
    7   10   13    -12.27      0.00
    5   10   13    -16.76      0.00
    3   10   13      8.54      0.00
    1   10   13     18.90      0.00
    8   11   13     -1.65      0.00
    6   11   13     20.99      0.00
    4   11   13     14.48      0.00
    2   11   13     -1.71      0.00
    0   11   13    -39.37      0.00
   10   11   13     -7.28      0.00
    9   12   13    -18.02      0.00
    7   12   13     -1.84      0.00
    5   12   13      5.52      0.00
    3   12   13      3.93      0.00
    1   12   13    -34.47      0.00
    0   13   13     33.52      0.00
    2   13   13     -4.41      0.00
    4   13   13      6.75      0.00
    6   13   13     15.62      0.00
    8   13   13     28.34      0.00
    0    0   14     59.27      0.00
    1    1   14     -9.11      0.00
    0    2   14     19.83      0.00
    2    2   14      5.08      0.00
    1    3   14    -36.36      0.00
    3    3   14    -41.62      0.00
    2    4   14     81.72      0.00
    0    4   14    -14.38      0.00
    4    4   14    -36.14      0.00
    3    5   14      2.39      0.00
    1    5   14     42.27      0.00
    5    5   14    -22.04      0.00
    4    6   14     11.60      0.00
    2    6   14    -78.59      0.00
    0    6   14    -18.68      0.00
    6    6   14    -21.73      0.00
    5    7   14     -9.57      0.00
    3    7   14     -1.59      0.00
    1    7   14    -12.49      0.00
    7    7   14      3.39      0.00
    6    8   14    -31.02      0.00
    4    8   14     -5.41      0.00
    2    8   14     -3.44      0.00
    0    8   14     44.52      0.00
    8    8   14    -14.51      0.00
    7    9   14     -2.25      0.00
    5    9   14      8.06      0.00
    3    9   14    -24.18      0.00
    1    9   14    -31.04      0.00
    9    9   14     -3.22      0.00
    8   10   14    -66.02      0.00
    6   10   14     -4.01      0.00
    4   10   14      4.22      0.00
    2   10   14     -6.16      0.00
    0   10   14     24.96      0.00
   10   10   14    -13.83      0.00
    9   11   14    -15.28      0.00
    7   11   14    -18.88      0.00
    5   11   14      1.40      0.00
    3   11   14     -6.35      0.00
    1   11   14     15.84      0.00
    8   12   14    -45.11      0.00
    6   12   14      5.47      0.00
    4   12   14     -4.33      0.00
    2   12   14      5.12      0.00
    0   12   14    -33.78      0.00
   10   12   14     32.92      0.00
   11   13   14    -20.37      0.00
    9   13   14     18.42      0.00
    7   13   14     12.24      0.00
    5   13   14    -21.15      0.00
    3   13   14     15.14      0.00
    1   13   14    -14.08      0.00
   13   13   14     31.54      0.00
    0   14   14     36.00      0.00
    2   14   14     14.05      0.00
    4   14   14    -14.32      0.00
    6   14   14     20.74      0.00
    8   14   14     25.17      0.00
   10   14   14     17.85      0.00
   12   14   14     61.52      0.00
    0    1   15     23.24      0.00
    1    2   15    -19.01      0.00
    2    3   15    -16.07      0.00
    0    3   15      8.06      0.00
    3    4   15      6.37      0.00
    1    4   15    -59.98      0.00
    4    5   15    -25.21      0.00
    2    5   15     55.16      0.00
    0    5   15    -76.62      0.00
    5    6   15     13.86      0.00
    3    6   15     -2.79      0.00
    1    6   15    -40.46      0.00
    6    7   15    -21.33      0.00
    4    7   15     33.44      0.00
    2    7   15    -36.37      0.00
    0    7   15     54.38      0.00
    7    8   15     -4.46      0.00
    5    8   15    -34.38      0.00
    3    8   15    -11.01      0.00
    1    8   15     19.98      0.00
    8    9   15     12.46      0.00
    6    9   15    -41.04      0.00
    4    9   15     41.13      0.00
    2    9   15     50.67      0.00
    0    9   15    -10.45      0.00
    9   10   15    -25.77      0.00
    7   10   15     34.95      0.00
    5   10   15    -24.60      0.00
    3   10   15     11.89      0.00
    1   10   15    -48.63      0.00
    8   11   15     28.49      0.00
    6   11   15      6.67      0.00
    4   11   15      7.66      0.00
    2   11   15      8.68      0.00
    0   11   15     22.46      0.00
   10   11   15      3.37      0.00
   11   12   15      3.02      0.00
    9   12   15    -41.71      0.00
    7   12   15      7.82      0.00
    5   12   15     11.69      0.00
    3   12   15    -19.37      0.00
    1   12   15     20.41      0.00
   12   13   15     -4.25      0.00
   10   13   15      6.85      0.00
    8   13   15     11.24      0.00
    6   13   15     14.46      0.00
    4   13   15      1.74      0.00
    2   13   15     -7.59      0.00
    0   13   15    -22.09      0.00
   13   14   15    -40.77      0.00
   11   14   15     17.54      0.00
    9   14   15    -17.43      0.00
    7   14   15      8.08      0.00
    5   14   15     -1.38      0.00
    3   14   15    -28.30      0.00
    1   14   15     11.53      0.00
    0   15   15    -11.74      0.00
    2   15   15      9.78      0.00
    4   15   15     25.10      0.00
    6   15   15      2.49      0.00
    8   15   15     31.28      0.00
   10   15   15    -28.19      0.00
   12   15   15     66.19      0.00
    0    0   16    261.86      0.00
    1    1   16      6.21      0.00
    0    2   16     48.16      0.00
    2    2   16    -53.32      0.00
    1    3   16      2.66      0.00
    3    3   16     54.99      0.00
    2    4   16    -33.78      0.00
    0    4   16     80.85      0.00
    4    4   16     50.33      0.00
    3    5   16    -15.26      0.00
    1    5   16    -18.12      0.00
    5    5   16      1.65      0.00
    4    6   16     12.03      0.00
    2    6   16    -19.41      0.00
    0    6   16     51.19      0.00
    6    6   16      0.75      0.00
    5    7   16    -22.38      0.00
    3    7   16     40.96      0.00
    1    7   16      3.71      0.00
    7    7   16      1.81      0.00
    6    8   16    -10.84      0.00
    4    8   16    -24.13      0.00
    2    8   16    -13.53      0.00
    0    8   16    -74.46      0.00
    8    8   16     29.43      0.00
    7    9   16    -17.81      0.00
    5    9   16    -37.23      0.00
    3    9   16    -10.80      0.00
    1    9   16    -21.63      0.00
    9    9   16     21.09      0.00
    8   10   16     -5.48      0.00
    6   10   16     24.15      0.00
    4   10   16     10.26      0.00
    2   10   16     30.15      0.00
    0   10   16     41.02      0.00
   10   10   16     19.36      0.00
    9   11   16     -4.96      0.00
    7   11   16     24.01      0.00
    5   11   16    -19.57      0.00
    3   11   16    -21.96      0.00
    1   11   16    -34.77      0.00
   11   11   16     14.86      0.00
   10   12   16    -18.96      0.00
    8   12   16     12.47      0.00
    6   12   16      7.77      0.00
    4   12   16    -22.13      0.00
    2   12   16     -8.07      0.00
    0   12   16    -20.29      0.00
   12   12   16      0.40      0.00
   11   13   16     -1.18      0.00
    9   13   16     -3.30      0.00
    7   13   16     -0.04      0.00
    5   13   16      4.87      0.00
    3   13   16     10.46      0.00
    1   13   16     14.08      0.00
   13   13   16    -34.97      0.00
   12   14   16    -33.17      0.00
   10   14   16      5.92      0.00
    8   14   16      3.17      0.00
    6   14   16     -4.79      0.00
    4   14   16     19.19      0.00
    2   14   16    -18.06      0.00
    0   14   16     20.85      0.00
   14   14   16     23.05      0.00
   13   15   16     64.97      0.00
   11   15   16     45.33      0.00
    9   15   16     32.20      0.00
    7   15   16    -16.19      0.00
    5   15   16     21.50      0.00
    3   15   16     24.30      0.00
    1   15   16    -24.58      0.00
    0   16   16     29.25      0.00
    2   16   16     23.96      0.00
    4   16   16    -26.22      0.00
    6   16   16     -1.27      0.00
    8   16   16      7.39      0.00
   10   16   16     14.17      0.00
   12   16   16    -28.98      0.00
    0    1   17    -18.66      0.00
    1    2   17     -1.84      0.00
    2    3   17    -53.37      0.00
    0    3   17     78.71      0.00
    3    4   17     31.02      0.00
    1    4   17      5.22      0.00
    4    5   17      2.50      0.00
    2    5   17      5.66      0.00
    0    5   17     -6.92      0.00
    5    6   17    -12.07      0.00
    3    6   17    -58.80      0.00
    1    6   17      0.05      0.00
    6    7   17    -10.92      0.00
    4    7   17     32.83      0.00
    2    7   17    -24.03      0.00
    0    7   17     46.35      0.00
    7    8   17     22.10      0.00
    5    8   17     -5.57      0.00
    3    8   17    -20.04      0.00
    1    8   17     -1.20      0.00
    8    9   17      4.32      0.00
    6    9   17      7.85      0.00
    4    9   17    -27.90      0.00
    2    9   17     49.09      0.00
    0    9   17    -59.13      0.00
    9   10   17    -14.46      0.00
    7   10   17     51.32      0.00
    5   10   17     -2.27      0.00
    3   10   17    -15.84      0.00
    1   10   17    -10.59      0.00
   10   11   17     -4.55      0.00
    8   11   17     -0.81      0.00
    6   11   17     -1.36      0.00
    4   11   17     18.41      0.00
    2   11   17      4.36      0.00
    0   11   17     30.25      0.00
   11   12   17      6.28      0.00
    9   12   17      9.12      0.00
    7   12   17    -19.29      0.00
    5   12   17      8.22      0.00
    3   12   17    -15.62      0.00
    1   12   17     -8.20      0.00
   12   13   17    -16.90      0.00
   10   13   17     -2.56      0.00
    8   13   17      4.96      0.00
    6   13   17     26.27      0.00
    4   13   17      4.12      0.00
    2   13   17    -14.10      0.00
    0   13   17    -10.70      0.00
   13   14   17     -1.57      0.00
   11   14   17     15.09      0.00
    9   14   17     -0.47      0.00
    7   14   17     11.03      0.00
    5   14   17     16.21      0.00
    3   14   17     31.12      0.00
    1   14   17     37.60      0.00
   14   15   17      3.67      0.00
   12   15   17     -9.84      0.00
   10   15   17    -12.57      0.00
    8   15   17      4.84      0.00
    6   15   17     11.63      0.00
    4   15   17     -6.51      0.00
    2   15   17    -10.26      0.00
    0   15   17     11.95      0.00
   13   16   17    -22.61      0.00
   11   16   17    -35.49      0.00
    9   16   17     11.58      0.00
    7   16   17     -0.11      0.00
    5   16   17      3.15      0.00
    3   16   17    -12.08      0.00
    1   16   17    -47.42      0.00
    0   17   17      2.50      0.00
    2   17   17     11.53      0.00
    4   17   17     29.23      0.00
    6   17   17     10.29      0.00
    8   17   17     27.00      0.00
   10   17   17     -7.88      0.00
   12   17   17     22.45      0.00
    0    0   18     16.70      0.00
    1    1   18      6.85      0.00
    0    2   18    -26.89      0.00
    2    2   18     63.00      0.00
    1    3   18     -5.64      0.00
    3    3   18      5.59      0.00
    2    4   18     -5.43      0.00
    0    4   18     14.54      0.00
    4    4   18      9.81      0.00
    3    5   18    -16.21      0.00
    1    5   18     -0.49      0.00
    5    5   18     30.73      0.00
    4    6   18    -19.70      0.00
    2    6   18     24.36      0.00
    0    6   18     34.22      0.00
    6    6   18    -10.31      0.00
    5    7   18    -33.38      0.00
    3    7   18      5.28      0.00
    1    7   18    -26.49      0.00
    7    7   18     12.71      0.00
    6    8   18    -17.66      0.00
    4    8   18     -4.39      0.00
    2    8   18     -7.97      0.00
    0    8   18      8.00      0.00
    8    8   18      5.58      0.00
    7    9   18      0.41      0.00
    5    9   18     15.38      0.00
    3    9   18      7.62      0.00
    1    9   18      1.47      0.00
    9    9   18      0.01      0.00
    8   10   18     -7.36      0.00
    6   10   18    -17.24      0.00
    4   10   18     18.55      0.00
    2   10   18    -24.03      0.00
    0   10   18     12.45      0.00
   10   10   18      1.01      0.00
    9   11   18     17.12      0.00
    7   11   18     15.74      0.00
    5   11   18     -4.52      0.00
    3   11   18     16.94      0.00
    1   11   18     15.42      0.00
   11   11   18    -16.37      0.00
   10   12   18     -3.30      0.00
    8   12   18     -6.88      0.00
    6   12   18     -2.60      0.00
    4   12   18     10.61      0.00
    2   12   18     15.24      0.00
    0   12   18    -10.81      0.00
   12   12   18     21.59      0.00
   11   13   18    -17.58      0.00
    9   13   18     -0.32      0.00
    7   13   18     -5.15      0.00
    5   13   18     15.51      0.00
    3   13   18     30.24      0.00
    1   13   18     -3.96      0.00
   13   13   18    -18.95      0.00
   12   14   18     -6.17      0.00
   10   14   18     19.97      0.00
    8   14   18     -7.30      0.00
    6   14   18      6.06      0.00
    4   14   18     14.76      0.00
    2   14   18     -5.85      0.00
    0   14   18      9.73      0.00
   14   14   18     41.20      0.00
   13   15   18      6.51      0.00
   11   15   18     -0.85      0.00
    9   15   18     -9.67      0.00
    7   15   18      9.18      0.00
    5   15   18    -20.25      0.00
    3   15   18     39.68      0.00
    1   15   18     17.90      0.00
   14   16   18      1.77      0.00
   12   16   18      1.71      0.00
   10   16   18     -3.01      0.00
    8   16   18      4.62      0.00
    6   16   18      9.34      0.00
    4   16   18      1.84      0.00
    2   16   18     -5.81      0.00
    0   16   18     -4.51      0.00
   13   17   18     -5.29      0.00
   11   17   18     -8.74      0.00
    9   17   18     -5.76      0.00
    7   17   18     -6.07      0.00
    5   17   18     -2.37      0.00
    3   17   18     -2.95      0.00
    1   17   18    -49.96      0.00
    0   18   18     42.58      0.00
    2   18   18     -4.04      0.00
    4   18   18     24.73      0.00
    6   18   18     -5.49      0.00
    8   18   18     19.50      0.00
   10   18   18      6.77      0.00
   12   18   18    -30.61      0.00
    0    1   19     16.96      0.00
    1    2   19    -40.00      0.00
    2    3   19     -5.24      0.00
    0    3   19     -7.69      0.00
    3    4   19      7.13      0.00
    1    4   19    -60.42      0.00
    4    5   19      9.32      0.00
    2    5   19      3.94      0.00
    0    5   19     -2.44      0.00
    5    6   19    -37.86      0.00
    3    6   19     -4.38      0.00
    1    6   19     32.45      0.00
    6    7   19    -16.05      0.00
    4    7   19     13.87      0.00
    2    7   19     -8.89      0.00
    0    7   19      3.56      0.00
    7    8   19     11.30      0.00
    5    8   19    -41.50      0.00
    3    8   19     -1.07      0.00
    1    8   19     -9.90      0.00
    8    9   19     28.43      0.00
    6    9   19     30.91      0.00
    4    9   19     -7.92      0.00
    2    9   19     -0.65      0.00
    0    9   19      5.89      0.00
    9   10   19    -15.87      0.00
    7   10   19     10.79      0.00
    5   10   19     21.27      0.00
    3   10   19      4.18      0.00
    1   10   19      2.04      0.00
   10   11   19      6.16      0.00
    8   11   19      9.05      0.00
    6   11   19      0.82      0.00
    4   11   19     16.85      0.00
    2   11   19    -22.13      0.00
    0   11   19     23.86      0.00
   11   12   19     -6.53      0.00
    9   12   19      3.03      0.00
    7   12   19      1.32      0.00
    5   12   19      3.33      0.00
    3   12   19     -5.49      0.00
    1   12   19     -6.62      0.00
   12   13   19     10.27      0.00
   10   13   19     18.54      0.00
    8   13   19     -4.52      0.00
    6   13   19     -2.13      0.00
    4   13   19     -3.29      0.00
    2   13   19      7.04      0.00
    0   13   19     -5.59      0.00
   13   14   19      0.51      0.00
   11   14   19     -3.46      0.00
    9   14   19    -16.87      0.00
    7   14   19     10.92      0.00
    5   14   19      0.97      0.00
    3   14   19     25.40      0.00
    1   14   19     19.10      0.00
   14   15   19    -26.41      0.00
   12   15   19     22.18      0.00
   10   15   19      2.42      0.00
    8   15   19      4.13      0.00
    6   15   19     29.20      0.00
    4   15   19     -2.31      0.00
    2   15   19     13.92      0.00
    0   15   19    -10.89      0.00
   13   16   19     -0.88      0.00
   11   16   19    -21.58      0.00
    9   16   19    -28.02      0.00
    7   16   19     11.04      0.00
    5   16   19      4.64      0.00
    3   16   19    -33.67      0.00
    1   16   19    -13.72      0.00
   15   16   19     18.47      0.00
   14   17   19      5.54      0.00
   12   17   19     12.77      0.00
   10   17   19     -1.61      0.00
    8   17   19     15.02      0.00
    6   17   19     11.93      0.00
    4   17   19     -7.58      0.00
    2   17   19     -4.41      0.00
    0   17   19     -4.37      0.00
   16   17   19     11.53      0.00
   13   18   19     -8.55      0.00
   11   18   19     -1.87      0.00
    9   18   19     -0.93      0.00
    7   18   19      0.86      0.00
    5   18   19     -0.67      0.00
    3   18   19    -38.83      0.00
    1   18   19     13.08      0.00
   15   18   19     -2.07      0.00
   17   18   19     -2.60      0.00
    0   19   19     30.18      0.00
    2   19   19    -10.54      0.00
    4   19   19      9.60      0.00
    6   19   19     25.33      0.00
    8   19   19      1.55      0.00
   10   19   19    -21.64      0.00
   12   19   19     19.17      0.00
   14   19   19      2.15      0.00
   16   19   19      6.74      0.00
    0    0   20     57.28      0.00
    1    1   20      0.21      0.00
    0    2   20      7.63      0.00
    2    2   20    -14.26      0.00
    1    3   20    -40.86      0.00
    3    3   20     15.98      0.00
    2    4   20    -25.31      0.00
    0    4   20     40.25      0.00
    4    4   20      1.92      0.00
    3    5   20    -22.77      0.00
    1    5   20    -19.83      0.00
    5    5   20     -3.03      0.00
    4    6   20    -40.33      0.00
    2    6   20    -29.72      0.00
    0    6   20     21.02      0.00
    6    6   20    -30.98      0.00
    5    7   20      5.15      0.00
    3    7   20     19.94      0.00
    1    7   20     -1.98      0.00
    7    7   20      7.30      0.00
    6    8   20     10.20      0.00
    4    8   20     -2.07      0.00
    2    8   20     -4.11      0.00
    0    8   20    -24.01      0.00
    8    8   20    -45.90      0.00
    7    9   20      9.31      0.00
    5    9   20      3.96      0.00
    3    9   20    -13.63      0.00
    1    9   20      1.20      0.00
    9    9   20     -6.27      0.00
    8   10   20     -3.71      0.00
    6   10   20     17.69      0.00
    4   10   20      9.52      0.00
    2   10   20    -18.97      0.00
    0   10   20     -3.06      0.00
   10   10   20     17.66      0.00
    9   11   20     26.82      0.00
    7   11   20      1.49      0.00
    5   11   20     -9.44      0.00
    3   11   20     12.83      0.00
    1   11   20      1.48      0.00
   11   11   20     51.06      0.00
   10   12   20      5.80      0.00
    8   12   20     -1.02      0.00
    6   12   20     -8.17      0.00
    4   12   20     -3.94      0.00
    2   12   20    -37.27      0.00
    0   12   20     -1.06      0.00
   12   12   20      4.93      0.00
   11   13   20     13.74      0.00
    9   13   20     23.61      0.00
    7   13   20    -24.50      0.00
    5   13   20    -17.71      0.00
    3   13   20      6.66      0.00
    1   13   20     10.73      0.00
   13   13   20    -10.12      0.00
   12   14   20      0.67      0.00
   10   14   20      2.58      0.00
    8   14   20     -1.28      0.00
    6   14   20     15.84      0.00
    4   14   20     26.41      0.00
    2   14   20     20.30      0.00
    0   14   20     19.69      0.00
   14   14   20     16.03      0.00
   13   15   20      3.56      0.00
   11   15   20      3.16      0.00
    9   15   20     -1.18      0.00
    7   15   20     -8.41      0.00
    5   15   20      3.59      0.00
    3   15   20    -24.95      0.00
    1   15   20    -25.45      0.00
   15   15   20     10.81      0.00
   14   16   20      6.01      0.00
   12   16   20     15.36      0.00
   10   16   20      7.99      0.00
    8   16   20     14.25      0.00
    6   16   20     29.52      0.00
    4   16   20     -8.94      0.00
    2   16   20    -17.36      0.00
    0   16   20    -18.08      0.00
   16   16   20    -37.92      0.00
   15   17   20     10.90      0.00
   13   17   20     -7.16      0.00
   11   17   20    -10.33      0.00
    9   17   20     11.23      0.00
    7   17   20      2.97      0.00
    5   17   20      1.27      0.00
    3   17   20      3.46      0.00
    1   17   20    -32.05      0.00
   17   17   20     23.19      0.00
   16   18   20     10.00      0.00
   14   18   20    -37.19      0.00
   12   18   20    -20.05      0.00
   10   18   20     29.37      0.00
    8   18   20    -24.99      0.00
    6   18   20    -13.88      0.00
    4   18   20     34.42      0.00
    2   18   20     32.71      0.00
    0   18   20    -11.40      0.00
   17   19   20     25.36      0.00
   15   19   20     -9.77      0.00
   13   19   20     24.82      0.00
   11   19   20     -2.83      0.00
    9   19   20      4.72      0.00
    7   19   20      3.70      0.00
    5   19   20      4.61      0.00
    3   19   20      7.06      0.00
    1   19   20    -10.25      0.00
    0   20   20     -3.45      0.00
    2   20   20    -10.72      0.00
    4   20   20    -15.83      0.00
    6   20   20    -24.51      0.00
    8   20   20     -9.01      0.00
   10   20   20      7.61      0.00
   12   20   20    -23.15      0.00
   14   20   20      8.92      0.00
   16   20   20    -14.34      0.00
   18   20   20     16.20      0.00
   20   20   20     -8.23      0.00
    0    1   21     10.56      0.00
    1    2   21     -4.77      0.00
    2    3   21     -1.36      0.00
    0    3   21    -17.28      0.00
    3    4   21    -35.53      0.00
    1    4   21      5.23      0.00
    4    5   21     18.94      0.00
    2    5   21    -31.93      0.00
    0    5   21     43.99      0.00
    5    6   21     19.74      0.00
    3    6   21     -2.29      0.00
    1    6   21    -10.11      0.00
    6    7   21      4.84      0.00
    4    7   21     -8.82      0.00
    2    7   21    -20.89      0.00
    0    7   21    -22.31      0.00
    7    8   21    -20.36      0.00
    5    8   21    -43.49      0.00
    3    8   21     -0.86      0.00
    1    8   21     -2.12      0.00
    8    9   21    -12.09      0.00
    6    9   21     11.02      0.00
    4    9   21     11.18      0.00
    2    9   21     -9.62      0.00
    0    9   21      5.46      0.00
    9   10   21      2.81      0.00
    7   10   21     15.06      0.00
    5   10   21     36.64      0.00
    3   10   21      0.50      0.00
    1   10   21     -6.32      0.00
   10   11   21      8.49      0.00
    8   11   21     17.41      0.00
    6   11   21     21.89      0.00
    4   11   21      0.12      0.00
    2   11   21      5.53      0.00
    0   11   21     13.35      0.00
   11   12   21      4.35      0.00
    9   12   21     -7.92      0.00
    7   12   21     -1.45      0.00
    5   12   21    -25.31      0.00
    3   12   21     -9.08      0.00
    1   12   21     -9.56      0.00
   12   13   21     -6.04      0.00
   10   13   21    -23.49      0.00
    8   13   21      3.13      0.00
    6   13   21      0.55      0.00
    4   13   21     10.66      0.00
    2   13   21    -10.00      0.00
    0   13   21    -22.09      0.00
   13   14   21     -2.88      0.00
   11   14   21     -6.31      0.00
    9   14   21      0.96      0.00
    7   14   21     -0.95      0.00
    5   14   21     -4.92      0.00
    3   14   21      6.89      0.00
    1   14   21     12.51      0.00
   14   15   21      2.07      0.00
   12   15   21      0.82      0.00
   10   15   21      1.85      0.00
    8   15   21     18.91      0.00
    6   15   21     -7.40      0.00
    4   15   21     16.94      0.00
    2   15   21      8.37      0.00
    0   15   21      7.57      0.00
   15   16   21     20.03      0.00
   13   16   21      7.44      0.00
   11   16   21     30.08      0.00
    9   16   21      0.87      0.00
    7   16   21    -35.38      0.00
    5   16   21     -7.66      0.00
    3   16   21    -11.05      0.00
    1   16   21    -20.28      0.00
   16   17   21     10.01      0.00
   14   17   21     -3.80      0.00
   12   17   21     -6.11      0.00
   10   17   21     -7.30      0.00
    8   17   21     -4.51      0.00
    6   17   21     22.79      0.00
    4   17   21      0.89      0.00
    2   17   21    -10.83      0.00
    0   17   21      6.95      0.00
   17   18   21     -3.68      0.00
   15   18   21      6.97      0.00
   13   18   21     30.30      0.00
   11   18   21     38.27      0.00
    9   18   21      2.90      0.00
    7   18   21     14.82      0.00
    5   18   21     12.37      0.00
    3   18   21     15.66      0.00
    1   18   21     19.80      0.00
   18   19   21     16.22      0.00
   16   19   21      2.10      0.00
   14   19   21     -9.96      0.00
   12   19   21     10.24      0.00
   10   19   21    -37.90      0.00
    8   19   21    -23.24      0.00
    6   19   21      9.93      0.00
    4   19   21      6.77      0.00
    2   19   21     -3.77      0.00
    0   19   21     -8.14      0.00
   19   20   21     -0.26      0.00
   17   20   21    -19.75      0.00
   15   20   21      3.58      0.00
   13   20   21    -10.23      0.00
   11   20   21      0.62      0.00
    9   20   21     12.31      0.00
    7   20   21     -0.55      0.00
    5   20   21     13.74      0.00
    3   20   21     -4.93      0.00
    1   20   21    -18.35      0.00
    0   21   21    -12.25      0.00
    2   21   21     -0.61      0.00
    4   21   21      5.15      0.00
    6   21   21     -2.26      0.00
    8   21   21     -6.20      0.00
   10   21   21      5.07      0.00
   12   21   21      5.61      0.00
   14   21   21      1.60      0.00
   16   21   21      8.85      0.00
   18   21   21    -17.47      0.00
   20   21   21     12.90      0.00
    0    0   22     20.76      0.00
    1    1   22     13.13      0.00
    0    2   22     -9.59      0.00
    2    2   22     10.01      0.00
    1    3   22     -5.86      0.00
    3    3   22     -9.03      0.00
    2    4   22     -3.31      0.00
    0    4   22    -15.02      0.00
    4    4   22    -82.75      0.00
    3    5   22     24.20      0.00
    1    5   22     -0.90      0.00
    5    5   22      8.05      0.00
    4    6   22     30.69      0.00
    2    6   22     27.44      0.00
    0    6   22    -25.00      0.00
    6    6   22    -35.64      0.00
    5    7   22    -19.12      0.00
    3    7   22     16.75      0.00
    1    7   22      8.56      0.00
    7    7   22      7.41      0.00
    6    8   22     -9.32      0.00
    4    8   22     17.46      0.00
    2    8   22     16.71      0.00
    0    8   22      1.28      0.00
    8    8   22    -11.92      0.00
    7    9   22      2.71      0.00
    5    9   22    -13.91      0.00
    3    9   22      9.63      0.00
    1    9   22     16.20      0.00
    9    9   22      0.71      0.00
    8   10   22     10.54      0.00
    6   10   22     36.58      0.00
    4   10   22    -12.42      0.00
    2   10   22     -9.99      0.00
    0   10   22     24.62      0.00
   10   10   22    -26.30      0.00
    9   11   22     -0.16      0.00
    7   11   22    -12.80      0.00
    5   11   22      7.36      0.00
    3   11   22    -16.07      0.00
    1   11   22     -4.92      0.00
   11   11   22     21.44      0.00
   10   12   22     -2.60      0.00
    8   12   22     -5.20      0.00
    6   12   22      4.29      0.00
    4   12   22    -18.67      0.00
    2   12   22     11.30      0.00
    0   12   22      5.71      0.00
   12   12   22    -14.83      0.00
   11   13   22     14.18      0.00
    9   13   22    -31.39      0.00
    7   13   22    -12.52      0.00
    5   13   22     -2.62      0.00
    3   13   22      8.16      0.00
    1   13   22     -7.88      0.00
   13   13   22      8.66      0.00
   12   14   22     -2.51      0.00
   10   14   22      2.00      0.00
    8   14   22     -8.60      0.00
    6   14   22    -17.51      0.00
    4   14   22    -14.42      0.00
    2   14   22     18.31      0.00
    0   14   22     13.15      0.00
   14   14   22      2.85      0.00
   13   15   22     -9.23      0.00
   11   15   22     -1.93      0.00
    9   15   22    -13.15      0.00
    7   15   22      6.00      0.00
    5   15   22      4.86      0.00
    3   15   22     15.62      0.00
    1   15   22     12.40      0.00
   15   15   22      7.93      0.00
   14   16   22      7.90      0.00
   12   16   22      9.32      0.00
   10   16   22    -23.37      0.00
    8   16   22     -5.28      0.00
    6   16   22    -12.29      0.00
    4   16   22     12.30      0.00
    2   16   22    -12.56      0.00
    0   16   22     20.66      0.00
   16   16   22    -15.03      0.00
   15   17   22     -2.18      0.00
   13   17   22     -6.56      0.00
   11   17   22     11.59      0.00
    9   17   22     -2.37      0.00
    7   17   22     13.05      0.00
    5   17   22      0.36      0.00
    3   17   22      6.10      0.00
    1   17   22    -12.51      0.00
   17   17   22      4.71      0.00
   16   18   22      9.43      0.00
   14   18   22     19.69      0.00
   12   18   22      5.60      0.00
   10   18   22     -5.29      0.00
    8   18   22     13.89      0.00
    6   18   22      5.95      0.00
    4   18   22     20.26      0.00
    2   18   22     21.39      0.00
    0   18   22     23.91      0.00
   18   18   22      0.61      0.00
   17   19   22    -13.02      0.00
   15   19   22     -0.22      0.00
   13   19   22      1.28      0.00
   11   19   22      1.34      0.00
    9   19   22     -9.47      0.00
    7   19   22     -7.82      0.00
    5   19   22      9.07      0.00
    3   19   22    -12.32      0.00
    1   19   22      8.78      0.00
   19   19   22     35.31      0.00
   18   20   22     -5.01      0.00
   16   20   22     -7.18      0.00
   14   20   22      0.30      0.00
   12   20   22     19.34      0.00
   10   20   22    -18.19      0.00
    8   20   22      4.48      0.00
    6   20   22      9.04      0.00
    4   20   22     -1.06      0.00
    2   20   22    -11.90      0.00
    0   20   22      8.40      0.00
   20   20   22     12.57      0.00
   19   21   22     -9.68      0.00
   17   21   22      1.14      0.00
   15   21   22     -1.44      0.00
   13   21   22     -4.67      0.00
   11   21   22     -3.33      0.00
    9   21   22      9.55      0.00
    7   21   22     -8.22      0.00
    5   21   22      0.08      0.00
    3   21   22      2.06      0.00
    1   21   22     -5.73      0.00
   21   21   22    -14.69      0.00
    0   22   22     -4.53      0.00
    2   22   22     -4.28      0.00
    4   22   22     -6.61      0.00
    6   22   22     17.51      0.00
    8   22   22     -2.11      0.00
   10   22   22     -5.55      0.00
   12   22   22     -6.13      0.00
   14   22   22     -0.41      0.00
   16   22   22    -10.47      0.00
   18   22   22     -5.73      0.00
   20   22   22    -10.84      0.00
   22   22   22     -0.66      0.00
    0    1   23     -4.11      0.00
    1    2   23    -12.26      0.00
    2    3   23     17.78      0.00
    0    3   23    -11.73      0.00
    3    4   23     15.63      0.00
    1    4   23     12.26      0.00
    4    5   23     -4.00      0.00
    2    5   23    -19.90      0.00
    0    5   23    -10.94      0.00
    5    6   23    -19.68      0.00
    3    6   23    -17.79      0.00
    1    6   23     -3.18      0.00
    6    7   23     70.73      0.00
    4    7   23    -28.81      0.00
    2    7   23     -8.99      0.00
    0    7   23      9.51      0.00
    7    8   23     51.59      0.00
    5    8   23     29.38      0.00
    3    8   23      8.58      0.00
    1    8   23      2.74      0.00
    8    9   23     -0.24      0.00
    6    9   23     -3.50      0.00
    4    9   23     -9.03      0.00
    2    9   23     -9.89      0.00
    0    9   23     23.30      0.00
    9   10   23     21.62      0.00
    7   10   23    -50.81      0.00
    5   10   23     -5.26      0.00
    3   10   23    -17.02      0.00
    1   10   23      0.29      0.00
   10   11   23     20.96      0.00
    8   11   23    -29.34      0.00
    6   11   23     -6.08      0.00
    4   11   23      5.77      0.00
    2   11   23     -0.94      0.00
    0   11   23    -11.23      0.00
   11   12   23      3.33      0.00
    9   12   23    -30.70      0.00
    7   12   23    -18.80      0.00
    5   12   23     -1.87      0.00
    3   12   23     26.76      0.00
    1   12   23     -5.92      0.00
   12   13   23      3.30      0.00
   10   13   23    -13.74      0.00
    8   13   23      6.78      0.00
    6   13   23     14.91      0.00
    4   13   23      0.19      0.00
    2   13   23     -6.85      0.00
    0   13   23     22.10      0.00
   13   14   23    -16.87      0.00
   11   14   23     -3.91      0.00
    9   14   23    -18.18      0.00
    7   14   23      4.93      0.00
    5   14   23     -0.59      0.00
    3   14   23     -3.60      0.00
    1   14   23      5.61      0.00
   14   15   23     -4.36      0.00
   12   15   23      4.60      0.00
   10   15   23     12.59      0.00
    8   15   23      5.93      0.00
    6   15   23      1.13      0.00
    4   15   23      0.36      0.00
    2   15   23      2.74      0.00
    0   15   23      1.81      0.00
   15   16   23      2.03      0.00
   13   16   23     24.46      0.00
   11   16   23     -2.24      0.00
    9   16   23     13.44      0.00
    7   16   23      9.67      0.00
    5   16   23     21.59      0.00
    3   16   23      6.57      0.00
    1   16   23     -4.99      0.00
   16   17   23      5.74      0.00
   14   17   23    -21.37      0.00
   12   17   23    -26.50      0.00
   10   17   23     33.98      0.00
    8   17   23    -30.25      0.00
    6   17   23     -9.53      0.00
    4   17   23     12.27      0.00
    2   17   23     -3.82      0.00
    0   17   23     14.70      0.00
   17   18   23      2.39      0.00
   15   18   23     13.80      0.00
   13   18   23     30.93      0.00
   11   18   23    -10.34      0.00
    9   18   23    -13.19      0.00
    7   18   23      5.80      0.00
    5   18   23    -16.76      0.00
    3   18   23      8.10      0.00
    1   18   23    -13.40      0.00
   18   19   23    -15.73      0.00
   16   19   23      2.79      0.00
   14   19   23     11.05      0.00
   12   19   23    -33.01      0.00
   10   19   23     23.46      0.00
    8   19   23     -2.98      0.00
    6   19   23     -7.31      0.00
    4   19   23      7.29      0.00
    2   19   23     -7.63      0.00
    0   19   23      8.93      0.00
   19   20   23      1.86      0.00
   17   20   23      7.65      0.00
   15   20   23     38.16      0.00
   13   20   23    -35.40      0.00
   11   20   23    -20.00      0.00
    9   20   23     30.48      0.00
    7   20   23      3.71      0.00
    5   20   23     10.62      0.00
    3   20   23      0.01      0.00
    1   20   23      5.77      0.00
   20   21   23      3.15      0.00
   18   21   23    -10.76      0.00
   16   21   23      0.61      0.00
   14   21   23     13.40      0.00
   12   21   23    -15.95      0.00
   10   21   23     15.82      0.00
    8   21   23    -12.09      0.00
    6   21   23    -12.58      0.00
    4   21   23      4.76      0.00
    2   21   23     -6.47      0.00
    0   21   23      1.90      0.00
   21   22   23      2.75      0.00
   19   22   23      4.55      0.00
   17   22   23     31.57      0.00
   15   22   23    -19.55      0.00
   13   22   23     21.59      0.00
   11   22   23    -23.87      0.00
    9   22   23     25.58      0.00
    7   22   23     18.87      0.00
    5   22   23    -23.09      0.00
    3   22   23      4.62      0.00
    1   22   23    -21.34      0.00
    0   23   23      4.14      0.00
    2   23   23     -0.15      0.00
    4   23   23     -7.01      0.00
    6   23   23     18.65      0.00
    8   23   23     17.95      0.00
   10   23   23    -14.77      0.00
   12   23   23     -5.96      0.00
   14   23   23    -10.45      0.00
   16   23   23     -4.70      0.00
   18   23   23      4.07      0.00
   20   23   23     -5.98      0.00
   22   23   23      0.41      0.00
    0    0   24      2.26      0.00
    1    1   24     -7.78      0.00
    0    2   24      1.43      0.00
    2    2   24      6.26      0.00
    1    3   24      8.08      0.00
    3    3   24      2.37      0.00
    2    4   24     -7.23      0.00
    0    4   24     -7.46      0.00
    4    4   24     30.31      0.00
    3    5   24    -10.72      0.00
    1    5   24      0.32      0.00
    5    5   24    -41.99      0.00
    4    6   24    -47.12      0.00
    2    6   24    -63.14      0.00
    0    6   24     19.30      0.00
    6    6   24    -45.52      0.00
    5    7   24     12.62      0.00
    3    7   24    -13.85      0.00
    1    7   24     -6.88      0.00
    7    7   24     15.74      0.00
    6    8   24     26.17      0.00
    4    8   24     28.70      0.00
    2    8   24      3.92      0.00
    0    8   24     -3.98      0.00
    8    8   24    -65.60      0.00
    7    9   24      1.30      0.00
    5    9   24      8.54      0.00
    3    9   24      4.07      0.00
    1    9   24    -20.79      0.00
    9    9   24     -0.96      0.00
    8   10   24     -3.84      0.00
    6   10   24     -4.08      0.00
    4   10   24     -1.46      0.00
    2   10   24     -0.29      0.00
    0   10   24     43.31      0.00
   10   10   24     10.99      0.00
    9   11   24     -5.95      0.00
    7   11   24     11.59      0.00
    5   11   24      4.18      0.00
    3   11   24     14.35      0.00
    1   11   24     -7.34      0.00
   11   11   24    -18.01      0.00
   10   12   24      1.25      0.00
    8   12   24      2.34      0.00
    6   12   24      5.13      0.00
    4   12   24     15.87      0.00
    2   12   24     -0.24      0.00
    0   12   24     13.52      0.00
   12   12   24     18.14      0.00
   11   13   24     -4.91      0.00
    9   13   24    -17.94      0.00
    7   13   24     21.18      0.00
    5   13   24     -7.59      0.00
    3   13   24    -16.66      0.00
    1   13   24      5.24      0.00
   13   13   24    -18.74      0.00
   12   14   24     26.82      0.00
   10   14   24      0.22      0.00
    8   14   24     -1.54      0.00
    6   14   24    -11.16      0.00
    4   14   24     12.06      0.00
    2   14   24     -3.40      0.00
    0   14   24    -16.56      0.00
   14   14   24    -18.72      0.00
   13   15   24      9.80      0.00
   11   15   24     -9.84      0.00
    9   15   24     -0.62      0.00
    7   15   24     -1.29      0.00
    5   15   24     10.71      0.00
    3   15   24      4.61      0.00
    1   15   24     -1.47      0.00
   15   15   24    -20.26      0.00
   14   16   24     -2.56      0.00
   12   16   24     -7.34      0.00
   10   16   24    -11.35      0.00
    8   16   24     11.27      0.00
    6   16   24     11.77      0.00
    4   16   24     -5.42      0.00
    2   16   24      7.72      0.00
    0   16   24    -13.11      0.00
   16   16   24     -0.39      0.00
   15   17   24     10.42      0.00
   13   17   24      1.46      0.00
   11   17   24      6.32      0.00
    9   17   24      4.48      0.00
    7   17   24      1.48      0.00
    5   17   24      0.75      0.00
    3   17   24     -4.43      0.00
    1   17   24     10.71      0.00
   17   17   24      7.92      0.00
   16   18   24     -7.72      0.00
   14   18   24      2.29      0.00
   12   18   24      0.68      0.00
   10   18   24      0.50      0.00
    8   18   24    -12.69      0.00
    6   18   24     12.58      0.00
    4   18   24      1.22      0.00
    2   18   24      5.15      0.00
    0   18   24     -4.84      0.00
   18   18   24    -11.81      0.00
   17   19   24     -1.18      0.00
   15   19   24     -3.53      0.00
   13   19   24     -1.42      0.00
   11   19   24      5.97      0.00
    9   19   24      7.96      0.00
    7   19   24     -7.42      0.00
    5   19   24     -1.99      0.00
    3   19   24      0.01      0.00
    1   19   24      7.03      0.00
   19   19   24     -2.74      0.00
   18   20   24      9.63      0.00
   16   20   24      1.06      0.00
   14   20   24      6.27      0.00
   12   20   24      1.50      0.00
   10   20   24     -0.83      0.00
    8   20   24      7.02      0.00
    6   20   24     -0.67      0.00
    4   20   24      2.24      0.00
    2   20   24     -0.41      0.00
    0   20   24      3.91      0.00
   20   20   24      4.70      0.00
   19   21   24      8.41      0.00
   17   21   24     25.84      0.00
   15   21   24     -2.89      0.00
   13   21   24     -6.45      0.00
   11   21   24      6.92      0.00
    9   21   24     -3.04      0.00
    7   21   24     -4.21      0.00
    5   21   24      0.69      0.00
    3   21   24      5.44      0.00
    1   21   24     -1.13      0.00
   21   21   24      7.84      0.00
   20   22   24     -1.78      0.00
   18   22   24      6.26      0.00
   16   22   24     -6.73      0.00
   14   22   24      9.88      0.00
   12   22   24     -0.92      0.00
   10   22   24      2.97      0.00
    8   22   24     -2.73      0.00
    6   22   24      5.81      0.00
    4   22   24      4.07      0.00
    2   22   24     -2.53      0.00
    0   22   24    -11.41      0.00
   22   22   24     -5.88      0.00
   21   23   24      1.41      0.00
   19   23   24     -1.70      0.00
   17   23   24     18.21      0.00
   15   23   24      4.85      0.00
   13   23   24      2.25      0.00
   11   23   24      2.08      0.00
    9   23   24     -3.53      0.00
    7   23   24     11.45      0.00
    5   23   24      1.72      0.00
    3   23   24      1.21      0.00
    1   23   24     -1.58      0.00
   23   23   24     -0.10      0.00
    0   24   24     21.08      0.00
    2   24   24      2.14      0.00
    4   24   24     -0.14      0.00
    6   24   24     14.25      0.00
    8   24   24      0.46      0.00
   10   24   24      1.71      0.00
   12   24   24      2.42      0.00
   14   24   24      6.11      0.00
   16   24   24     11.64      0.00
   18   24   24      1.32      0.00
   20   24   24      8.86      0.00
   22   24   24      7.88      0.00
   24   24   24     -3.94      0.00
    0    1   25    -13.95      0.00
    1    2   25     23.77      0.00
    2    3   25      1.11      0.00
    0    3   25     13.88      0.00
    3    4   25      0.25      0.00
    1    4   25     13.52      0.00
    4    5   25     28.28      0.00
    2    5   25    -22.46      0.00
    0    5   25    -22.69      0.00
    5    6   25    -10.01      0.00
    3    6   25     -9.60      0.00
    1    6   25     30.19      0.00
    6    7   25     -9.24      0.00
    4    7   25      6.59      0.00
    2    7   25     -8.16      0.00
    0    7   25     15.79      0.00
    7    8   25     19.23      0.00
    5    8   25     -1.42      0.00
    3    8   25      9.24      0.00
    1    8   25      6.19      0.00
    8    9   25     36.01      0.00
    6    9   25    -39.19      0.00
    4    9   25    -21.59      0.00
    2    9   25      1.50      0.00
    0    9   25      4.85      0.00
    9   10   25    -35.79      0.00
    7   10   25    -21.16      0.00
    5   10   25     -7.77      0.00
    3   10   25    -13.10      0.00
    1   10   25     -1.54      0.00
   10   11   25     -7.46      0.00
    8   11   25     14.42      0.00
    6   11   25     -1.46      0.00
    4   11   25    -16.30      0.00
    2   11   25     10.79      0.00
    0   11   25    -11.97      0.00
   11   12   25    -11.27      0.00
    9   12   25    -28.17      0.00
    7   12   25    -11.21      0.00
    5   12   25    -35.30      0.00
    3   12   25      9.29      0.00
    1   12   25    -14.44      0.00
   12   13   25     -6.53      0.00
   10   13   25      5.27      0.00
    8   13   25     -6.36      0.00
    6   13   25     -8.11      0.00
    4   13   25      0.77      0.00
    2   13   25     -2.80      0.00
    0   13   25     -8.87      0.00
   13   14   25     12.77      0.00
   11   14   25      6.66      0.00
    9   14   25     11.59      0.00
    7   14   25     12.82      0.00
    5   14   25    -16.71      0.00
    3   14   25     18.61      0.00
    1   14   25      7.12      0.00
   14   15   25     13.08      0.00
   12   15   25    -10.13      0.00
   10   15   25     -0.54      0.00
    8   15   25    -13.08      0.00
    6   15   25     -9.72      0.00
    4   15   25      9.09      0.00
    2   15   25     -0.31      0.00
    0   15   25      3.95      0.00
   15   16   25    -11.05      0.00
   13   16   25     -6.12      0.00
   11   16   25    -17.14      0.00
    9   16   25     -9.45      0.00
    7   16   25     -4.41      0.00
    5   16   25      7.61      0.00
    3   16   25     -3.63      0.00
    1   16   25      2.45      0.00
   16   17   25      3.76      0.00
   14   17   25     -9.18      0.00
   12   17   25      6.77      0.00
   10   17   25    -10.58      0.00
    8   17   25     -5.28      0.00
    6   17   25     -1.25      0.00
    4   17   25      3.49      0.00
    2   17   25     -8.13      0.00
    0   17   25      7.83      0.00
   17   18   25     -4.65      0.00
   15   18   25     11.18      0.00
   13   18   25     14.10      0.00
   11   18   25    -17.94      0.00
    9   18   25    -16.75      0.00
    7   18   25      9.28      0.00
    5   18   25     -5.23      0.00
    3   18   25      5.46      0.00
    1   18   25     10.76      0.00
   18   19   25     10.01      0.00
   16   19   25      5.85      0.00
   14   19   25     -7.68      0.00
   12   19   25     -0.52      0.00
   10   19   25     -8.01      0.00
    8   19   25      6.88      0.00
    6   19   25    -23.10      0.00
    4   19   25      1.77      0.00
    2   19   25      6.63      0.00
    0   19   25     -8.70      0.00
   19   20   25      7.47      0.00
   17   20   25     -7.97      0.00
   15   20   25     30.62      0.00
   13   20   25    -13.14      0.00
   11   20   25     26.75      0.00
    9   20   25     10.30      0.00
    7   20   25    -11.48      0.00
    5   20   25      4.05      0.00
    3   20   25     -8.77      0.00
    1   20   25     -4.17      0.00
   20   21   25     -8.49      0.00
   18   21   25      2.38      0.00
   16   21   25      2.87      0.00
   14   21   25      2.88      0.00
   12   21   25     -1.49      0.00
   10   21   25     -1.34      0.00
    8   21   25      5.28      0.00
    6   21   25     14.69      0.00
    4   21   25     -2.23      0.00
    2   21   25     -2.42      0.00
    0   21   25     -4.16      0.00
   21   22   25      0.66      0.00
   19   22   25      2.17      0.00
   17   22   25      0.88      0.00
   15   22   25    -15.31      0.00
   13   22   25     28.64      0.00
   11   22   25    -40.52      0.00
    9   22   25     -6.99      0.00
    7   22   25     13.42      0.00
    5   22   25    -10.86      0.00
    3   22   25      3.57      0.00
    1   22   25     15.47      0.00
   22   23   25      2.17      0.00
   20   23   25     -4.35      0.00
   18   23   25     -2.80      0.00
   16   23   25     -4.54      0.00
   14   23   25      0.29      0.00
   12   23   25      5.77      0.00
   10   23   25     -2.94      0.00
    8   23   25     -2.44      0.00
    6   23   25     -2.03      0.00
    4   23   25      4.81      0.00
    2   23   25     -4.03      0.00
    0   23   25     -4.81      0.00
   23   24   25     -4.40      0.00
   21   24   25      1.93      0.00
   19   24   25      5.03      0.00
   17   24   25      0.67      0.00
   15   24   25     25.39      0.00
   13   24   25     32.02      0.00
   11   24   25    -35.05      0.00
    9   24   25    -25.46      0.00
    7   24   25     10.90      0.00
    5   24   25      6.56      0.00
    3   24   25     -2.75      0.00
    1   24   25    -21.57      0.00
    2   25   25     -5.97      0.00
    4   25   25     -8.00      0.00
    6   25   25     -2.80      0.00
    8   25   25      2.57      0.00
   10   25   25     -2.65      0.00
   12   25   25     -4.83      0.00
   14   25   25     12.50      0.00
   16   25   25      5.94      0.00
   18   25   25     -9.41      0.00
   20   25   25     -6.63      0.00
   22   25   25      5.87      0.00
   24   25   25     -1.55      0.00
    0    0   26     43.84      0.00
    1    1   26     -4.67      0.00
    0    2   26     14.14      0.00
    2    2   26    -13.92      0.00
    1    3   26     -1.66      0.00
    3    3   26     -2.23      0.00
    2    4   26     11.34      0.00
    0    4   26     15.88      0.00
    4    4   26     24.71      0.00
    3    5   26     15.21      0.00
    1    5   26      6.86      0.00
    5    5   26     23.87      0.00
    4    6   26     32.74      0.00
    2    6   26     -9.67      0.00
    0    6   26      1.37      0.00
    6    6   26    -23.07      0.00
    5    7   26     -3.27      0.00
    3    7   26     24.89      0.00
    1    7   26      5.85      0.00
    7    7   26     -7.33      0.00
    6    8   26    -50.18      0.00
    4    8   26      5.17      0.00
    2    8   26      8.66      0.00
    0    8   26     15.55      0.00
    8    8   26      6.94      0.00
    7    9   26      1.24      0.00
    5    9   26    -11.31      0.00
    3    9   26      9.48      0.00
    1    9   26      9.14      0.00
    9    9   26      1.11      0.00
    8   10   26      4.47      0.00
    6   10   26    -44.82      0.00
    4   10   26     -2.31      0.00
    2   10   26     -2.73      0.00
    0   10   26     -0.54      0.00
   10   10   26    -15.53      0.00
    9   11   26     -2.24      0.00
    7   11   26     12.81      0.00
    5   11   26    -11.27      0.00
    3   11   26     -5.57      0.00
    1   11   26     10.65      0.00
   11   11   26     -2.56      0.00
   10   12   26      6.17      0.00
    8   12   26     -6.67      0.00
    6   12   26      5.69      0.00
    4   12   26     -5.22      0.00
    2   12   26     10.29      0.00
    0   12   26      7.41      0.00
   12   12   26      0.45      0.00
   11   13   26      0.28      0.00
    9   13   26      0.80      0.00
    7   13   26    -15.84      0.00
    5   13   26      2.70      0.00
    3   13   26     -6.66      0.00
    1   13   26      5.87      0.00
   13   13   26     -5.35      0.00
   12   14   26      3.75      0.00
   10   14   26     -7.42      0.00
    8   14   26      1.77      0.00
    6   14   26     -1.03      0.00
    4   14   26      6.47      0.00
    2   14   26     16.00      0.00
    0   14   26     18.64      0.00
   14   14   26      8.46      0.00
   13   15   26      6.11      0.00
   11   15   26     -5.45      0.00
    9   15   26      0.72      0.00
    7   15   26      5.42      0.00
    5   15   26     -6.66      0.00
    3   15   26     -2.52      0.00
    1   15   26      0.92      0.00
   15   15   26     19.88      0.00
   14   16   26      4.27      0.00
   12   16   26     -9.66      0.00
   10   16   26     10.43      0.00
    8   16   26     11.23      0.00
    6   16   26    -14.89      0.00
    4   16   26      7.35      0.00
    2   16   26      1.35      0.00
    0   16   26      1.12      0.00
   16   16   26    -29.60      0.00
   15   17   26     19.20      0.00
   13   17   26    -13.22      0.00
   11   17   26      1.17      0.00
    9   17   26     -6.78      0.00
    7   17   26     -0.62      0.00
    5   17   26      1.40      0.00
    3   17   26     -8.97      0.00
    1   17   26     -5.06      0.00
   17   17   26     -3.15      0.00
   16   18   26      3.73      0.00
   14   18   26      6.61      0.00
   12   18   26      1.19      0.00
   10   18   26     -4.05      0.00
    8   18   26      7.70      0.00
    6   18   26    -22.73      0.00
    4   18   26      8.20      0.00
    2   18   26     -3.89      0.00
    0   18   26     15.30      0.00
   18   18   26     -4.85      0.00
   17   19   26      4.79      0.00
   15   19   26    -17.91      0.00
   13   19   26      8.20      0.00
   11   19   26     -4.71      0.00
    9   19   26     -3.56      0.00
    7   19   26      5.20      0.00
    5   19   26     -7.91      0.00
    3   19   26      8.25      0.00
    1   19   26      0.61      0.00
   19   19   26     -7.06      0.00
   18   20   26     -3.51      0.00
   16   20   26    -10.74      0.00
   14   20   26      5.77      0.00
   12   20   26      2.79      0.00
   10   20   26      5.51      0.00
    8   20   26     -6.30      0.00
    6   20   26    -27.32      0.00
    4   20   26     -5.51      0.00
    2   20   26      2.67      0.00
    0   20   26      7.49      0.00
   20   20   26     -7.86      0.00
   19   21   26      4.42      0.00
   17   21   26      3.29      0.00
   15   21   26     -0.22      0.00
   13   21   26     -2.63      0.00
   11   21   26     -0.39      0.00
    9   21   26     -1.88      0.00
    7   21   26      2.07      0.00
    5   21   26      1.69      0.00
    3   21   26     -8.54      0.00
    1   21   26     -2.86      0.00
   21   21   26      1.57      0.00
   20   22   26      2.94      0.00
   18   22   26     -7.98      0.00
   16   22   26      3.25      0.00
   14   22   26     -1.33      0.00
   12   22   26     -4.63      0.00
   10   22   26      0.74      0.00
    8   22   26      1.27      0.00
    6   22   26     -1.59      0.00
    4   22   26    -11.82      0.00
    2   22   26    -10.99      0.00
    0   22   26     -3.93      0.00
   22   22   26     -7.50      0.00
   21   23   26    -10.03      0.00
   19   23   26      2.41      0.00
   17   23   26     -1.08      0.00
   15   23   26      6.85      0.00
   13   23   26     -8.83      0.00
   11   23   26     -2.39      0.00
    9   23   26      0.87      0.00
    7   23   26     -9.69      0.00
    5   23   26      1.97      0.00
    3   23   26      2.63      0.00
    1   23   26      8.56      0.00
   23   23   26      4.62      0.00
   22   24   26     -0.03      0.00
   20   24   26      0.38      0.00
   18   24   26     -6.73      0.00
   16   24   26     -8.74      0.00
   14   24   26     -3.13      0.00
   12   24   26      0.84      0.00
   10   24   26     -1.12      0.00
    8   24   26      0.97      0.00
    6   24   26     -5.16      0.00
    4   24   26      3.76      0.00
    2   24   26     -1.06      0.00
    0   24   26      1.32      0.00
   24   24   26      3.27      0.00
   23   25   26     -6.30      0.00
   21   25   26      5.53      0.00
   19   25   26    -13.01      0.00
   17   25   26      5.85      0.00
   15   25   26     -1.39      0.00
   13   25   26      8.15      0.00
   11   25   26     -1.96      0.00
    9   25   26     -8.62      0.00
    7   25   26      9.68      0.00
    5   25   26     19.11      0.00
    3   25   26      2.50      0.00
    1   25   26    -18.61      0.00
    0   26   26    -10.58      0.00
    2   26   26    -17.66      0.00
    4   26   26      2.02      0.00
    6   26   26    -11.27      0.00
    8   26   26     -0.33      0.00
   10   26   26      9.74      0.00
   12   26   26    -11.50      0.00
   14   26   26     -1.77      0.00
   16   26   26     -2.57      0.00
   18   26   26     -8.73      0.00
   20   26   26      4.09      0.00
   22   26   26     -7.70      0.00
   24   26   26      8.14      0.00
    0    1   27     15.21      0.00
    1    2   27     -2.18      0.00
    2    3   27    -18.12      0.00
    0    3   27     10.29      0.00
    3    4   27     29.88      0.00
    1    4   27     14.08      0.00
    4    5   27      9.42      0.00
    2    5   27    -13.77      0.00
    0    5   27      1.40      0.00
    5    6   27    -16.92      0.00
    3    6   27    -21.58      0.00
    1    6   27      0.80      0.00
    6    7   27     -5.00      0.00
    4    7   27      9.96      0.00
    2    7   27     -4.49      0.00
    0    7   27      0.05      0.00
    7    8   27      6.36      0.00
    5    8   27      5.18      0.00
    3    8   27     25.79      0.00
    1    8   27      9.05      0.00
    8    9   27     11.09      0.00
    6    9   27    -13.39      0.00
    4    9   27      0.01      0.00
    2    9   27     -2.88      0.00
    0    9   27     11.17      0.00
    9   10   27     -3.81      0.00
    7   10   27    -12.63      0.00
    5   10   27      0.54      0.00
    3   10   27      5.55      0.00
    1   10   27    -17.27      0.00
   10   11   27    -11.87      0.00
    8   11   27      5.86      0.00
    6   11   27     10.50      0.00
    4   11   27      7.31      0.00
    2   11   27    -10.86      0.00
    0   11   27      6.71      0.00
   11   12   27      2.07      0.00
    9   12   27      4.44      0.00
    7   12   27    -12.75      0.00
    5   12   27     -5.25      0.00
    3   12   27     -3.63      0.00
    1   12   27      6.33      0.00
   12   13   27     -1.83      0.00
   10   13   27    -14.58      0.00
    8   13   27      4.06      0.00
    6   13   27     23.68      0.00
    4   13   27     11.79      0.00
    2   13   27    -14.89      0.00
    0   13   27      4.84      0.00
   13   14   27     -3.06      0.00
   11   14   27     -6.81      0.00
    9   14   27      6.28      0.00
    7   14   27     -8.01      0.00
    5   14   27    -21.74      0.00
    3   14   27    -18.03      0.00
    1   14   27     28.80      0.00
   14   15   27     -4.96      0.00
   12   15   27     14.28      0.00
   10   15   27      4.41      0.00
    8   15   27      0.59      0.00
    6   15   27      5.15      0.00
    4   15   27      4.31      0.00
    2   15   27      3.04      0.00
    0   15   27      0.51      0.00
   15   16   27      9.17      0.00
   13   16   27     -4.18      0.00
   11   16   27     21.98      0.00
    9   16   27     11.12      0.00
    7   16   27      2.33      0.00
    5   16   27     -1.92      0.00
    3   16   27      9.10      0.00
    1   16   27     43.16      0.00
   16   17   27     12.20      0.00
   14   17   27     -6.23      0.00
   12   17   27      2.58      0.00
   10   17   27      2.34      0.00
    8   17   27    -23.95      0.00
    6   17   27     -9.12      0.00
    4   17   27     -1.63      0.00
    2   17   27      2.29      0.00
    0   17   27      5.61      0.00
   17   18   27     -4.56      0.00
   15   18   27    -26.65      0.00
   13   18   27     23.37      0.00
   11   18   27     -0.12      0.00
    9   18   27      4.88      0.00
    7   18   27      5.13      0.00
    5   18   27     -9.15      0.00
    3   18   27     -3.52      0.00
    1   18   27    -32.39      0.00
   18   19   27     -7.73      0.00
   16   19   27     -5.55      0.00
   14   19   27     12.38      0.00
   12   19   27      0.87      0.00
   10   19   27     -0.58      0.00
    8   19   27     14.89      0.00
    6   19   27     -0.01      0.00
    4   19   27      4.67      0.00
    2   19   27     -8.56      0.00
    0   19   27      3.42      0.00
   19   20   27     -6.07      0.00
   17   20   27    -13.85      0.00
   15   20   27    -17.45      0.00
   13   20   27     17.74      0.00
   11   20   27      8.28      0.00
    9   20   27    -18.40      0.00
    7   20   27      0.72      0.00
    5   20   27      2.85      0.00
    3   20   27     -1.88      0.00
    1   20   27      9.12      0.00
   20   21   27      6.62      0.00
   18   21   27      8.56      0.00
   16   21   27      4.11      0.00
   14   21   27     -7.98      0.00
   12   21   27      0.40      0.00
   10   21   27     -1.39      0.00
    8   21   27     -2.24      0.00
    6   21   27     11.73      0.00
    4   21   27     -2.88      0.00
    2   21   27     -1.15      0.00
    0   21   27      2.42      0.00
   21   22   27      0.93      0.00
   19   22   27      1.59      0.00
   17   22   27      1.90      0.00
   15   22   27     -1.89      0.00
   13   22   27      5.56      0.00
   11   22   27      5.11      0.00
    9   22   27      5.94      0.00
    7   22   27     -0.22      0.00
    5   22   27      5.03      0.00
    3   22   27      5.37      0.00
    1   22   27     -4.43      0.00
   22   23   27      6.10      0.00
   20   23   27     -5.17      0.00
   18   23   27     -0.21      0.00
   16   23   27      2.14      0.00
   14   23   27     -4.31      0.00
   12   23   27     -2.44      0.00
   10   23   27     -0.13      0.00
    8   23   27      1.53      0.00
    6   23   27    -11.08      0.00
    4   23   27     -0.96      0.00
    2   23   27     -1.76      0.00
    0   23   27      4.54      0.00
   23   24   27     -3.95      0.00
   21   24   27     -1.60      0.00
   19   24   27      2.61      0.00
   17   24   27     -9.96      0.00
   15   24   27      6.49      0.00
   13   24   27     -1.00      0.00
   11   24   27    -14.53      0.00
    9   24   27     -1.68      0.00
    7   24   27      5.70      0.00
    5   24   27     -2.54      0.00
    3   24   27      8.20      0.00
    1   24   27     -2.43      0.00
   24   25   27     -4.75      0.00
   22   25   27      8.98      0.00
   20   25   27     -5.69      0.00
   18   25   27     10.70      0.00
   16   25   27      9.48      0.00
   14   25   27      0.06      0.00
   12   25   27     -1.01      0.00
   10   25   27      4.05      0.00
    8   25   27      2.25      0.00
    6   25   27     -0.42      0.00
    4   25   27      4.20      0.00
    2   25   27     11.45      0.00
    0   25   27      2.54      0.00
   23   26   27      4.63      0.00
   21   26   27     -0.13      0.00
   19   26   27      9.89      0.00
   17   26   27     -7.93      0.00
   15   26   27     -3.22      0.00
   13   26   27    -17.37      0.00
   11   26   27     16.06      0.00
    9   26   27    -17.74      0.00
    7   26   27      2.97      0.00
    5   26   27     -0.03      0.00
    3   26   27     -6.39      0.00
    1   26   27     -7.72      0.00
    0   27   27     14.65      0.00
    2   27   27     -8.94      0.00
    4   27   27     -1.74      0.00
    6   27   27      9.68      0.00
    8   27   27     -1.00      0.00
   10   27   27     -3.57      0.00
   12   27   27     -5.09      0.00
   14   27   27     -2.93      0.00
   16   27   27     10.56      0.00
   18   27   27     -7.26      0.00
   20   27   27      3.15      0.00
   22   27   27     -3.44      0.00
    0    0   28    -22.79      0.00
    1    1   28     25.75      0.00
    0    2   28     27.82      0.00
    2    2   28    -28.20      0.00
    1    3   28    -11.18      0.00
    3    3   28     16.41      0.00
    2    4   28    -23.41      0.00
    0    4   28     -1.04      0.00
    4    4   28     -9.20      0.00
    3    5   28    -21.57      0.00
    1    5   28    -15.20      0.00
    5    5   28     -5.62      0.00
    4    6   28     -6.30      0.00
    2    6   28      2.15      0.00
    0    6   28      5.22      0.00
    6    6   28    -27.00      0.00
    5    7   28    -11.72      0.00
    3    7   28     -5.85      0.00
    1    7   28     -5.13      0.00
    7    7   28      6.77      0.00
    6    8   28     36.74      0.00
    4    8   28     15.14      0.00
    2    8   28     -7.84      0.00
    0    8   28    -11.04      0.00
    8    8   28      7.79      0.00
    7    9   28     11.58      0.00
    5    9   28      8.10      0.00
    3    9   28     -8.35      0.00
    1    9   28     -8.19      0.00
    9    9   28     12.70      0.00
    8   10   28     -0.94      0.00
    6   10   28     -0.95      0.00
    4   10   28    -41.68      0.00
    2   10   28      0.18      0.00
    0   10   28     10.46      0.00
   10   10   28     -2.64      0.00
    9   11   28    -17.54      0.00
    7   11   28     -0.30      0.00
    5   11   28      1.20      0.00
    3   11   28      8.09      0.00
    1   11   28      1.00      0.00
   11   11   28     10.37      0.00
   10   12   28     13.83      0.00
    8   12   28      6.62      0.00
    6   12   28     -3.01      0.00
    4   12   28      3.25      0.00
    2   12   28      6.52      0.00
    0   12   28      7.88      0.00
   12   12   28     11.34      0.00
   11   13   28     -7.26      0.00
    9   13   28     -0.78      0.00
    7   13   28     -0.12      0.00
    5   13   28     -4.65      0.00
    3   13   28     -1.31      0.00
    1   13   28     10.73      0.00
   13   13   28      3.30      0.00
   12   14   28     -5.55      0.00
   10   14   28    -17.18      0.00
    8   14   28      6.70      0.00
    6   14   28     -1.33      0.00
    4   14   28     -8.20      0.00
    2   14   28     -3.70      0.00
    0   14   28      4.61      0.00
   14   14   28     12.70      0.00
   13   15   28     -2.34      0.00
   11   15   28    -12.06      0.00
    9   15   28    -11.97      0.00
    7   15   28     11.91      0.00
    5   15   28      7.71      0.00
    3   15   28     12.67      0.00
    1   15   28      0.80      0.00
   15   15   28      5.27      0.00
   14   16   28      2.49      0.00
   12   16   28     -8.62      0.00
   10   16   28     -4.71      0.00
    8   16   28      5.66      0.00
    6   16   28      2.47      0.00
    4   16   28    -20.11      0.00
    2   16   28     -8.75      0.00
    0   16   28    -10.80      0.00
   16   16   28     -5.09      0.00
   15   17   28     -0.17      0.00
   13   17   28    -11.83      0.00
   11   17   28    -21.54      0.00
    9   17   28      6.61      0.00
    7   17   28     -0.47      0.00
    5   17   28      7.18      0.00
    3   17   28      2.58      0.00
    1   17   28     19.03      0.00
   17   17   28    -14.32      0.00
   16   18   28      1.42      0.00
   14   18   28     -7.52      0.00
   12   18   28      5.46      0.00
   10   18   28     -8.19      0.00
    8   18   28     -6.50      0.00
    6   18   28     -5.47      0.00
    4   18   28    -14.25      0.00
    2   18   28      2.83      0.00
    0   18   28      5.51      0.00
   18   18   28      7.07      0.00
   17   19   28      8.75      0.00
   15   19   28     -5.40      0.00
   13   19   28     31.50      0.00
   11   19   28     18.87      0.00
    9   19   28      5.00      0.00
    7   19   28     -2.10      0.00
    5   19   28     -1.32      0.00
    3   19   28      0.50      0.00
    1   19   28     -6.59      0.00
   19   19   28      8.42      0.00
   18   20   28     23.17      0.00
   16   20   28      3.92      0.00
   14   20   28      3.79      0.00
   12   20   28     -4.97      0.00
   10   20   28     -4.98      0.00
    8   20   28      8.60      0.00
    6   20   28     20.89      0.00
    4   20   28      6.95      0.00
    2   20   28      1.47      0.00
    0   20   28      3.61      0.00
   20   20   28      3.86      0.00
   19   21   28     -8.91      0.00
   17   21   28     -5.74      0.00
   15   21   28     13.66      0.00
   13   21   28     27.86      0.00
   11   21   28     -3.41      0.00
    9   21   28     -4.14      0.00
    7   21   28     -3.17      0.00
    5   21   28     -6.17      0.00
    3   21   28      7.30      0.00
    1   21   28      3.48      0.00
   21   21   28      5.34      0.00
   20   22   28     -1.76      0.00
   18   22   28     -1.82      0.00
   16   22   28     -3.07      0.00
   14   22   28     -0.13      0.00
   12   22   28      2.27      0.00
   10   22   28      6.96      0.00
    8   22   28     -6.96      0.00
    6   22   28     -3.40      0.00
    4   22   28      3.77      0.00
    2   22   28     -1.16      0.00
    0   22   28      5.79      0.00
   22   22   28     -7.53      0.00
   21   23   28      9.00      0.00
   19   23   28     -8.10      0.00
   17   23   28    -18.86      0.00
   15   23   28      7.13      0.00
   13   23   28     -0.89      0.00
   11   23   28     -4.92      0.00
    9   23   28      8.59      0.00
    7   23   28      0.70      0.00
    5   23   28      5.37      0.00
    3   23   28     -8.88      0.00
    1   23   28     -1.87      0.00
   23   23   28      1.41      0.00
   22   24   28     -3.64      0.00
   20   24   28      5.88      0.00
   18   24   28      3.17      0.00
   16   24   28     -1.53      0.00
   14   24   28      6.54      0.00
   12   24   28     -6.30      0.00
   10   24   28     -2.27      0.00
    8   24   28      0.13      0.00
    6   24   28      2.04      0.00
    4   24   28      7.28      0.00
    2   24   28      6.44      0.00
    0   24   28      8.60      0.00
   24   24   28     15.61      0.00
   23   25   28      5.44      0.00
   21   25   28     28.06      0.00
   19   25   28    -16.88      0.00
   17   25   28     -5.71      0.00
   15   25   28     -0.49      0.00
   13   25   28     -7.60      0.00
   11   25   28      2.25      0.00
    9   25   28      1.67      0.00
    7   25   28     -9.01      0.00
    5   25   28     -2.21      0.00
    3   25   28     -2.68      0.00
    1   25   28      4.87      0.00
   22   26   28     -4.95      0.00
   20   26   28      0.38      0.00
   18   26   28      2.11      0.00
   16   26   28      2.58      0.00
   14   26   28     -4.14      0.00
   12   26   28    -20.78      0.00
   10   26   28     -0.69      0.00
    8   26   28      1.99      0.00
    6   26   28     -1.15      0.00
    4   26   28      4.93      0.00
    2   26   28     10.67      0.00
    0   26   28     -7.82      0.00
   21   27   28    -11.14      0.00
   19   27   28     10.41      0.00
   17   27   28     -5.81      0.00
   15   27   28      9.22      0.00
   13   27   28     -8.12      0.00
   11   27   28      8.04      0.00
    9   27   28     -5.65      0.00
    7   27   28    -14.29      0.00
    5   27   28    -16.75      0.00
    3   27   28     -2.59      0.00
    1   27   28     19.74      0.00
    0   28   28      6.33      0.00
    2   28   28      6.33      0.00
    4   28   28     -8.62      0.00
    6   28   28     -3.43      0.00
    8   28   28      1.07      0.00
   10   28   28    -38.81      0.00
   12   28   28     -6.52      0.00
   14   28   28     -2.05      0.00
   16   28   28      4.96      0.00
   18   28   28     -3.03      0.00
   20   28   28     10.08      0.00
    0    1   29      3.57      0.00
    1    2   29     -6.91      0.00
    2    3   29     -2.44      0.00
    0    3   29     14.07      0.00
    3    4   29      5.96      0.00
    1    4   29    -24.61      0.00
    4    5   29     -7.18      0.00
    2    5   29      4.88      0.00
    0    5   29      7.20      0.00
    5    6   29     -9.44      0.00
    3    6   29     -6.74      0.00
    1    6   29      6.91      0.00
    6    7   29     -7.68      0.00
    4    7   29      5.98      0.00
    2    7   29     -9.82      0.00
    0    7   29     10.05      0.00
    7    8   29     -0.49      0.00
    5    8   29     25.60      0.00
    3    8   29     -2.65      0.00
    1    8   29    -10.25      0.00
    8    9   29      0.07      0.00
    6    9   29     -3.05      0.00
    4    9   29     11.62      0.00
    2    9   29     -3.06      0.00
    0    9   29     -0.13      0.00
    9   10   29      4.56      0.00
    7   10   29     -1.88      0.00
    5   10   29      1.70      0.00
    3   10   29      9.73      0.00
    1   10   29     -6.81      0.00
   10   11   29     -5.51      0.00
    8   11   29     12.76      0.00
    6   11   29     -3.11      0.00
    4   11   29     -6.55      0.00
    2   11   29     22.48      0.00
    0   11   29    -24.66      0.00
   11   12   29     10.20      0.00
    9   12   29     -6.65      0.00
    7   12   29     -2.89      0.00
    5   12   29      2.20      0.00
    3   12   29     -8.83      0.00
    1   12   29     -7.36      0.00
   12   13   29    -12.14      0.00
   10   13   29      2.78      0.00
    8   13   29    -10.01      0.00
    6   13   29     -4.23      0.00
    4   13   29     -4.87      0.00
    2   13   29     -4.45      0.00
    0   13   29     14.79      0.00
   13   14   29      7.57      0.00
   11   14   29      0.77      0.00
    9   14   29    -34.45      0.00
    7   14   29     -5.02      0.00
    5   14   29     -4.12      0.00
    3   14   29    -20.12      0.00
    1   14   29     20.49      0.00
   14   15   29     -8.59      0.00
   12   15   29     -1.47      0.00
   10   15   29      7.89      0.00
    8   15   29     -7.64      0.00
    6   15   29    -20.06      0.00
    4   15   29      6.98      0.00
    2   15   29     -4.21      0.00
    0   15   29     -6.13      0.00
   15   16   29      6.33      0.00
   13   16   29     11.36      0.00
   11   16   29    -16.33      0.00
    9   16   29    -16.70      0.00
    7   16   29      4.90      0.00
    5   16   29      8.79      0.00
    3   16   29      3.29      0.00
    1   16   29    -16.59      0.00
   16   17   29     -4.55      0.00
   14   17   29      5.80      0.00
   12   17   29     -1.69      0.00
   10   17   29    -13.77      0.00
    8   17   29    -19.13      0.00
    6   17   29     -4.33      0.00
    4   17   29      5.59      0.00
    2   17   29     -2.43      0.00
    0   17   29     -6.68      0.00
   17   18   29      0.24      0.00
   15   18   29     -0.77      0.00
   13   18   29    -23.04      0.00
   11   18   29    -23.50      0.00
    9   18   29      9.21      0.00
    7   18   29     -0.89      0.00
    5   18   29     -5.74      0.00
    3   18   29      0.52      0.00
    1   18   29     24.58      0.00
   18   19   29      0.78      0.00
   16   19   29      6.29      0.00
   14   19   29     -4.18      0.00
   12   19   29      0.19      0.00
   10   19   29      6.85      0.00
    8   19   29     -6.53      0.00
    6   19   29     -5.76      0.00
    4   19   29    -10.96      0.00
    2   19   29      5.61      0.00
    0   19   29      8.08      0.00
   19   20   29     -8.67      0.00
   17   20   29      2.90      0.00
   15   20   29     -9.30      0.00
   13   20   29    -23.65      0.00
   11   20   29      4.59      0.00
    9   20   29     -1.47      0.00
    7   20   29      1.15      0.00
    5   20   29     -1.31      0.00
    3   20   29     -1.84      0.00
    1   20   29    -15.56      0.00
   20   21   29     -5.40      0.00
   18   21   29     -2.09      0.00
   16   21   29     -4.43      0.00
   14   21   29      6.84      0.00
   12   21   29     -3.51      0.00
   10   21   29     -0.17      0.00
    8   21   29     14.59      0.00
    6   21   29      8.98      0.00
    4   21   29      7.17      0.00
    2   21   29     -0.03      0.00
    0   21   29     -6.11      0.00
   21   22   29      5.18      0.00
   19   22   29     -3.57      0.00
   17   22   29      9.84      0.00
   15   22   29      4.53      0.00
   13   22   29      0.68      0.00
   11   22   29      3.81      0.00
    9   22   29      3.36      0.00
    7   22   29     -3.33      0.00
    5   22   29      0.38      0.00
    3   22   29      4.40      0.00
    1   22   29      6.78      0.00
   22   23   29     -0.51      0.00
   20   23   29      1.74      0.00
   18   23   29      5.34      0.00
   16   23   29      0.42      0.00
   14   23   29     -1.67      0.00
   12   23   29      2.85      0.00
   10   23   29     -6.21      0.00
    8   23   29      1.75      0.00
    6   23   29      0.39      0.00
    4   23   29     19.67      0.00
    2   23   29      1.43      0.00
    0   23   29      2.22      0.00
   23   24   29    -15.40      0.00
   21   24   29     11.01      0.00
   19   24   29     -2.68      0.00
   17   24   29      8.17      0.00
   15   24   29    -15.40      0.00
   13   24   29      6.78      0.00
   11   24   29     -4.14      0.00
    9   24   29      3.53      0.00
    7   24   29     -4.08      0.00
    5   24   29     10.32      0.00
    3   24   29     -5.92      0.00
    1   24   29      4.33      0.00
   22   25   29      7.68      0.00
   20   25   29     -2.65      0.00
   18   25   29      1.64      0.00
   16   25   29     -2.18      0.00
   14   25   29      7.65      0.00
   12   25   29    -12.29      0.00
   10   25   29    -18.52      0.00
    8   25   29      6.75      0.00
    6   25   29     -3.02      0.00
    4   25   29     -1.32      0.00
    2   25   29     -8.11      0.00
    0   25   29     19.76      0.00
   21   26   29     -2.52      0.00
   19   26   29      0.53      0.00
   17   26   29     -3.89      0.00
   15   26   29     -1.89      0.00
   13   26   29     -6.78      0.00
   11   26   29      9.15      0.00
    9   26   29      0.02      0.00
    7   26   29      2.88      0.00
    5   26   29    -14.80      0.00
    3   26   29     -7.70      0.00
    1   26   29     -0.62      0.00
   20   27   29      3.94      0.00
   18   27   29      5.55      0.00
   16   27   29     -3.37      0.00
   14   27   29     10.02      0.00
   12   27   29     -1.87      0.00
   10   27   29     -7.96      0.00
    8   27   29     -9.57      0.00
    6   27   29     -1.05      0.00
    4   27   29      3.90      0.00
    2   27   29     -0.40      0.00
    0   27   29     -5.21      0.00
   19   28   29     -6.15      0.00
   17   28   29     24.61      0.00
   15   28   29     25.62      0.00
   13   28   29    -28.28      0.00
   11   28   29      8.35      0.00
    9   28   29     -5.22      0.00
    7   28   29      5.05      0.00
    5   28   29     -1.94      0.00
    3   28   29      0.97      0.00
    1   28   29     -0.03      0.00
    0   29   29      7.86      0.00
    2   29   29      8.07      0.00
    4   29   29      1.34      0.00
    6   29   29     -3.70      0.00
    8   29   29     -5.64      0.00
   10   29   29      6.17      0.00
   12   29   29      5.24      0.00
   14   29   29     -7.28      0.00
   16   29   29      4.69      0.00
   18   29   29      5.82      0.00
    0    0   30     45.94      0.00
    1    1   30     -7.41      0.00
    0    2   30     20.91      0.00
    2    2   30     -1.85      0.00
    1    3   30     -9.04      0.00
    3    3   30     -8.54      0.00
    2    4   30    -11.80      0.00
    0    4   30     -8.97      0.00
    4    4   30      9.33      0.00
    3    5   30      6.16      0.00
    1    5   30     20.68      0.00
    5    5   30      3.71      0.00
    4    6   30      6.07      0.00
    2    6   30    -15.73      0.00
    0    6   30    -22.32      0.00
    6    6   30      6.81      0.00
    5    7   30      2.04      0.00
    3    7   30     12.71      0.00
    1    7   30      3.90      0.00
    7    7   30      3.21      0.00
    6    8   30      9.70      0.00
    4    8   30     21.67      0.00
    2    8   30    -21.46      0.00
    0    8   30     26.54      0.00
    8    8   30    -10.25      0.00
    7    9   30    -15.17      0.00
    5    9   30      6.97      0.00
    3    9   30    -10.19      0.00
    1    9   30     11.38      0.00
    9    9   30    -14.16      0.00
    8   10   30      5.26      0.00
    6   10   30     -1.69      0.00
    4   10   30      3.55      0.00
    2   10   30      4.04      0.00
    0   10   30     10.66      0.00
   10   10   30    -20.36      0.00
    9   11   30      9.45      0.00
    7   11   30     -2.20      0.00
    5   11   30     -0.48      0.00
    3   11   30    -13.71      0.00
    1   11   30     18.75      0.00
   11   11   30      2.50      0.00
   10   12   30     -9.50      0.00
    8   12   30      9.03      0.00
    6   12   30    -19.76      0.00
    4   12   30      6.78      0.00
    2   12   30     20.92      0.00
    0   12   30      6.47      0.00
   12   12   30     23.19      0.00
   11   13   30      2.33      0.00
    9   13   30     16.24      0.00
    7   13   30     -5.08      0.00
    5   13   30     -0.29      0.00
    3   13   30     -5.01      0.00
    1   13   30    -14.50      0.00
   13   13   30     -3.86      0.00
   12   14   30      5.55      0.00
   10   14   30      1.85      0.00
    8   14   30     12.94      0.00
    6   14   30    -12.41      0.00
    4   14   30    -18.27      0.00
    2   14   30    -17.82      0.00
    0   14   30    -12.22      0.00
   14   14   30      0.88      0.00
   13   15   30      3.39      0.00
   11   15   30      4.45      0.00
    9   15   30      2.06      0.00
    7   15   30      0.15      0.00
    5   15   30     -8.04      0.00
    3   15   30     -4.33      0.00
    1   15   30      1.11      0.00
   15   15   30     -6.67      0.00
   14   16   30     -6.87      0.00
   12   16   30     -0.94      0.00
   10   16   30    -14.21      0.00
    8   16   30      5.27      0.00
    6   16   30      3.65      0.00
    4   16   30     -3.31      0.00
    2   16   30     -8.12      0.00
    0   16   30      9.58      0.00
   16   16   30     14.00      0.00
   15   17   30      4.11      0.00
   13   17   30     -0.74      0.00
   11   17   30     -3.20      0.00
    9   17   30     -9.96      0.00
    7   17   30      3.88      0.00
    5   17   30     -0.93      0.00
    3   17   30      6.09      0.00
    1   17   30    -13.79      0.00
   17   17   30     -2.57      0.00
   16   18   30     -7.41      0.00
   14   18   30      1.94      0.00
   12   18   30     -8.53      0.00
   10   18   30      0.11      0.00
    8   18   30      2.86      0.00
    6   18   30     23.79      0.00
    4   18   30     13.64      0.00
    2   18   30     -9.15      0.00
    0   18   30      7.33      0.00
   18   18   30     -5.29      0.00
   17   19   30     -4.15      0.00
   15   19   30      0.23      0.00
   13   19   30      0.11      0.00
   11   19   30     29.63      0.00
    9   19   30      0.72      0.00
    7   19   30      5.50      0.00
    5   19   30      1.18      0.00
    3   19   30      2.10      0.00
    1   19   30     -0.07      0.00
   19   19   30     -1.13      0.00
   18   20   30      9.13      0.00
   16   20   30      1.66      0.00
   14   20   30     -6.79      0.00
   12   20   30      4.71      0.00
   10   20   30      9.72      0.00
    8   20   30     -2.65      0.00
    6   20   30     -4.36      0.00
    4   20   30     -2.18      0.00
    2   20   30      1.75      0.00
    0   20   30     12.94      0.00
   20   20   30     11.03      0.00
   19   21   30      4.69      0.00
   17   21   30      1.99      0.00
   15   21   30     -3.86      0.00
   13   21   30      8.12      0.00
   11   21   30      9.32      0.00
    9   21   30     -8.29      0.00
    7   21   30     -2.62      0.00
    5   21   30     -1.46      0.00
    3   21   30     -2.21      0.00
    1   21   30     -8.14      0.00
   21   21   30    -10.93      0.00
   20   22   30     -6.74      0.00
   18   22   30    -13.42      0.00
   16   22   30     -2.66      0.00
   14   22   30      2.04      0.00
   12   22   30      9.95      0.00
   10   22   30     -2.36      0.00
    8   22   30     11.19      0.00
    6   22   30     10.78      0.00
    4   22   30     -5.08      0.00
    2   22   30     -7.44      0.00
    0   22   30     -5.98      0.00
   22   22   30     -1.93      0.00
   21   23   30      1.84      0.00
   19   23   30     -0.27      0.00
   17   23   30     -2.91      0.00
   15   23   30     -5.39      0.00
   13   23   30      3.53      0.00
   11   23   30     -4.14      0.00
    9   23   30     -4.17      0.00
    7   23   30      6.46      0.00
    5   23   30      2.91      0.00
    3   23   30      0.85      0.00
    1   23   30     -5.00      0.00
   23   23   30      2.95      0.00
   22   24   30      2.83      0.00
   20   24   30      4.18      0.00
   18   24   30     -7.57      0.00
   16   24   30     -1.19      0.00
   14   24   30    -15.35      0.00
   12   24   30      4.53      0.00
   10   24   30    -12.27      0.00
    8   24   30     -6.55      0.00
    6   24   30     -5.71      0.00
    4   24   30      9.52      0.00
    2   24   30     -4.16      0.00
    0   24   30     13.71      0.00
   21   25   30    -10.46      0.00
   19   25   30     -1.76      0.00
   17   25   30     10.42      0.00
   15   25   30      0.64      0.00
   13   25   30      8.30      0.00
   11   25   30     -7.36      0.00
    9   25   30      8.46      0.00
    7   25   30     -4.61      0.00
    5   25   30    -14.32      0.00
    3   25   30     16.24      0.00
    1   25   30     -9.62      0.00
   20   26   30     -9.87      0.00
   18   26   30     -9.02      0.00
   16   26   30      0.97      0.00
   14   26   30      0.77      0.00
   12   26   30     -0.33      0.00
   10   26   30      2.52      0.00
    8   26   30      0.83      0.00
    6   26   30     -0.85      0.00
    4   26   30      3.01      0.00
    2   26   30      1.93      0.00
    0   26   30      1.08      0.00
   19   27   30      9.57      0.00
   17   27   30      4.85      0.00
   15   27   30      1.68      0.00
   13   27   30      9.70      0.00
   11   27   30      4.21      0.00
    9   27   30     -0.97      0.00
    7   27   30     -7.99      0.00
    5   27   30    -20.32      0.00
    3   27   30     -2.86      0.00
    1   27   30     -2.61      0.00
   18   28   30     -7.79      0.00
   16   28   30      0.92      0.00
   14   28   30    -10.80      0.00
   12   28   30      0.86      0.00
   10   28   30     -2.21      0.00
    8   28   30     12.28      0.00
    6   28   30     11.92      0.00
    4   28   30      9.26      0.00
    2   28   30    -10.75      0.00
    0   28   30     -3.37      0.00
   15   29   30     18.68      0.00
   13   29   30    -17.90      0.00
   11   29   30     16.60      0.00
    9   29   30     -7.33      0.00
    7   29   30    -14.19      0.00
    5   29   30      9.74      0.00
    3   29   30    -16.31      0.00
    1   29   30      0.06      0.00
    0   30   30     -9.04      0.00
    2   30   30      3.82      0.00
    4   30   30     -2.11      0.00
    6   30   30     -7.16      0.00
    8   30   30     -9.55      0.00
   10   30   30     -3.44      0.00
   12   30   30     -7.40      0.00
   14   30   30      4.68      0.00
    0    1   31      7.49      0.00
    1    2   31     -0.45      0.00
    2    3   31    -24.90      0.00
    0    3   31     11.30      0.00
    3    4   31     33.50      0.00
    1    4   31     -0.92      0.00
    4    5   31     12.35      0.00
    2    5   31      2.06      0.00
    0    5   31    -10.54      0.00
    5    6   31      2.51      0.00
    3    6   31     30.15      0.00
    1    6   31     18.94      0.00
    6    7   31     -2.76      0.00
    4    7   31      0.72      0.00
    2    7   31     10.26      0.00
    0    7   31     -1.29      0.00
    7    8   31      1.77      0.00
    5    8   31     -3.07      0.00
    3    8   31     -8.32      0.00
    1    8   31     -5.94      0.00
    8    9   31     -2.08      0.00
    6    9   31      7.99      0.00
    4    9   31      0.58      0.00
    2    9   31      1.79      0.00
    0    9   31      2.09      0.00
    9   10   31      4.85      0.00
    7   10   31     13.32      0.00
    5   10   31     15.62      0.00
    3   10   31      1.22      0.00
    1   10   31      0.99      0.00
   10   11   31     -0.05      0.00
    8   11   31     -0.83      0.00
    6   11   31      1.32      0.00
    4   11   31      3.57      0.00
    2   11   31     -1.06      0.00
    0   11   31     -4.54      0.00
   11   12   31      2.00      0.00
    9   12   31     40.33      0.00
    7   12   31      7.63      0.00
    5   12   31      8.63      0.00
    3   12   31      7.07      0.00
    1   12   31    -25.43      0.00
   12   13   31      1.27      0.00
   10   13   31     -6.89      0.00
    8   13   31      7.30      0.00
    6   13   31     11.26      0.00
    4   13   31     26.33      0.00
    2   13   31     -7.93      0.00
    0   13   31     10.17      0.00
   13   14   31     -9.03      0.00
   11   14   31    -17.72      0.00
    9   14   31    -18.18      0.00
    7   14   31      5.36      0.00
    5   14   31     11.98      0.00
    3   14   31     -8.14      0.00
    1   14   31    -49.75      0.00
   14   15   31     10.44      0.00
   12   15   31      3.03      0.00
   10   15   31     -3.30      0.00
    8   15   31     -6.65      0.00
    6   15   31     -1.35      0.00
    4   15   31     12.02      0.00
    2   15   31      4.20      0.00
    0   15   31      7.23      0.00
   15   16   31     -8.36      0.00
   13   16   31      4.03      0.00
   11   16   31     20.10      0.00
    9   16   31      2.92      0.00
    7   16   31      2.42      0.00
    5   16   31     -4.36      0.00
    3   16   31      9.83      0.00
    1   16   31     36.93      0.00
   16   17   31     -4.72      0.00
   14   17   31     -1.38      0.00
   12   17   31     10.48      0.00
   10   17   31      0.83      0.00
    8   17   31     -2.58      0.00
    6   17   31    -10.95      0.00
    4   17   31      3.19      0.00
    2   17   31      5.89      0.00
    0   17   31      2.06      0.00
   17   18   31      5.17      0.00
   15   18   31      1.00      0.00
   13   18   31     -1.00      0.00
   11   18   31     36.94      0.00
    9   18   31     -4.97      0.00
    7   18   31     -2.59      0.00
    5   18   31     12.81      0.00
    3   18   31     -8.81      0.00
    1   18   31    -19.76      0.00
   18   19   31      0.52      0.00
   16   19   31     -0.29      0.00
   14   19   31     -0.58      0.00
   12   19   31      1.53      0.00
   10   19   31     -6.48      0.00
    8   19   31     -4.74      0.00
    6   19   31    -11.66      0.00
    4   19   31      8.28      0.00
    2   19   31      4.43      0.00
    0   19   31     -4.41      0.00
   19   20   31     -0.67      0.00
   17   20   31     -1.06      0.00
   15   20   31     10.20      0.00
   13   20   31    -29.68      0.00
   11   20   31    -13.08      0.00
    9   20   31     -4.72      0.00
    7   20   31     -3.41      0.00
    5   20   31     -2.36      0.00
    3   20   31      4.96      0.00
    1   20   31     24.05      0.00
   20   21   31      2.16      0.00
   18   21   31      0.97      0.00
   16   21   31      1.53      0.00
   14   21   31     -4.04      0.00
   12   21   31     10.73      0.00
   10   21   31      3.80      0.00
    8   21   31     -7.01      0.00
    6   21   31    -15.64      0.00
    4   21   31     -6.90      0.00
    2   21   31     -2.82      0.00
    0   21   31      4.35      0.00
   21   22   31      4.30      0.00
   19   22   31      0.11      0.00
   17   22   31    -20.11      0.00
   15   22   31     12.23      0.00
   13   22   31     -5.89      0.00
   11   22   31     -1.28      0.00
    9   22   31      5.07      0.00
    7   22   31      4.20      0.00
    5   22   31      4.52      0.00
    3   22   31      0.40      0.00
    1   22   31     -1.57      0.00
   22   23   31     11.11      0.00
   20   23   31     -9.13      0.00
   18   23   31    -15.03      0.00
   16   23   31     14.49      0.00
   14   23   31    -23.62      0.00
   12   23   31     25.91      0.00
   10   23   31     18.15      0.00
    8   23   31     -4.43      0.00
    6   23   31      7.04      0.00
    4   23   31     -9.63      0.00
    2   23   31      4.63      0.00
    0   23   31    -13.02      0.00
   21   24   31     -2.57      0.00
   19   24   31      7.24      0.00
   17   24   31     -3.37      0.00
   15   24   31      4.82      0.00
   13   24   31     -4.74      0.00
   11   24   31     13.04      0.00
    9   24   31    -10.87      0.00
    7   24   31      0.74      0.00
    5   24   31      4.49      0.00
    3   24   31      1.18      0.00
    1   24   31    -10.05      0.00
   20   25   31    -19.43      0.00
   18   25   31     -2.19      0.00
   16   25   31     -0.19      0.00
   14   25   31     -5.57      0.00
   12   25   31      7.95      0.00
   10   25   31     -1.53      0.00
    8   25   31     -6.27      0.00
    6   25   31      0.32      0.00
    4   25   31      3.21      0.00
    2   25   31     -1.56      0.00
    0   25   31     -2.55      0.00
   19   26   31      0.39      0.00
   17   26   31     -3.85      0.00
   15   26   31     -0.51      0.00
   13   26   31      4.94      0.00
   11   26   31    -14.48      0.00
    9   26   31      8.26      0.00
    7   26   31     -4.02      0.00
    5   26   31      4.34      0.00
    3   26   31      7.39      0.00
    1   26   31     10.50      0.00
   16   27   31     -8.99      0.00
   14   27   31      4.24      0.00
   12   27   31     -5.13      0.00
   10   27   31      1.93      0.00
    8   27   31     -3.77      0.00
    6   27   31     -2.87      0.00
    4   27   31      2.48      0.00
    2   27   31      0.46      0.00
    0   27   31      2.12      0.00
   15   28   31     -1.54      0.00
   13   28   31     11.23      0.00
   11   28   31     -5.70      0.00
    9   28   31     -4.41      0.00
    7   28   31      0.68      0.00
    5   28   31      9.70      0.00
    3   28   31    -14.80      0.00
    1   28   31    -18.50      0.00
   14   29   31     -2.43      0.00
   12   29   31     -1.66      0.00
   10   29   31     -0.18      0.00
    8   29   31      3.32      0.00
    6   29   31      0.92      0.00
    4   29   31     -5.02      0.00
    2   29   31     -1.38      0.00
    0   29   31     30.78      0.00
   11   30   31     32.10      0.00
    9   30   31     -8.84      0.00
    7   30   31      6.17      0.00
    5   30   31    -13.39      0.00
    3   30   31      8.22      0.00
    1   30   31     11.45      0.00
    2   31   31     16.58      0.00
    4   31   31     -6.90      0.00
    6   31   31      0.74      0.00
    8   31   31      3.46      0.00
    0    0   32    -22.77      0.00
    1    1   32    -22.10      0.00
    0    2   32    -23.97      0.00
    2    2   32     15.18      0.00
    1    3   32     59.26      0.00
    3    3   32    -39.33      0.00
    2    4   32    -19.25      0.00
    0    4   32     -2.18      0.00
    4    4   32     12.10      0.00
    3    5   32     -8.29      0.00
    1    5   32     16.99      0.00
    5    5   32      9.51      0.00
    4    6   32     -2.60      0.00
    2    6   32      4.01      0.00
    0    6   32     16.20      0.00
    6    6   32     20.35      0.00
    5    7   32     -4.23      0.00
    3    7   32      3.05      0.00
    1    7   32     -8.98      0.00
    7    7   32     13.06      0.00
    6    8   32     -0.55      0.00
    4    8   32      2.86      0.00
    2    8   32    -15.83      0.00
    0    8   32     -2.02      0.00
    8    8   32    -15.25      0.00
    7    9   32      6.30      0.00
    5    9   32     -1.38      0.00
    3    9   32     -6.14      0.00
    1    9   32     12.74      0.00
    9    9   32     -2.35      0.00
    8   10   32    -17.28      0.00
    6   10   32      6.94      0.00
    4   10   32     17.42      0.00
    2   10   32     13.76      0.00
    0   10   32      1.15      0.00
   10   10   32    -15.11      0.00
    9   11   32      2.45      0.00
    7   11   32      7.69      0.00
    5   11   32      1.76      0.00
    3   11   32     -6.03      0.00
    1   11   32    -15.14      0.00
   11   11   32      4.02      0.00
   10   12   32     -5.12      0.00
    8   12   32      0.80      0.00
    6   12   32     -2.92      0.00
    4   12   32     -2.90      0.00
    2   12   32      0.80      0.00
    0   12   32      5.19      0.00
   12   12   32     11.70      0.00
   11   13   32     -1.46      0.00
    9   13   32     -0.71      0.00
    7   13   32      6.57      0.00
    5   13   32     -8.27      0.00
    3   13   32      4.61      0.00
    1   13   32    -12.94      0.00
   13   13   32     -3.11      0.00
   12   14   32     -2.37      0.00
   10   14   32     -8.79      0.00
    8   14   32      4.57      0.00
    6   14   32     -4.76      0.00
    4   14   32     18.30      0.00
    2   14   32      0.05      0.00
    0   14   32     22.51      0.00
   14   14   32     31.68      0.00
   13   15   32      2.85      0.00
   11   15   32     -3.77      0.00
    9   15   32     -6.87      0.00
    7   15   32     -5.80      0.00
    5   15   32      6.47      0.00
    3   15   32     -6.16      0.00
    1   15   32     -8.33      0.00
   15   15   32      1.63      0.00
   14   16   32     -6.04      0.00
   12   16   32      1.38      0.00
   10   16   32     12.63      0.00
    8   16   32      1.98      0.00
    6   16   32    -18.19      0.00
    4   16   32      8.46      0.00
    2   16   32     11.04      0.00
    0   16   32     18.85      0.00
   16   16   32      1.95      0.00
   15   17   32      5.69      0.00
   13   17   32     -2.86      0.00
   11   17   32      8.61      0.00
    9   17   32      6.73      0.00
    7   17   32      3.85      0.00
    5   17   32      3.58      0.00
    3   17   32     -0.43      0.00
    1   17   32     -0.16      0.00
   17   17   32     -0.44      0.00
   16   18   32    -10.12      0.00
   14   18   32     20.53      0.00
   12   18   32     -2.85      0.00
   10   18   32    -14.13      0.00
    8   18   32      2.52      0.00
    6   18   32     -4.63      0.00
    4   18   32     -6.73      0.00
    2   18   32     -0.50      0.00
    0   18   32     10.25      0.00
   18   18   32     19.54      0.00
   17   19   32      5.15      0.00
   15   19   32      2.58      0.00
   13   19   32     -4.83      0.00
   11   19   32     -3.62      0.00
    9   19   32     -7.63      0.00
    7   19   32     -5.81      0.00
    5   19   32     -4.03      0.00
    3   19   32      1.84      0.00
    1   19   32    -14.01      0.00
   19   19   32      3.55      0.00
   18   20   32      0.97      0.00
   16   20   32      1.27      0.00
   14   20   32     -3.78      0.00
   12   20   32      3.17      0.00
   10   20   32    -10.87      0.00
    8   20   32     12.85      0.00
    6   20   32      7.36      0.00
    4   20   32      4.46      0.00
    2   20   32     -6.60      0.00
    0   20   32      7.76      0.00
   20   20   32     -9.87      0.00
   19   21   32      4.57      0.00
   17   21   32      1.61      0.00
   15   21   32      1.94      0.00
   13   21   32     -3.94      0.00
   11   21   32     11.53      0.00
    9   21   32     12.10      0.00
    7   21   32     -0.15      0.00
    5   21   32      2.01      0.00
    3   21   32     -7.00      0.00
    1   21   32      4.62      0.00
   21   21   32      5.64      0.00
   20   22   32      3.75      0.00
   18   22   32    -16.88      0.00
   16   22   32    -13.79      0.00
   14   22   32     -9.64      0.00
   12   22   32      3.53      0.00
   10   22   32     -2.99      0.00
    8   22   32     -5.18      0.00
    6   22   32     -5.08      0.00
    4   22   32      2.28      0.00
    2   22   32     -5.94      0.00
    0   22   32      4.47      0.00
   19   23   32     -3.30      0.00
   17   23   32     -2.31      0.00
   15   23   32      4.86      0.00
   13   23   32     -1.25      0.00
   11   23   32      5.11      0.00
    9   23   32     -7.46      0.00
    7   23   32     -1.95      0.00
    5   23   32     -2.69      0.00
    3   23   32      7.55      0.00
    1   23   32     -0.62      0.00
   18   24   32    -18.25      0.00
   16   24   32     -9.94      0.00
   14   24   32     -2.46      0.00
   12   24   32     -1.55      0.00
   10   24   32     -5.72      0.00
    8   24   32     10.38      0.00
    6   24   32      2.28      0.00
    4   24   32     -0.25      0.00
    2   24   32    -11.10      0.00
    0   24   32     -0.21      0.00
   17   25   32     -4.08      0.00
   15   25   32      5.62      0.00
   13   25   32     -4.83      0.00
   11   25   32      0.73      0.00
    9   25   32     -3.17      0.00
    7   25   32     -9.92      0.00
    5   25   32     -5.84      0.00
    3   25   32      2.31      0.00
    1   25   32     24.81      0.00
   16   26   32     14.12      0.00
   14   26   32      3.50      0.00
   12   26   32      1.02      0.00
   10   26   32     14.58      0.00
    8   26   32     -9.78      0.00
    6   26   32     -6.41      0.00
    4   26   32     -9.89      0.00
    2   26   32      9.73      0.00
    0   26   32     11.08      0.00
   15   27   32     -5.24      0.00
   13   27   32     -8.69      0.00
   11   27   32      2.17      0.00
    9   27   32     -8.13      0.00
    7   27   32     14.44      0.00
    5   27   32      2.90      0.00
    3   27   32     16.48      0.00
    1   27   32      9.32      0.00
   14   28   32     -0.61      0.00
   12   28   32     -6.90      0.00
   10   28   32      6.59      0.00
    8   28   32      2.20      0.00
    6   28   32      5.31      0.00
    4   28   32      8.40      0.00
    2   28   32     -8.39      0.00
    0   28   32    -16.62      0.00
   11   29   32    -13.00      0.00
    9   29   32      4.68      0.00
    7   29   32      8.90      0.00
    5   29   32     -1.07      0.00
    3   29   32     -1.55      0.00
    1   29   32      3.46      0.00
    8   30   32      9.39      0.00
    6   30   32     17.39      0.00
    4   30   32      6.00      0.00
    2   30   32    -11.84      0.00
    0    1   33    -11.09      0.00
    1    2   33      7.73      0.00
    2    3   33     -1.19      0.00
    0    3   33      9.87      0.00
    3    4   33      4.21      0.00
    1    4   33    -15.43      0.00
    4    5   33     11.44      0.00
    2    5   33      4.35      0.00
    0    5   33     -5.38      0.00
    5    6   33     19.88      0.00
    3    6   33     -0.19      0.00
    1    6   33      4.19      0.00
    6    7   33     -3.59      0.00
    4    7   33      5.31      0.00
    2    7   33    -14.40      0.00
    0    7   33     15.57      0.00
    7    8   33     20.52      0.00
    5    8   33     -3.12      0.00
    3    8   33    -12.26      0.00
    1    8   33     -7.92      0.00
    8    9   33     -3.95      0.00
    6    9   33    -22.91      0.00
    4    9   33      0.93      0.00
    2    9   33     -3.18      0.00
    0    9   33     -7.47      0.00
    9   10   33     -5.25      0.00
    7   10   33     -6.94      0.00
    5   10   33     -1.99      0.00
    3   10   33    -21.04      0.00
    1   10   33     -1.95      0.00
   10   11   33      8.38      0.00
    8   11   33     -6.14      0.00
    6   11   33     -2.71      0.00
    4   11   33      0.21      0.00
    2   11   33     -0.42      0.00
    0   11   33      7.24      0.00
   11   12   33     -8.77      0.00
    9   12   33     11.64      0.00
    7   12   33     -3.20      0.00
    5   12   33      6.14      0.00
    3   12   33      7.72      0.00
    1   12   33     -8.22      0.00
   12   13   33      6.42      0.00
   10   13   33    -26.94      0.00
    8   13   33    -10.39      0.00
    6   13   33     -3.98      0.00
    4   13   33      2.93      0.00
    2   13   33     -4.55      0.00
    0   13   33      6.69      0.00
   13   14   33     -3.04      0.00
   11   14   33     -0.01      0.00
    9   14   33      8.78      0.00
    7   14   33     10.61      0.00
    5   14   33     -9.78      0.00
    3   14   33     -3.57      0.00
    1   14   33      2.68      0.00
   14   15   33      1.88      0.00
   12   15   33      4.22      0.00
   10   15   33     -0.92      0.00
    8   15   33     -4.34      0.00
    6   15   33      8.86      0.00
    4   15   33     35.53      0.00
    2   15   33    -23.57      0.00
    0   15   33      5.46      0.00
   15   16   33     -2.47      0.00
   13   16   33      4.95      0.00
   11   16   33     -0.05      0.00
    9   16   33     -5.60      0.00
    7   16   33     -7.49      0.00
    5   16   33      1.87      0.00
    3   16   33     -6.74      0.00
    1   16   33    -10.97      0.00
   16   17   33      6.70      0.00
   14   17   33      0.14      0.00
   12   17   33     -0.37      0.00
   10   17   33    -14.46      0.00
    8   17   33     -9.21      0.00
    6   17   33     -8.75      0.00
    4   17   33      7.39      0.00
    2   17   33     -6.22      0.00
    0   17   33      3.29      0.00
   17   18   33    -10.00      0.00
   15   18   33     -4.95      0.00
   13   18   33      2.73      0.00
   11   18   33      8.34      0.00
    9   18   33      3.80      0.00
    7   18   33     11.01      0.00
    5   18   33     -1.08      0.00
    3   18   33     -4.52      0.00
    1   18   33     13.79      0.00
   18   19   33     -1.91      0.00
   16   19   33     -5.11      0.00
   14   19   33    -10.25      0.00
   12   19   33     -1.79      0.00
   10   19   33     -4.98      0.00
    8   19   33      2.92      0.00
    6   19   33    -18.41      0.00
    4   19   33      2.10      0.00
    2   19   33     -2.43      0.00
    0   19   33      4.43      0.00
   19   20   33     -0.02      0.00
   17   20   33     12.88      0.00
   15   20   33      5.68      0.00
   13   20   33     23.46      0.00
   11   20   33     -6.78      0.00
    9   20   33     -9.38      0.00
    7   20   33     -7.05      0.00
    5   20   33     -8.00      0.00
    3   20   33     12.61      0.00
    1   20   33    -21.25      0.00
   20   21   33      2.65      0.00
   18   21   33     -1.49      0.00
   16   21   33     -7.80      0.00
   14   21   33     -9.18      0.00
   12   21   33     10.46      0.00
   10   21   33      2.98      0.00
    8   21   33      3.48      0.00
    6   21   33     -8.27      0.00
    4   21   33      2.78      0.00
    2   21   33      6.22      0.00
    0   21   33     -6.83      0.00
   19   22   33    -10.87      0.00
   17   22   33      3.31      0.00
   15   22   33    -16.11      0.00
   13   22   33     -2.46      0.00
   11   22   33    -11.32      0.00
    9   22   33     11.44      0.00
    7   22   33     -2.74      0.00
    5   22   33     -5.71      0.00
    3   22   33     11.56      0.00
    1   22   33      2.33      0.00
   18   23   33     -0.86      0.00
   16   23   33      3.15      0.00
   14   23   33      3.30      0.00
   12   23   33     16.67      0.00
   10   23   33     -7.78      0.00
    8   23   33     -0.35      0.00
    6   23   33    -24.90      0.00
    4   23   33     -0.26      0.00
    2   23   33     -0.13      0.00
    0   23   33      2.53      0.00
   17   24   33      0.91      0.00
   15   24   33      6.00      0.00
   13   24   33      0.76      0.00
   11   24   33     14.53      0.00
    9   24   33     -9.78      0.00
    7   24   33     14.21      0.00
    5   24   33     -0.44      0.00
    3   24   33      8.09      0.00
    1   24   33     17.35      0.00
   16   25   33    -16.43      0.00
   14   25   33      7.75      0.00
   12   25   33     -1.43      0.00
   10   25   33     -5.52      0.00
    8   25   33      6.89      0.00
    6   25   33     -6.64      0.00
    4   25   33     -1.18      0.00
    2   25   33     -0.13      0.00
    0   25   33      9.16      0.00
   15   26   33     -5.32      0.00
   13   26   33    -14.41      0.00
   11   26   33     -8.94      0.00
    9   26   33      1.45      0.00
    7   26   33    -15.16      0.00
    5   26   33     -6.78      0.00
    3   26   33      4.22      0.00
    1   26   33     -7.67      0.00
   14   27   33      0.04      0.00
   12   27   33      6.52      0.00
   10   27   33      0.64      0.00
    8   27   33     -5.24      0.00
    6   27   33     -6.53      0.00
    4   27   33     -1.58      0.00
    2   27   33     -0.78      0.00
    0   27   33      1.19      0.00
   11   28   33      7.77      0.00
    9   28   33     -7.06      0.00
    7   28   33     10.30      0.00
    5   28   33    -10.58      0.00
    3   28   33     -3.94      0.00
    1   28   33     19.09      0.00
    8   29   33     -4.78      0.00
    6   29   33     16.05      0.00
    4   29   33     -4.79      0.00
    2   29   33     20.56      0.00
    0    0   34     25.59      0.00
    1    1   34     65.01      0.00
    0    2   34      0.86      0.00
    2    2   34     33.63      0.00
    1    3   34     47.28      0.00
    3    3   34    -12.84      0.00
    2    4   34     -2.95      0.00
    0    4   34     -4.30      0.00
    4    4   34      4.43      0.00
    3    5   34     -7.26      0.00
    1    5   34    -20.51      0.00
    5    5   34     -0.27      0.00
    4    6   34    -26.09      0.00
    2    6   34    -13.67      0.00
    0    6   34     -4.94      0.00
    6    6   34      8.61      0.00
    5    7   34     -2.97      0.00
    3    7   34      2.95      0.00
    1    7   34      1.75      0.00
    7    7   34      2.92      0.00
    6    8   34      6.12      0.00
    4    8   34     30.81      0.00
    2    8   34     -4.40      0.00
    0    8   34      3.20      0.00
    8    8   34    -26.48      0.00
    7    9   34     -6.00      0.00
    5    9   34      7.53      0.00
    3    9   34     -2.03      0.00
    1    9   34    -11.69      0.00
    9    9   34      0.49      0.00
    8   10   34     21.15      0.00
    6   10   34      5.75      0.00
    4   10   34     -6.41      0.00
    2   10   34     11.75      0.00
    0   10   34      3.03      0.00
   10   10   34      5.29      0.00
    9   11   34     -3.80      0.00
    7   11   34      0.71      0.00
    5   11   34      2.26      0.00
    3   11   34     15.37      0.00
    1   11   34      9.80      0.00
   11   11   34    -13.52      0.00
   10   12   34    -21.25      0.00
    8   12   34     16.72      0.00
    6   12   34     24.79      0.00
    4   12   34     22.54      0.00
    2   12   34     16.03      0.00
    0   12   34    -13.08      0.00
   12   12   34     -5.29      0.00
   11   13   34      1.36      0.00
    9   13   34     -3.60      0.00
    7   13   34     -2.64      0.00
    5   13   34     -3.79      0.00
    3   13   34     -1.92      0.00
    1   13   34     -5.13      0.00
   13   13   34     -0.72      0.00
   12   14   34      9.29      0.00
   10   14   34     -1.37      0.00
    8   14   34     -5.21      0.00
    6   14   34     -6.90      0.00
    4   14   34     13.30      0.00
    2   14   34      0.82      0.00
    0   14   34      7.09      0.00
   14   14   34     -8.49      0.00
   13   15   34     -3.42      0.00
   11   15   34      9.43      0.00
    9   15   34     14.16      0.00
    7   15   34      4.70      0.00
    5   15   34     -3.88      0.00
    3   15   34      2.28      0.00
    1   15   34      8.99      0.00
   15   15   34     10.86      0.00
   14   16   34     35.92      0.00
   12   16   34     31.27      0.00
   10   16   34     14.00      0.00
    8   16   34      3.91      0.00
    6   16   34      3.36      0.00
    4   16   34      0.35      0.00
    2   16   34    -19.38      0.00
    0   16   34      4.97      0.00
   16   16   34     55.78      0.00
   15   17   34     -0.42      0.00
   13   17   34     -1.83      0.00
   11   17   34     -0.90      0.00
    9   17   34      8.47      0.00
    7   17   34      9.30      0.00
    5   17   34      8.38      0.00
    3   17   34      5.24      0.00
    1   17   34     -0.43      0.00
   17   17   34    -12.78      0.00
   16   18   34     23.96      0.00
   14   18   34     -9.60      0.00
   12   18   34     23.45      0.00
   10   18   34    -10.75      0.00
    8   18   34     -6.17      0.00
    6   18   34     -3.09      0.00
    4   18   34    -15.36      0.00
    2   18   34    -16.12      0.00
    0   18   34      1.19      0.00
   18   18   34      5.14      0.00
   17   19   34      0.18      0.00
   15   19   34      0.13      0.00
   13   19   34      2.05      0.00
   11   19   34      0.05      0.00
    9   19   34      5.60      0.00
    7   19   34      8.74      0.00
    5   19   34      8.50      0.00
    3   19   34     -0.95      0.00
    1   19   34     11.16      0.00
   19   19   34    -15.11      0.00
   18   20   34      4.71      0.00
   16   20   34     20.08      0.00
   14   20   34    -28.61      0.00
   12   20   34      7.35      0.00
   10   20   34      0.89      0.00
    8   20   34     -0.69      0.00
    6   20   34      5.76      0.00
    4   20   34     -6.14      0.00
    2   20   34     -8.16      0.00
    0   20   34     -5.37      0.00
   20   20   34      5.40      0.00
   19   21   34     -4.30      0.00
   17   21   34      1.21      0.00
   15   21   34      0.58      0.00
   13   21   34      6.69      0.00
   11   21   34     -2.82      0.00
    9   21   34      0.28      0.00
    7   21   34      2.36      0.00
    5   21   34      9.51      0.00
    3   21   34     -8.73      0.00
    1   21   34     -0.25      0.00
   18   22   34      6.85      0.00
   16   22   34    -16.47      0.00
   14   22   34    -17.64      0.00
   12   22   34      8.72      0.00
   10   22   34     13.31      0.00
    8   22   34      7.69      0.00
    6   22   34     18.65      0.00
    4   22   34     -0.27      0.00
    2   22   34     -4.93      0.00
    0   22   34    -27.84      0.00
   17   23   34      7.28      0.00
   15   23   34     -1.97      0.00
   13   23   34     22.66      0.00
   11   23   34     10.76      0.00
    9   23   34     -6.14      0.00
    7   23   34      2.44      0.00
    5   23   34     -5.91      0.00
    3   23   34     -0.43      0.00
    1   23   34      4.75      0.00
   16   24   34     -0.21      0.00
   14   24   34     -7.44      0.00
   12   24   34     -8.21      0.00
   10   24   34     -2.07      0.00
    8   24   34      2.44      0.00
    6   24   34      1.02      0.00
    4   24   34     -0.71      0.00
    2   24   34     -0.47      0.00
    0   24   34     -1.77      0.00
   15   25   34     -2.78      0.00
   13   25   34      2.98      0.00
   11   25   34      2.12      0.00
    9   25   34    -25.95      0.00
    7   25   34     -6.76      0.00
    5   25   34     12.39      0.00
    3   25   34     -3.06      0.00
    1   25   34      2.70      0.00
   12   26   34      0.36      0.00
   10   26   34      2.50      0.00
    8   26   34     -8.81      0.00
    6   26   34     -5.91      0.00
    4   26   34     12.33      0.00
    2   26   34     -1.03      0.00
    0   26   34      0.23      0.00
   11   27   34     10.66      0.00
    9   27   34      9.08      0.00
    7   27   34     13.96      0.00
    5   27   34     -0.88      0.00
    3   27   34     -0.97      0.00
    1   27   34      2.50      0.00
    6   28   34     -5.85      0.00
    4   28   34      0.29      0.00
    0    1   35     -1.92      0.00
    1    2   35      6.39      0.00
    2    3   35     14.20      0.00
    0    3   35     38.47      0.00
    3    4   35      5.83      0.00
    1    4   35    -11.18      0.00
    4    5   35     -3.48      0.00
    2    5   35      0.18      0.00
    0    5   35      1.47      0.00
    5    6   35     11.64      0.00
    3    6   35     -7.82      0.00
    1    6   35      8.62      0.00
    6    7   35      7.50      0.00
    4    7   35     -9.19      0.00
    2    7   35    -15.56      0.00
    0    7   35      4.94      0.00
    7    8   35      7.37      0.00
    5    8   35      5.63      0.00
    3    8   35      3.90      0.00
    1    8   35    -12.02      0.00
    8    9   35     22.29      0.00
    6    9   35     33.63      0.00
    4    9   35     -2.57      0.00
    2    9   35     -7.25      0.00
    0    9   35      8.90      0.00
    9   10   35     -5.23      0.00
    7   10   35     -0.58      0.00
    5   10   35    -11.78      0.00
    3   10   35     -6.11      0.00
    1   10   35     15.20      0.00
   10   11   35    -19.17      0.00
    8   11   35      7.27      0.00
    6   11   35      7.41      0.00
    4   11   35    -10.92      0.00
    2   11   35      6.52      0.00
    0   11   35     21.33      0.00
   11   12   35     10.96      0.00
    9   12   35      0.13      0.00
    7   12   35      4.74      0.00
    5   12   35      4.06      0.00
    3   12   35     -2.14      0.00
    1   12   35    -22.04      0.00
   12   13   35      3.70      0.00
   10   13   35      1.22      0.00
    8   13   35     -9.38      0.00
    6   13   35     11.51      0.00
    4   13   35     -5.88      0.00
    2   13   35     -2.50      0.00
    0   13   35     -1.96      0.00
   13   14   35     -2.08      0.00
   11   14   35     17.02      0.00
    9   14   35     -3.15      0.00
    7   14   35     -0.75      0.00
    5   14   35     -0.81      0.00
    3   14   35     -2.43      0.00
    1   14   35      7.51      0.00
   14   15   35     -0.18      0.00
   12   15   35      7.68      0.00
   10   15   35     -5.57      0.00
    8   15   35    -10.70      0.00
    6   15   35     -0.83      0.00
    4   15   35     -1.54      0.00
    2   15   35     -4.26      0.00
    0   15   35      2.25      0.00
   15   16   35      8.11      0.00
   13   16   35     10.50      0.00
   11   16   35     17.44      0.00
    9   16   35     12.87      0.00
    7   16   35      6.94      0.00
    5   16   35     -4.62      0.00
    3   16   35      1.85      0.00
    1   16   35     -8.85      0.00
   16   17   35      0.68      0.00
   14   17   35     -3.65      0.00
   12   17   35     12.10      0.00
   10   17   35     -8.59      0.00
    8   17   35      7.68      0.00
    6   17   35      0.12      0.00
    4   17   35     -5.95      0.00
    2   17   35     -5.99      0.00
    0   17   35    -43.55      0.00
   17   18   35      0.81      0.00
   15   18   35     -1.54      0.00
   13   18   35    -14.08      0.00
   11   18   35     -1.17      0.00
    9   18   35      1.81      0.00
    7   18   35      0.83      0.00
    5   18   35      9.17      0.00
    3   18   35      0.41      0.00
    1   18   35     -5.77      0.00
   18   19   35     -2.52      0.00
   16   19   35      5.80      0.00
   14   19   35     -6.69      0.00
   12   19   35      8.17      0.00
   10   19   35    -19.94      0.00
    8   19   35      2.42      0.00
    6   19   35     -2.04      0.00
    4   19   35      3.73      0.00
    2   19   35     -6.21      0.00
    0   19   35      8.32      0.00
   19   20   35     13.14      0.00
   17   20   35      6.64      0.00
   15   20   35    -29.57      0.00
   13   20   35      2.34      0.00
   11   20   35      1.11      0.00
    9   20   35      0.69      0.00
    7   20   35     -0.98      0.00
    5   20   35     -4.78      0.00
    3   20   35      3.60      0.00
    1   20   35      5.43      0.00
   18   21   35     -1.43      0.00
   16   21   35     10.50      0.00
   14   21   35     -2.35      0.00
   12   21   35      4.85      0.00
   10   21   35      2.66      0.00
    8   21   35      5.13      0.00
    6   21   35     12.60      0.00
    4   21   35     -6.57      0.00
    2   21   35     -0.27      0.00
    0   21   35     -5.68      0.00
   17   22   35    -12.26      0.00
   15   22   35      3.44      0.00
   13   22   35     11.71      0.00
   11   22   35     -8.57      0.00
    9   22   35     -0.69      0.00
    7   22   35     -2.72      0.00
    5   22   35      4.27      0.00
    3   22   35      3.10      0.00
    1   22   35     -5.39      0.00
   16   23   35    -10.53      0.00
   14   23   35     12.01      0.00
   12   23   35     -1.11      0.00
   10   23   35      3.03      0.00
    8   23   35     14.01      0.00
    6   23   35     -8.43      0.00
    4   23   35     -1.28      0.00
    2   23   35     -2.63      0.00
    0   23   35     -4.50      0.00
   13   24   35     -0.82      0.00
   11   24   35    -11.44      0.00
    9   24   35    -11.48      0.00
    7   24   35      6.26      0.00
    5   24   35     -5.33      0.00
    3   24   35     -1.36      0.00
    1   24   35     10.23      0.00
   12   25   35     -3.00      0.00
   10   25   35      1.35      0.00
    8   25   35     -9.58      0.00
    6   25   35     -4.12      0.00
    4   25   35     -9.41      0.00
    2   25   35      6.05      0.00
    0   25   35     -3.08      0.00
    9   26   35     26.63      0.00
    7   26   35     -6.78      0.00
    5   26   35      1.05      0.00
    3   26   35      1.71      0.00
    1   26   35    -12.24      0.00
    0    0   36      4.74      0.00
    1    1   36    -39.11      0.00
    0    2   36    -12.95      0.00
    2    2   36      6.37      0.00
    1    3   36    -25.59      0.00
    3    3   36      7.51      0.00
    2    4   36    -14.15      0.00
    0    4   36    -50.45      0.00
    4    4   36     17.04      0.00
    3    5   36      7.11      0.00
    1    5   36     -1.70      0.00
    5    5   36     12.76      0.00
    4    6   36     22.46      0.00
    2    6   36      5.74      0.00
    0    6   36     14.84      0.00
    6    6   36    -19.51      0.00
    5    7   36      3.16      0.00
    3    7   36      0.11      0.00
    1    7   36      5.15      0.00
    7    7   36      1.36      0.00
    6    8   36    -50.37      0.00
    4    8   36      9.89      0.00
    2    8   36    -28.74      0.00
    0    8   36    -13.99      0.00
    8    8   36     16.38      0.00
    7    9   36      1.52      0.00
    5    9   36     -3.90      0.00
    3    9   36     -5.23      0.00
    1    9   36      5.08      0.00
    9    9   36      7.72      0.00
    8   10   36     40.17      0.00
    6   10   36    -21.80      0.00
    4   10   36    -16.31      0.00
    2   10   36     -4.91      0.00
    0   10   36      1.91      0.00
   10   10   36     -4.70      0.00
    9   11   36     -2.62      0.00
    7   11   36      3.91      0.00
    5   11   36     -4.59      0.00
    3   11   36     -6.21      0.00
    1   11   36     -3.19      0.00
   11   11   36     -1.70      0.00
   10   12   36    -22.23      0.00
    8   12   36     -1.02      0.00
    6   12   36    -17.93      0.00
    4   12   36      0.41      0.00
    2   12   36      9.44      0.00
    0   12   36    -21.93      0.00
   12   12   36    -20.45      0.00
   11   13   36     -2.15      0.00
    9   13   36      0.42      0.00
    7   13   36     -3.61      0.00
    5   13   36      0.54      0.00
    3   13   36      5.27      0.00
    1   13   36     -4.22      0.00
   13   13   36     -2.37      0.00
   12   14   36    -26.26      0.00
   10   14   36      0.64      0.00
    8   14   36     15.84      0.00
    6   14   36     -5.98      0.00
    4   14   36    -24.49      0.00
    2   14   36      0.02      0.00
    0   14   36      0.94      0.00
   14   14   36    -12.76      0.00
   13   15   36     -6.75      0.00
   11   15   36     -0.88      0.00
    9   15   36     22.14      0.00
    7   15   36      9.23      0.00
    5   15   36     -4.58      0.00
    3   15   36     -3.54      0.00
    1   15   36     -4.29      0.00
   15   15   36      0.68      0.00
   14   16   36     43.16      0.00
   12   16   36      7.28      0.00
   10   16   36     -2.41      0.00
    8   16   36      3.99      0.00
    6   16   36     -3.10      0.00
    4   16   36     -0.27      0.00
    2   16   36     -5.97      0.00
    0   16   36      2.96      0.00
   16   16   36     13.18      0.00
   15   17   36     -2.71      0.00
   13   17   36      0.94      0.00
   11   17   36    -12.96      0.00
    9   17   36      2.10      0.00
    7   17   36      4.16      0.00
    5   17   36    -19.44      0.00
    3   17   36     -4.06      0.00
    1   17   36    -23.91      0.00
   17   17   36     10.25      0.00
   16   18   36     18.94      0.00
   14   18   36     -4.09      0.00
   12   18   36     23.99      0.00
   10   18   36     -3.19      0.00
    8   18   36     17.02      0.00
    6   18   36     -0.79      0.00
    4   18   36      1.57      0.00
    2   18   36     -2.28      0.00
    0   18   36    -16.73      0.00
   18   18   36     -6.41      0.00
   17   19   36     -3.64      0.00
   15   19   36     -1.54      0.00
   13   19   36     -4.29      0.00
   11   19   36     -0.42      0.00
    9   19   36     -8.25      0.00
    7   19   36      0.31      0.00
    5   19   36      0.42      0.00
    3   19   36      4.38      0.00
    1   19   36      5.21      0.00
   16   20   36      5.49      0.00
   14   20   36     -0.71      0.00
   12   20   36     22.55      0.00
   10   20   36     37.24      0.00
    8   20   36     13.79      0.00
    6   20   36    -10.16      0.00
    4   20   36      3.97      0.00
    2   20   36     -5.81      0.00
    0   20   36     -0.87      0.00
   15   21   36      6.95      0.00
   13   21   36     -6.60      0.00
   11   21   36      0.86      0.00
    9   21   36      6.19      0.00
    7   21   36      3.73      0.00
    5   21   36     -1.72      0.00
    3   21   36      2.20      0.00
    1   21   36      9.41      0.00
   14   22   36      3.18      0.00
   12   22   36     -1.18      0.00
   10   22   36     -2.13      0.00
    8   22   36      5.22      0.00
    6   22   36      1.07      0.00
    4   22   36      8.68      0.00
    2   22   36      1.67      0.00
    0   22   36      8.08      0.00
   13   23   36    -17.20      0.00
   11   23   36     -9.14      0.00
    9   23   36      0.52      0.00
    7   23   36    -12.97      0.00
    5   23   36     10.90      0.00
    3   23   36     -5.76      0.00
    1   23   36      2.31      0.00
   12   24   36     -4.16      0.00
   10   24   36      0.52      0.00
    8   24   36     -2.40      0.00
    6   24   36      3.47      0.00
    4   24   36      3.62      0.00
    2   24   36     -6.52      0.00
    0   24   36     -6.58      0.00
    9   25   36     -8.58      0.00
    7   25   36     12.20      0.00
    5   25   36     -4.06      0.00
    3   25   36      3.38      0.00
    1   25   36     10.30      0.00
    0    1   37     -1.71      0.00
    1    2   37      0.08      0.00
    2    3   37      1.94      0.00
    0    3   37    -16.37      0.00
    3    4   37     -6.27      0.00
    1    4   37      2.35      0.00
    4    5   37     -7.00      0.00
    2    5   37      4.88      0.00
    0    5   37     -4.81      0.00
    5    6   37     -6.91      0.00
    3    6   37    -21.42      0.00
    1    6   37      4.40      0.00
    6    7   37    -27.73      0.00
    4    7   37    -12.09      0.00
    2    7   37     -0.97      0.00
    0    7   37     -1.22      0.00
    7    8   37      1.33      0.00
    5    8   37     11.73      0.00
    3    8   37     12.25      0.00
    1    8   37      1.83      0.00
    8    9   37     16.37      0.00
    6    9   37     -1.82      0.00
    4    9   37    -20.88      0.00
    2    9   37    -26.44      0.00
    0    9   37      7.62      0.00
    9   10   37    -18.12      0.00
    7   10   37      1.82      0.00
    5   10   37     -3.12      0.00
    3   10   37     -3.42      0.00
    1   10   37     -2.13      0.00
   10   11   37    -28.38      0.00
    8   11   37     47.72      0.00
    6   11   37     42.81      0.00
    4   11   37     -2.17      0.00
    2   11   37     -7.67      0.00
    0   11   37     16.02      0.00
   11   12   37      7.30      0.00
    9   12   37      8.71      0.00
    7   12   37      1.82      0.00
    5   12   37     -7.78      0.00
    3   12   37      8.33      0.00
    1   12   37     -4.50      0.00
   12   13   37     -0.86      0.00
   10   13   37     -7.60      0.00
    8   13   37     -6.15      0.00
    6   13   37      9.39      0.00
    4   13   37    -12.16      0.00
    2   13   37    -23.83      0.00
    0   13   37     10.10      0.00
   13   14   37     21.70      0.00
   11   14   37    -11.12      0.00
    9   14   37      7.08      0.00
    7   14   37      5.43      0.00
    5   14   37      3.37      0.00
    3   14   37     -7.67      0.00
    1   14   37      2.31      0.00
   14   15   37     -6.65      0.00
   12   15   37     10.28      0.00
   10   15   37    -10.80      0.00
    8   15   37      5.99      0.00
    6   15   37     -0.86      0.00
    4   15   37     -0.73      0.00
    2   15   37     -3.65      0.00
    0   15   37      2.00      0.00
   15   16   37      7.18      0.00
   13   16   37     22.54      0.00
   11   16   37     11.58      0.00
    9   16   37    -13.47      0.00
    7   16   37    -11.05      0.00
    5   16   37     -2.60      0.00
    3   16   37     -2.30      0.00
    1   16   37     -3.50      0.00
   16   17   37     19.84      0.00
   14   17   37     -7.07      0.00
   12   17   37     -2.22      0.00
   10   17   37      0.44      0.00
    8   17   37     -6.03      0.00
    6   17   37    -12.64      0.00
    4   17   37     -1.81      0.00
    2   17   37      1.23      0.00
    0   17   37     -0.63      0.00
   17   18   37      3.74      0.00
   15   18   37     -0.84      0.00
   13   18   37    -12.27      0.00
   11   18   37      5.31      0.00
    9   18   37      2.26      0.00
    7   18   37      1.08      0.00
    5   18   37     -7.83      0.00
    3   18   37     -4.72      0.00
    1   18   37      7.81      0.00
   16   19   37      0.45      0.00
   14   19   37     -0.47      0.00
   12   19   37      3.16      0.00
   10   19   37     -3.48      0.00
    8   19   37      7.76      0.00
    6   19   37      1.08      0.00
    4   19   37      0.74      0.00
    2   19   37      0.17      0.00
    0   19   37      0.16      0.00
   15   20   37     -6.18      0.00
   13   20   37     21.05      0.00
   11   20   37      5.16      0.00
    9   20   37     -4.99      0.00
    7   20   37      5.06      0.00
    5   20   37      1.20      0.00
    3   20   37      6.99      0.00
    1   20   37      7.06      0.00
   14   21   37     -1.27      0.00
   12   21   37     -8.93      0.00
   10   21   37     -3.45      0.00
    8   21   37    -14.37      0.00
    6   21   37     13.42      0.00
    4   21   37     -8.62      0.00
    2   21   37      4.26      0.00
    0   21   37     -6.13      0.00
   11   22   37     -2.48      0.00
    9   22   37      0.83      0.00
    7   22   37     -2.54      0.00
    5   22   37     -3.51      0.00
    3   22   37     -8.63      0.00
    1   22   37    -12.59      0.00
   13   22   37      0.55      0.00
   10   23   37      2.17      0.00
    8   23   37     18.33      0.00
    6   23   37    -22.17      0.00
    4   23   37    -18.44      0.00
    2   23   37      6.98      0.00
    0   23   37      4.81      0.00
    3   24   37     12.55      0.00
    5   24   37      3.37      0.00
    7   24   37      5.10      0.00
    0    0   38     43.13      0.00
    1    1   38      8.05      0.00
    0    2   38     -1.01      0.00
    2    2   38     -6.09      0.00
    1    3   38      5.75      0.00
    3    3   38      8.55      0.00
    2    4   38      0.88      0.00
    0    4   38     -8.65      0.00
    4    4   38      7.38      0.00
    3    5   38    -10.64      0.00
    1    5   38      6.04      0.00
    5    5   38      1.25      0.00
    4    6   38    -18.79      0.00
    2    6   38    -13.37      0.00
    0    6   38    -23.52      0.00
    6    6   38    -24.35      0.00
    5    7   38     -2.13      0.00
    3    7   38      1.73      0.00
    1    7   38     -1.03      0.00
    7    7   38      3.72      0.00
    6    8   38    -36.27      0.00
    4    8   38     -0.23      0.00
    2    8   38     40.73      0.00
    0    8   38     -1.87      0.00
    8    8   38     -4.41      0.00
    7    9   38      4.88      0.00
    5    9   38     -5.53      0.00
    3    9   38      1.99      0.00
    1    9   38    -14.37      0.00
    9    9   38      1.06      0.00
    8   10   38    -30.98      0.00
    6   10   38    -21.71      0.00
    4   10   38     18.50      0.00
    2   10   38     12.86      0.00
    0   10   38    -13.14      0.00
   10   10   38    -11.99      0.00
    9   11   38     -1.75      0.00
    7   11   38     -0.45      0.00
    5   11   38      4.06      0.00
    3   11   38     10.46      0.00
    1   11   38      9.39      0.00
   11   11   38     -1.17      0.00
   10   12   38      0.26      0.00
    8   12   38     -1.30      0.00
    6   12   38    -28.13      0.00
    4   12   38      4.60      0.00
    2   12   38     -1.13      0.00
    0   12   38    -18.95      0.00
   12   12   38    -12.37      0.00
   11   13   38      7.79      0.00
    9   13   38     -1.27      0.00
    7   13   38      1.03      0.00
    5   13   38     -0.27      0.00
    3   13   38      5.05      0.00
    1   13   38    -13.16      0.00
   13   13   38      8.62      0.00
   12   14   38    -16.43      0.00
   10   14   38     -0.71      0.00
    8   14   38     13.76      0.00
    6   14   38     -6.00      0.00
    4   14   38      5.56      0.00
    2   14   38      4.44      0.00
    0   14   38     -6.38      0.00
   14   14   38     -4.09      0.00
   13   15   38      2.62      0.00
   11   15   38      7.40      0.00
    9   15   38    -15.68      0.00
    7   15   38     -4.70      0.00
    5   15   38      9.11      0.00
    3   15   38     -1.93      0.00
    1   15   38      6.38      0.00
   15   15   38     -4.71      0.00
   14   16   38    -10.64      0.00
   12   16   38      4.78      0.00
   10   16   38     14.30      0.00
    8   16   38     10.65      0.00
    6   16   38      3.31      0.00
    4   16   38      5.99      0.00
    2   16   38     -3.05      0.00
    0   16   38    -10.96      0.00
   16   16   38     -7.95      0.00
   15   17   38      3.01      0.00
   13   17   38      0.05      0.00
   11   17   38      8.44      0.00
    9   17   38      0.28      0.00
    7   17   38      9.17      0.00
    5   17   38     -7.03      0.00
    3   17   38    -10.96      0.00
    1   17   38     -1.51      0.00
   14   18   38      9.59      0.00
   12   18   38    -15.87      0.00
   10   18   38    -11.97      0.00
    8   18   38     -1.11      0.00
    6   18   38     -1.19      0.00
    4   18   38     10.58      0.00
    2   18   38      1.77      0.00
    0   18   38    -16.21      0.00
   13   19   38      3.18      0.00
   11   19   38     -2.52      0.00
    9   19   38      3.92      0.00
    7   19   38     -2.78      0.00
    5   19   38      4.54      0.00
    3   19   38     -2.06      0.00
    1   19   38     -2.40      0.00
   12   20   38     -1.16      0.00
   10   20   38    -10.47      0.00
    8   20   38     16.62      0.00
    6   20   38     36.33      0.00
    4   20   38     12.73      0.00
    2   20   38     -5.38      0.00
    0   20   38    -14.54      0.00
   11   21   38      4.72      0.00
    9   21   38      3.31      0.00
    7   21   38     -7.50      0.00
    5   21   38      9.85      0.00
    3   21   38      0.94      0.00
    1   21   38     -0.74      0.00
    8   22   38    -27.26      0.00
    6   22   38    -11.24      0.00
    4   22   38      5.16      0.00
    2   22   38      7.50      0.00
    0   22   38     -2.80      0.00
    0    1   39     -3.60      0.00
    1    2   39     -0.75      0.00
    2    3   39      9.42      0.00
    0    3   39     -6.49      0.00
    3    4   39     -0.04      0.00
    1    4   39     -5.63      0.00
    4    5   39     -9.07      0.00
    2    5   39      1.87      0.00
    0    5   39      3.10      0.00
    5    6   39    -15.40      0.00
    3    6   39     -9.26      0.00
    1    6   39      3.17      0.00
    6    7   39    -15.06      0.00
    4    7   39      6.03      0.00
    2    7   39     17.13      0.00
    0    7   39     30.81      0.00
    7    8   39     15.51      0.00
    5    8   39     -6.44      0.00
    3    8   39     -4.89      0.00
    1    8   39    -17.93      0.00
    8    9   39      9.49      0.00
    6    9   39    -32.62      0.00
    4    9   39    -27.77      0.00
    2    9   39     -6.44      0.00
    0    9   39      6.23      0.00
    9   10   39      5.91      0.00
    7   10   39     -6.25      0.00
    5   10   39      2.77      0.00
    3   10   39     -6.02      0.00
    1   10   39    -16.86      0.00
   10   11   39    -10.01      0.00
    8   11   39      0.62      0.00
    6   11   39      0.86      0.00
    4   11   39    -20.11      0.00
    2   11   39    -18.44      0.00
    0   11   39      3.70      0.00
   11   12   39      0.84      0.00
    9   12   39      2.73      0.00
    7   12   39      3.27      0.00
    5   12   39     -6.09      0.00
    3   12   39     -1.31      0.00
    1   12   39     31.63      0.00
   12   13   39    -14.48      0.00
   10   13   39     17.23      0.00
    8   13   39    -18.31      0.00
    6   13   39     11.08      0.00
    4   13   39     -5.46      0.00
    2   13   39    -14.36      0.00
    0   13   39     20.92      0.00
   13   14   39      7.31      0.00
   11   14   39      2.48      0.00
    9   14   39     -6.03      0.00
    7   14   39      3.38      0.00
    5   14   39     -4.74      0.00
    3   14   39      2.42      0.00
    1   14   39     23.56      0.00
   14   15   39      8.93      0.00
   12   15   39      8.21      0.00
   10   15   39      8.72      0.00
    8   15   39     14.56      0.00
    6   15   39    -21.09      0.00
    4   15   39      7.43      0.00
    2   15   39      0.52      0.00
    0   15   39    -10.80      0.00
   15   16   39     -2.64      0.00
   13   16   39    -10.82      0.00
   11   16   39    -14.00      0.00
    9   16   39     -7.82      0.00
    7   16   39     20.26      0.00
    5   16   39     -1.56      0.00
    3   16   39     -4.58      0.00
    1   16   39    -11.77      0.00
   14   17   39      7.49      0.00
   12   17   39     -2.19      0.00
   10   17   39      6.58      0.00
    8   17   39      7.56      0.00
    6   17   39     -8.71      0.00
    4   17   39      2.85      0.00
    2   17   39      1.42      0.00
    0   17   39      4.20      0.00
   13   18   39      4.80      0.00
   11   18   39     -8.42      0.00
    9   18   39     -1.96      0.00
    7   18   39      0.04      0.00
    5   18   39     -4.02      0.00
    3   18   39     -5.65      0.00
    1   18   39      2.00      0.00
   10   19   39    -24.22      0.00
    8   19   39     23.53      0.00
    6   19   39    -21.05      0.00
    4   19   39      9.42      0.00
    2   19   39     -0.33      0.00
    0   19   39     -0.99      0.00
    9   20   39     -2.24      0.00
    7   20   39     -4.79      0.00
    5   20   39      3.25      0.00
    3   20   39      0.20      0.00
    1   20   39      0.84      0.00
    2   21   39     -3.20      0.00
    0   21   39     -3.38      0.00
    4   21   39     -8.86      0.00
    0    0   40    -25.10      0.00
    1    1   40      9.13      0.00
    0    2   40    -36.28      0.00
    2    2   40    -19.35      0.00
    1    3   40     -0.25      0.00
    3    3   40     -5.25      0.00
    2    4   40    -22.76      0.00
    0    4   40     -6.38      0.00
    4    4   40     -0.47      0.00
    3    5   40      8.32      0.00
    1    5   40     -0.91      0.00
    5    5   40      0.42      0.00
    4    6   40      8.64      0.00
    2    6   40      0.96      0.00
    0    6   40     20.83      0.00
    6    6   40      7.19      0.00
    5    7   40      2.22      0.00
    3    7   40     -0.97      0.00
    1    7   40     -4.71      0.00
    7    7   40      8.47      0.00
    6    8   40     13.27      0.00
    4    8   40     10.69      0.00
    2    8   40    -26.69      0.00
    0    8   40    -18.12      0.00
    8    8   40     31.86      0.00
    7    9   40     -1.74      0.00
    5    9   40     -3.91      0.00
    3    9   40     -0.36      0.00
    1    9   40     13.08      0.00
    9    9   40     -2.64      0.00
    8   10   40     -7.57      0.00
    6   10   40      8.46      0.00
    4   10   40     24.68      0.00
    2   10   40     -5.74      0.00
    0   10   40    -14.01      0.00
   10   10   40     -1.17      0.00
    9   11   40      5.22      0.00
    7   11   40     -1.43      0.00
    5   11   40     -2.85      0.00
    3   11   40     -3.03      0.00
    1   11   40      5.48      0.00
   11   11   40     -3.50      0.00
   10   12   40      4.04      0.00
    8   12   40     16.93      0.00
    6   12   40     24.81      0.00
    4   12   40      9.44      0.00
    2   12   40     -3.14      0.00
    0   12   40    -15.76      0.00
   12   12   40     15.31      0.00
   11   13   40      8.76      0.00
    9   13   40     -1.81      0.00
    7   13   40     -5.10      0.00
    5   13   40     -2.11      0.00
    3   13   40     -2.73      0.00
    1   13   40     12.33      0.00
   13   13   40     -8.18      0.00
   12   14   40      6.11      0.00
   10   14   40      4.07      0.00
    8   14   40      9.22      0.00
    6   14   40     -1.49      0.00
    4   14   40     -5.09      0.00
    2   14   40    -17.73      0.00
    0   14   40    -10.77      0.00
   14   14   40     -9.19      0.00
   13   15   40     -3.99      0.00
   11   15   40      8.74      0.00
    9   15   40      6.71      0.00
    7   15   40     -1.16      0.00
    5   15   40      2.80      0.00
    3   15   40      2.15      0.00
    1   15   40     12.27      0.00
   12   16   40     19.43      0.00
   10   16   40    -13.91      0.00
    8   16   40      0.02      0.00
    6   16   40     -3.64      0.00
    4   16   40     -7.52      0.00
    2   16   40     -7.21      0.00
    0   16   40    -10.59      0.00
   11   17   40     -7.81      0.00
    9   17   40     -8.34      0.00
    7   17   40     -6.68      0.00
    5   17   40      7.61      0.00
    3   17   40     -0.56      0.00
    1   17   40     -6.22      0.00
    8   18   40     -4.36      0.00
    6   18   40     14.12      0.00
    4   18   40      0.00      0.00
    2   18   40     -1.49      0.00
    0   18   40     25.48      0.00
    3   19   40      7.64      0.00
    1   19   40      0.37      0.00
    5   19   40      5.46      0.00
    0    1   41     -3.13      0.00
    1    2   41      3.46      0.00
    2    3   41     -2.37      0.00
    0    3   41      7.98      0.00
    3    4   41     -5.77      0.00
    1    4   41      2.00      0.00
    4    5   41     10.67      0.00
    2    5   41      0.29      0.00
    0    5   41    -10.91      0.00
    5    6   41     -4.13      0.00
    3    6   41    -22.16      0.00
    1    6   41      6.24      0.00
    6    7   41    -18.23      0.00
    4    7   41    -11.45      0.00
    2    7   41     -4.45      0.00
    0    7   41     13.80      0.00
    7    8   41      0.20      0.00
    5    8   41      9.38      0.00
    3    8   41      4.25      0.00
    1    8   41     -1.34      0.00
    8    9   41      4.23      0.00
    6    9   41     -1.71      0.00
    4    9   41     -4.85      0.00
    2    9   41     22.89      0.00
    0    9   41     18.64      0.00
    9   10   41      5.72      0.00
    7   10   41     -4.02      0.00
    5   10   41     -6.13      0.00
    3   10   41      0.84      0.00
    1   10   41     -1.95      0.00
   10   11   41     -7.23      0.00
    8   11   41     19.58      0.00
    6   11   41    -35.34      0.00
    4   11   41    -14.61      0.00
    2   11   41      2.66      0.00
    0   11   41     12.21      0.00
   11   12   41     10.50      0.00
    9   12   41      3.47      0.00
    7   12   41      3.31      0.00
    5   12   41     -1.75      0.00
    3   12   41      0.50      0.00
    1   12   41     -3.95      0.00
   12   13   41      5.75      0.00
   10   13   41     -4.12      0.00
    8   13   41      1.23      0.00
    6   13   41      3.91      0.00
    4   13   41    -13.44      0.00
    2   13   41    -10.15      0.00
    0   13   41     -1.86      0.00
   11   14   41    -17.60      0.00
    9   14   41      1.23      0.00
    7   14   41    -16.95      0.00
    5   14   41     10.18      0.00
    3   14   41     14.91      0.00
    1   14   41      1.39      0.00
   10   15   41      6.38      0.00
    8   15   41     -0.48      0.00
    6   15   41      5.52      0.00
    4   15   41      2.52      0.00
    2   15   41     -5.79      0.00
    0   15   41     -4.25      0.00
    7   16   41      1.66      0.00
    5   16   41      4.38      0.00
    3   16   41     -2.94      0.00
    1   16   41    -14.69      0.00
    9   16   41     11.80      0.00
    4   17   41    -13.35      0.00
    2   17   41      6.67      0.00
    0   17   41    -13.47      0.00
    6   17   41      5.73      0.00
    0    0   42    -42.76      0.00
    1    1   42      5.26      0.00
    0    2   42     -6.05      0.00
    2    2   42     17.53      0.00
    1    3   42      9.51      0.00
    3    3   42     -8.34      0.00
    2    4   42     -0.90      0.00
    0    4   42     18.47      0.00
    4    4   42      6.60      0.00
    3    5   42      3.53      0.00
    1    5   42      2.09      0.00
    5    5   42     -6.80      0.00
    4    6   42    -15.18      0.00
    2    6   42      7.16      0.00
    0    6   42     10.36      0.00
    6    6   42      4.97      0.00
    5    7   42     -4.96      0.00
    3    7   42      4.65      0.00
    1    7   42      7.93      0.00
    7    7   42     -9.27      0.00
    6    8   42     -1.62      0.00
    4    8   42     -1.45      0.00
    2    8   42     -8.54      0.00
    0    8   42     -1.29      0.00
    8    8   42     -8.86      0.00
    7    9   42      8.06      0.00
    5    9   42      2.76      0.00
    3    9   42     -5.83      0.00
    1    9   42     -8.60      0.00
    9    9   42     -7.80      0.00
    8   10   42      8.90      0.00
    6   10   42    -19.51      0.00
    4   10   42    -17.95      0.00
    2   10   42    -12.36      0.00
    0   10   42     -9.49      0.00
   10   10   42     16.64      0.00
    9   11   42     -0.12      0.00
    7   11   42      0.02      0.00
    5   11   42      9.97      0.00
    3   11   42     -4.62      0.00
    1   11   42     16.70      0.00
   11   11   42     -1.46      0.00
   10   12   42     10.30      0.00
    8   12   42     -0.57      0.00
    6   12   42     -0.32      0.00
    4   12   42      3.47      0.00
    2   12   42     -7.69      0.00
    0   12   42      0.55      0.00
    7   13   42      2.25      0.00
    5   13   42     19.45      0.00
    3   13   42    -10.71      0.00
    1   13   42     18.33      0.00
    9   13   42    -21.06      0.00
    4   14   42     12.06      0.00
    2   14   42     -9.61      0.00
    0   14   42    -20.99      0.00
    6   14   42     -7.89      0.00
    3   15   42     -8.76      0.00
    1   15   42     -3.43      0.00
    5   15   42     -4.44      0.00
    0    1   43      1.69      0.00
    1    2   43      4.92      0.00
    2    3   43      8.94      0.00
    0    3   43     -5.07      0.00
    3    4   43     -0.94      0.00
    1    4   43     -4.20      0.00
    4    5   43     -8.91      0.00
    2    5   43      6.69      0.00
    0    5   43     -3.16      0.00
    5    6   43    -17.58      0.00
    3    6   43     -2.33      0.00
    1    6   43     14.40      0.00
    6    7   43     -5.74      0.00
    4    7   43      6.23      0.00
    2    7   43      6.19      0.00
    0    7   43     -0.62      0.00
    7    8   43     -0.36      0.00
    5    8   43     -3.32      0.00
    3    8   43      4.08      0.00
    1    8   43     -2.77      0.00
    8    9   43      0.79      0.00
    6    9   43    -15.46      0.00
    4    9   43    -15.26      0.00
    2    9   43     -0.25      0.00
    0    9   43    -10.29      0.00
    5   10   43      6.77      0.00
    3   10   43      3.37      0.00
    1   10   43     15.36      0.00
    7   10   43      3.87      0.00
    2   11   43     16.65      0.00
    0   11   43     -2.25      0.00
    4   11   43      3.95      0.00
    6   11   43      0.11      0.00
    3   12   43     -2.82      0.00
    1   12   43     -1.26      0.00
    5   12   43     18.08      0.00
    2   13   43      0.15      0.00
    0   13   43     -6.77      0.00
    1    1   44    -30.64      0.00
    0    2   44     -2.47      0.00
    2    2   44     21.48      0.00
    1    3   44    -16.85      0.00
    3    3   44     12.09      0.00
    0    4   44      2.54      0.00
    2    4   44     -9.59      0.00
    4    4   44    -10.45      0.00
    1    5   44     12.26      0.00
    3    5   44     11.18      0.00
    2    6   44     -9.48      0.00
    0    6   44     -9.24      0.00
    4    6   44    -18.22      0.00
    1    7   44    -19.57      0.00
    3    7   44     -2.05      0.00
    2    8   44     12.35      0.00
    0    8   44     24.24      0.00
    0    1    1   -195.69      0.00
    0    0    2    277.34      0.00
    1    1    2     -4.84      0.00
    0    2    2   -335.95      0.00
    0    3    3    320.47      0.00
    0    4    4   1522.69      0.00
    0    5    5     34.77      0.00
    0    6    6   -135.66      0.00
    0    7    7     64.87      0.00
    0    8    8    689.93      0.00
   10   10   10   -105.91      0.00
   10   11   11     79.14      0.00
   10   10   12   -157.56      0.00
   11   11   12     97.22      0.00
   10   12   12     32.39      0.00
   12   12   12     88.88      0.00
   11   12   13   -101.74      0.00
   10   13   13    206.19      0.00
   12   13   13      7.87      0.00
   11   11   14    -55.19      0.00
   12   12   14    131.14      0.00
   14   14   14    -57.76      0.00
   14   15   15     13.25      0.00
   15   15   16      8.76      0.00
   14   16   16     67.48      0.00
   16   16   16     -5.38      0.00
   15   16   17    -27.14      0.00
   14   17   17     67.03      0.00
   16   17   17    -87.07      0.00
   15   15   18    -67.33      0.00
   16   16   18     39.06      0.00
   15   17   18     63.22      0.00
   17   17   18    -25.76      0.00
   14   18   18   -146.18      0.00
   16   18   18     60.68      0.00
   18   18   18    -44.91      0.00
   18   19   19     -5.07      0.00
   18   18   20     27.33      0.00
   19   19   20     12.55      0.00
    0   25   25    -42.28      0.00
   25   25   26     -8.24      0.00
   26   26   26     50.83      0.00
   25   26   27    -26.55      0.00
   24   27   27     22.97      0.00
   26   27   27     11.32      0.00
   25   25   28     47.80      0.00
   24   26   28     15.62      0.00
   26   26   28      2.14      0.00
   23   27   28     34.66      0.00
   25   27   28     -2.70      0.00
   27   27   28    -12.71      0.00
   22   28   28      4.80      0.00
   24   28   28     28.52      0.00
   26   28   28    -13.39      0.00
   28   28   28      9.65      0.00
   24   25   29     16.99      0.00
   23   26   29     -1.83      0.00
   25   26   29      0.46      0.00
   22   27   29    -33.98      0.00
   24   27   29     19.28      0.00
   26   27   29     19.06      0.00
   21   28   29     -0.67      0.00
   23   28   29      3.92      0.00
   25   28   29     -4.23      0.00
   27   28   29     -0.73      0.00
   20   29   29      4.67      0.00
   22   29   29      5.43      0.00
   24   29   29      7.58      0.00
   26   29   29     17.98      0.00
   28   29   29     12.00      0.00
   24   24   30     -0.07      0.00
   23   25   30     10.22      0.00
   25   25   30     14.81      0.00
   22   26   30     59.01      0.00
   24   26   30     -1.67      0.00
   26   26   30    -33.33      0.00
   21   27   30    -38.78      0.00
   23   27   30     11.14      0.00
   25   27   30     -8.55      0.00
   27   27   30     14.68      0.00
   20   28   30     -5.58      0.00
   22   28   30      9.98      0.00
   24   28   30    -16.93      0.00
   26   28   30      4.33      0.00
   28   28   30     25.35      0.00
   17   29   30      1.75      0.00
   19   29   30    -23.42      0.00
   21   29   30      2.37      0.00
   23   29   30     -9.71      0.00
   25   29   30      6.95      0.00
   27   29   30     10.36      0.00
   16   30   30     11.43      0.00
   18   30   30     -2.61      0.00
   20   30   30     28.08      0.00
   22   30   30    -16.51      0.00
   24   30   30    -18.52      0.00
   26   30   30      1.54      0.00
   23   24   31      4.48      0.00
   22   25   31    -19.71      0.00
   24   25   31      7.86      0.00
   21   26   31      8.29      0.00
   23   26   31     -3.83      0.00
   25   26   31      2.51      0.00
   18   27   31     -1.98      0.00
   20   27   31     23.31      0.00
   22   27   31     -5.20      0.00
   24   27   31     -0.33      0.00
   26   27   31      2.44      0.00
   17   28   31    -14.57      0.00
   19   28   31     -3.45      0.00
   21   28   31      2.18      0.00
   23   28   31     11.17      0.00
   25   28   31      6.66      0.00
   27   28   31     -2.15      0.00
   16   29   31     10.14      0.00
   18   29   31      7.55      0.00
   20   29   31      8.75      0.00
   22   29   31     -1.32      0.00
   24   29   31     -8.08      0.00
   26   29   31     -5.48      0.00
   13   30   31     26.40      0.00
   15   30   31      7.61      0.00
   17   30   31     -3.81      0.00
   19   30   31      3.29      0.00
   21   30   31     -5.02      0.00
   23   30   31      5.46      0.00
   25   30   31      9.41      0.00
    0   31   31     88.89      0.00
   10   31   31     11.93      0.00
   12   31   31    -14.25      0.00
   14   31   31      6.65      0.00
   16   31   31      3.72      0.00
   18   31   31     16.79      0.00
   20   31   31      9.86      0.00
   22   31   31    -16.65      0.00
   24   31   31      9.37      0.00
   22   22   32     29.25      0.00
   21   23   32     -8.17      0.00
   23   23   32    -24.68      0.00
   20   24   32     14.03      0.00
   22   24   32      5.96      0.00
   24   24   32     47.86      0.00
   19   25   32     11.29      0.00
   21   25   32    -16.64      0.00
   23   25   32      0.17      0.00
   25   25   32     16.18      0.00
   18   26   32     -7.75      0.00
   20   26   32    -10.90      0.00
   22   26   32      8.48      0.00
   24   26   32      2.65      0.00
   26   26   32    -19.30      0.00
   17   27   32      7.58      0.00
   19   27   32      4.95      0.00
   21   27   32     -2.40      0.00
   23   27   32    -13.84      0.00
   25   27   32      9.79      0.00
   27   27   32     -9.09      0.00
   16   28   32     11.93      0.00
   18   28   32      4.91      0.00
   20   28   32    -15.89      0.00
   22   28   32      3.59      0.00
   24   28   32     -1.71      0.00
   26   28   32      1.06      0.00
   13   29   32     18.58      0.00
   15   29   32     -2.25      0.00
   17   29   32     -8.85      0.00
   19   29   32      2.35      0.00
   21   29   32      3.09      0.00
   23   29   32    -11.47      0.00
   25   29   32      6.62      0.00
    0   30   32    -19.62      0.00
   10   30   32      9.50      0.00
   12   30   32     -7.35      0.00
   14   30   32      7.10      0.00
   16   30   32      0.71      0.00
   18   30   32     -8.95      0.00
   20   30   32     -5.41      0.00
   22   30   32     -1.82      0.00
   24   30   32     15.97      0.00
    1   31   32      5.13      0.00
    3   31   32     19.17      0.00
    5   31   32    -44.86      0.00
    7   31   32      7.81      0.00
    9   31   32      7.81      0.00
   11   31   32     13.74      0.00
   13   31   32     -8.60      0.00
   15   31   32    -18.38      0.00
   17   31   32     -9.57      0.00
   19   31   32      6.53      0.00
   21   31   32     -3.30      0.00
    0   32   32     58.53      0.00
    2   32   32     20.81      0.00
    4   32   32     -6.60      0.00
    6   32   32     -6.93      0.00
    8   32   32    -30.08      0.00
   10   32   32     -0.14      0.00
   12   32   32     25.64      0.00
   14   32   32     -2.97      0.00
   16   32   32     -1.26      0.00
   18   32   32    -12.14      0.00
   20   32   32      0.96      0.00
   21   22   33     19.87      0.00
   20   23   33     -3.41      0.00
   22   23   33     -4.48      0.00
   19   24   33     -8.34      0.00
   21   24   33      7.62      0.00
   23   24   33     -3.41      0.00
   18   25   33      3.71      0.00
   20   25   33     12.15      0.00
   22   25   33     -3.65      0.00
   24   25   33    -11.51      0.00
   17   26   33    -19.51      0.00
   19   26   33     -6.06      0.00
   21   26   33      7.74      0.00
   23   26   33     -3.26      0.00
   25   26   33     -7.71      0.00
   16   27   33      0.66      0.00
   18   27   33      2.55      0.00
   20   27   33      3.83      0.00
   22   27   33     -8.15      0.00
   24   27   33    -15.99      0.00
   26   27   33      1.98      0.00
   13   28   33     -3.15      0.00
   15   28   33      8.62      0.00
   17   28   33    -25.59      0.00
   19   28   33      4.21      0.00
   21   28   33      1.46      0.00
   23   28   33     -1.93      0.00
   25   28   33      1.44      0.00
    0   29   33     28.16      0.00
   10   29   33    -18.04      0.00
   12   29   33      4.89      0.00
   14   29   33    -15.54      0.00
   16   29   33      4.85      0.00
   18   29   33     16.31      0.00
   20   29   33      3.69      0.00
   22   29   33      5.18      0.00
   24   29   33     -5.96      0.00
    1   30   33      5.86      0.00
    3   30   33     -3.57      0.00
    5   30   33     -0.31      0.00
    7   30   33     16.73      0.00
    9   30   33    -21.42      0.00
   11   30   33     -3.97      0.00
   13   30   33     19.64      0.00
   15   30   33     10.32      0.00
   17   30   33     -7.30      0.00
   19   30   33      1.73      0.00
   21   30   33      5.29      0.00
    0   31   33     10.66      0.00
    2   31   33      1.49      0.00
    4   31   33     -8.77      0.00
    6   31   33     11.47      0.00
    8   31   33      8.58      0.00
   10   31   33     -4.33      0.00
   12   31   33     -3.12      0.00
   14   31   33     -2.78      0.00
   16   31   33     14.37      0.00
   18   31   33      4.37      0.00
   20   31   33      0.84      0.00
    1   32   33      7.64      0.00
    3   32   33      7.46      0.00
    5   32   33     11.12      0.00
    7   32   33    -12.31      0.00
    9   32   33     34.35      0.00
   11   32   33     12.70      0.00
   13   32   33     -4.26      0.00
   15   32   33      0.44      0.00
   17   32   33      8.32      0.00
   19   32   33      2.40      0.00
    0   33   33      6.05      0.00
    2   33   33     10.40      0.00
    4   33   33      1.64      0.00
    6   33   33      2.15      0.00
    8   33   33      1.12      0.00
   10   33   33     -2.75      0.00
   12   33   33      7.71      0.00
   14   33   33    -11.26      0.00
   16   33   33     15.38      0.00
   18   33   33    -11.40      0.00
   21   21   34     -0.25      0.00
   20   22   34      6.23      0.00
   22   22   34     -8.43      0.00
   19   23   34     -5.62      0.00
   21   23   34      5.67      0.00
   23   23   34     -6.31      0.00
   18   24   34      6.77      0.00
   20   24   34     -0.44      0.00
   22   24   34     -3.76      0.00
   24   24   34     16.95      0.00
   17   25   34      5.41      0.00
   19   25   34     -9.44      0.00
   21   25   34     -4.84      0.00
   23   25   34      4.06      0.00
   25   25   34     -8.28      0.00
   14   26   34    -19.43      0.00
   16   26   34     19.47      0.00
   18   26   34      8.23      0.00
   20   26   34     -7.07      0.00
   22   26   34     -4.24      0.00
   24   26   34     -8.25      0.00
   26   26   34     -4.22      0.00
   13   27   34      8.29      0.00
   15   27   34      4.59      0.00
   17   27   34    -10.18      0.00
   19   27   34      6.49      0.00
   21   27   34     22.16      0.00
   23   27   34     -2.86      0.00
    0   28   34     -8.83      0.00
    2   28   34    -12.25      0.00
    8   28   34      8.39      0.00
   10   28   34     -6.20      0.00
   12   28   34     12.71      0.00
   14   28   34     -7.34      0.00
   16   28   34     21.08      0.00
   18   28   34     16.19      0.00
   20   28   34     -6.43      0.00
   22   28   34      1.00      0.00
    1   29   34      5.45      0.00
    3   29   34    -10.52      0.00
    5   29   34     19.62      0.00
    7   29   34      2.60      0.00
    9   29   34     -3.54      0.00
   11   29   34    -10.24      0.00
   13   29   34     -1.84      0.00
   15   29   34      4.10      0.00
   17   29   34    -11.64      0.00
   19   29   34     30.45      0.00
   21   29   34     -1.36      0.00
    0   30   34    -12.77      0.00
    2   30   34    -12.39      0.00
    4   30   34      9.18      0.00
    6   30   34      2.35      0.00
    8   30   34     13.53      0.00
   10   30   34     19.12      0.00
   12   30   34     -9.42      0.00
   14   30   34    -11.67      0.00
   16   30   34      6.37      0.00
   18   30   34     -8.95      0.00
   20   30   34     -6.36      0.00
    1   31   34    -12.16      0.00
    3   31   34      1.10      0.00
    5   31   34     -7.30      0.00
    7   31   34      2.90      0.00
    9   31   34     -8.60      0.00
   11   31   34     18.04      0.00
   13   31   34    -14.29      0.00
   15   31   34      6.98      0.00
   17   31   34      2.81      0.00
   19   31   34      3.76      0.00
    0   32   34      6.18      0.00
    2   32   34      8.60      0.00
    4   32   34     -3.53      0.00
    6   32   34    -11.40      0.00
    8   32   34      3.13      0.00
   10   32   34      4.53      0.00
   12   32   34      2.25      0.00
   14   32   34      2.07      0.00
   16   32   34      5.96      0.00
   18   32   34    -13.17      0.00
    1   33   34    -18.83      0.00
    3   33   34     -8.04      0.00
    5   33   34     -4.89      0.00
    7   33   34     -1.14      0.00
    9   33   34     -2.94      0.00
   11   33   34      1.67      0.00
   13   33   34    -10.05      0.00
   15   33   34     -7.51      0.00
    0   34   34     15.33      0.00
    2   34   34      1.80      0.00
    4   34   34     -0.08      0.00
    6   34   34    -19.71      0.00
    8   34   34      3.27      0.00
   10   34   34    -11.88      0.00
   12   34   34      0.05      0.00
   14   34   34     30.43      0.00
   20   21   35    -15.22      0.00
   19   22   35     17.01      0.00
   21   22   35    -11.92      0.00
   18   23   35    -26.20      0.00
   20   23   35     -2.52      0.00
   22   23   35     -1.17      0.00
   15   24   35      3.98      0.00
   17   24   35    -12.92      0.00
   19   24   35      0.13      0.00
   21   24   35      2.17      0.00
   23   24   35     -5.20      0.00
   14   25   35     17.79      0.00
   16   25   35      2.06      0.00
   18   25   35     -7.44      0.00
   20   25   35     21.62      0.00
   22   25   35      2.75      0.00
   24   25   35     -4.23      0.00
   11   26   35     -5.65      0.00
   13   26   35    -11.39      0.00
   15   26   35     -9.70      0.00
   17   26   35      3.58      0.00
   19   26   35      5.62      0.00
   21   26   35     -2.50      0.00
   23   26   35     -8.34      0.00
    0   27   35     26.25      0.00
    2   27   35      6.42      0.00
    4   27   35      1.36      0.00
    6   27   35      5.13      0.00
    8   27   35     -1.00      0.00
   10   27   35     -1.98      0.00
   12   27   35     10.61      0.00
   14   27   35     -4.44      0.00
   16   27   35     -6.81      0.00
   18   27   35     -1.58      0.00
   20   27   35     21.83      0.00
   22   27   35     -3.65      0.00
    1   28   35     -4.90      0.00
    3   28   35    -12.06      0.00
    5   28   35      1.74      0.00
    7   28   35     30.83      0.00
    9   28   35      9.39      0.00
   11   28   35     -7.97      0.00
   13   28   35    -29.15      0.00
   15   28   35     -1.75      0.00
   17   28   35      9.82      0.00
   19   28   35    -11.01      0.00
   21   28   35      5.11      0.00
    0   29   35    -26.47      0.00
    2   29   35     -8.93      0.00
    4   29   35      9.51      0.00
    6   29   35     -1.23      0.00
    8   29   35    -10.59      0.00
   10   29   35      2.68      0.00
   12   29   35     -9.85      0.00
   14   29   35     -1.59      0.00
   16   29   35     -0.91      0.00
   18   29   35     -3.78      0.00
   20   29   35     -6.74      0.00
    1   30   35     11.58      0.00
    3   30   35     -5.65      0.00
    5   30   35     -9.17      0.00
    7   30   35     13.31      0.00
    9   30   35      4.47      0.00
   11   30   35      4.54      0.00
   13   30   35     -8.97      0.00
   15   30   35      9.72      0.00
   17   30   35      9.75      0.00
   19   30   35     -4.24      0.00
    0   31   35    -10.70      0.00
    2   31   35     -2.68      0.00
    4   31   35      8.24      0.00
    6   31   35     -9.70      0.00
    8   31   35      3.38      0.00
   10   31   35     -6.29      0.00
   12   31   35     -5.66      0.00
   14   31   35      6.43      0.00
   16   31   35     -7.26      0.00
    1   32   35     -5.24      0.00
    3   32   35     -4.97      0.00
    5   32   35     -3.63      0.00
    7   32   35     -8.50      0.00
    9   32   35     -8.60      0.00
   11   32   35      0.13      0.00
   13   32   35     -5.33      0.00
   15   32   35     13.98      0.00
    0   33   35     -5.22      0.00
    2   33   35    -10.41      0.00
    4   33   35     10.14      0.00
    6   33   35     -0.90      0.00
    8   33   35     -6.11      0.00
   10   33   35     -9.84      0.00
   12   33   35      2.30      0.00
    1   34   35     -0.49      0.00
    3   34   35     12.01      0.00
    5   34   35      5.45      0.00
    7   34   35     24.07      0.00
    9   34   35    -13.24      0.00
   11   34   35      5.98      0.00
    0   35   35     14.08      0.00
    2   35   35     -6.84      0.00
    4   35   35      9.56      0.00
    6   35   35      5.07      0.00
   19   19   36     -5.86      0.00
   18   20   36     -0.22      0.00
   20   20   36      2.47      0.00
   17   21   36     -8.71      0.00
   19   21   36    -10.56      0.00
   21   21   36     -5.32      0.00
   16   22   36      5.63      0.00
   18   22   36     12.63      0.00
   20   22   36     -1.49      0.00
   22   22   36    -22.64      0.00
   15   23   36     -1.51      0.00
   17   23   36     -4.69      0.00
   19   23   36     -9.71      0.00
   21   23   36     13.41      0.00
   23   23   36     26.90      0.00
   14   24   36    -18.41      0.00
   16   24   36     -6.65      0.00
   18   24   36     -4.11      0.00
   20   24   36     -7.06      0.00
   22   24   36      1.43      0.00
   24   24   36    -10.16      0.00
   11   25   36     11.66      0.00
   13   25   36     11.76      0.00
   15   25   36     -3.05      0.00
   17   25   36      0.89      0.00
   19   25   36     10.11      0.00
   21   25   36      1.30      0.00
   23   25   36      3.74      0.00
    0   26   36     -3.07      0.00
    2   26   36      6.94      0.00
    4   26   36      0.99      0.00
    6   26   36     17.33      0.00
    8   26   36     -7.17      0.00
   10   26   36      5.23      0.00
   12   26   36     -6.10      0.00
   14   26   36    -17.90      0.00
   16   26   36     -4.15      0.00
   18   26   36      8.97      0.00
   20   26   36     -1.77      0.00
   22   26   36      3.41      0.00
    1   27   36    -12.82      0.00
    3   27   36     -4.04      0.00
    5   27   36    -15.83      0.00
    7   27   36     -1.48      0.00
    9   27   36      1.60      0.00
   11   27   36      6.00      0.00
   13   27   36      7.94      0.00
   15   27   36      6.42      0.00
   17   27   36    -10.69      0.00
   19   27   36     -4.19      0.00
   21   27   36     -0.45      0.00
    0   28   36     -2.87      0.00
    2   28   36     23.78      0.00
    4   28   36     -8.44      0.00
    6   28   36      3.48      0.00
    8   28   36    -20.39      0.00
   10   28   36     -9.13      0.00
   12   28   36      0.85      0.00
   14   28   36      9.94      0.00
   16   28   36     -6.78      0.00
   18   28   36      2.67      0.00
   20   28   36     -7.80      0.00
    1   29   36    -13.49      0.00
    3   29   36      4.83      0.00
    5   29   36     -2.34      0.00
    7   29   36      7.01      0.00
    9   29   36     10.60      0.00
   11   29   36     14.41      0.00
   13   29   36     -7.07      0.00
   15   29   36      7.39      0.00
   17   29   36     -5.87      0.00
   19   29   36     -6.66      0.00
    0   30   36     -3.98      0.00
    2   30   36      1.03      0.00
    4   30   36     -9.33      0.00
    6   30   36     -9.11      0.00
    8   30   36     -5.53      0.00
   10   30   36      9.92      0.00
   12   30   36    -13.20      0.00
   14   30   36     -3.97      0.00
   16   30   36     -6.18      0.00
    1   31   36      3.63      0.00
    3   31   36     16.43      0.00
    5   31   36     -2.47      0.00
    7   31   36     -3.01      0.00
    9   31   36     -4.28      0.00
   11   31   36      1.30      0.00
   13   31   36      4.33      0.00
   15   31   36     -7.92      0.00
    0   32   36     -2.41      0.00
    2   32   36      2.82      0.00
    4   32   36     -6.47      0.00
    6   32   36     -3.20      0.00
    8   32   36     19.98      0.00
   10   32   36      7.38      0.00
   12   32   36      1.32      0.00
    1   33   36     -5.21      0.00
    3   33   36      2.86      0.00
    5   33   36     -2.74      0.00
    7   33   36     -4.09      0.00
    9   33   36    -15.77      0.00
   11   33   36     -9.20      0.00
    0   34   36     11.82      0.00
    2   34   36      7.59      0.00
    4   34   36     10.33      0.00
    6   34   36     -7.51      0.00
   18   19   37     24.18      0.00
   17   20   37    -10.93      0.00
   19   20   37     19.28      0.00
   16   21   37     18.32      0.00
   18   21   37     -9.38      0.00
   20   21   37     -8.84      0.00
   15   22   37      4.84      0.00
   17   22   37    -16.66      0.00
   19   22   37     -5.34      0.00
   21   22   37    -13.85      0.00
   12   23   37     14.08      0.00
   14   23   37      9.58      0.00
   16   23   37      6.27      0.00
   18   23   37    -10.25      0.00
   20   23   37     -8.00      0.00
   22   23   37     -4.71      0.00
    1   24   37     -5.58      0.00
    9   24   37      6.54      0.00
   11   24   37     12.40      0.00
   13   24   37      5.84      0.00
   15   24   37     -9.04      0.00
   17   24   37     14.48      0.00
   19   24   37     -4.69      0.00
   21   24   37      2.42      0.00
   23   24   37      0.27      0.00
    0   25   37    -13.55      0.00
    2   25   37     13.04      0.00
    4   25   37     -4.23      0.00
    6   25   37     -4.53      0.00
    8   25   37     13.99      0.00
   10   25   37     10.10      0.00
   12   25   37     -5.43      0.00
   14   25   37      3.50      0.00
   16   25   37     -7.04      0.00
   18   25   37    -11.21      0.00
   20   25   37      4.56      0.00
   22   25   37      7.23      0.00
    1   26   37     -5.35      0.00
    3   26   37     -0.04      0.00
    5   26   37      2.61      0.00
    7   26   37     -2.78      0.00
    9   26   37    -14.04      0.00
   11   26   37     -6.88      0.00
   13   26   37    -10.81      0.00
   15   26   37      4.03      0.00
   17   26   37      4.58      0.00
   19   26   37      4.97      0.00
   21   26   37     -5.31      0.00
    0   27   37     -8.27      0.00
    2   27   37     -0.17      0.00
    4   27   37      4.50      0.00
    6   27   37     12.54      0.00
    8   27   37    -10.17      0.00
   10   27   37     -3.94      0.00
   12   27   37     -3.03      0.00
   14   27   37      5.63      0.00
   16   27   37     -0.08      0.00
   18   27   37     -2.42      0.00
   20   27   37     -4.58      0.00
    1   28   37    -10.98      0.00
    3   28   37      6.43      0.00
    5   28   37      1.07      0.00
    7   28   37      8.90      0.00
    9   28   37     -3.79      0.00
   11   28   37     15.20      0.00
   13   28   37     -1.65      0.00
   15   28   37      5.24      0.00
   17   28   37      5.72      0.00
    0   29   37    -10.27      0.00
    2   29   37      9.30      0.00
    4   29   37     11.77      0.00
    6   29   37      9.24      0.00
    8   29   37     -5.11      0.00
   10   29   37     -0.22      0.00
   12   29   37     -7.35      0.00
   14   29   37      9.53      0.00
   16   29   37      3.13      0.00
    1   30   37     15.13      0.00
    3   30   37      3.35      0.00
    5   30   37      9.35      0.00
    7   30   37      2.84      0.00
    9   30   37     19.44      0.00
   11   30   37      8.43      0.00
   13   30   37      1.37      0.00
   15   30   37     -4.79      0.00
    0   31   37      0.73      0.00
    2   31   37     -1.56      0.00
    4   31   37     -6.76      0.00
    6   31   37      7.34      0.00
    8   31   37     -3.61      0.00
   10   31   37    -10.88      0.00
   12   31   37      5.25      0.00
    1   32   37      8.55      0.00
    3   32   37    -12.65      0.00
    5   32   37    -10.76      0.00
    7   32   37     -3.22      0.00
    9   32   37     -2.01      0.00
    0   33   37      6.64      0.00
    2   33   37      0.51      0.00
    4   33   37    -11.74      0.00
    6   33   37      5.05      0.00
   17   17   38     32.93      0.00
   16   18   38     12.27      0.00
   18   18   38    -15.60      0.00
   15   19   38      7.89      0.00
   17   19   38      6.08      0.00
   19   19   38     17.67      0.00
   14   20   38     25.84      0.00
   16   20   38     -6.39      0.00
   18   20   38      5.26      0.00
   20   20   38      7.25      0.00
   13   21   38      7.96      0.00
   15   21   38     -5.88      0.00
   17   21   38     -3.37      0.00
   19   21   38     -0.57      0.00
   21   21   38      1.58      0.00
   10   22   38      5.51      0.00
   12   22   38     56.59      0.00
   14   22   38     12.85      0.00
   16   22   38    -17.83      0.00
   18   22   38      5.48      0.00
   20   22   38      8.92      0.00
   22   22   38     -8.21      0.00
    1   23   38    -14.65      0.00
    3   23   38    -35.60      0.00
    5   23   38     23.90      0.00
    7   23   38     -6.36      0.00
    9   23   38      6.43      0.00
   11   23   38      5.36      0.00
   13   23   38    -13.92      0.00
   15   23   38     -5.85      0.00
   17   23   38      7.03      0.00
   19   23   38     -9.83      0.00
   21   23   38      5.66      0.00
   23   23   38     -1.16      0.00
    0   24   38     15.27      0.00
    2   24   38     15.65      0.00
    4   24   38      9.43      0.00
    6   24   38     -0.62      0.00
    8   24   38    -21.55      0.00
   10   24   38     -0.40      0.00
   12   24   38     15.34      0.00
   14   24   38      3.29      0.00
   16   24   38     17.23      0.00
   18   24   38      1.48      0.00
   20   24   38      8.13      0.00
   22   24   38      2.62      0.00
    1   25   38    -29.16      0.00
    3   25   38      4.36      0.00
    5   25   38    -10.92      0.00
    7   25   38      4.17      0.00
    9   25   38     -8.31      0.00
   11   25   38    -15.77      0.00
   13   25   38     -0.36      0.00
   15   25   38      1.08      0.00
   17   25   38     10.13      0.00
   19   25   38      5.60      0.00
    0   26   38      5.88      0.00
    2   26   38     -5.09      0.00
    4   26   38     -7.94      0.00
    6   26   38      0.13      0.00
    8   26   38     21.00      0.00
   10   26   38      9.12      0.00
   12   26   38     -3.01      0.00
   14   26   38     10.97      0.00
   16   26   38      0.18      0.00
   18   26   38     -9.62      0.00
    1   27   38      0.00      0.00
    3   27   38     15.93      0.00
    5   27   38     -7.61      0.00
    7   27   38    -11.98      0.00
    9   27   38     10.41      0.00
   11   27   38     -7.21      0.00
   13   27   38     -4.41      0.00
   15   27   38     -3.88      0.00
   17   27   38      6.84      0.00
    0   28   38      6.25      0.00
    2   28   38     14.42      0.00
    4   28   38      5.16      0.00
    6   28   38     -9.31      0.00
    8   28   38     -4.75      0.00
   10   28   38     -2.11      0.00
   12   28   38     -2.48      0.00
   14   28   38      3.89      0.00
   16   28   38     -5.73      0.00
    1   29   38    -10.43      0.00
    3   29   38      2.90      0.00
    5   29   38      6.48      0.00
    7   29   38      2.82      0.00
    9   29   38      2.44      0.00
   11   29   38      0.58      0.00
   13   29   38     -5.77      0.00
    0   30   38      7.06      0.00
    2   30   38     -1.07      0.00
    4   30   38      7.62      0.00
    6   30   38     -1.93      0.00
    8   30   38    -10.68      0.00
   10   30   38    -16.61      0.00
   12   30   38     -1.61      0.00
    1   31   38     -8.89      0.00
    3   31   38    -10.53      0.00
    5   31   38     -0.32      0.00
    7   31   38      0.30      0.00
    9   31   38      7.47      0.00
    0   32   38     -5.70      0.00
    2   32   38     -4.89      0.00
    4   32   38    -13.32      0.00
    6   32   38     -0.35      0.00
   16   17   39     -5.80      0.00
   15   18   39     14.37      0.00
   17   18   39     -0.65      0.00
   12   19   39    -29.03      0.00
   14   19   39      2.82      0.00
   16   19   39    -12.16      0.00
   18   19   39      2.47      0.00
   11   20   39    -13.76      0.00
   13   20   39     23.67      0.00
   15   20   39      6.15      0.00
   17   20   39     15.98      0.00
   19   20   39     -6.11      0.00
    6   21   39     -0.79      0.00
    8   21   39     21.17      0.00
   10   21   39      6.42      0.00
   12   21   39    -22.68      0.00
   14   21   39      9.65      0.00
   16   21   39      7.83      0.00
   18   21   39      1.08      0.00
   20   21   39      9.29      0.00
    1   22   39     -5.02      0.00
    3   22   39     -1.68      0.00
    5   22   39     -0.87      0.00
    7   22   39     -7.69      0.00
    9   22   39     25.61      0.00
   11   22   39      3.77      0.00
   13   22   39     -1.36      0.00
   15   22   39      7.99      0.00
   17   22   39     -9.02      0.00
   19   22   39    -13.72      0.00
   21   22   39      9.91      0.00
    0   23   39      2.94      0.00
    2   23   39     -0.08      0.00
    4   23   39     20.34      0.00
    6   23   39    -15.20      0.00
    8   23   39      3.53      0.00
   10   23   39    -24.67      0.00
   12   23   39     -7.69      0.00
   14   23   39      0.15      0.00
   16   23   39     -3.87      0.00
   18   23   39     15.21      0.00
   20   23   39     -0.06      0.00
    1   24   39     -7.18      0.00
    3   24   39     -6.77      0.00
    5   24   39     -0.56      0.00
    7   24   39    -16.00      0.00
    9   24   39     13.37      0.00
   11   24   39      0.54      0.00
   13   24   39     -5.23      0.00
   15   24   39      3.74      0.00
   17   24   39      4.53      0.00
   19   24   39     -5.84      0.00
    0   25   39    -16.02      0.00
    2   25   39      6.46      0.00
    4   25   39     20.49      0.00
    6   25   39      7.02      0.00
    8   25   39     -6.52      0.00
   10   25   39     11.38      0.00
   12   25   39    -11.77      0.00
   14   25   39      1.69      0.00
   16   25   39      2.80      0.00
   18   25   39     -3.13      0.00
    1   26   39     10.49      0.00
    3   26   39      1.10      0.00
    5   26   39      7.24      0.00
    7   26   39     -9.19      0.00
    9   26   39    -17.98      0.00
   11   26   39     14.66      0.00
   13   26   39     23.16      0.00
   15   26   39      6.69      0.00
   17   26   39     -9.60      0.00
    0   27   39     -8.08      0.00
    2   27   39    -10.89      0.00
    4   27   39     -5.43      0.00
    6   27   39     15.55      0.00
    8   27   39     -3.74      0.00
   10   27   39     12.58      0.00
   12   27   39     -9.08      0.00
   14   27   39    -16.59      0.00
   16   27   39      5.55      0.00
    1   28   39      6.25      0.00
    3   28   39     14.75      0.00
    5   28   39      0.43      0.00
    7   28   39      5.39      0.00
    9   28   39     -7.09      0.00
   11   28   39     -2.83      0.00
   13   28   39     14.86      0.00
    0   29   39      1.75      0.00
    2   29   39      0.60      0.00
    4   29   39      0.47      0.00
    6   29   39      4.95      0.00
    8   29   39      1.15      0.00
   10   29   39     -8.64      0.00
   12   29   39     -1.83      0.00
    1   30   39     -8.13      0.00
    3   30   39     -4.54      0.00
    5   30   39      8.62      0.00
    7   30   39     -0.14      0.00
    9   30   39      4.24      0.00
    0   31   39     16.53      0.00
    2   31   39      0.56      0.00
    4   31   39     -5.34      0.00
   15   15   40    -13.97      0.00
   14   16   40    -34.13      0.00
   16   16   40    -14.04      0.00
   13   17   40      6.50      0.00
   15   17   40      0.81      0.00
   17   17   40    -26.59      0.00
   10   18   40    -13.43      0.00
   12   18   40    -18.36      0.00
   14   18   40     11.30      0.00
   16   18   40     22.82      0.00
   18   18   40      3.56      0.00
    7   19   40      8.52      0.00
    9   19   40     16.33      0.00
   11   19   40     19.70      0.00
   13   19   40     -7.47      0.00
   15   19   40      3.01      0.00
   17   19   40      1.05      0.00
   19   19   40      7.22      0.00
    0   20   40     -3.00      0.00
    2   20   40      0.62      0.00
    4   20   40     -6.46      0.00
    6   20   40     19.80      0.00
    8   20   40     -7.86      0.00
   10   20   40    -23.98      0.00
   12   20   40      2.08      0.00
   14   20   40     -3.03      0.00
   16   20   40      2.83      0.00
   18   20   40     -1.50      0.00
   20   20   40      3.24      0.00
    1   21   40      9.84      0.00
    3   21   40      2.78      0.00
    5   21   40    -18.77      0.00
    7   21   40     26.09      0.00
    9   21   40     11.84      0.00
   11   21   40    -13.42      0.00
   13   21   40      5.90      0.00
   15   21   40      4.35      0.00
   17   21   40     15.66      0.00
   19   21   40     -6.41      0.00
   21   21   40     -6.43      0.00
    0   22   40      5.38      0.00
    2   22   40      3.85      0.00
    4   22   40     10.45      0.00
    6   22   40     -3.44      0.00
    8   22   40     -5.77      0.00
   10   22   40     19.07      0.00
   12   22   40      8.07      0.00
   14   22   40     -0.39      0.00
   16   22   40     -8.59      0.00
   18   22   40     -5.01      0.00
   20   22   40      0.72      0.00
    1   23   40      0.63      0.00
    3   23   40      1.44      0.00
    5   23   40      8.90      0.00
    7   23   40     23.82      0.00
    9   23   40    -21.88      0.00
   11   23   40     -7.50      0.00
   13   23   40      9.09      0.00
   15   23   40      6.57      0.00
   17   23   40     10.16      0.00
   19   23   40     -5.13      0.00
    0   24   40     36.95      0.00
    2   24   40      5.60      0.00
    4   24   40      0.24      0.00
    6   24   40     -9.00      0.00
    8   24   40    -17.50      0.00
   10   24   40     30.19      0.00
   12   24   40     16.33      0.00
   14   24   40     20.42      0.00
   16   24   40     16.14      0.00
   18   24   40      2.25      0.00
    1   25   40    -10.90      0.00
    3   25   40      7.22      0.00
    5   25   40      3.41      0.00
    7   25   40      1.24      0.00
    9   25   40     -2.86      0.00
   11   25   40      1.35      0.00
   13   25   40     -7.61      0.00
   15   25   40      3.27      0.00
    0   26   40     21.04      0.00
    2   26   40      2.50      0.00
    4   26   40     -6.76      0.00
    6   26   40     -7.27      0.00
    8   26   40      6.39      0.00
   10   26   40     -1.59      0.00
   12   26   40     -3.14      0.00
   14   26   40      6.81      0.00
    1   27   40      0.47      0.00
    3   27   40     10.24      0.00
    5   27   40     -4.91      0.00
    7   27   40    -16.81      0.00
    9   27   40     -3.74      0.00
   11   27   40      0.69      0.00
   13   27   40     -9.57      0.00
    0   28   40      5.22      0.00
    2   28   40     13.86      0.00
    4   28   40     -7.63      0.00
    6   28   40     -0.95      0.00
    8   28   40      4.81      0.00
   10   28   40      8.87      0.00
    1   29   40     12.29      0.00
    3   29   40      4.05      0.00
    5   29   40     -6.20      0.00
    7   29   40     -2.20      0.00
    0   30   40     10.23      0.00
    2   30   40      4.93      0.00
   13   14   41    -16.28      0.00
   12   15   41     17.03      0.00
   14   15   41     -3.08      0.00
   11   16   41     -8.29      0.00
   13   16   41      5.07      0.00
   15   16   41      3.02      0.00
    8   17   41    -39.26      0.00
   10   17   41      4.27      0.00
   12   17   41      8.14      0.00
   14   17   41      3.08      0.00
   16   17   41     -3.33      0.00
    1   18   41    -14.74      0.00
    3   18   41     -1.59      0.00
    5   18   41     19.92      0.00
    7   18   41     -5.50      0.00
    9   18   41     -4.30      0.00
   11   18   41      9.67      0.00
   13   18   41    -11.31      0.00
   15   18   41      4.00      0.00
   17   18   41     -4.63      0.00
    0   19   41     -3.98      0.00
    2   19   41      5.85      0.00
    4   19   41     -0.77      0.00
    6   19   41    -11.78      0.00
    8   19   41      9.99      0.00
   10   19   41     18.78      0.00
   12   19   41     -7.48      0.00
   14   19   41     -5.60      0.00
   16   19   41     10.53      0.00
   18   19   41      0.01      0.00
    1   20   41      3.00      0.00
    3   20   41      5.30      0.00
    5   20   41    -13.51      0.00
    7   20   41      3.88      0.00
    9   20   41    -11.15      0.00
   11   20   41     10.38      0.00
   13   20   41      2.38      0.00
   15   20   41     -3.40      0.00
   17   20   41      8.00      0.00
   19   20   41      6.93      0.00
    0   21   41     -2.11      0.00
    2   21   41     14.28      0.00
    4   21   41    -14.54      0.00
    6   21   41      8.22      0.00
    8   21   41      0.95      0.00
   10   21   41     13.06      0.00
   12   21   41    -29.19      0.00
   14   21   41      0.79      0.00
   16   21   41     12.95      0.00
   18   21   41     -9.28      0.00
    1   22   41      2.97      0.00
    3   22   41      3.93      0.00
    5   22   41     -3.39      0.00
    7   22   41     13.93      0.00
    9   22   41     -8.29      0.00
   11   22   41    -10.63      0.00
   13   22   41      4.74      0.00
   15   22   41     10.39      0.00
   17   22   41      9.97      0.00
    0   23   41    -25.65      0.00
    2   23   41     -0.65      0.00
    4   23   41     23.19      0.00
    6   23   41    -11.46      0.00
    8   23   41     -4.54      0.00
   10   23   41     -7.31      0.00
   12   23   41      9.43      0.00
   14   23   41     10.01      0.00
   16   23   41     -4.82      0.00
    1   24   41      4.13      0.00
    3   24   41     -3.89      0.00
    5   24   41      5.08      0.00
    7   24   41     -4.17      0.00
    9   24   41     -3.77      0.00
   11   24   41      2.36      0.00
   13   24   41      5.09      0.00
   15   24   41      3.93      0.00
    0   25   41    -12.90      0.00
    2   25   41     -0.76      0.00
    4   25   41      2.57      0.00
    6   25   41     -2.09      0.00
    8   25   41     -7.54      0.00
   10   25   41     -4.41      0.00
   12   25   41     -6.97      0.00
   14   25   41      3.72      0.00
    1   26   41      3.98      0.00
    3   26   41    -15.05      0.00
    5   26   41     11.62      0.00
    7   26   41      1.79      0.00
    9   26   41     -8.30      0.00
   11   26   41     14.84      0.00
    0   27   41     20.32      0.00
    2   27   41     -1.30      0.00
    4   27   41      5.20      0.00
    6   27   41      1.74      0.00
    8   27   41      2.87      0.00
    1   28   41     -3.32      0.00
    3   28   41     -3.55      0.00
    5   28   41      8.55      0.00
   12   12   42     16.94      0.00
   11   13   42    -13.26      0.00
   13   13   42     -1.51      0.00
    8   14   42    -11.89      0.00
   10   14   42     11.72      0.00
   12   14   42     -3.93      0.00
   14   14   42     23.62      0.00
    7   15   42     -0.54      0.00
    9   15   42     -8.08      0.00
   11   15   42    -15.40      0.00
   13   15   42     -1.78      0.00
   15   15   42    -13.39      0.00
    0   16   42     22.93      0.00
    2   16   42     14.87      0.00
    4   16   42     -4.10      0.00
    6   16   42    -11.34      0.00
    8   16   42    -23.22      0.00
   10   16   42     14.62      0.00
   12   16   42      5.76      0.00
   14   16   42     -3.16      0.00
   16   16   42     -3.96      0.00
    1   17   42    -12.13      0.00
    3   17   42      8.25      0.00
    5   17   42     -7.60      0.00
    7   17   42      0.69      0.00
    9   17   42     14.25      0.00
   11   17   42     -1.89      0.00
   13   17   42     -2.22      0.00
   15   17   42    -11.03      0.00
   17   17   42    -17.27      0.00
    0   18   42     32.41      0.00
    2   18   42     -7.84      0.00
    4   18   42     -1.43      0.00
    6   18   42      5.36      0.00
    8   18   42    -11.84      0.00
   10   18   42     12.10      0.00
   12   18   42     -4.78      0.00
   14   18   42     14.26      0.00
   16   18   42     -9.08      0.00
   18   18   42     12.01      0.00
    1   19   42    -14.07      0.00
    3   19   42     -0.19      0.00
    5   19   42      2.36      0.00
    7   19   42      0.04      0.00
    9   19   42     -6.01      0.00
   11   19   42      2.05      0.00
   13   19   42     -5.29      0.00
   15   19   42      2.52      0.00
   17   19   42      5.16      0.00
   19   19   42     -4.45      0.00
    0   20   42     11.51      0.00
    2   20   42      1.66      0.00
    4   20   42     -3.23      0.00
    6   20   42     -8.30      0.00
    8   20   42     31.19      0.00
   10   20   42     -8.32      0.00
   12   20   42     14.88      0.00
   14   20   42      1.15      0.00
   16   20   42     -1.79      0.00
   18   20   42     15.27      0.00
    1   21   42     19.96      0.00
    3   21   42    -13.36      0.00
    5   21   42      2.03      0.00
    7   21   42    -15.80      0.00
    9   21   42     12.28      0.00
   11   21   42     -3.71      0.00
   13   21   42      2.81      0.00
   15   21   42     13.70      0.00
   17   21   42     15.73      0.00
    0   22   42     12.53      0.00
    2   22   42      5.68      0.00
    4   22   42     -0.31      0.00
    6   22   42    -11.59      0.00
    8   22   42      6.71      0.00
   10   22   42      0.24      0.00
   12   22   42      0.37      0.00
   14   22   42      9.63      0.00
   16   22   42     -1.93      0.00
    1   23   42     16.79      0.00
    3   23   42      9.11      0.00
    5   23   42      4.47      0.00
    7   23   42     -1.13      0.00
    9   23   42     -0.92      0.00
   11   23   42     -4.82      0.00
   13   23   42      8.78      0.00
    0   24   42     -2.77      0.00
    2   24   42    -15.11      0.00
    4   24   42    -13.62      0.00
    6   24   42      8.38      0.00
    8   24   42     10.93      0.00
   10   24   42      0.53      0.00
   12   24   42     -3.83      0.00
    1   25   42      9.95      0.00
    3   25   42      0.15      0.00
    5   25   42     16.67      0.00
    7   25   42     -6.94      0.00
    9   25   42      5.50      0.00
    0   26   42    -15.24      0.00
    2   26   42    -13.23      0.00
    4   26   42      4.11      0.00
    6   26   42      0.50      0.00
    8   26   42     -2.00      0.00
    1   27   42      7.52      0.00
    3   27   42     -4.27      0.00
    9   10   43      4.26      0.00
    8   11   43     31.11      0.00
   10   11   43     -3.73      0.00
    7   12   43     -3.36      0.00
    9   12   43    -27.98      0.00
   11   12   43     -8.79      0.00
    4   13   43    -25.37      0.00
    6   13   43      0.22      0.00
    8   13   43     21.19      0.00
   10   13   43      1.20      0.00
   12   13   43     -4.62      0.00
    1   14   43    -10.39      0.00
    3   14   43     -3.86      0.00
    5   14   43     -3.78      0.00
    7   14   43    -15.81      0.00
    9   14   43     -0.66      0.00
   11   14   43     18.62      0.00
   13   14   43     14.44      0.00
    0   15   43     -6.30      0.00
    2   15   43    -17.18      0.00
    4   15   43      6.49      0.00
    6   15   43     -0.84      0.00
    8   15   43      0.20      0.00
   10   15   43      2.86      0.00
   12   15   43    -11.96      0.00
   14   15   43      0.70      0.00
    1   16   43     13.64      0.00
    3   16   43     14.93      0.00
    5   16   43      5.22      0.00
    7   16   43     -0.48      0.00
    9   16   43     -4.83      0.00
   11   16   43     18.77      0.00
   13   16   43     -9.94      0.00
   15   16   43    -12.21      0.00
    0   17   43      8.23      0.00
    2   17   43      2.14      0.00
    4   17   43     18.13      0.00
    6   17   43    -13.36      0.00
    8   17   43     -1.22      0.00
   10   17   43     10.11      0.00
   12   17   43      9.21      0.00
   14   17   43     -4.41      0.00
   16   17   43     15.05      0.00
    1   18   43     -2.91      0.00
    3   18   43     -3.09      0.00
    5   18   43     18.53      0.00
    7   18   43     -3.53      0.00
    9   18   43     -4.41      0.00
   11   18   43      7.28      0.00
   13   18   43     -4.68      0.00
   15   18   43     -4.74      0.00
   17   18   43     13.96      0.00
    0   19   43      9.46      0.00
    2   19   43      9.02      0.00
    4   19   43     30.88      0.00
    6   19   43    -14.99      0.00
    8   19   43      3.31      0.00
   10   19   43    -12.88      0.00
   12   19   43      4.95      0.00
   14   19   43     -9.50      0.00
   16   19   43     15.71      0.00
    1   20   43     -9.01      0.00
    3   20   43      1.41      0.00
    5   20   43     -0.13      0.00
    7   20   43     -6.98      0.00
    9   20   43      0.97      0.00
   11   20   43     -7.40      0.00
   13   20   43      5.47      0.00
   15   20   43      7.44      0.00
    0   21   43     -6.94      0.00
    2   21   43      0.12      0.00
    4   21   43      9.02      0.00
    6   21   43      5.48      0.00
    8   21   43    -10.75      0.00
   10   21   43      4.39      0.00
   12   21   43     11.97      0.00
   14   21   43     -7.43      0.00
    1   22   43     14.01      0.00
    3   22   43     -8.68      0.00
    5   22   43      7.63      0.00
    7   22   43     -5.73      0.00
    9   22   43     -2.00      0.00
   11   22   43    -19.47      0.00
   13   22   43     -3.12      0.00
    0   23   43      7.13      0.00
    2   23   43     -0.71      0.00
    4   23   43     -3.27      0.00
    6   23   43     -5.02      0.00
    8   23   43     -0.13      0.00
   10   23   43     -8.11      0.00
    1   24   43      1.98      0.00
    3   24   43      8.67      0.00
    5   24   43     10.87      0.00
    7   24   43     11.55      0.00
    9   24   43      8.87      0.00
    0   25   43      3.84      0.00
    2   25   43      3.25      0.00
    4   25   43    -17.62      0.00
    0    0   44    -42.16      0.00
    5    5   44     -5.62      0.00
    6    6   44     21.92      0.00
    5    7   44     11.80      0.00
    7    7   44     24.35      0.00
    4    8   44    -14.19      0.00
    6    8   44     -0.67      0.00
    8    8   44      0.56      0.00
    1    9   44    -17.51      0.00
    3    9   44     -5.46      0.00
    5    9   44      9.79      0.00
    7    9   44     33.63      0.00
    9    9   44     18.04      0.00
    0   10   44     -8.44      0.00
    2   10   44      4.67      0.00
    4   10   44    -12.76      0.00
    6   10   44    -10.24      0.00
    8   10   44    -27.19      0.00
   10   10   44    -29.34      0.00
    1   11   44    -20.46      0.00
    3   11   44     19.52      0.00
    5   11   44     25.76      0.00
    7   11   44      1.05      0.00
    9   11   44      2.18      0.00
   11   11   44      1.97      0.00
    0   12   44    -29.27      0.00
    2   12   44     -9.68      0.00
    4   12   44     20.02      0.00
    6   12   44     22.99      0.00
    8   12   44    -15.21      0.00
   10   12   44     19.63      0.00
   12   12   44     25.57      0.00
    1   13   44    -19.51      0.00
    3   13   44      0.94      0.00
    5   13   44     -6.39      0.00
    7   13   44     -0.92      0.00
    9   13   44     -0.82      0.00
   11   13   44      3.16      0.00
   13   13   44      5.34      0.00
    0   14   44      4.18      0.00
    2   14   44     19.08      0.00
    4   14   44     15.11      0.00
    6   14   44      1.88      0.00
    8   14   44     -2.14      0.00
   10   14   44     -2.83      0.00
   12   14   44      3.02      0.00
   14   14   44     -2.27      0.00
    1   15   44     27.17      0.00
    3   15   44     -8.55      0.00
    5   15   44      0.42      0.00
    7   15   44      3.64      0.00
    9   15   44     -1.25      0.00
   11   15   44      1.38      0.00
   13   15   44     -4.88      0.00
   15   15   44      1.99      0.00
    0   16   44     -9.17      0.00
    2   16   44    -11.26      0.00
    4   16   44      8.89      0.00
    6   16   44      7.52      0.00
    8   16   44      0.83      0.00
   10   16   44    -16.42      0.00
   12   16   44     14.74      0.00
   14   16   44     -4.40      0.00
   16   16   44     10.20      0.00
    1   17   44      2.55      0.00
    3   17   44    -18.73      0.00
    5   17   44     -4.52      0.00
    7   17   44     -6.23      0.00
    9   17   44      2.54      0.00
   11   17   44     -0.33      0.00
   13   17   44    -24.94      0.00
   15   17   44     -1.45      0.00
    0   18   44     14.35      0.00
    2   18   44      5.37      0.00
    4   18   44      2.61      0.00
    6   18   44      6.33      0.00
    8   18   44      9.01      0.00
   10   18   44      1.75      0.00
   12   18   44      7.40      0.00
   14   18   44     -7.11      0.00
    1   19   44     -0.74      0.00
    3   19   44     -6.52      0.00
    5   19   44      1.83      0.00
    7   19   44     -1.89      0.00
    9   19   44     -5.65      0.00
   11   19   44     -7.35      0.00
   13   19   44    -10.17      0.00
    0   20   44     -3.77      0.00
    2   20   44     13.55      0.00
    4   20   44     -3.87      0.00
    6   20   44    -16.57      0.00
    8   20   44      7.16      0.00
   10   20   44     -2.56      0.00
   12   20   44      4.09      0.00
    1   21   44     -0.10      0.00
    3   21   44      1.33      0.00
    5   21   44     10.21      0.00
    7   21   44    -12.60      0.00
    9   21   44      0.80      0.00
   11   21   44      8.37      0.00
    0   22   44     -2.59      0.00
    2   22   44      4.50      0.00
    4   22   44    -13.62      0.00
    6   22   44     17.72      0.00
    8   22   44      4.26      0.00
    1   23   44     -2.62      0.00
    3   23   44      1.37      0.00
    5   23   44    -12.79      0.00
    0    0    0      0.00      0.00
loop_
  _platon_squeeze_void_nr
  _platon_squeeze_void_average_x
  _platon_squeeze_void_average_y
  _platon_squeeze_void_average_z
  _platon_squeeze_void_volume
  _platon_squeeze_void_count_electrons
  _platon_squeeze_void_content
   1 -0.004 -0.016 -0.005     44260     10913 ' '
loop_
  _platon_missing_refln_index_h
  _platon_missing_refln_index_k
  _platon_missing_refln_index_l
  _platon_missing_refln_theta
    0    1    1     1.630
    0    0    2     2.306
    1    1    2     2.824
    0    2    2     3.262
    0    3    3     4.896
    0    4    4     6.534
    0    5    5     8.178
    0    6    6     9.828
    0    7    7    11.487
    0    8    8    13.156
   10   10   10    20.392
   10   11   11    21.841
   10   10   12    21.908
_platon_squeeze_void_probe_radius                  1.20
_platon_squeeze_details
)
TITL 1 in Im-3m #229
CELL   38.3000   38.3000   38.3000     90.00     90.00     90.00
SPGR Im-3m
C101 0.500 0.499 0.242 !       2.42 eA-3
Q102 0.283 0.767 0.233 !       1.64 eA-3
C103 0.228 0.393 0.224 !       1.53 eA-3
C104 0.132 0.389 0.133 !       1.52 eA-3
C105 0.117 0.115 0.390 !       1.49 eA-3
C106 0.383 0.385 0.110 !       1.49 eA-3
C107 0.500 0.760 0.236 !       1.45 eA-3
C108 0.442 0.202 0.202 !       1.45 eA-3
Q109 0.312 0.312 0.312 !       1.41 eA-3
Q110 0.188 0.188 0.188 !       1.41 eA-3
C111 0.621 0.624 0.133 !       1.40 eA-3
C112 0.377 0.880 0.627 !       1.38 eA-3
C113 1.000 1.000 0.000 !       1.37 eA-3
C114 0.500 0.801 0.208 !       1.36 eA-3
Q115 0.750 0.250 0.250 !       1.27 eA-3
Q116 0.225 0.225 0.225 !       1.25 eA-3
C117 0.782 0.499 0.219 !       1.23 eA-3
C118 0.525 0.758 0.242 !       1.15 eA-3
C119 0.500 0.203 0.243 !       1.14 eA-3
Q120 0.500 0.750 0.031 !       1.13 eA-3
C121 0.420 0.125 0.125 !       1.13 eA-3
C122 0.080 0.375 0.375 !       1.13 eA-3
C123 0.625 0.623 0.922 !       1.13 eA-3
C124 0.875 0.877 0.578 !       1.13 eA-3
C125 0.139 0.602 0.094 !       1.12 eA-3
C126 0.369 0.633 0.928 !       1.08 eA-3
C127 0.287 0.732 0.063 !       1.05 eA-3
C128 0.656 0.891 0.109 !       1.05 eA-3
C129 0.500 0.114 0.115 !       1.05 eA-3
C130 0.631 0.603 0.088 !       1.03 eA-3
C131 0.641 0.101 0.112 !       1.00 eA-3
C132 0.232 0.016-0.003 !       1.00 eA-3
C133 0.780 0.305 0.000 !       0.99 eA-3
Q134 0.769 0.254 0.226 !       0.98 eA-3
C135 0.618 0.381 0.179 !       0.97 eA-3
C136 0.205 0.750 0.532 !       0.97 eA-3
C137 0.705 0.250 0.032 !       0.97 eA-3
C138 0.531 0.256 0.789 !       0.97 eA-3
C139 0.523 0.738 0.799 !       0.96 eA-3
C140 0.023 0.238 0.299 !       0.96 eA-3
C141 0.507 0.158 0.072 !       0.96 eA-3
C142 0.755 0.704 0.981 !       0.96 eA-3
C143 0.526 0.711 0.225 !       0.95 eA-3
Q144 0.234 0.234 0.234 !       0.95 eA-3
C145 0.243 1.003 0.211 !       0.95 eA-3
C146 0.556 0.969 0.154 !       0.94 eA-3
C147 0.626 0.654 0.153 !       0.94 eA-3
C148 0.874 0.846 0.347 !       0.94 eA-3
C149 0.374 0.346 0.847 !       0.94 eA-3
C150 0.117 0.109 0.120 !       0.94 eA-3
Q151 0.692 0.692 0.692 !       0.93 eA-3
C152 0.977 0.631 0.389 !       0.93 eA-3
C153 0.477 0.131 0.889 !       0.93 eA-3
C154 0.023 0.369 0.611 !       0.93 eA-3
C155 0.523 0.869 0.111 !       0.93 eA-3
C156 0.389 0.633 0.975 !       0.93 eA-3
Q157 0.194 0.743 0.087 !       0.92 eA-3
C158 0.115 0.132 0.132 !       0.92 eA-3
C159 0.385 0.368 0.368 !       0.92 eA-3
C160 0.632 0.631 0.617 !       0.92 eA-3
C161 0.549 0.173 0.186 !       0.92 eA-3
C162 0.131 0.451 0.131 !       0.92 eA-3
C163 0.920 0.367 0.107 !       0.92 eA-3
C164 0.989 0.765 0.028 !       0.91 eA-3
Q165 0.837 0.498 0.047 !       0.91 eA-3
C166 0.710 0.764 0.980 !       0.91 eA-3
C167 0.691 0.528 0.199 !       0.91 eA-3
C168 0.809 0.972 0.301 !       0.91 eA-3
C169 0.600 0.377 0.173 !       0.90 eA-3
C170 0.681 0.811 0.053 !       0.90 eA-3
C171 0.533 0.310 0.809 !       0.90 eA-3
Q172 0.274 0.226 0.125 !       0.88 eA-3
C173 0.947 0.219 0.190 !       0.88 eA-3
C174 0.952 0.564 0.047 !       0.88 eA-3
Q175 0.548 1.004 0.227 !       0.87 eA-3
C176 0.324 0.451 0.196 !       0.87 eA-3
C177 0.726 0.305 0.043 !       0.86 eA-3
C178 1.000 0.500 0.000 !       0.86 eA-3
C179 0.483 0.121 0.900 !       0.86 eA-3
Q180 0.143 0.776 0.224 !       0.85 eA-3
Q181 0.867 0.865 0.227 !       0.85 eA-3
C182 0.918 0.496 0.086 !       0.85 eA-3
C183 0.304 0.445 0.205 !       0.85 eA-3
C184 1.000 0.033 0.033 !       0.85 eA-3
C185 0.362 0.362 0.628 !       0.85 eA-3
C186 0.845 0.129 0.129 !       0.84 eA-3
C187 0.290 0.483 0.206 !       0.83 eA-3
C188 0.425 0.236 0.236 !       0.83 eA-3
C189 0.500 0.136 0.099 !       0.83 eA-3
C190 0.156 0.422 0.155 !       0.83 eA-3
C191 0.195 0.318 0.976 !       0.82 eA-3
C192 0.425 0.830 0.170 !       0.82 eA-3
C193 0.588 0.845 0.086 !       0.81 eA-3
C194 0.396 0.085 0.085 !       0.81 eA-3
C195 0.320 0.328-0.005 !       0.80 eA-3
C196 0.838 0.637 0.380 !       0.79 eA-3
C197 0.027 0.965 0.035 !       0.78 eA-3
C198 0.764 0.237 0.040 !       0.78 eA-3
C199 0.895 0.104 0.168 !       0.78 eA-3
)
;
_shelx_fab_checksum              62261
loop_
_space_group_symop_operation_xyz
'x, y, z'
'-y, x, z'
'-x, -y, z'
'y, -x, z'
'x, -z, y'
'x, -y, -z'
'x, z, -y'
'z, y, -x'
'-x, y, -z'
'-z, y, x'
'z, x, y'
'y, z, x'
'-y, -z, x'
'z, -x, -y'
'-y, z, -x'
'-z, -x, y'
'-z, x, -y'
'y, -z, -x'
'y, x, -z'
'-y, -x, -z'
'-x, z, y'
'-x, -z, -y'
'z, -y, x'
'-z, -y, -x'
'x+1/2, y+1/2, z+1/2'
'-y+1/2, x+1/2, z+1/2'
'-x+1/2, -y+1/2, z+1/2'
'y+1/2, -x+1/2, z+1/2'
'x+1/2, -z+1/2, y+1/2'
'x+1/2, -y+1/2, -z+1/2'
'x+1/2, z+1/2, -y+1/2'
'z+1/2, y+1/2, -x+1/2'
'-x+1/2, y+1/2, -z+1/2'
'-z+1/2, y+1/2, x+1/2'
'z+1/2, x+1/2, y+1/2'
'y+1/2, z+1/2, x+1/2'
'-y+1/2, -z+1/2, x+1/2'
'z+1/2, -x+1/2, -y+1/2'
'-y+1/2, z+1/2, -x+1/2'
'-z+1/2, -x+1/2, y+1/2'
'-z+1/2, x+1/2, -y+1/2'
'y+1/2, -z+1/2, -x+1/2'
'y+1/2, x+1/2, -z+1/2'
'-y+1/2, -x+1/2, -z+1/2'
'-x+1/2, z+1/2, y+1/2'
'-x+1/2, -z+1/2, -y+1/2'
'z+1/2, -y+1/2, x+1/2'
'-z+1/2, -y+1/2, -x+1/2'
'-x, -y, -z'
'y, -x, -z'
'x, y, -z'
'-y, x, -z'
'-x, z, -y'
'-x, y, z'
'-x, -z, y'
'-z, -y, x'
'x, -y, z'
'z, -y, -x'
'-z, -x, -y'
'-y, -z, -x'
'y, z, -x'
'-z, x, y'
'y, -z, x'
'z, x, -y'
'z, -x, y'
'-y, z, x'
'-y, -x, z'
'y, x, z'
'x, -z, -y'
'x, z, y'
'-z, y, -x'
'z, y, x'
'-x+1/2, -y+1/2, -z+1/2'
'y+1/2, -x+1/2, -z+1/2'
'x+1/2, y+1/2, -z+1/2'
'-y+1/2, x+1/2, -z+1/2'
'-x+1/2, z+1/2, -y+1/2'
'-x+1/2, y+1/2, z+1/2'
'-x+1/2, -z+1/2, y+1/2'
'-z+1/2, -y+1/2, x+1/2'
'x+1/2, -y+1/2, z+1/2'
'z+1/2, -y+1/2, -x+1/2'
'-z+1/2, -x+1/2, -y+1/2'
'-y+1/2, -z+1/2, -x+1/2'
'y+1/2, z+1/2, -x+1/2'
'-z+1/2, x+1/2, y+1/2'
'y+1/2, -z+1/2, x+1/2'
'z+1/2, x+1/2, -y+1/2'
'z+1/2, -x+1/2, y+1/2'
'-y+1/2, z+1/2, x+1/2'
'-y+1/2, -x+1/2, z+1/2'
'y+1/2, x+1/2, z+1/2'
'x+1/2, -z+1/2, -y+1/2'
'x+1/2, z+1/2, y+1/2'
'-z+1/2, y+1/2, -x+1/2'
'z+1/2, y+1/2, x+1/2'
loop_
_atom_site_label
_atom_site_type_symbol
_atom_site_fract_x
_atom_site_fract_y
_atom_site_fract_z
_atom_site_U_iso_or_equiv
_atom_site_adp_type
_atom_site_occupancy
_atom_site_site_symmetry_order
_atom_site_calc_flag
_atom_site_refinement_flags_posn
_atom_site_refinement_flags_adp
_atom_site_refinement_flags_occupancy
Hf1 Hf 0.27144(2) 0.20721(2) 0.20721(2) 0.0803(4) Uani 1 2 d DS T P
Ir1 Ir 0.5000 0.2500 0.0000 0.1274(11) Uani 1 8 d S TU P
Cl1 Cl 0.5000 0.3143(11) 0.0000 0.28(2) Uani 0.5 4 d S TU P
O1 O 0.3155(2) 0.2224(3) 0.1721(2) 0.086(3) Uani 1 1 d D U .
O2 O 0.3056(4) 0.2422(3) 0.2422(3) 0.109(5) Uani 1 2 d DS TU P
O3 O 0.2496(3) 0.1957(5) 0.1528(3) 0.170(6) Uani 1 1 d D U .
O4 O 0.2144(3) 0.2144(3) 0.2144(3) 0.061(4) Uani 1 6 d DS TU P
N1 N 0.5000 0.2479(3) 0.0522(2) 0.059(3) Uani 1 2 d S TU P
C1 C 0.4712(3) 0.2468(3) 0.0724(3) 0.069(3) Uani 1 1 d . U .
C2 C 0.4814(3) 0.2443(4) 0.1087(3) 0.091(4) Uani 1 1 d . U .
H2 H 0.4665 0.2429 0.1284 0.109 Uiso 1 1 calc R U .
C3 C 0.4373(2) 0.2500 0.0627(2) 0.059(4) Uani 1 2 d S TU P
C4 C 0.4093(4) 0.2500 0.0907(4) 0.085(5) Uani 1 2 d S TU P
C5 C 0.4028(4) 0.2791(5) 0.1088(4) 0.107(5) Uani 1 1 d . U .
H5 H 0.4163 0.2994 0.1045 0.128 Uiso 1 1 calc R U .
C6 C 0.3764(4) 0.2798(4) 0.1339(4) 0.090(4) Uani 1 1 d . U .
H6 H 0.3709 0.3009 0.1457 0.108 Uiso 1 1 calc R U .
C7 C 0.3587(3) 0.2500 0.1413(3) 0.075(5) Uani 1 2 d S TU P
C8 C 0.3303(4) 0.2500 0.1697(4) 0.083(5) Uani 1 2 d S TU P
loop_
_atom_site_aniso_label
_atom_site_aniso_U_11
_atom_site_aniso_U_22
_atom_site_aniso_U_33
_atom_site_aniso_U_23
_atom_site_aniso_U_13
_atom_site_aniso_U_12
Hf1 0.0805(6) 0.0801(5) 0.0801(5) 0.0495(5) 0.0589(4) 0.0589(4)
Ir1 0.0472(6) 0.288(3) 0.0472(6) 0.000 0.000 0.000
Cl1 0.37(4) 0.20(3) 0.28(4) 0.000 0.000 0.000
O1 0.074(5) 0.099(6) 0.086(5) 0.016(5) 0.039(4) 0.026(5)
O2 0.143(9) 0.091(5) 0.091(5) 0.027(6) 0.011(5) 0.011(5)
O3 0.150(11) 0.249(17) 0.110(9) 0.025(10) 0.093(9) 0.032(11)
O4 0.061(4) 0.061(4) 0.061(4) 0.018(4) 0.018(4) 0.018(4)
N1 0.054(6) 0.111(8) 0.014(4) 0.005(5) 0.000 0.000
C1 0.041(5) 0.132(8) 0.034(4) 0.006(5) 0.016(4) 0.003(5)
C2 0.073(6) 0.143(9) 0.055(6) 0.010(6) 0.021(5) -0.001(6)
C3 0.039(4) 0.097(8) 0.039(4) 0.006(4) 0.007(5) 0.006(4)
C4 0.074(6) 0.107(9) 0.074(6) 0.005(5) 0.011(7) 0.005(5)
C5 0.105(8) 0.119(9) 0.096(8) 0.005(7) 0.036(7) -0.012(7)
C6 0.086(7) 0.107(8) 0.079(7) -0.001(6) 0.033(6) 0.001(6)
C7 0.067(5) 0.092(9) 0.067(5) 0.008(5) 0.025(7) 0.008(5)
C8 0.077(6) 0.094(9) 0.077(6) 0.009(6) 0.018(7) 0.009(6)
loop_
_atom_type_symbol
_atom_type_description
_atom_type_scat_dispersion_real
_atom_type_scat_dispersion_imag
_atom_type_scat_source
C C 0.0181 0.0091 'International Tables Vol C Tables 4.2.6.8 and 6.1.1.4'
H H 0.0000 0.0000 'International Tables Vol C Tables 4.2.6.8 and 6.1.1.4'
Cl Cl 0.3639 0.7018 'International Tables Vol C Tables 4.2.6.8 and 6.1.1.4'
Hf Hf -6.1794 4.9776 'International Tables Vol C Tables 4.2.6.8 and 6.1.1.4'
Ir Ir -4.7710 6.5667 'International Tables Vol C Tables 4.2.6.8 and 6.1.1.4'
N N 0.0311 0.0180 'International Tables Vol C Tables 4.2.6.8 and 6.1.1.4'
O O 0.0492 0.0322 'International Tables Vol C Tables 4.2.6.8 and 6.1.1.4'
loop_
_geom_angle_atom_site_label_1
_geom_angle_atom_site_label_2
_geom_angle_atom_site_label_3
_geom_angle
_geom_angle_site_symmetry_1
_geom_angle_site_symmetry_3
O2 Hf1 O2 112.5(8) 84 83
O2 Hf1 O4 70.4(4) 84 .
O2 Hf1 O4 70.4(4) 83 .
O2 Hf1 O1 144.8(4) 84 70
O2 Hf1 O1 78.6(4) 83 70
O4 Hf1 O1 141.8(3) . 70
O2 Hf1 O1 78.6(4) 84 .
O2 Hf1 O1 144.8(4) 83 .
O4 Hf1 O1 141.8(3) . .
O1 Hf1 O1 75.2(5) 70 .
O2 Hf1 O3 135.7(5) 84 70
O2 Hf1 O3 82.6(6) 83 70
O4 Hf1 O3 77.1(5) . 70
O1 Hf1 O3 77.2(4) 70 70
O1 Hf1 O3 113.4(5) . 70
O2 Hf1 O3 82.6(6) 84 .
O2 Hf1 O3 135.7(5) 83 .
O4 Hf1 O3 77.1(5) . .
O1 Hf1 O3 113.4(5) 70 .
O1 Hf1 O3 77.2(4) . .
O3 Hf1 O3 61.1(8) 70 .
O2 Hf1 O2 74.7(5) 84 .
O2 Hf1 O2 74.7(5) 83 .
O4 Hf1 O2 114.6(6) . .
O1 Hf1 O2 76.6(4) 70 .
O1 Hf1 O2 76.6(4) . .
O3 Hf1 O2 148.1(4) 70 .
O3 Hf1 O2 148.1(4) . .
O2 Hf1 Hf1 93.6(4) 84 83
O2 Hf1 Hf1 39.8(4) 83 83
O4 Hf1 Hf1 94.9(4) . 83
O1 Hf1 Hf1 73.6(3) 70 83
O1 Hf1 Hf1 109.2(3) . 83
O3 Hf1 Hf1 118.8(4) 70 83
O3 Hf1 Hf1 172.0(3) . 83
O2 Hf1 Hf1 35.0(2) . 83
O2 Hf1 Hf1 39.8(4) 84 84
O2 Hf1 Hf1 93.6(4) 83 84
O4 Hf1 Hf1 94.9(4) . 84
O1 Hf1 Hf1 109.2(3) 70 84
O1 Hf1 Hf1 73.6(3) . 84
O3 Hf1 Hf1 172.0(3) 70 84
O3 Hf1 Hf1 118.8(4) . 84
O2 Hf1 Hf1 35.0(2) . 84
Hf1 Hf1 Hf1 60.06(4) 83 84
O2 Hf1 Hf1 89.4(4) 84 12
O2 Hf1 Hf1 32.6(4) 83 12
O4 Hf1 Hf1 38.4(3) . 12
O1 Hf1 Hf1 110.4(2) 70 12
O1 Hf1 Hf1 163.6(3) . 12
O3 Hf1 Hf1 83.0(4) 70 12
O3 Hf1 Hf1 112.7(3) . 12
O2 Hf1 Hf1 89.5(3) . 12
Hf1 Hf1 Hf1 59.97(2) 83 12
Hf1 Hf1 Hf1 90.0 84 12
O2 Hf1 Hf1 32.6(4) 84 11
O2 Hf1 Hf1 89.4(4) 83 11
O4 Hf1 Hf1 38.4(3) . 11
O1 Hf1 Hf1 163.6(3) 70 11
O1 Hf1 Hf1 110.4(2) . 11
O3 Hf1 Hf1 112.7(3) 70 11
O3 Hf1 Hf1 83.0(4) . 11
O2 Hf1 Hf1 89.5(3) . 11
Hf1 Hf1 Hf1 90.0 83 11
Hf1 Hf1 Hf1 59.97(2) 84 11
Hf1 Hf1 Hf1 60.0 12 11
N1 Ir1 N1 175.5(8) 82 80_554
N1 Ir1 N1 90.09(3) 82 51
N1 Ir1 N1 90.09(3) 80_554 51
N1 Ir1 N1 90.09(3) 82 .
N1 Ir1 N1 90.09(3) 80_554 .
N1 Ir1 N1 175.5(8) 51 .
N1 Ir1 Cl1 87.7(4) 82 .
N1 Ir1 Cl1 87.7(4) 80_554 .
N1 Ir1 Cl1 92.3(4) 51 .
N1 Ir1 Cl1 92.3(4) . .
N1 Ir1 Cl1 92.3(4) 82 80_554
N1 Ir1 Cl1 92.3(4) 80_554 80_554
N1 Ir1 Cl1 87.7(4) 51 80_554
N1 Ir1 Cl1 87.7(4) . 80_554
Cl1 Ir1 Cl1 180.0 . 80_554
C8 O1 Hf1 129.1(11) . .
Hf1 O2 Hf1 114.7(7) 83 84
Hf1 O2 Hf1 105.3(5) 83 .
Hf1 O2 Hf1 105.3(5) 84 .
Hf1 O4 Hf1 103.2(5) . 12
Hf1 O4 Hf1 103.2(5) . 11
Hf1 O4 Hf1 103.2(5) 12 11
C1 N1 C1 109.7(11) 54_655 .
C1 N1 Ir1 125.2(6) 54_655 .
C1 N1 Ir1 125.2(6) . .
N1 C1 C3 128.5(10) . .
N1 C1 C2 109.5(9) . .
C3 C1 C2 121.8(10) . .
C2 C2 C1 105.6(6) 54_655 .
C2 C2 H2 127.2 54_655 .
C1 C2 H2 127.2 . .
C1 C3 C1 122.1(13) 48 .
C1 C3 C4 118.9(6) 48 .
C1 C3 C4 118.9(6) . .
C5 C4 C5 120(2) . 48
C5 C4 C3 119.8(10) . .
C5 C4 C3 119.8(10) 48 .
C4 C5 C6 120.4(17) . .
C4 C5 H5 119.8 . .
C6 C5 H5 119.8 . .
C7 C6 C5 119.3(15) . .
C7 C6 H6 120.3 . .
C5 C6 H6 120.3 . .
C6 C7 C6 119.8(17) 48 .
C6 C7 C8 120.1(8) 48 .
C6 C7 C8 120.1(8) . .
O1 C8 O1 134(2) 48 .
O1 C8 C7 112.8(10) 48 .
O1 C8 C7 112.8(10) . .
loop_
_geom_bond_atom_site_label_1
_geom_bond_atom_site_label_2
_geom_bond_distance
_geom_bond_site_symmetry_2
Hf1 O2 2.067(8) 84
Hf1 O2 2.067(8) 83
Hf1 O4 2.221(8) .
Hf1 O1 2.234(8) 70
Hf1 O1 2.234(8) .
Hf1 O3 2.290(13) 70
Hf1 O3 2.290(13) .
Hf1 O2 2.305(14) .
Hf1 Hf1 3.478(2) 83
Hf1 Hf1 3.478(2) 84
Hf1 Hf1 3.4810(11) 12
Hf1 Hf1 3.4810(11) 11
Ir1 N1 2.001(10) 82
Ir1 N1 2.001(10) 80_554
Ir1 N1 2.001(10) 51
Ir1 N1 2.001(10) .
Ir1 Cl1 2.47(4) .
Ir1 Cl1 2.47(4) 80_554
O1 C8 1.202(11) .
O2 Hf1 2.067(8) 83
O2 Hf1 2.067(8) 84
O4 Hf1 2.221(8) 12
O4 Hf1 2.221(8) 11
N1 C1 1.348(11) 54_655
N1 C1 1.348(11) .
C1 C3 1.359(12) .
C1 C2 1.449(16) .
C2 C2 1.42(3) 54_655
C2 H2 0.9500 .
C3 C1 1.359(12) 48
C3 C4 1.52(2) .
C4 C5 1.333(18) .
C4 C5 1.333(18) 48
C5 C6 1.399(18) .
C5 H5 0.9500 .
C6 C7 1.357(16) .
C6 H6 0.9500 .
C7 C6 1.357(16) 48
C7 C8 1.54(2) .
C8 O1 1.202(11) 48
