#------------------------------------------------------------------------------
#$Date: 2019-11-17 07:48:58 +0200 (Sun, 17 Nov 2019) $
#$Revision: 228740 $
#$URL: file:///home/coder/svn-repositories/cod/cif/1/54/84/1548466.cif $
#------------------------------------------------------------------------------
#
# This file is available in the Crystallography Open Database (COD),
# http://www.crystallography.net/
#
# All data on this site have been placed in the public domain by the
# contributors.
#
data_1548466
loop_
_publ_author_name
'Gallagher, Audrey T.'
'Lee, Jung Yoon'
'Kathiresan, Venkatesan'
'Anderson, John S.'
'Hoffman, Brian M.'
'Harris, T. David'
_publ_section_title
;
 A structurally-characterized peroxomanganese(iv) porphyrin from
 reversible O<sub>2</sub> binding within a metal-organic framework.
;
_journal_issue                   6
_journal_name_full               'Chemical science'
_journal_page_first              1596
_journal_page_last               1603
_journal_paper_doi               10.1039/c7sc03739b
_journal_volume                  9
_journal_year                    2018
_chemical_formula_moiety         '0.25(C576 H288 Mn12 N48 O208 Zr48)'
_chemical_formula_sum            'C144 H72 Mn3 N12 O52 Zr12'
_chemical_formula_weight         4061.59
_chemical_name_systematic        PCN224Mn
_space_group_crystal_system      cubic
_space_group_IT_number           229
_space_group_name_Hall           '-I 4 2 3'
_space_group_name_H-M_alt        'I m -3 m'
_symmetry_space_group_name_Hall  '-I 4 2 3'
_symmetry_space_group_name_H-M   'I m -3 m'
_atom_sites_solution_hydrogens   geom
_audit_creation_date             2017-06-20
_audit_creation_method
;
Olex2 1.2
(compiled Mar 28 2017 19:26:29 for OlexSys, GUI svn.r5337)
;
_audit_update_record
;
2017-08-23 deposited with the CCDC.
2017-12-14 downloaded from the CCDC.
;
_cell_angle_alpha                90
_cell_angle_beta                 90
_cell_angle_gamma                90
_cell_formula_units_Z            4
_cell_length_a                   38.6720(10)
_cell_length_b                   38.6720(10)
_cell_length_c                   38.6720(10)
_cell_measurement_reflns_used    9863
_cell_measurement_temperature    100
_cell_measurement_theta_max      64.91
_cell_measurement_theta_min      2.28
_cell_volume                     57835(3)
_computing_cell_refinement       'SAINT v8.37A (Bruker, 2015)'
_computing_data_reduction        'SAINT v8.37A (Bruker, 2015)'
_computing_molecular_graphics    'Olex2 (Dolomanov et al., 2009)'
_computing_publication_material  'Olex2 (Dolomanov et al., 2009)'
_computing_structure_refinement  'ShelXL (Sheldrick, 2015)'
_diffrn_ambient_temperature      100.0
_diffrn_measured_fraction_theta_full 1.000
_diffrn_measured_fraction_theta_max 0.997
_diffrn_measurement_device_type  'Bruker APEX-II CCD'
_diffrn_measurement_method       '\f and \w scans'
_diffrn_radiation_type           CuK\a
_diffrn_radiation_wavelength     1.54178
_diffrn_reflns_av_R_equivalents  0.0934
_diffrn_reflns_av_unetI/netI     0.0392
_diffrn_reflns_Laue_measured_fraction_full 1.000
_diffrn_reflns_Laue_measured_fraction_max 0.997
_diffrn_reflns_limit_h_max       44
_diffrn_reflns_limit_h_min       -46
_diffrn_reflns_limit_k_max       46
_diffrn_reflns_limit_k_min       -42
_diffrn_reflns_limit_l_max       44
_diffrn_reflns_limit_l_min       -45
_diffrn_reflns_number            154240
_diffrn_reflns_point_group_measured_fraction_full 1.000
_diffrn_reflns_point_group_measured_fraction_max 0.997
_diffrn_reflns_theta_full        67.679
_diffrn_reflns_theta_max         68.349
_diffrn_reflns_theta_min         2.285
_diffrn_standards_number         0
_exptl_absorpt_coefficient_mu    2.409
_exptl_absorpt_correction_T_max  0.7531
_exptl_absorpt_correction_T_min  0.6302
_exptl_absorpt_correction_type   multi-scan
_exptl_absorpt_process_details
;
SADABS-2014/5 (Bruker,2014) was used for absorption correction.
wR2(int) was 0.0825 before and 0.0713 after correction.
The Ratio of minimum to maximum transmission is 0.8368.
The \l/2 correction factor is Not present.
;
_exptl_crystal_colour            'dark violet'
_exptl_crystal_colour_modifier   dark
_exptl_crystal_colour_primary    violet
_exptl_crystal_density_diffrn    0.466
_exptl_crystal_description       Cube
_exptl_crystal_F_000             7964
_exptl_crystal_size_max          0.204
_exptl_crystal_size_mid          0.2
_exptl_crystal_size_min          0.15
_refine_diff_density_max         1.489
_refine_diff_density_min         -0.737
_refine_diff_density_rms         0.092
_refine_ls_extinction_method     none
_refine_ls_goodness_of_fit_ref   1.034
_refine_ls_hydrogen_treatment    constr
_refine_ls_matrix_type           full
_refine_ls_number_parameters     102
_refine_ls_number_reflns         4950
_refine_ls_number_restraints     211
_refine_ls_restrained_S_all      1.237
_refine_ls_R_factor_all          0.0949
_refine_ls_R_factor_gt           0.0844
_refine_ls_shift/su_max          0.000
_refine_ls_shift/su_mean         0.000
_refine_ls_structure_factor_coef Fsqd
_refine_ls_weighting_details
'w=1/[\s^2^(Fo^2^)+(0.1790P)^2^+83.5939P] where P=(Fo^2^+2Fc^2^)/3'
_refine_ls_weighting_scheme      calc
_refine_ls_wR_factor_gt          0.2432
_refine_ls_wR_factor_ref         0.2639
_reflns_Friedel_coverage         0.000
_reflns_number_gt                4013
_reflns_number_total             4950
_reflns_threshold_expression     'I > 2\s(I)'
_cod_data_source_file            c7sc03739b2.cif
_cod_data_source_block           PCN224Mn
_cod_depositor_comments
'Adding full bibliography for 1548465--1548466.cif.'
_cod_original_cell_volume        57835(4)
_cod_database_code               1548466
_shelx_shelxl_version_number     2014/7
_shelx_space_group_comment
;
The symmetry employed for this shelxl refinement is uniquely defined
by the following loop, which should always be used as a source of
symmetry information in preference to the above space-group names.
They are only intended as comments.
;
_olex2_refinement_description
;
1. Fixed Uiso
 At 1.2 times of:
  All C(H) groups
2. Rigid bond restraints
 All non-hydrogen atoms
 with sigma for 1-2 distances of 0.01 and sigma for 1-3 distances of 0.01
3. Uiso/Uaniso restraints and constraints
All non-hydrogen atoms have similar U: within 2A with sigma of 0.04 and sigma
for terminal atoms of 0.08
Uanis(O2) \\sim Ueq, Uanis(O1) \\sim Ueq, Uanis(C8) \\sim Ueq, Uanis(Zr1) \\sim
Ueq, Uanis(Zr2) \\sim Ueq, Uanis(C7) \\sim Ueq, Uanis(O3) \\sim Ueq, Uanis(O4)
\\sim Ueq, Uanis(C6) \\sim Ueq, Uanis(C5) \\sim Ueq, Uanis(C4) \\sim Ueq,
Uanis(C3) \\sim Ueq, Uanis(C2) \\sim Ueq, Uanis(C1) \\sim Ueq, Uanis(N17) \\sim
Ueq, : with sigma of 0.03 and sigma for terminal atoms of 0.06
Uanis(Mn1) \\sim Ueq: with sigma of 0.01 and sigma for terminal atoms of 0.02
4. Others
 Sof(Zr1)=0.5*(1-FVAR(2))
 Sof(Zr2)=0.5*FVAR(2)
5.a Aromatic/amide H refined with riding coordinates:
 C1(H1), C5(H5), C6(H6)
;
_shelx_res_file
;
    mnii_needforcif.res created by SHELXL-2014/7

TITL PCN224-Mn in Im-3m #229
REM reset to Im-3m #229
CELL 1.54178 38.672 38.672 38.672 90 90 90
ZERR 4 0.001 0.001 0.001 0 0 0
LATT 2
SYMM -Y,+X,+Z
SYMM -X,-Y,+Z
SYMM +Y,-X,+Z
SYMM +X,-Z,+Y
SYMM +X,-Y,-Z
SYMM +X,+Z,-Y
SYMM +Z,+Y,-X
SYMM -X,+Y,-Z
SYMM -Z,+Y,+X
SYMM +Z,+X,+Y
SYMM +Y,+Z,+X
SYMM -Y,-Z,+X
SYMM +Z,-X,-Y
SYMM -Y,+Z,-X
SYMM -Z,-X,+Y
SYMM -Z,+X,-Y
SYMM +Y,-Z,-X
SYMM +Y,+X,-Z
SYMM -Y,-X,-Z
SYMM -X,+Z,+Y
SYMM -X,-Z,-Y
SYMM +Z,-Y,+X
SYMM -Z,-Y,-X
SFAC C H Mn N O Zr
UNIT 576 288 12 48 208 48
DELU
SIMU
ISOR 0.03 0.06 O2 O1 C8 Zr1 Zr2 C7 O3 O4 C6 C5 H6 C4 H5 C3 C2 C1 N17 H1
ISOR 0.01 0.02 Mn1

L.S. 100
PLAN  20
TEMP -173.15
BOND
fmap 2
acta
ABIN
REM <olex2.extras>
REM <HklSrc "%./MnII_need%20for%20cif.hkl">
REM </olex2.extras>

WGHT    0.179000   83.593895
FVAR       0.00788   0.51135
ZR1   6    0.285047    0.285047    0.222632   -20.50000    0.06144    0.06144 =
         0.08057    0.03959    0.03959    0.02337
ZR2   6    0.295941    0.295941    0.226876    20.50000    0.05944    0.05944 =
         0.07871    0.04077    0.04077    0.02652
O1    5    0.328295    0.277242    0.184430    11.00000    0.12403    0.12192 =
         0.10399    0.07052    0.08267    0.06746
O2    5    0.323274    0.323274    0.247920    10.50000    0.13383    0.13383 =
         0.20693    0.01542    0.01542    0.01592
O3    5    0.256984    0.256984    0.196457    10.50000    0.11519    0.11519 =
         0.06097    0.03395    0.03395    0.08207
O4    5    0.280913    0.280913    0.280913    10.16667    0.07178    0.07178 =
         0.07178    0.02715    0.02715    0.02715
N17   4    0.500000    0.250215    0.051678    10.50000    0.02617    0.35738 =
         0.03060    0.00377    0.00000    0.00000
C1    1    0.482507    0.248312    0.108637    11.00000    0.04377    0.34749 =
         0.02305   -0.00147    0.00337    0.00268
AFIX  43
H1    2    0.467818    0.247618    0.128316    11.00000   -1.20000
AFIX   0
C2    1    0.471991    0.249561    0.073302    11.00000    0.02763    0.32861 =
         0.03000    0.00180    0.00740    0.00478
C3    1    0.437347    0.250000    0.062653    10.50000    0.02552    0.30913 =
         0.02552    0.00577    0.00470    0.00577
C4    1    0.410121    0.250000    0.089879    10.50000    0.03306    0.25999 =
         0.03306    0.00911    0.01302    0.00911
C5    1    0.392285    0.220634    0.096655    11.00000    0.05881    0.23541 =
         0.06460   -0.00874    0.02542    0.02498
AFIX  43
H5    2    0.397388    0.200181    0.084041    11.00000   -1.20000
AFIX   0
C6    1    0.366060    0.219986    0.122351    11.00000    0.06213    0.17916 =
         0.07323    0.00962    0.03437    0.03195
AFIX  43
H6    2    0.353318    0.199506    0.127006    11.00000   -1.20000
AFIX   0
C7    1    0.359774    0.250000    0.140226    10.50000    0.05261    0.16845 =
         0.05261    0.03452    0.02712    0.03452
C8    1    0.332127    0.250000    0.167873    10.50000    0.07553    0.13088 =
         0.07553    0.04326    0.04752    0.04326
PART 2
MN1   3    0.500000    0.250000    0.000000    10.12500    0.02330    0.53234 =
         0.02330    0.00000    0.00000    0.00000
HKLF 4

REM  PCN224-Mn in Im-3m #229
REM R1 =  0.0844 for    4013 Fo > 4sig(Fo)  and  0.0949 for all    4950 data
REM    102 parameters refined using    211 restraints

END

WGHT      0.1789     83.6807

REM Highest difference peak  1.489,  deepest hole -0.737,  1-sigma level  0.092
Q1    1   0.5000  0.2849  0.0000  10.25000  0.05    1.49
Q2    1   0.2990  0.2990  0.2762  10.50000  0.05    1.45
Q3    1   0.2914  0.2705  0.2025  11.00000  0.05    1.44
Q4    1   0.3108  0.3108  0.2827  10.50000  0.05    1.31
Q5    1   0.2869  0.2744  0.2095  11.00000  0.05    1.27
Q6    1   0.3394  0.3394  0.2611  10.50000  0.05    0.96
Q7    1   0.3202  0.3202  0.2286  10.50000  0.05    0.69
Q8    1   0.3061  0.3060  0.2491  10.50000  0.05    0.55
Q9    1   0.2461  0.2376  0.1999  11.00000  0.05    0.45
Q10   1   0.3208  0.2718  0.1809  11.00000  0.05    0.42
Q11   1   0.2437  0.2437  0.1922  10.50000  0.05    0.41
Q12   1   0.3099  0.2807  0.1705  11.00000  0.05    0.37
Q13   1   0.3293  0.2977  0.1960  11.00000  0.05    0.34
Q14   1   0.3239  0.2965  0.1971  11.00000  0.05    0.34
Q15   1   0.2715  0.2715  0.3229  10.50000  0.05    0.32
Q16   1   0.3400  0.2706  0.2010  11.00000  0.05    0.31
Q17   1   0.2871  0.2871  0.1796  10.50000  0.05    0.29
Q18   1   0.3097  0.3097  0.1673  10.50000  0.05    0.27
Q19   1   0.3170  0.3032  0.1618  11.00000  0.05    0.27
Q20   1   0.2784  0.0000  0.0000  10.12500  0.05    0.22
;
_shelx_res_checksum              13569
_shelx_fab_file
;
0 2 0 -334.3937 23.7564
0 2 2 30.6206 -33.5060
0 3 1 203.6660 7.0392
0 3 3 416.2681 3.9306
0 4 0 416.6612 -17.8350
0 4 2 164.0518 6.7559
0 4 4 -87.6898 -25.2537
0 5 1 -88.7744 -0.5518
0 5 3 -64.9181 4.6517
0 5 5 173.1519 12.6830
0 6 0 -186.6739 -16.6131
0 6 2 -2.2058 4.2858
0 6 4 -179.0523 -3.6068
0 6 6 468.0760 8.4215
0 7 1 25.7084 5.8364
0 7 3 -45.7834 8.5763
0 7 5 -63.7151 -3.5128
0 7 7 71.8495 19.6799
0 8 0 440.9649 -4.0328
0 8 2 185.2014 -3.3034
0 8 4 -80.8700 -10.9255
0 8 6 -102.0783 -12.8487
0 8 8 222.7974 -11.9174
0 9 1 -93.8756 7.1668
0 9 3 -7.4320 -4.0006
0 9 5 -71.0746 20.5825
0 9 7 34.2901 -7.6591
0 9 9 68.5265 21.0331
0 10 0 133.1803 -10.3940
0 10 2 -76.3947 4.8944
0 10 4 36.2306 -16.9677
0 10 6 5.7705 9.9371
0 10 8 -59.6675 -11.8371
0 10 10 120.3105 -7.2067
0 11 1 4.3643 -1.3728
0 11 3 40.5468 17.9388
0 11 5 44.8678 -9.3627
0 11 7 -49.7203 24.0287
0 11 9 -16.5199 -5.3184
0 11 11 83.3397 11.7736
0 12 0 -42.7749 -8.5352
0 12 2 21.2645 -8.9422
0 12 4 65.4762 -0.4894
0 12 6 28.5945 -15.6991
0 12 8 -2.4765 -13.6925
0 12 10 40.0206 11.0497
0 12 12 8.2287 -41.2083
0 13 1 -32.6724 13.5535
0 13 3 35.9473 -7.9372
0 13 5 -38.8322 22.9654
0 13 7 25.4622 -8.3876
0 13 9 -15.5197 14.5028
0 13 11 -52.1398 9.6828
0 13 13 25.6001 -6.6075
0 14 0 128.5900 -16.6514
0 14 2 19.8675 11.5258
0 14 4 33.4944 -23.3977
0 14 6 20.9212 12.7458
0 14 8 31.9018 -8.5629
0 14 10 -23.0802 -21.8479
0 14 12 -16.5381 24.9583
0 14 14 10.8082 -35.1254
0 15 1 29.5458 -1.3311
0 15 3 4.8770 18.1558
0 15 5 20.2767 -9.3406
0 15 7 43.9067 18.3200
0 15 9 -38.7858 5.7675
0 15 11 -3.0511 -1.6295
0 15 13 -1.3026 26.0184
0 15 15 16.8789 -17.0477
0 16 0 87.9431 -2.4894
0 16 2 -28.3512 -10.0758
0 16 4 44.0031 -1.6110
0 16 6 68.2579 -13.8429
0 16 8 -10.6202 -14.1513
0 16 10 11.6794 12.5256
0 16 12 11.5048 -41.7633
0 16 14 7.4061 23.3249
0 16 16 73.3081 -35.5923
0 17 1 -18.0510 9.3748
0 17 3 31.7855 -5.8025
0 17 5 8.5896 17.6361
0 17 7 23.3292 0.8231
0 17 9 10.7917 5.1191
0 17 11 -0.8114 19.8820
0 17 13 -21.3299 -11.8718
0 17 15 15.7653 31.3026
0 17 17 19.0481 -15.2254
0 18 0 32.8097 -14.7116
0 18 2 52.7445 3.4004
0 18 4 46.7130 -10.3325
0 18 6 11.6839 4.2680
0 18 8 11.1975 -10.0120
0 18 10 10.9606 -14.8921
0 18 12 8.3730 9.8800
0 18 14 13.4369 -24.1275
0 18 16 -1.6443 8.9697
0 18 18 33.2400 -18.1921
0 19 1 6.9623 2.5373
0 19 3 51.5297 13.1105
0 19 5 1.7306 -0.5410
0 19 7 21.0347 8.5316
0 19 9 -8.4559 11.6166
0 19 11 11.3248 -2.1625
0 19 13 30.5330 21.4994
0 19 15 1.3290 -10.0505
0 19 17 -0.2950 24.4349
0 19 19 33.2942 -4.4863
0 20 0 30.2875 -5.8565
0 20 2 -33.2053 0.5451
0 20 4 40.5272 -17.4419
0 20 6 15.0452 -1.5811
0 20 8 7.8593 -12.5619
0 20 10 4.0278 1.1867
0 20 12 29.7588 -20.2706
0 20 14 3.7333 3.8867
0 20 16 28.0208 -16.9384
0 20 18 -3.2473 -2.9481
0 20 20 22.5366 -9.6373
0 21 1 12.3382 5.1459
0 21 3 -6.1914 2.3827
0 21 5 1.7430 5.6735
0 21 7 2.1872 7.1351
0 21 9 28.9884 4.0044
0 21 11 16.7759 12.5678
0 21 13 -13.0617 1.3430
0 21 15 22.6595 14.9961
0 21 17 17.8419 0.2926
0 21 19 4.5053 12.4260
0 21 21 21.3288 6.1278
0 22 0 29.3798 -12.8494
0 22 2 -36.4551 -2.2666
0 22 4 -4.6062 1.3031
0 22 6 -10.3559 -5.5137
0 22 8 21.9853 -7.1916
0 22 10 3.1034 -6.0897
0 22 12 26.2762 -9.0351
0 22 14 -0.5249 -5.4451
0 22 16 30.2240 -10.4207
0 22 18 8.2825 -2.8232
0 22 20 19.8561 -10.9908
0 22 22 24.9277 -1.9197
0 23 1 -21.5903 4.8935
0 23 3 0.0702 1.8688
0 23 5 13.3723 10.0833
0 23 7 2.1366 2.0001
0 23 9 3.8407 9.2971
0 23 11 1.9353 6.7714
0 23 13 -1.4126 6.3880
0 23 15 2.9680 9.4838
0 23 17 11.4188 3.9393
0 23 19 12.4783 10.6333
0 23 21 16.0879 3.5029
0 23 23 24.9219 9.9547
0 24 0 17.2388 -1.6678
0 24 2 -7.0515 0.4557
0 24 4 -11.1081 -17.3474
0 24 6 13.7663 3.3052
0 24 8 2.0787 -13.7648
0 24 10 -12.1080 -3.1318
0 24 12 -3.1739 -6.5922
0 24 14 10.1529 -10.2662
0 24 16 -5.8518 -0.6572
0 24 18 8.9458 -15.0633
0 24 20 -13.8874 0.8657
0 24 22 5.5470 -13.3621
0 24 24 4.1573 -1.9055
0 25 1 18.4429 1.6196
0 25 3 23.4898 12.2910
0 25 5 24.9608 -3.9549
0 25 7 19.7888 13.2808
0 25 9 7.1644 3.2061
0 25 11 19.8813 5.5501
0 25 13 14.7339 12.8274
0 25 15 0.7496 -2.4784
0 25 17 6.5768 18.4968
0 25 19 2.1847 -4.3807
0 25 21 12.8242 13.6687
0 25 23 35.8351 3.3168
0 25 25 6.8546 5.1285
0 26 0 -6.5274 -13.6543
0 26 2 -0.3262 -1.7971
0 26 4 -13.7397 -3.5805
0 26 6 -1.5552 -6.6296
0 26 8 -9.3246 -6.2026
0 26 10 -10.8456 -2.5356
0 26 12 -2.4938 -15.9503
0 26 14 -2.4932 3.9139
0 26 16 -4.9117 -20.5886
0 26 18 0.6767 7.1626
0 26 20 4.9328 -17.4083
0 26 22 8.5793 0.7468
0 26 24 1.7149 -8.0629
0 26 26 4.3526 -7.4405
0 27 1 -6.6121 8.1879
0 27 3 25.2195 -4.7712
0 27 5 22.6545 16.6622
0 27 7 5.5846 -3.7833
0 27 9 6.6738 10.6969
0 27 11 -17.4254 8.2786
0 27 13 -7.7736 -1.2474
0 27 15 17.6648 20.2973
0 27 17 -3.2509 -9.7601
0 27 19 3.4441 21.0767
0 27 21 -0.8077 -2.8424
0 27 23 5.1634 9.0045
0 27 25 2.1133 9.1084
0 27 27 -3.9476 -2.5800
0 28 0 50.0556 -5.6019
0 28 2 -1.7562 2.2313
0 28 4 19.9918 -12.2912
0 28 6 9.0095 3.0004
0 28 8 19.3274 -12.8639
0 28 10 -29.9704 -3.9680
0 28 12 -0.8807 -2.6394
0 28 14 -1.7560 -14.0041
0 28 16 5.1697 5.5642
0 28 18 -7.3707 -19.5339
0 28 20 7.9087 5.1022
0 28 22 -11.3736 -12.9040
0 28 24 -2.6619 -5.5483
0 28 26 0.2852 -0.2000
0 28 28 -7.5211 -15.1868
0 29 1 2.1118 0.2484
0 29 3 7.7141 12.9868
0 29 5 4.0846 -5.0534
0 29 7 12.7726 14.5521
0 29 9 -1.7378 1.3994
0 29 11 7.2819 4.9363
0 29 13 12.7895 14.7236
0 29 15 -5.7274 -7.5556
0 29 17 6.3851 23.1399
0 29 19 7.2971 -8.4062
0 29 21 3.1046 14.6850
0 29 23 -7.5229 3.8324
0 29 25 1.6501 0.6667
0 29 27 1.0967 14.9981
0 29 29 9.5791 -7.0396
0 30 0 36.9790 -7.1890
0 30 2 13.8570 -3.1186
0 30 4 28.9050 -7.0938
0 30 6 -10.9421 -5.1016
0 30 8 10.4389 -5.4855
0 30 10 -7.1960 -3.1898
0 30 12 3.0565 -14.0480
0 30 14 3.3423 3.6727
0 30 16 10.9964 -20.1042
0 30 18 0.7419 7.1251
0 30 20 -5.6031 -16.9626
0 30 22 4.3423 0.2081
0 30 24 -11.5722 -3.9514
0 30 26 4.1682 -13.0757
0 30 28 -0.9645 6.7524
0 30 30 15.6967 -18.4248
0 31 1 9.5601 6.4594
0 31 3 7.5922 -2.0718
0 31 5 -3.1516 12.1914
0 31 7 -1.7435 -2.1239
0 31 9 2.3994 9.7606
0 31 11 6.2771 7.4116
0 31 13 5.2740 -0.0766
0 31 15 2.0457 17.9227
0 31 17 16.4304 -6.9579
0 31 19 -6.7015 17.5253
0 31 21 2.7012 -1.0108
0 31 23 9.5715 6.1357
0 31 25 5.5592 10.8052
0 31 27 0.4658 -3.8141
0 31 29 0.0226 16.8697
0 31 31 10.1895 -7.0591
0 32 0 34.5056 -9.2388
0 32 2 35.9547 1.6122
0 32 4 20.7831 -7.1382
0 32 6 -6.1196 0.7725
0 32 8 -16.3955 -12.0302
0 32 10 -15.1259 -2.0087
0 32 12 -43.8855 -6.5513
0 32 14 16.1432 -9.8696
0 32 16 -5.5426 0.8942
0 32 18 6.3023 -14.1947
0 32 20 3.7555 1.4976
0 32 22 10.9450 -9.4595
0 32 24 7.3179 -7.9280
0 32 26 5.8118 1.7190
0 32 28 -8.6105 -16.1910
0 32 30 -2.8439 7.7589
0 32 32 0.6949 -16.6578
0 33 1 26.6926 2.4593
0 33 3 10.4953 7.7172
0 33 5 -10.5608 -0.0153
0 33 7 -6.6005 10.1852
0 33 9 -7.6854 2.2490
0 33 11 18.8946 6.3596
0 33 13 8.5679 9.4505
0 33 15 30.8025 -0.4346
0 33 17 -6.1193 14.0232
0 33 19 12.3401 -1.1775
0 33 21 3.0215 10.0247
0 33 23 3.6588 5.9464
0 33 25 0.2554 1.3799
0 33 27 4.8827 12.2989
0 33 29 4.6279 -4.6022
0 33 31 6.0750 14.5017
0 34 0 12.2458 -5.2119
0 34 2 -24.1375 -0.4366
0 34 4 10.6587 -10.1694
0 34 6 -0.0927 -1.3697
0 34 8 0.1620 -6.3852
0 34 10 -4.5459 -3.3671
0 34 12 15.6804 -9.3578
0 34 14 26.1653 -0.9228
0 34 16 18.0571 -11.7536
0 34 18 -5.5361 -1.0162
0 34 20 11.2628 -9.4639
0 34 22 13.6712 -4.7336
0 34 24 0.2825 -2.4137
0 34 26 -0.6430 -11.1421
0 34 28 3.4848 3.4325
0 34 30 6.6692 -13.8625
0 35 1 7.2778 4.0435
0 35 3 -17.5666 2.2247
0 35 5 -1.4942 6.3232
0 35 7 3.6886 1.6758
0 35 9 -9.8106 8.0866
0 35 11 17.6029 4.0367
0 35 13 7.0969 6.2154
0 35 15 2.3139 7.7162
0 35 17 24.5421 3.4622
0 35 19 -4.0306 8.3660
0 35 21 -0.7620 3.8824
0 35 23 11.9497 4.9213
0 35 25 2.1875 7.1503
0 35 27 1.9710 0.7709
0 35 29 0.7124 10.1337
0 36 0 20.3880 -8.9728
0 36 2 -11.6895 -0.6433
0 36 4 24.3195 -4.7710
0 36 6 0.0832 -2.1830
0 36 8 20.5820 -8.4088
0 36 10 7.6565 -3.4774
0 36 12 20.5170 -7.8578
0 36 14 13.6282 -5.7363
0 36 16 16.4955 -6.9191
0 36 18 -28.9031 -4.5066
0 36 20 9.4569 -6.5851
0 36 22 10.6014 -3.8052
0 36 24 6.0433 -7.5614
0 36 26 2.2925 -1.4726
0 36 28 -5.7939 -8.2021
0 37 1 6.3571 3.0867
0 37 3 12.6380 4.3213
0 37 5 -7.4220 3.4199
0 37 7 26.6389 6.2793
0 37 9 -0.8602 3.4151
0 37 11 9.0358 8.1526
0 37 13 4.3127 3.8694
0 37 15 0.2085 7.2919
0 37 17 13.2329 4.2839
0 37 19 6.1436 6.2257
0 37 21 -9.7427 4.6404
0 37 23 1.7434 5.7643
0 37 25 -2.2371 4.6629
0 37 27 -8.4643 5.2779
0 38 0 40.9086 -4.6131
0 38 2 -4.5325 0.3052
0 38 4 18.6440 -8.8939
0 38 6 -10.1835 -0.2189
0 38 8 3.8860 -9.1480
0 38 10 -9.6288 -1.3668
0 38 12 8.4178 -8.6152
0 38 14 4.9844 -2.8225
0 38 16 -3.9570 -4.5050
0 38 18 3.6522 -7.5508
0 38 20 0.1160 -2.1287
0 38 22 5.3880 -7.9114
0 38 24 14.9199 -2.8305
0 38 26 5.3824 -6.2621
0 39 1 11.5714 3.5858
0 39 3 0.1556 3.8335
0 39 5 17.3700 4.5645
0 39 7 6.8062 4.7047
0 39 9 14.4315 6.1807
0 39 11 -2.9298 3.9466
0 39 13 0.7979 6.9811
0 39 15 1.6220 2.5864
0 39 17 3.1499 8.0847
0 39 19 -1.7660 2.1420
0 39 21 6.2990 7.3246
0 39 23 12.1099 3.5397
0 39 25 -0.6843 5.0277
0 40 0 39.5166 -8.5990
0 40 2 -1.2247 -0.2074
0 40 4 16.5482 -7.1188
0 40 6 -1.7643 -2.1235
0 40 8 -5.8627 -5.6982
0 40 10 4.1498 -4.7348
0 40 12 2.6939 -6.0279
0 40 14 -3.2117 -4.0400
0 40 16 -0.1545 -9.1840
0 40 18 1.1609 -0.3083
0 40 20 -5.2977 -10.0410
0 40 22 10.8579 -0.3628
0 41 1 -4.6540 3.1861
0 41 3 11.9422 3.0592
0 41 5 -1.6471 4.1437
0 41 7 5.2091 2.8480
0 41 9 4.5782 5.2834
0 41 11 2.0907 4.6518
0 41 13 10.7368 4.9570
0 41 15 7.7021 6.8567
0 41 17 -2.2627 1.9742
0 41 19 6.4385 9.0707
0 41 21 6.1086 0.4648
0 42 0 34.5489 -4.3092
0 42 2 -2.8185 -0.5106
0 42 4 15.4207 -5.3740
0 42 6 -3.3907 -0.4699
0 42 8 9.7529 -9.0482
0 42 10 -3.1231 -0.3926
0 42 12 4.7850 -8.6297
0 42 14 22.7210 -2.9632
0 42 16 -17.7266 -3.1181
0 42 18 10.4903 -8.4205
0 42 20 1.1644 0.5115
0 43 1 0.9759 2.4035
0 43 3 -2.9766 3.5726
0 43 5 0.3608 2.8079
0 43 7 10.1864 6.2211
0 43 9 -21.1666 2.7565
0 43 11 -4.2495 7.0099
0 43 13 -7.5786 3.4174
0 43 15 13.7343 4.2571
0 43 17 -3.7702 7.5229
0 44 0 14.8705 -5.6088
0 44 2 -8.0543 0.1250
0 44 4 8.6561 -6.3740
0 44 6 -4.6720 -2.0974
0 44 8 6.0123 -4.5767
0 44 10 8.5495 -4.5786
0 44 12 24.9575 -4.8849
0 44 14 27.1847 -3.3896
0 45 1 2.8663 3.3877
0 45 3 -3.4851 2.4483
0 45 5 5.3238 4.6371
0 45 7 -4.5370 2.5012
0 45 9 5.1990 7.4579
0 45 11 8.5120 1.6725
0 46 0 23.5164 -7.7990
0 46 2 25.6223 -0.0316
0 46 4 5.8847 -7.7451
0 46 6 3.9611 -0.2144
1 2 1 -375.6523 -1.2901
1 3 2 147.0491 -5.2455
1 4 1 279.6227 -1.5204
1 4 3 -3.5001 -3.6781
1 5 2 23.1755 10.4185
1 5 4 -51.7854 1.6006
1 6 1 -129.6599 1.1538
1 6 3 -56.6652 -7.7751
1 6 5 5.8619 -12.1898
1 7 2 -37.0194 -12.3161
1 7 4 48.4768 10.1504
1 7 6 -72.9064 2.7342
1 8 1 -55.7596 1.4491
1 8 3 35.4369 -6.3728
1 8 5 -29.4480 8.9975
1 8 7 7.3441 -11.2350
1 9 2 -52.5243 5.5455
1 9 4 -11.6531 5.5117
1 9 6 -12.1135 -3.9734
1 9 8 26.0914 11.0384
1 10 1 5.1047 -2.1756
1 10 3 14.3991 4.5791
1 10 5 17.2227 -11.2750
1 10 7 34.1202 2.7362
1 10 9 -37.6957 -16.3247
1 11 2 -6.9210 -8.7363
1 11 4 45.5499 3.8098
1 11 6 -34.6870 -1.6011
1 11 8 20.1679 5.5872
1 11 10 -4.6071 1.2026
1 12 1 0.8574 1.0420
1 12 3 13.3835 -9.5606
1 12 5 -17.5497 8.5281
1 12 7 -21.3221 -4.1537
1 12 9 -0.2990 5.8976
1 12 11 -1.2589 -7.6530
1 13 2 -20.9169 3.7788
1 13 4 0.0668 4.3918
1 13 6 -39.2927 -2.2383
1 13 8 33.2614 1.5265
1 13 10 -21.9957 0.9387
1 13 12 -8.7083 2.4296
1 14 1 -22.4736 -0.3491
1 14 3 -12.1888 1.4033
1 14 5 -11.7034 -0.4199
1 14 7 27.6243 -5.6389
1 14 9 -10.1917 -0.1034
1 14 11 16.6522 -3.2259
1 14 13 10.5664 -11.2430
1 15 2 -20.2912 -8.9300
1 15 4 8.5184 2.3179
1 15 6 -10.8051 -0.5807
1 15 8 3.9421 0.2332
1 15 10 -4.9937 3.8798
1 15 12 14.3510 -1.2315
1 15 14 -6.3563 1.9700
1 16 1 3.5013 -0.4146
1 16 3 18.6636 -2.2735
1 16 5 -8.1224 -1.1811
1 16 7 -7.9333 5.8419
1 16 9 -26.3186 -4.3314
1 16 11 9.8754 1.1333
1 16 13 -5.9644 3.9569
1 16 15 6.4580 -4.3430
1 17 2 -13.8168 4.4996
1 17 4 -4.8656 4.4803
1 17 6 -19.4059 -1.2854
1 17 8 5.8568 1.8638
1 17 10 -9.5277 -3.0272
1 17 12 -9.5869 6.6782
1 17 14 -1.0892 -1.4049
1 17 16 -20.2074 -0.6195
1 18 1 -18.4281 0.6988
1 18 3 -4.9438 -6.4750
1 18 5 -16.7395 -0.7233
1 18 7 32.7627 -3.9048
1 18 9 -1.6339 4.9073
1 18 11 10.5813 -3.3011
1 18 13 3.4084 -2.2495
1 18 15 -6.9533 -1.4539
1 18 17 7.4875 -4.8384
1 19 2 -6.4396 -4.3906
1 19 4 8.8014 4.0507
1 19 6 -6.7426 -1.2151
1 19 8 3.2206 0.2546
1 19 10 -17.8380 -1.7715
1 19 12 22.3574 -1.6008
1 19 14 -9.1304 2.3279
1 19 16 2.6779 2.7816
1 19 18 -6.3292 -2.1041
1 20 1 6.7628 -1.4731
1 20 3 -4.2661 4.3488
1 20 5 5.2782 -3.7807
1 20 7 -8.6689 3.0304
1 20 9 -8.0661 -2.2945
1 20 11 -13.4650 2.3331
1 20 13 -1.1756 -1.1551
1 20 15 11.6255 1.1643
1 20 17 -3.3131 -1.6582
1 20 19 0.8058 -0.9983
1 21 2 -30.3357 -4.8690
1 21 4 6.5861 6.4279
1 21 6 -12.8129 2.0352
1 21 8 -0.4563 -2.7059
1 21 10 1.4522 2.2247
1 21 12 -17.2407 -0.8047
1 21 14 3.5923 -1.5032
1 21 16 17.5167 -0.8971
1 21 18 -12.5224 4.7309
1 21 20 -12.1256 -1.2161
1 22 1 -9.7414 2.1164
1 22 3 9.8135 -13.1245
1 22 5 -19.5677 6.0102
1 22 7 4.1263 -7.4983
1 22 9 -7.2082 5.1760
1 22 11 10.0221 -0.0324
1 22 13 -10.0797 2.4792
1 22 15 -10.9091 -0.1083
1 22 17 4.7374 0.2113
1 22 19 -6.8737 -0.2128
1 22 21 17.4417 -2.3350
1 23 2 12.3115 6.3354
1 23 4 8.2245 -0.4006
1 23 6 -21.4409 -1.1430
1 23 8 20.3093 3.3975
1 23 10 -8.4163 -2.9757
1 23 12 -8.2001 -0.1650
1 23 14 14.2712 1.3254
1 23 16 -6.9248 -0.0787
1 23 18 5.6909 -2.5320
1 23 20 -11.0305 2.0276
1 23 22 -6.5450 0.8093
1 24 1 2.3143 -2.4260
1 24 3 -10.5289 9.7007
1 24 5 13.0650 -12.6779
1 24 7 -1.6368 8.7074
1 24 9 9.7636 -4.7482
1 24 11 -6.9785 -1.0224
1 24 13 7.8971 -2.2878
1 24 15 17.7298 0.3318
1 24 17 -7.8899 0.6385
1 24 19 10.1343 -4.0324
1 24 21 -11.7604 3.3720
1 24 23 16.7181 -2.8952
1 25 2 -15.4765 -11.0101
1 25 4 -26.8540 7.2006
1 25 6 32.4582 -1.2188
1 25 8 -26.6712 1.4908
1 25 10 5.8586 -1.4478
1 25 12 7.8111 2.1931
1 25 14 -12.2787 -3.2364
1 25 16 5.0004 1.3702
1 25 18 -3.8594 0.2122
1 25 20 2.6791 -0.5839
1 25 22 -13.9046 -0.4296
1 25 24 -1.8320 2.1226
1 26 1 9.6097 2.3081
1 26 3 6.9168 -11.4899
1 26 5 -18.3640 12.4110
1 26 7 5.7076 -9.6551
1 26 9 -13.5956 1.7150
1 26 11 17.0999 4.1202
1 26 13 -13.8177 2.4276
1 26 15 -1.9098 -0.4211
1 26 17 3.2992 0.5182
1 26 19 -10.8157 4.6171
1 26 21 14.6366 -4.0961
1 26 23 -15.0543 2.2593
1 26 25 8.9890 -0.4997
1 27 2 -0.3071 4.5916
1 27 4 4.8647 2.0053
1 27 6 -24.6853 0.0465
1 27 8 14.8878 -1.1863
1 27 10 -4.3355 2.5043
1 27 12 -0.7649 -2.8677
1 27 14 10.1288 0.4351
1 27 16 -11.2968 -0.1711
1 27 18 7.6205 -0.4993
1 27 20 -11.9881 1.3910
1 27 22 16.6387 -0.9831
1 27 24 -10.2061 -1.2138
1 27 26 -1.9913 0.0340
1 28 1 5.2675 -1.4731
1 28 3 -12.6905 2.3675
1 28 5 10.1918 -7.8978
1 28 7 -3.3940 2.6646
1 28 9 5.3449 3.8408
1 28 11 -2.6483 -6.2842
1 28 13 -4.0925 -0.2000
1 28 15 -5.3872 2.3646
1 28 17 -4.2210 -3.0883
1 28 19 7.9425 -0.8778
1 28 21 -21.3208 0.4418
1 28 23 9.5809 0.7341
1 28 25 -2.9174 -0.4263
1 28 27 3.3165 -2.3796
1 29 2 -13.3250 -4.9253
1 29 4 18.8906 1.3071
1 29 6 -11.9714 -0.5720
1 29 8 8.6875 2.1226
1 29 10 -12.6631 -1.9761
1 29 12 3.6140 1.1510
1 29 14 -4.7970 0.3437
1 29 16 -2.2614 -1.3228
1 29 18 -3.8537 0.1548
1 29 20 5.4676 -1.1464
1 29 22 -13.0796 1.0621
1 29 24 12.1764 0.3590
1 29 26 -8.4305 -0.5137
1 29 28 -9.0332 -3.3311
1 30 1 -6.1691 0.6945
1 30 3 13.3671 -2.4371
1 30 5 20.6875 2.6792
1 30 7 1.5948 -0.5800
1 30 9 -0.4793 -5.2808
1 30 11 1.5527 4.1140
1 30 13 4.2368 0.4286
1 30 15 -0.4732 -0.9086
1 30 17 -0.2637 2.5531
1 30 19 -18.0586 0.0757
1 30 21 10.7682 1.8263
1 30 23 -6.5539 -3.5549
1 30 25 3.6947 2.7526
1 30 27 -7.9235 2.0369
1 30 29 19.8940 -4.6224
1 31 2 -9.2849 0.1732
1 31 4 6.3222 6.5198
1 31 6 -14.7346 -2.0823
1 31 8 22.2207 1.9685
1 31 10 -3.0798 0.0517
1 31 12 -8.2949 0.2820
1 31 14 2.3547 -1.7261
1 31 16 -5.6304 0.9726
1 31 18 2.4273 -0.7422
1 31 20 -8.4028 0.1960
1 31 22 -1.5030 -0.2903
1 31 24 4.8427 -0.0618
1 31 26 -8.3678 -0.3694
1 31 28 -7.5777 1.1403
1 31 30 13.8838 -2.6242
1 32 1 -13.6251 -0.2187
1 32 3 -0.0586 -3.8963
1 32 5 -5.1575 -1.0289
1 32 7 10.8325 -0.7510
1 32 9 -8.1250 2.9997
1 32 11 10.8528 -0.9475
1 32 13 -14.9431 -0.1407
1 32 15 5.7867 0.9522
1 32 17 -13.5643 0.1060
1 32 19 -12.7994 -0.7657
1 32 21 -1.6632 -0.3255
1 32 23 -0.1925 3.0605
1 32 25 -2.4328 -2.3373
1 32 27 0.3189 0.2603
1 32 29 -17.7523 2.6465
1 32 31 -15.6999 -2.3802
1 33 2 0.6007 -2.9761
1 33 4 10.8801 1.6103
1 33 6 -7.9876 -1.2970
1 33 8 14.7309 0.1461
1 33 10 -11.7668 -0.4251
1 33 12 7.0778 0.3293
1 33 14 -4.3729 0.1155
1 33 16 -0.4276 -0.7329
1 33 18 -0.8851 0.2763
1 33 20 -11.1755 0.8474
1 33 22 11.0634 -2.1684
1 33 24 -7.2369 0.8433
1 33 26 5.0722 -1.0333
1 33 28 2.5276 1.2418
1 33 30 13.8867 -0.9772
1 33 32 -10.6059 0.1925
1 34 1 6.9542 -0.4454
1 34 3 -18.1893 -0.4833
1 34 5 4.9155 0.2734
1 34 7 -1.5523 -1.1923
1 34 9 7.5884 -0.7779
1 34 11 -8.7828 -1.7839
1 34 13 0.9670 0.9514
1 34 15 -9.2942 -1.1336
1 34 17 7.4124 -1.0726
1 34 19 12.4721 2.3159
1 34 21 -13.7670 -2.5310
1 34 23 14.0269 0.5195
1 34 25 -6.0485 1.3555
1 34 27 2.3242 -1.8565
1 34 29 5.7564 0.3613
1 34 31 9.0941 0.1993
1 35 2 -8.4097 0.3271
1 35 4 2.3557 2.9503
1 35 6 -9.2933 0.9458
1 35 8 14.4280 0.7117
1 35 10 0.8617 0.1700
1 35 12 3.3148 -0.4184
1 35 14 -4.3550 -0.4427
1 35 16 -3.7386 0.8023
1 35 18 -3.4577 -1.1248
1 35 20 1.6073 -1.0004
1 35 22 -4.2495 2.4509
1 35 24 13.8214 -1.5219
1 35 26 -7.0834 0.3694
1 35 28 4.9609 -0.5961
1 35 30 4.3070 0.6202
1 36 1 -8.0595 0.7884
1 36 3 21.3118 -4.7807
1 36 5 -12.9718 0.9909
1 36 7 10.6658 -1.7050
1 36 9 -14.8151 1.5565
1 36 11 20.6566 1.2541
1 36 13 -16.6793 -0.0506
1 36 15 -1.2434 2.1606
1 36 17 1.5877 0.5552
1 36 19 -2.4766 -0.4405
1 36 21 12.5520 2.4380
1 36 23 -15.2049 -0.9853
1 36 25 5.2353 -0.1851
1 36 27 0.2851 1.3779
1 36 29 -1.5169 -0.2259
1 37 2 -10.9664 -1.3828
1 37 4 15.9637 3.1479
1 37 6 -15.4152 -1.0931
1 37 8 16.3608 0.9855
1 37 10 -12.9825 -0.7599
1 37 12 7.1317 0.3280
1 37 14 -15.0888 0.6305
1 37 16 -2.6625 -1.0395
1 37 18 -4.2810 0.2808
1 37 20 -11.5980 0.3304
1 37 22 9.8227 -1.9954
1 37 24 -1.7610 1.0406
1 37 26 -2.0419 0.4954
1 37 28 4.5809 -0.5913
1 38 1 -7.1018 -1.1113
1 38 3 0.4555 1.2608
1 38 5 13.8695 -4.4729
1 38 7 -14.7951 2.4101
1 38 9 17.2959 -2.0872
1 38 11 -9.5684 -0.0616
1 38 13 1.9681 -1.1993
1 38 15 11.7461 -1.5373
1 38 17 1.4660 0.2609
1 38 19 16.8468 -1.0543
1 38 21 -10.0028 0.6921
1 38 23 3.4856 -0.7796
1 38 25 1.8079 -0.1929
1 39 2 -22.9337 -2.7011
1 39 4 12.5319 3.8351
1 39 6 -7.7572 -1.9019
1 39 8 -2.3652 1.7569
1 39 10 5.7617 -1.1925
1 39 12 -3.4586 1.1306
1 39 14 0.9922 -1.4439
1 39 16 -6.0818 0.6518
1 39 18 -11.0552 0.8375
1 39 20 6.4527 -1.0770
1 39 22 -6.2292 0.8883
1 39 24 2.8370 1.0974
1 40 1 6.6136 0.9430
1 40 3 2.2111 -4.4814
1 40 5 -10.1661 4.2104
1 40 7 11.3775 -3.7203
1 40 9 -15.0145 0.9881
1 40 11 8.9027 0.2691
1 40 13 11.1911 1.4704
1 40 15 7.8319 0.4019
1 40 17 -0.3925 0.0992
1 40 19 -2.9497 1.2413
1 40 21 9.7278 -2.6136
1 40 23 -5.3601 0.3782
1 41 2 -17.6104 -0.7932
1 41 4 5.7085 2.4046
1 41 6 -11.3183 1.6739
1 41 8 5.3898 -1.1912
1 41 10 -3.3289 1.5041
1 41 12 -0.5845 -1.6312
1 41 14 17.5794 1.0574
1 41 16 9.3599 0.1754
1 41 18 6.3425 -2.1306
1 41 20 -11.0083 3.6370
1 41 22 8.6237 0.7994
1 42 1 1.0117 -0.5496
1 42 3 -13.4829 0.2298
1 42 5 5.6031 -4.3075
1 42 7 2.4811 1.1428
1 42 9 7.8264 2.1318
1 42 11 -1.7939 -1.2714
1 42 13 -17.0607 -0.8817
1 42 15 -13.5737 1.3501
1 42 17 8.2764 -1.0169
1 42 19 -0.8317 -1.2018
1 43 2 -6.1155 -0.9276
1 43 4 8.6964 2.2252
1 43 6 -10.9945 -1.5144
1 43 8 0.9399 1.3489
1 43 10 2.8373 -1.6241
1 43 12 -8.4198 1.3852
1 43 14 10.5282 -0.7977
1 43 16 -3.7289 -0.1168
1 44 1 13.6735 0.0301
1 44 3 4.9325 -2.3833
1 44 5 -4.1362 1.2002
1 44 7 3.0746 -1.0063
1 44 9 -1.8875 -2.8434
1 44 11 -2.6359 1.2177
1 44 13 -16.1716 -0.3503
1 44 15 2.7531 -1.3253
1 45 2 -2.2077 -1.4252
1 45 4 3.6530 2.3673
1 45 6 -9.3171 -0.1060
1 45 8 9.9606 1.8094
1 45 10 -16.5184 -1.4777
1 45 12 -5.8808 1.6670
1 46 1 32.1655 0.5064
1 46 3 -16.6473 -0.3856
1 46 5 -5.0641 -0.3981
1 46 7 3.1447 -0.1041
2 2 2 -135.4987 36.8217
2 3 3 -227.2752 0.3441
2 4 2 -301.3275 0.8809
2 4 4 15.0515 -9.7008
2 5 3 0.3010 -0.2186
2 5 5 -73.6177 -4.1309
2 6 2 4.8791 9.5938
2 6 4 -53.5270 5.4594
2 6 6 -39.4173 5.4427
2 7 3 3.7142 -0.9199
2 7 5 -0.2618 -5.8361
2 7 7 -10.8139 -8.4949
2 8 2 -75.4083 4.1020
2 8 4 127.4916 -1.3577
2 8 6 -28.1979 9.7182
2 8 8 -114.8710 -5.8459
2 9 3 -23.2536 -2.2056
2 9 5 25.4519 -9.9165
2 9 7 -17.3583 -4.0771
2 9 9 -44.4007 -9.8679
2 10 2 -245.0627 9.7721
2 10 4 -48.8559 6.3380
2 10 6 21.1855 9.2927
2 10 8 -49.9960 7.7270
2 10 10 4.1022 12.9867
2 11 3 17.9802 -5.8617
2 11 5 -28.4200 -7.2842
2 11 7 52.4695 -3.9947
2 11 9 -16.8543 -8.1654
2 11 11 -50.0788 -3.1294
2 12 2 -4.4479 14.7010
2 12 4 -43.6998 -0.5351
2 12 6 47.3367 11.7401
2 12 8 -26.3118 0.6438
2 12 10 -52.9981 -3.5785
2 12 12 32.2043 12.1918
2 13 3 -45.7621 -5.6384
2 13 5 -3.6827 -12.5094
2 13 7 0.6156 -3.5523
2 13 9 9.6432 -4.1284
2 13 11 31.1908 -7.2989
2 13 13 -26.8432 8.2410
2 14 2 -67.3221 1.7163
2 14 4 15.5786 15.8545
2 14 6 -46.3131 -1.4518
2 14 8 3.4015 14.3056
2 14 10 22.1040 6.1001
2 14 12 -1.3592 4.0545
2 14 14 -3.9439 28.5659
2 15 3 31.4279 -6.3695
2 15 5 -26.4144 -3.6837
2 15 7 -29.7171 -5.9098
2 15 9 17.9676 -9.5091
2 15 11 32.7238 -1.9427
2 15 13 -9.9045 -13.0452
2 15 15 2.7750 14.8077
2 16 2 -64.9498 16.9337
2 16 4 -28.2332 -1.8506
2 16 6 -56.9324 11.3436
2 16 8 5.3708 1.4261
2 16 10 11.0187 9.4555
2 16 12 4.7540 -1.1402
2 16 14 -6.1510 -1.6238
2 16 16 -34.3222 14.9709
2 17 3 -12.5773 -5.7870
2 17 5 -49.8408 -11.5627
2 17 7 8.1656 -3.9388
2 17 9 -20.0774 -7.4944
2 17 11 6.1899 -5.3683
2 17 13 -0.6060 -6.3772
2 17 15 -14.4321 -10.4922
2 17 17 -25.0331 13.6901
2 18 2 22.3143 8.9290
2 18 4 -15.1444 11.0820
2 18 6 -18.1735 3.0730
2 18 8 -29.5556 9.2099
2 18 10 -16.9969 0.8684
2 18 12 -19.0097 15.6731
2 18 14 -17.8559 -0.4716
2 18 16 -11.0935 5.1169
2 18 18 -23.6633 14.7613
2 19 3 -17.8810 -8.1002
2 19 5 -30.4465 -4.0817
2 19 7 -3.3771 -6.1026
2 19 9 -14.6440 -3.6879
2 19 11 -6.6119 -9.0315
2 19 13 -19.7836 0.5168
2 19 15 -0.0326 -7.1850
2 19 17 -7.6939 -10.4364
2 19 19 -13.4563 7.2123
2 20 2 -5.1281 7.1878
2 20 4 32.1644 5.8671
2 20 6 -36.9840 3.5289
2 20 8 -3.6578 9.8372
2 20 10 -8.2862 3.8425
2 20 12 -5.0978 4.5648
2 20 14 -5.8854 8.5489
2 20 16 -2.4813 3.7329
2 20 18 -10.8285 0.1483
2 20 20 -15.4444 3.3055
2 21 3 8.3961 -4.9815
2 21 5 -7.9207 -8.5914
2 21 7 -2.1582 -4.8605
2 21 9 -12.6178 -7.2379
2 21 11 -18.4170 -1.9552
2 21 13 7.1532 -11.2598
2 21 15 -19.5637 -0.3344
2 21 17 -13.5584 -4.2236
2 21 19 -12.1976 -10.5389
2 21 21 -20.6965 0.2008
2 22 2 -26.1993 11.3324
2 22 4 20.2253 4.5288
2 22 6 6.4450 8.9160
2 22 8 -6.5969 -0.1718
2 22 10 -21.2634 5.9717
2 22 12 1.4713 3.4522
2 22 14 -23.6104 1.8855
2 22 16 -28.9905 5.5532
2 22 18 -10.4725 7.0362
2 22 20 -19.8286 1.2326
2 22 22 -12.5574 -0.5321
2 23 3 -6.1423 -4.9484
2 23 5 -17.3618 -7.5797
2 23 7 14.9785 -3.9811
2 23 9 -3.7148 -3.6759
2 23 11 12.2803 -6.8741
2 23 13 -6.9546 -1.4074
2 23 15 -9.3688 -7.8988
2 23 17 -6.6019 -6.1641
2 23 19 -13.6247 0.6657
2 23 21 -20.6166 -8.3326
2 23 23 -17.9804 -3.0010
2 24 2 -7.2066 8.4641
2 24 4 -1.9409 7.6455
2 24 6 -6.4469 1.8662
2 24 8 -17.4146 11.9130
2 24 10 20.5688 2.4293
2 24 12 -7.6426 8.8908
2 24 14 1.5822 6.0691
2 24 16 2.3990 6.8910
2 24 18 -9.2815 3.7050
2 24 20 1.0702 8.8687
2 24 22 -8.6524 2.7980
2 24 24 -15.4079 -0.2997
2 25 3 -13.4814 -7.2951
2 25 5 -33.1068 -5.7162
2 25 7 -14.0102 -4.7349
2 25 9 -13.5286 -7.4317
2 25 11 -23.7293 -3.3331
2 25 13 -10.0463 -3.9648
2 25 15 -1.2585 -5.4274
2 25 17 -7.7313 -2.4672
2 25 19 3.6714 -8.5780
2 25 21 -13.1826 -0.7014
2 25 23 -12.7734 -6.0615
2 25 25 -9.5525 -0.9876
2 26 2 -13.3795 8.0691
2 26 4 -10.5754 3.3168
2 26 6 6.0848 7.8441
2 26 8 14.2292 2.8112
2 26 10 20.7705 2.4614
2 26 12 -0.4839 4.2451
2 26 14 -1.3159 -0.6613
2 26 16 4.7977 3.6558
2 26 18 -4.2206 4.6806
2 26 20 0.1474 0.5743
2 26 22 -3.1253 6.6756
2 26 24 -4.0903 1.2406
2 26 26 -1.3560 3.6618
2 27 3 -38.3587 -4.0081
2 27 5 -32.4437 -10.3291
2 27 7 -5.8273 -3.1266
2 27 9 -2.2598 -3.8974
2 27 11 14.2791 -4.7871
2 27 13 -1.1213 -4.7867
2 27 15 -8.2260 -2.5106
2 27 17 0.5020 -5.2291
2 27 19 -0.9990 -4.4513
2 27 21 -2.9294 -5.2248
2 27 23 2.7684 -2.6079
2 27 25 -4.0471 -5.3988
2 27 27 -0.7847 3.5424
2 28 2 -55.6202 9.5639
2 28 4 -9.8939 8.4736
2 28 6 -27.2016 2.9292
2 28 8 0.4726 7.0996
2 28 10 -0.9720 3.5564
2 28 12 -3.0027 5.7903
2 28 14 -4.0351 6.4154
2 28 16 -1.0326 4.8224
2 28 18 -0.4210 4.9985
2 28 20 -6.9100 5.9210
2 28 22 6.0909 4.7845
2 28 24 0.4355 3.8580
2 28 26 1.4960 2.6067
2 28 28 -3.1307 9.5733
2 29 3 0.2560 -4.4904
2 29 5 -6.8853 -3.0813
2 29 7 -6.5471 -4.7980
2 29 9 0.3531 -5.6510
2 29 11 1.6978 -3.1613
2 29 13 -6.4620 -4.2020
2 29 15 1.4231 -4.3684
2 29 17 -1.5656 -3.5900
2 29 19 -3.8618 -3.3572
2 29 21 -0.9865 -4.0303
2 29 23 1.0464 -4.5669
2 29 25 0.4171 -3.6952
2 29 27 -1.4496 -4.7848
2 29 29 -2.2680 6.1178
2 30 2 -30.0216 7.5918
2 30 4 5.2835 0.6601
2 30 6 -8.3580 7.3539
2 30 8 9.7533 3.7564
2 30 10 -15.7235 4.9318
2 30 12 -8.5185 5.1956
2 30 14 3.2400 0.5319
2 30 16 -8.2885 4.5045
2 30 18 -1.2163 2.7807
2 30 20 5.4537 3.2699
2 30 22 0.4724 2.9686
2 30 24 4.6920 5.4835
2 30 26 3.3787 2.0576
2 30 28 -2.1292 0.3554
2 30 30 3.5852 11.4444
2 31 3 -5.1643 -5.5406
2 31 5 -1.6822 -10.1426
2 31 7 4.7467 -2.2241
2 31 9 -6.6893 -5.9817
2 31 11 -7.0664 -3.9530
2 31 13 -0.9720 -3.9076
2 31 15 -6.1848 -4.3548
2 31 17 -9.2413 -1.7725
2 31 19 -0.0370 -5.5397
2 31 21 0.0109 -3.5091
2 31 23 -7.2718 -3.7008
2 31 25 -3.8842 -3.5029
2 31 27 -2.1745 -4.4474
2 31 29 -1.8084 -6.0042
2 31 31 -6.0850 6.4124
2 32 2 -8.6025 8.1961
2 32 4 12.8780 7.7583
2 32 6 18.7090 2.7595
2 32 8 4.5512 5.5953
2 32 10 -13.2610 0.3917
2 32 12 11.9213 5.7491
2 32 14 -12.4773 3.0241
2 32 16 0.4873 3.5303
2 32 18 -4.6131 3.1869
2 32 20 -0.7406 3.4747
2 32 22 -6.2107 4.8883
2 32 24 -7.0096 1.5413
2 32 26 -2.1931 7.4238
2 32 28 -3.7645 1.3090
2 32 30 -3.6222 -0.5817
2 32 32 -5.1975 11.0685
2 33 3 -3.1549 -4.2810
2 33 5 -1.5779 -2.5929
2 33 7 17.2000 -4.3908
2 33 9 3.1163 -2.0688
2 33 11 -10.4474 -6.0553
2 33 13 -8.0002 -2.8156
2 33 15 7.5781 -3.2459
2 33 17 0.9494 -5.3634
2 33 19 -5.9525 -1.7260
2 33 21 -3.9071 -3.2750
2 33 23 -2.5537 -4.4359
2 33 25 0.2798 -4.7293
2 33 27 -1.6814 -1.7075
2 33 29 -1.2113 -3.0050
2 33 31 -3.7439 -6.9712
2 34 2 -23.2758 7.2548
2 34 4 16.3190 2.9663
2 34 6 -15.8889 5.0264
2 34 8 5.3891 5.0310
2 34 10 -13.6771 5.0877
2 34 12 -7.1857 5.6168
2 34 14 -28.5431 3.7063
2 34 16 -6.8339 5.6515
2 34 18 2.5613 3.1094
2 34 20 -9.2326 3.9577
2 34 22 -14.2659 4.1062
2 34 24 -12.4453 4.3779
2 34 26 0.7460 2.7912
2 34 28 0.2794 3.9764
2 34 30 1.9738 5.0698
2 35 3 6.6541 -3.4479
2 35 5 -1.8064 -8.1456
2 35 7 1.7008 -3.2568
2 35 9 1.5720 -6.4054
2 35 11 3.1944 -0.8341
2 35 13 -15.2634 -5.9377
2 35 15 -6.9711 -3.1307
2 35 17 6.6807 -2.2894
2 35 19 3.3027 -5.0250
2 35 21 -13.2805 -2.8743
2 35 23 -18.0107 -3.9305
2 35 25 -3.5017 -2.1996
2 35 27 -1.4725 -4.0249
2 35 29 -1.5983 -2.7669
2 36 2 -20.7167 6.9863
2 36 4 9.7520 4.8410
2 36 6 -4.6711 4.3427
2 36 8 -13.5836 2.7196
2 36 10 -4.8500 2.8550
2 36 12 -12.8509 2.7404
2 36 14 -10.8352 0.8639
2 36 16 -14.4046 3.1843
2 36 18 -14.5397 3.1171
2 36 20 -6.6540 2.2002
2 36 22 -1.9644 2.6535
2 36 24 -6.2949 2.3330
2 36 26 -2.6845 2.8392
2 36 28 -1.3041 1.5662
2 37 3 -3.8081 -5.2193
2 37 5 -3.1801 -4.8564
2 37 7 -2.4583 -3.0946
2 37 9 -15.1031 -2.9381
2 37 11 -6.9270 -5.9896
2 37 13 -28.6887 -1.4528
2 37 15 0.5238 -4.4812
2 37 17 -6.7800 -3.9082
2 37 19 -2.0182 -2.4171
2 37 21 -3.2086 -3.3249
2 37 23 -2.9963 -2.4256
2 37 25 -15.6484 -3.4829
2 37 27 -1.3056 -1.7208
2 38 2 -19.7034 8.0547
2 38 4 5.9785 4.6434
2 38 6 -10.5759 4.1727
2 38 8 8.0156 7.1611
2 38 10 -8.0903 1.4834
2 38 12 -2.1481 6.5729
2 38 14 -4.3149 4.9420
2 38 16 4.7875 3.9611
2 38 18 -1.2636 2.9779
2 38 20 -4.3701 4.3357
2 38 22 -7.0747 3.9981
2 38 24 -6.8246 2.1709
2 38 26 0.5845 3.8710
2 39 3 -5.4485 -3.6130
2 39 5 -9.7013 -6.0946
2 39 7 0.2739 -3.4967
2 39 9 -8.2827 -5.1120
2 39 11 9.2109 -2.3358
2 39 13 -1.8897 -3.7304
2 39 15 -9.9307 -2.8118
2 39 17 -4.3172 -2.2466
2 39 19 -0.3477 -3.4019
2 39 21 -8.3112 -3.6687
2 39 23 -10.0866 -1.9424
2 39 25 -2.6386 -4.3957
2 40 2 -20.5064 5.4737
2 40 4 7.7572 3.6637
2 40 6 -14.4726 4.4125
2 40 8 -6.7860 3.3145
2 40 10 -0.8889 3.4156
2 40 12 4.0571 3.9669
2 40 14 -18.4758 -0.8242
2 40 16 -4.2885 3.5865
2 40 18 1.6690 2.6772
2 40 20 -0.1557 3.0077
2 40 22 -5.7081 1.0868
2 41 3 -19.2720 -5.0300
2 41 5 -1.7627 -4.5194
2 41 7 -10.0745 -4.6155
2 41 9 -2.2927 -2.6455
2 41 11 5.9024 -3.5173
2 41 13 -8.0208 -3.6836
2 41 15 -3.0202 -2.2393
2 41 17 8.9229 -3.2640
2 41 19 -6.3875 -4.1579
2 41 21 -2.3040 -1.4112
2 42 2 -23.8929 7.6849
2 42 4 -9.8510 4.1379
2 42 6 -5.8020 3.6725
2 42 8 -5.8206 3.7778
2 42 10 2.1004 1.6062
2 42 12 -10.9850 3.4904
2 42 14 -12.9569 4.2854
2 42 16 3.3207 2.8262
2 42 18 -0.7885 4.2935
2 42 20 -3.8177 0.9427
2 43 3 5.6045 -2.6304
2 43 5 -2.0966 -5.2596
2 43 7 -5.6593 -1.1498
2 43 9 1.8257 -3.6629
2 43 11 4.9340 -4.3730
2 43 13 -1.6673 -1.5117
2 43 15 -15.2700 -5.2654
2 43 17 0.0300 -4.0500
2 44 2 -14.7057 4.6169
2 44 4 -14.1267 3.5635
2 44 6 -6.8453 3.8167
2 44 8 0.0305 4.5026
2 44 10 -3.7349 4.6238
2 44 12 8.1832 4.9000
2 44 14 -0.4367 3.6437
2 45 3 -1.8865 -3.6300
2 45 5 1.1507 -4.7717
2 45 7 0.5825 -4.2209
2 45 9 -5.6813 -6.1802
2 45 11 -15.3269 -1.5076
2 46 2 -3.0346 7.1869
2 46 4 3.7008 2.2706
2 46 6 14.8587 4.4734
3 4 3 66.7422 2.3721
3 5 4 43.4615 3.3378
3 6 3 27.1004 -0.8992
3 6 5 -86.4538 -3.1415
3 7 4 -95.4259 7.9342
3 7 6 45.0447 -10.9439
3 8 3 28.0336 0.4359
3 8 5 107.3963 10.1825
3 8 7 -18.7795 4.6511
3 9 4 -36.7489 -7.9990
3 9 6 19.9125 2.6135
3 9 8 -19.9237 0.9530
3 10 3 35.5935 -1.1686
3 10 5 -39.9048 -1.7349
3 10 7 21.0354 0.7413
3 10 9 28.8627 4.0302
3 11 4 47.7602 11.3900
3 11 6 -83.4780 -9.1190
3 11 8 1.2628 -3.1793
3 11 10 -33.3971 6.7759
3 12 3 4.8276 0.0995
3 12 5 -25.4929 6.5842
3 12 7 17.8145 -5.5587
3 12 9 -19.8454 10.7352
3 12 11 21.1483 5.7333
3 13 4 36.0886 -7.5314
3 13 6 35.8180 5.8712
3 13 8 -2.5518 -0.1522
3 13 10 20.6905 -7.3621
3 13 12 -7.2485 3.1683
3 14 3 11.2195 -2.1671
3 14 5 25.1624 -0.6571
3 14 7 1.1384 2.3067
3 14 9 -2.7364 -4.9693
3 14 11 10.6728 -2.1797
3 14 13 -14.4920 -8.1602
3 15 4 4.9441 5.4752
3 15 6 3.4153 -3.5224
3 15 8 20.6860 -2.1107
3 15 10 -12.3050 3.6120
3 15 12 -61.0894 -3.2612
3 15 14 27.0099 -1.0650
3 16 3 32.6279 5.4524
3 16 5 -33.4306 0.2336
3 16 7 31.8977 -1.1697
3 16 9 -13.8138 4.5554
3 16 11 -26.3976 3.5863
3 16 13 2.3075 5.3073
3 16 15 0.6480 1.3541
3 17 4 30.5680 -6.0844
3 17 6 -6.9076 4.5419
3 17 8 16.1844 -3.6316
3 17 10 -11.4530 0.6001
3 17 12 15.8320 -0.3000
3 17 14 9.9595 -0.6615
3 17 16 -0.4730 1.4723
3 18 3 -3.6786 -6.2398
3 18 5 -13.1467 9.0183
3 18 7 0.7793 -4.5331
3 18 9 0.5349 2.4611
3 18 11 37.5259 -4.4301
3 18 13 -15.4564 2.2935
3 18 15 4.8969 -1.3062
3 18 17 12.1540 -5.0331
3 19 4 40.2673 1.1151
3 19 6 -17.0713 -2.2731
3 19 8 25.3205 0.4007
3 19 10 7.0838 1.8143
3 19 12 -4.8950 -4.3591
3 19 14 -6.4299 2.9562
3 19 16 36.8845 -3.6380
3 19 18 -3.6162 2.3699
3 20 3 28.2482 6.3263
3 20 5 -16.2647 -4.9506
3 20 7 13.3101 4.1612
3 20 9 3.1040 -4.9118
3 20 11 0.2226 2.2528
3 20 13 -13.3510 -2.6433
3 20 15 5.3726 -0.2407
3 20 17 -7.1356 5.5955
3 20 19 4.8020 0.2529
3 21 4 -15.8478 -0.1770
3 21 6 3.6877 -2.8002
3 21 8 -1.6495 1.2256
3 21 10 -51.3321 2.1907
3 21 12 -17.0325 -0.2926
3 21 14 15.4379 0.2692
3 21 16 -5.0543 0.8050
3 21 18 0.5663 -1.9051
3 21 20 -2.6398 1.8216
3 22 3 -10.2559 -4.3922
3 22 5 2.1060 8.0686
3 22 7 10.1639 -1.0695
3 22 9 -12.3645 2.1644
3 22 11 6.2710 0.9851
3 22 13 6.0318 2.1965
3 22 15 1.5143 1.2478
3 22 17 8.9065 -2.3097
3 22 19 0.1168 4.1397
3 22 21 -7.5964 1.2820
3 23 4 7.7050 -4.0434
3 23 6 4.6582 4.5168
3 23 8 19.4180 -6.1286
3 23 10 -36.2096 1.2025
3 23 12 -26.1077 0.2782
3 23 14 2.5694 -0.4493
3 23 16 11.4067 0.5961
3 23 18 4.5204 -0.9944
3 23 20 -7.0917 0.3582
3 23 22 -16.5228 0.7658
3 24 3 13.5225 2.9377
3 24 5 14.1993 -0.2177
3 24 7 -5.9802 -2.4389
3 24 9 6.6272 0.3039
3 24 11 5.8983 -2.8172
3 24 13 -4.9355 -2.6692
3 24 15 6.2818 -1.5675
3 24 17 -2.9130 -0.9487
3 24 19 0.2198 -2.9758
3 24 21 2.5989 -0.0955
3 24 23 -2.0278 2.1499
3 25 4 20.9126 3.8063
3 25 6 -6.1027 -5.0299
3 25 8 -0.1251 1.6989
3 25 10 30.0982 3.1425
3 25 12 26.6212 -4.2119
3 25 14 5.6494 3.3065
3 25 16 -2.1784 -2.0454
3 25 18 -8.2085 2.3021
3 25 20 15.4039 -1.9790
3 25 22 -1.5808 0.7582
3 25 24 14.8190 0.8900
3 26 3 -1.4201 -1.2882
3 26 5 -13.7812 3.9379
3 26 7 5.6667 0.4990
3 26 9 -11.2898 2.8210
3 26 11 -0.1544 0.1240
3 26 13 0.7193 2.1621
3 26 15 -3.1893 2.7931
3 26 17 -0.1363 0.5461
3 26 19 3.5728 2.2257
3 26 21 -1.7808 0.7235
3 26 23 -3.5515 0.8590
3 26 25 0.2745 2.3383
3 27 4 21.3259 -3.8805
3 27 6 -11.1939 3.6650
3 27 8 0.7497 -2.4565
3 27 10 -6.5799 -0.8061
3 27 12 9.0041 1.5083
3 27 14 -8.0241 0.7659
3 27 16 0.7471 -0.1505
3 27 18 8.0866 -1.0477
3 27 20 -7.6635 2.2553
3 27 22 2.1835 -1.7980
3 27 24 4.9546 0.7798
3 27 26 10.5197 0.2238
3 28 3 8.4274 -1.0045
3 28 5 -0.7762 0.0829
3 28 7 6.2557 -0.1960
3 28 9 -4.7457 -1.8049
3 28 11 17.0933 1.0076
3 28 13 0.4996 -2.7829
3 28 15 5.9356 -2.6487
3 28 17 4.8534 -0.4993
3 28 19 0.3545 -1.2007
3 28 21 2.5370 -1.1400
3 28 23 3.4063 -1.7683
3 28 25 -12.7938 0.2787
3 28 27 11.6301 -1.9061
3 29 4 10.7563 3.8088
3 29 6 -6.2654 -4.2098
3 29 8 16.5528 -1.3354
3 29 10 12.5348 2.7947
3 29 12 -5.6188 -2.9721
3 29 14 9.7444 1.3732
3 29 16 2.0915 -0.5299
3 29 18 -0.9520 0.7873
3 29 20 1.3990 -0.8023
3 29 22 -2.2234 -0.1184
3 29 24 -2.4438 1.1250
3 29 26 -8.0012 -0.4703
3 29 28 -0.4890 -0.8319
3 30 3 -2.6005 2.0307
3 30 5 -1.2770 3.7915
3 30 7 -3.5192 -1.7079
3 30 9 -4.8315 2.7403
3 30 11 -0.0182 -1.7527
3 30 13 0.4317 0.9378
3 30 15 5.2795 1.7638
3 30 17 -5.2854 -1.3668
3 30 19 4.4431 1.6987
3 30 21 2.9958 -0.7830
3 30 23 -5.7198 1.8950
3 30 25 5.1511 -0.6053
3 30 27 12.7813 0.5376
3 30 29 9.3210 0.6074
3 31 4 7.1342 -2.7181
3 31 6 -7.0719 3.5349
3 31 8 0.0073 -1.6696
3 31 10 -8.9288 0.6717
3 31 12 1.9418 -0.8370
3 31 14 4.7170 1.6973
3 31 16 1.9175 -0.4134
3 31 18 5.2430 -0.1145
3 31 20 -2.7458 1.5198
3 31 22 -5.7782 -0.2963
3 31 24 -9.0164 -0.5015
3 31 26 -0.3916 0.5002
3 31 28 14.8854 1.0543
3 31 30 -6.3398 -1.1982
3 32 3 -10.0900 -2.6972
3 32 5 3.0764 1.6647
3 32 7 7.5723 -0.7339
3 32 9 -10.6864 2.4241
3 32 11 7.0522 -0.0599
3 32 13 -0.0207 1.0700
3 32 15 -0.4566 -0.7525
3 32 17 3.4896 0.5009
3 32 19 3.2458 0.1075
3 32 21 -3.0047 -0.2294
3 32 23 3.4275 -0.3016
3 32 25 -3.5988 -0.1522
3 32 27 -13.7063 0.4244
3 32 29 21.9148 -0.5101
3 32 31 20.2747 -0.0293
3 33 4 -1.6515 1.1093
3 33 6 4.6624 -3.2587
3 33 8 8.7952 -1.4205
3 33 10 -0.2729 1.5172
3 33 12 6.0273 -2.1057
3 33 14 -0.3995 1.9769
3 33 16 3.4824 -1.1818
3 33 18 4.3606 1.1067
3 33 20 3.0708 -1.6509
3 33 22 4.6613 0.2859
3 33 24 1.6733 1.5703
3 33 26 6.6412 -1.8956
3 33 28 -7.2401 1.1191
3 33 30 -14.7103 0.4161
3 33 32 10.2486 -0.5983
3 34 3 16.1217 2.3627
3 34 5 -7.6994 0.0253
3 34 7 8.7666 0.9669
3 34 9 -1.4217 -2.6992
3 34 11 1.5415 0.4400
3 34 13 3.4361 -3.3605
3 34 15 3.5890 0.0290
3 34 17 3.3237 -1.0112
3 34 19 8.5851 -1.3855
3 34 21 -2.9866 1.0897
3 34 23 -6.5609 -1.8983
3 34 25 13.6380 0.1406
3 34 27 -0.4559 -0.9781
3 34 29 -2.8689 0.2883
3 34 31 -8.7188 -0.9617
3 35 4 -3.1325 -0.5462
3 35 6 -7.9525 0.9146
3 35 8 4.2665 1.1456
3 35 10 -1.2427 -0.9294
3 35 12 -4.4567 0.6554
3 35 14 8.0107 0.4591
3 35 16 -12.2189 -1.6263
3 35 18 7.7569 1.6375
3 35 20 1.3883 0.3257
3 35 22 -5.2512 -0.6824
3 35 24 7.7116 0.5024
3 35 26 7.9387 0.4109
3 35 28 -8.4677 -0.4642
3 35 30 -15.7909 -1.1959
3 36 3 10.2306 -0.9348
3 36 5 -4.4633 4.0458
3 36 7 5.0220 -0.8544
3 36 9 -9.0071 2.3437
3 36 11 6.9900 0.5811
3 36 13 6.0932 3.3419
3 36 15 4.0497 0.4119
3 36 17 5.0977 0.7487
3 36 19 -5.8408 1.4813
3 36 21 8.7365 -1.4879
3 36 23 0.8974 2.7974
3 36 25 -8.4963 -0.5418
3 36 27 0.2306 0.7073
3 36 29 13.1918 1.3845
3 37 4 -2.3528 -0.6031
3 37 6 -14.1421 -0.0525
3 37 8 -2.1502 -4.2693
3 37 10 7.1771 3.7214
3 37 12 -0.7097 -3.1607
3 37 14 -4.3838 1.2532
3 37 16 13.5150 1.1377
3 37 18 5.4707 -1.0555
3 37 20 -4.9840 1.1944
3 37 22 6.9084 -0.6085
3 37 24 -4.8317 1.0201
3 37 26 -5.3560 -1.5228
3 37 28 -10.1454 0.8710
3 38 3 18.2939 0.1851
3 38 5 -1.3214 0.3096
3 38 7 5.6385 -1.3177
3 38 9 4.8105 0.7419
3 38 11 5.7930 -1.7426
3 38 13 -4.4740 -2.0914
3 38 15 5.7480 -0.8490
3 38 17 -1.3085 -1.0715
3 38 19 0.9647 -1.0238
3 38 21 0.3819 -0.1926
3 38 23 0.6529 -1.9109
3 38 25 4.3202 1.0326
3 39 4 17.1006 0.0796
3 39 6 -13.4899 -0.9744
3 39 8 10.3263 0.7928
3 39 10 -7.8229 0.1062
3 39 12 6.2235 -0.6707
3 39 14 4.6416 1.0540
3 39 16 4.8519 -1.8645
3 39 18 -0.5482 1.0289
3 39 20 4.6166 -1.3066
3 39 22 -3.2061 1.0811
3 39 24 5.0761 -2.5501
3 40 3 0.2476 0.6853
3 40 5 -8.0234 2.6297
3 40 7 5.6026 0.3876
3 40 9 -1.5885 -0.1075
3 40 11 2.4673 0.7119
3 40 13 6.0142 0.4754
3 40 15 0.7012 2.1238
3 40 17 -3.7963 -0.9222
3 40 19 3.3141 1.7306
3 40 21 -1.6417 0.8852
3 40 23 9.4712 2.2728
3 41 4 -1.5138 -0.7419
3 41 6 -2.3108 0.4138
3 41 8 2.6948 -0.8589
3 41 10 3.6287 0.9178
3 41 12 0.9473 -0.8069
3 41 14 5.2691 0.6067
3 41 16 2.9510 0.5739
3 41 18 -0.8606 -0.5307
3 41 20 3.6282 0.5427
3 42 3 -11.7183 -0.9751
3 42 5 2.4447 1.1167
3 42 7 0.8591 0.3796
3 42 9 -2.7785 -0.5589
3 42 11 10.1313 1.2385
3 42 13 -7.5954 0.4598
3 42 15 4.9202 -2.2814
3 42 17 0.1567 2.1127
3 42 19 -2.7193 -2.0987
3 43 4 5.6818 -0.0156
3 43 6 -6.5496 -1.4323
3 43 8 3.3006 -2.0103
3 43 10 -2.5007 1.8746
3 43 12 -12.0299 -2.1786
3 43 14 -6.8377 1.6246
3 43 16 0.6124 -1.4727
3 44 3 -4.2941 0.7105
3 44 5 -1.9087 2.2046
3 44 7 -2.6585 -1.7105
3 44 9 12.0980 1.3963
3 44 11 -0.5269 -2.3061
3 44 13 13.0252 -0.7832
3 44 15 6.2751 1.1133
3 45 4 0.7711 0.2508
3 45 6 -15.6479 0.2134
3 45 8 19.1170 0.8657
3 45 10 -5.0207 -0.2479
3 46 3 -29.8627 -0.0743
3 46 5 10.4052 0.3722
4 4 4 410.7757 -9.6663
4 5 5 -44.9445 -5.3535
4 6 4 -132.0694 -5.4720
4 6 6 209.9728 14.8326
4 7 5 11.0007 8.6351
4 7 7 11.8170 2.3940
4 8 4 -201.3633 -15.7770
4 8 6 18.3912 -2.2194
4 8 8 -0.0769 -2.4489
4 9 5 9.4382 -2.6778
4 9 7 10.2492 9.1333
4 9 9 39.0327 5.7037
4 10 4 104.2569 -5.9168
4 10 6 -30.5400 -5.4379
4 10 8 15.5693 -2.3073
4 10 10 -6.3703 2.9258
4 11 5 -17.7785 13.1711
4 11 7 -28.7655 1.0683
4 11 9 21.1407 2.7223
4 11 11 37.8246 -0.7083
4 12 4 6.6871 -11.2458
4 12 6 -1.0856 -3.7272
4 12 8 -17.3568 -9.0786
4 12 10 11.1626 -2.6062
4 12 12 -30.2916 -20.1054
4 13 5 2.9145 0.3749
4 13 7 21.2041 12.9893
4 13 9 -25.3695 0.0479
4 13 11 -6.6212 6.6509
4 13 13 7.6703 -9.4513
4 14 4 -3.3837 -14.4860
4 14 6 21.3000 -4.4462
4 14 8 -7.7458 -5.9087
4 14 10 -3.5396 6.0096
4 14 12 -13.3089 0.1200
4 14 14 1.2804 -7.0259
4 15 5 -10.6562 8.9982
4 15 7 42.3477 1.5267
4 15 9 2.7900 4.1901
4 15 11 -23.9667 5.4704
4 15 13 6.1417 7.2079
4 15 15 9.6712 -15.1427
4 16 4 44.5660 -4.3744
4 16 6 32.9217 -6.8996
4 16 8 -5.0431 -0.2455
4 16 10 -0.6695 -21.2775
4 16 12 -15.7704 7.7707
4 16 14 5.2197 -10.9983
4 16 16 16.9335 -15.9678
4 17 5 26.0903 4.4395
4 17 7 31.9085 9.8211
4 17 9 21.2854 6.0077
4 17 11 12.0047 -0.8457
4 17 13 -3.0363 7.4640
4 17 15 14.2888 4.2493
4 17 17 5.6563 -14.0380
4 18 4 57.6888 -16.2396
4 18 6 -30.0601 -5.4039
4 18 8 31.1818 -7.1867
4 18 10 17.4571 6.4069
4 18 12 -1.3740 -16.9501
4 18 14 -0.1175 10.9800
4 18 16 19.0079 -1.5133
4 18 18 9.1333 -2.5817
4 19 5 31.0307 8.1814
4 19 7 13.3770 0.9960
4 19 9 2.7933 2.5479
4 19 11 16.6693 11.9937
4 19 13 -3.9274 -7.8545
4 19 15 19.7859 11.1496
4 19 17 7.7754 3.7414
4 19 19 20.6401 -8.5573
4 20 4 24.5661 -6.7553
4 20 6 -4.0099 -2.1754
4 20 8 4.7473 -5.1646
4 20 10 -24.0483 -4.5455
4 20 12 4.3678 2.3032
4 20 14 11.6524 -9.1908
4 20 16 -8.4388 -1.0449
4 20 18 5.5724 -0.7666
4 20 20 15.8633 -3.8065
4 21 5 0.3305 3.9625
4 21 7 18.0095 8.6611
4 21 9 -18.6289 1.7278
4 21 11 3.5380 -1.9213
4 21 13 9.5612 11.9863
4 21 15 5.2799 -6.2737
4 21 17 2.9359 4.6873
4 21 19 13.9817 5.3410
4 21 21 10.4953 -2.5801
4 22 4 -26.8789 -13.4320
4 22 6 33.5564 -8.7813
4 22 8 -15.7182 -0.1166
4 22 10 -15.1098 -9.2691
4 22 12 -0.4953 -0.9627
4 22 14 15.0978 -4.8944
4 22 16 19.7876 -2.6664
4 22 18 12.5021 -5.2069
4 22 20 14.7521 0.8881
4 22 22 22.9611 2.1742
4 23 5 -6.0657 6.6411
4 23 7 54.4055 4.5045
4 23 9 -3.3703 4.9001
4 23 11 -22.4565 4.0104
4 23 13 -16.0976 -1.0610
4 23 15 11.1213 5.6640
4 23 17 15.8616 4.4050
4 23 19 7.5784 -1.9689
4 23 21 9.7408 4.4693
4 23 23 15.4754 -0.0914
4 24 4 -5.5599 -6.0453
4 24 6 -14.9144 -1.7549
4 24 8 11.5172 -6.6350
4 24 10 -6.8550 2.1099
4 24 12 -3.9354 -2.7847
4 24 14 5.7559 2.2261
4 24 16 -0.1155 -4.3190
4 24 18 11.8639 1.5083
4 24 20 0.3723 -4.4587
4 24 22 9.0741 1.5730
4 24 24 9.7992 1.6403
4 25 5 -25.6175 7.0713
4 25 7 12.9670 2.8657
4 25 9 43.5939 3.3864
4 25 11 22.2164 2.7134
4 25 13 1.5015 0.0360
4 25 15 -0.2247 5.6353
4 25 17 1.5375 -2.5591
4 25 19 -1.0146 8.5329
4 25 21 6.0815 -1.7504
4 25 23 10.6183 3.4413
4 25 25 0.5021 -2.1967
4 26 4 35.6248 -14.3981
4 26 6 -8.9988 -7.3316
4 26 8 1.2727 -2.8631
4 26 10 5.7374 -5.4965
4 26 12 2.3300 -2.9981
4 26 14 1.9832 -5.2748
4 26 16 -3.4318 0.9128
4 26 18 3.4890 -9.3512
4 26 20 3.4527 0.0332
4 26 22 6.8100 -6.6031
4 26 24 7.3753 -0.1054
4 26 26 -12.6535 -2.7927
4 27 5 3.1832 3.4163
4 27 7 24.6254 9.4194
4 27 9 -18.3406 -0.7159
4 27 11 -4.1081 3.3793
4 27 13 -0.3312 4.7633
4 27 15 5.8147 -6.6926
4 27 17 0.2028 10.2888
4 27 19 -1.2673 -3.4567
4 27 21 -0.2340 6.1689
4 27 23 -1.1025 0.7650
4 27 25 2.1272 2.2056
4 27 27 3.8826 -5.1872
4 28 4 10.6905 -6.5113
4 28 6 6.0391 -1.1626
4 28 8 10.8298 -4.2507
4 28 10 -17.4400 -2.4991
4 28 12 1.8451 1.0223
4 28 14 3.8442 0.4815
4 28 16 0.8704 -4.3769
4 28 18 -1.5019 4.5350
4 28 20 1.4285 -5.8093
4 28 22 4.6940 0.9773
4 28 24 -5.9941 -2.0892
4 28 26 3.7248 1.6683
4 28 28 -2.4153 -5.0693
4 29 5 -8.1693 6.6757
4 29 7 18.1504 2.5691
4 29 9 -7.8177 4.5532
4 29 11 -6.3851 2.5331
4 29 13 -0.0604 -1.3080
4 29 15 2.7267 7.8357
4 29 17 -4.3235 -4.1207
4 29 19 2.8835 5.9622
4 29 21 -0.7471 0.3186
4 29 23 -0.0346 2.6952
4 29 25 -4.6424 2.6640
4 29 27 -2.1643 2.5856
4 29 29 3.0409 -6.3931
4 30 4 -23.8799 -9.8028
4 30 6 -3.5388 -7.9556
4 30 8 10.2964 -0.5768
4 30 10 -2.8997 -4.6080
4 30 12 -0.2380 -1.6841
4 30 14 5.6782 -4.1090
4 30 16 1.5887 3.4937
4 30 18 9.0297 -7.9699
4 30 20 -3.7730 1.5020
4 30 22 -3.6885 -3.2010
4 30 24 -0.9899 -5.5140
4 30 26 4.0599 0.4511
4 30 28 0.8641 -1.5556
4 30 30 -6.2209 -7.5094
4 31 5 -0.1345 3.2734
4 31 7 -7.7026 4.7480
4 31 9 5.2260 1.8039
4 31 11 1.0842 1.6635
4 31 13 -11.5321 4.2264
4 31 15 7.9748 -3.3034
4 31 17 6.5384 4.2363
4 31 19 6.2655 -1.6409
4 31 21 -4.5411 3.9583
4 31 23 12.3753 1.7555
4 31 25 3.9441 0.5671
4 31 27 1.9368 4.5364
4 31 29 1.0929 1.2232
4 31 31 0.0823 -6.3223
4 32 4 10.4739 -9.5509
4 32 6 -3.9922 0.5103
4 32 8 -15.3853 -6.5618
4 32 10 8.1153 -1.9964
4 32 12 2.6995 -2.8331
4 32 14 4.8089 -1.2171
4 32 16 9.3888 -3.7921
4 32 18 -2.0075 2.8541
4 32 20 0.2660 -4.3599
4 32 22 6.4506 -1.6475
4 32 24 7.5806 -0.0955
4 32 26 1.3097 -6.5660
4 32 28 1.8757 2.2886
4 32 30 2.5397 0.3764
4 32 32 3.7374 -7.2579
4 33 5 12.4985 6.8977
4 33 7 10.8676 3.1014
4 33 9 1.3495 2.7582
4 33 11 5.8676 5.0091
4 33 13 11.9304 -1.0175
4 33 15 10.9086 3.0801
4 33 17 7.3864 0.6080
4 33 19 0.1803 2.2095
4 33 21 4.1309 0.3493
4 33 23 11.2696 2.5148
4 33 25 -1.2989 5.0066
4 33 27 0.2355 -2.3473
4 33 29 2.3465 3.0190
4 33 31 3.9640 4.2835
4 34 4 14.3815 -6.6346
4 34 6 6.6029 -5.0792
4 34 8 -4.7368 -0.9211
4 34 10 0.7980 -1.9393
4 34 12 5.4380 0.0762
4 34 14 16.5001 -1.3684
4 34 16 4.6595 1.6245
4 34 18 2.4549 -3.5349
4 34 20 9.3362 0.9611
4 34 22 1.0695 -0.8900
4 34 24 -7.4418 -4.0989
4 34 26 2.4311 2.5184
4 34 28 0.0970 -5.1439
4 34 30 -3.2669 0.7639
4 35 5 -11.1292 1.5980
4 35 7 31.6940 5.7120
4 35 9 -15.4412 0.7797
4 35 11 -0.8303 -0.4114
4 35 13 9.9215 4.0686
4 35 15 12.2268 0.7203
4 35 17 6.8865 1.5700
4 35 19 4.3181 0.9021
4 35 21 8.5776 1.7725
4 35 23 5.5615 1.6695
4 35 25 13.0975 -0.8600
4 35 27 0.8113 4.7848
4 35 29 8.4061 -0.6984
4 36 4 10.3722 -10.2018
4 36 6 24.3175 -4.3336
4 36 8 5.5913 -2.4964
4 36 10 -3.7866 -5.0938
4 36 12 3.7510 -2.2562
4 36 14 8.4013 -3.2041
4 36 16 9.4114 -2.6450
4 36 18 7.5241 -2.6236
4 36 20 0.5919 -0.9553
4 36 22 2.3495 -2.8022
4 36 24 -2.3108 -0.8572
4 36 26 2.1209 -2.1567
4 36 28 -4.0919 -0.7958
4 37 5 3.9583 7.4186
4 37 7 -13.1435 2.1158
4 37 9 35.9363 3.7483
4 37 11 5.2132 4.0267
4 37 13 0.8552 -0.1381
4 37 15 1.5966 0.5715
4 37 17 3.0782 2.2369
4 37 19 7.0800 0.6214
4 37 21 16.6772 1.0110
4 37 23 5.5664 0.5677
4 37 25 5.2789 1.9804
4 37 27 5.7256 -0.9085
4 38 4 13.4190 -5.3135
4 38 6 8.3323 -1.9306
4 38 8 10.8378 -4.5069
4 38 10 -5.8826 -0.2075
4 38 12 6.8641 0.1949
4 38 14 -2.4199 -1.2378
4 38 16 6.6520 0.7243
4 38 18 4.7642 0.6346
4 38 20 7.9251 -2.2439
4 38 22 5.3268 1.1029
4 38 24 -6.4409 -1.0437
4 38 26 1.9381 -0.6678
4 39 5 -22.6544 3.5142
4 39 7 1.2880 4.8693
4 39 9 -15.1341 1.8935
4 39 11 -8.8275 0.6714
4 39 13 -0.1282 1.9499
4 39 15 -6.0950 2.0521
4 39 17 -0.0083 -0.1532
4 39 19 2.8797 1.8651
4 39 21 1.0696 2.1138
4 39 23 5.0867 0.9027
4 39 25 5.8052 2.9102
4 40 4 9.7740 -10.7600
4 40 6 -0.0820 -5.4150
4 40 8 9.8977 -1.5401
4 40 10 4.2950 -3.2667
4 40 12 -15.2072 -2.8903
4 40 14 10.8253 -0.3698
4 40 16 4.0238 -1.5788
4 40 18 3.3301 -2.5700
4 40 20 -1.0480 -1.7413
4 40 22 9.1556 -1.7644
4 41 5 3.7434 3.1349
4 41 7 5.0291 4.6688
4 41 9 -4.3080 0.5286
4 41 11 2.9754 2.5330
4 41 13 -0.9824 1.6749
4 41 15 4.5074 -1.0403
4 41 17 -7.1632 2.5068
4 41 19 4.9876 1.4550
4 41 21 -13.3785 0.1172
4 42 4 8.6649 -3.8990
4 42 6 6.0231 -2.4052
4 42 8 7.2781 -2.5268
4 42 10 0.4491 -3.3044
4 42 12 0.1328 0.8832
4 42 14 6.0027 -3.9328
4 42 16 6.2056 -0.7932
4 42 18 -2.4963 -2.1821
4 43 5 1.2281 5.5756
4 43 7 2.7701 2.3138
4 43 9 0.0450 3.0265
4 43 11 4.4214 2.8688
4 43 13 3.7059 0.4840
4 43 15 9.6405 4.3933
4 43 17 6.6694 2.0760
4 44 4 -2.4131 -8.2060
4 44 6 -10.1704 -3.3505
4 44 8 4.8012 -1.8663
4 44 10 2.7122 -1.6986
4 44 12 9.4770 -3.2702
4 44 14 9.3252 -1.0827
4 45 5 5.8597 1.9351
4 45 7 -2.8944 3.3239
4 45 9 2.7422 3.0392
4 45 11 9.9256 1.5868
4 46 4 4.1067 -6.8961
4 46 6 -1.9084 -0.3826
5 6 5 33.1349 6.6249
5 7 6 3.7813 -0.5952
5 8 5 -66.1755 -10.5786
5 8 7 -3.3125 3.2374
5 9 6 -31.9007 -14.2637
5 9 8 28.2069 1.0873
5 10 5 36.8682 11.8306
5 10 7 -3.6583 -10.8181
5 10 9 -29.5119 -3.1591
5 11 6 31.3859 6.6427
5 11 8 -46.3795 8.4743
5 11 10 1.5896 -10.2973
5 12 5 -20.0508 -10.1382
5 12 7 -12.8454 8.7331
5 12 9 7.4569 -4.6366
5 12 11 2.8329 8.2132
5 13 6 -22.6601 -10.8432
5 13 8 23.8796 -3.2786
5 13 10 -13.0846 2.8400
5 13 12 -6.7018 0.6673
5 14 5 -8.4619 5.9870
5 14 7 9.1305 -4.9370
5 14 9 -2.6907 2.4483
5 14 11 -1.2742 -7.0340
5 14 13 18.6754 2.8093
5 15 6 -26.9939 3.7353
5 15 8 3.0457 9.8413
5 15 10 22.0839 -5.7748
5 15 12 -3.2346 -0.7403
5 15 14 -11.1075 2.1729
5 16 5 0.9948 3.7497
5 16 7 -15.9114 -7.6947
5 16 9 -29.5128 4.5879
5 16 11 35.4338 0.1093
5 16 13 -32.7240 2.7714
5 16 15 -1.6886 8.3113
5 17 6 -42.1658 -8.0400
5 17 8 2.0848 -0.9258
5 17 10 -9.2447 1.2626
5 17 12 2.8212 0.9982
5 17 14 12.5587 -1.9389
5 17 16 -4.5537 0.4727
5 18 5 52.8245 -12.2699
5 18 7 30.6232 11.5040
5 18 9 -0.9498 -7.1790
5 18 11 -20.5006 1.7695
5 18 13 -7.3618 -4.7338
5 18 15 6.9395 -0.2672
5 18 17 -19.9476 -1.0308
5 19 6 -5.5528 1.3784
5 19 8 -6.1119 3.0012
5 19 10 -7.0253 -1.4602
5 19 12 -25.0077 4.0730
5 19 14 5.0908 -5.3794
5 19 16 -29.8757 2.1895
5 19 18 2.4205 -3.7828
5 20 5 -2.5276 16.2302
5 20 7 -2.0442 -14.7013
5 20 9 -18.3831 5.0019
5 20 11 9.8429 -1.4044
5 20 13 -15.8050 2.5420
5 20 15 -5.1840 -1.8208
5 20 17 0.7655 0.4833
5 20 19 -8.0481 2.8282
5 21 6 38.6587 0.3530
5 21 8 -38.6448 0.9727
5 21 10 22.5472 -2.5044
5 21 12 -10.7006 0.6613
5 21 14 -16.6138 2.4598
5 21 16 6.1727 -0.6602
5 21 18 7.7710 -0.3317
5 21 20 5.8602 -0.6845
5 22 5 -7.7189 -17.0913
5 22 7 -12.7551 10.3481
5 22 9 1.6059 0.8058
5 22 11 0.6762 -3.6539
5 22 13 -8.2403 1.9298
5 22 15 -3.8259 2.2003
5 22 17 -6.4787 0.4673
5 22 19 8.8744 -4.3518
5 22 21 5.2147 1.3866
5 23 6 14.6148 -9.1366
5 23 8 -32.6520 4.8760
5 23 10 42.9038 -0.8959
5 23 12 16.4393 0.7104
5 23 14 -5.9778 -1.5318
5 23 16 -5.7650 0.1089
5 23 18 -12.3683 2.3330
5 23 20 17.3165 -3.3091
5 23 22 29.7738 0.5765
5 24 5 -23.3249 14.4926
5 24 7 28.7279 -10.1068
5 24 9 -12.3015 -2.6099
5 24 11 2.0956 3.7404
5 24 13 1.0759 -4.2705
5 24 15 -5.2047 -2.3912
5 24 17 2.8063 0.9548
5 24 19 -7.2673 1.9400
5 24 21 0.7117 -4.9313
5 24 23 5.2237 -1.2181
5 25 6 28.5065 6.0113
5 25 8 -57.1814 0.9679
5 25 10 33.5749 -1.8115
5 25 12 8.9691 2.0834
5 25 14 -12.7975 0.1756
5 25 16 5.8536 -1.9606
5 25 18 8.2921 -0.3436
5 25 20 -17.0846 2.2130
5 25 22 4.0474 -1.5712
5 25 24 -37.1223 -1.3532
5 26 5 2.3652 -10.4660
5 26 7 -10.7819 6.6630
5 26 9 -0.1185 1.3518
5 26 11 5.6674 -1.7874
5 26 13 -4.0337 3.1891
5 26 15 4.1273 2.7764
5 26 17 -6.7138 -2.4219
5 26 19 -0.8089 2.1084
5 26 21 -2.9800 3.4904
5 26 23 5.6223 -1.3392
5 26 25 2.9925 -1.0394
5 27 6 -13.2154 -8.6251
5 27 8 -15.2074 1.7646
5 27 10 18.1222 -0.4700
5 27 12 5.0942 0.2165
5 27 14 4.9881 -1.5116
5 27 16 0.5442 3.8015
5 27 18 -6.4547 -0.9631
5 27 20 4.0939 -1.7679
5 27 22 -0.1544 1.7953
5 27 24 0.8048 0.3488
5 27 26 8.7242 -1.0408
5 28 5 5.1346 4.8664
5 28 7 3.5877 -6.6656
5 28 9 0.1415 1.0669
5 28 11 1.1856 -1.3937
5 28 13 -7.7310 -0.8283
5 28 15 2.1637 -1.9815
5 28 17 -6.5307 1.5256
5 28 19 1.1535 -3.2440
5 28 21 -5.6214 -0.5283
5 28 23 -6.2679 0.2071
5 28 25 13.5326 -1.7468
5 28 27 -4.3104 -0.0388
5 29 6 4.0731 2.0754
5 29 8 2.4773 3.3204
5 29 10 3.5275 -0.9970
5 29 12 13.5535 -0.3720
5 29 14 -8.6377 1.1281
5 29 16 -5.2027 -3.2460
5 29 18 -0.8686 1.5635
5 29 20 4.5027 -0.3281
5 29 22 -0.4622 0.1370
5 29 24 -0.7040 -1.4075
5 29 26 13.4722 0.2299
5 29 28 -1.1468 2.2023
5 30 5 19.5972 1.4039
5 30 7 11.2312 0.0292
5 30 9 -11.7438 -0.2423
5 30 11 7.9205 0.3126
5 30 13 1.9496 0.2940
5 30 15 -3.7937 0.7904
5 30 17 2.6477 -1.1087
5 30 19 -8.5872 3.2399
5 30 21 -1.9591 -1.2493
5 30 23 4.6300 1.3618
5 30 25 -15.6261 1.0345
5 30 27 3.8931 -1.0964
5 30 29 -2.2304 3.5051
5 31 6 -0.3771 -4.9909
5 31 8 0.6752 2.3456
5 31 10 -2.9156 -0.7619
5 31 12 -6.8141 1.8907
5 31 14 -12.6692 -1.0576
5 31 16 5.1578 0.9063
5 31 18 -8.1955 0.6022
5 31 20 -1.7050 -0.7005
5 31 22 -5.8536 -0.4077
5 31 24 -12.6200 1.6837
5 31 26 7.1601 -0.8454
5 31 28 2.7405 -0.7184
5 31 30 0.2329 2.5474
5 32 5 -9.6931 -5.4902
5 32 7 -0.1223 2.1787
5 32 9 4.2134 -1.4781
5 32 11 -4.5676 0.1061
5 32 13 -1.5549 0.7235
5 32 15 0.4509 0.9105
5 32 17 3.2338 -0.3952
5 32 19 -5.2572 -0.7067
5 32 21 -22.7956 0.8241
5 32 23 12.2560 -0.8024
5 32 25 -6.2549 0.1632
5 32 27 -10.1110 -0.9425
5 32 29 3.9639 -0.6938
5 32 31 -10.1865 0.7090
5 33 6 -16.3421 0.2821
5 33 8 -16.7547 1.6715
5 33 10 7.0623 -1.8486
5 33 12 -4.6405 -0.4089
5 33 14 2.3223 0.2688
5 33 16 -10.3555 -0.0746
5 33 18 -10.7475 -0.7103
5 33 20 1.8130 0.4463
5 33 22 -15.7266 0.2632
5 33 24 -10.3806 -0.8106
5 33 26 -2.3248 0.7253
5 33 28 0.2872 -0.2385
5 33 30 9.6372 -1.4034
5 33 32 -18.0332 0.6756
5 34 5 -10.4851 5.9463
5 34 7 11.8801 -5.4744
5 34 9 -5.2936 0.8320
5 34 11 1.0956 -0.2794
5 34 13 -6.6148 -1.2608
5 34 15 19.5279 -1.7522
5 34 17 8.3304 0.9495
5 34 19 -14.2237 -0.6250
5 34 21 6.3933 -0.9873
5 34 23 -1.7314 0.0841
5 34 25 -7.2114 -0.2461
5 34 27 -15.5726 1.0196
5 34 29 -2.5727 -1.2025
5 34 31 11.8515 -0.1859
5 35 6 -21.6280 -3.7678
5 35 8 -1.1046 2.0067
5 35 10 -9.1119 1.8298
5 35 12 -2.1770 0.2181
5 35 14 -8.5323 -0.2596
5 35 16 -6.2990 -0.8706
5 35 18 -1.6170 1.0598
5 35 20 -9.4185 -0.9491
5 35 22 6.1413 0.6944
5 35 24 -9.0744 -0.5076
5 35 26 -8.4411 -0.5935
5 35 28 -11.3661 1.2088
5 35 30 1.6299 0.5968
5 36 5 -3.2367 -4.6281
5 36 7 -2.8397 3.4515
5 36 9 -3.5475 0.9972
5 36 11 -6.4201 -1.7084
5 36 13 -5.3074 2.0575
5 36 15 -10.9484 2.3777
5 36 17 0.0946 -1.3049
5 36 19 6.4700 1.7528
5 36 21 -6.1958 0.9874
5 36 23 3.7502 0.3440
5 36 25 6.3180 0.4113
5 36 27 7.5319 0.1075
5 36 29 -8.6810 0.4056
5 37 6 -17.9255 -1.2978
5 37 8 15.3797 3.1233
5 37 10 -6.2262 -4.5218
5 37 12 2.7858 1.9712
5 37 14 -0.2648 -0.0684
5 37 16 -5.4157 0.4880
5 37 18 -4.4858 -0.0935
5 37 20 1.5234 -0.4303
5 37 22 -3.0754 0.3550
5 37 24 1.8327 0.0280
5 37 26 2.4118 -0.2058
5 38 5 -5.7886 3.1063
5 38 7 6.5461 -4.2314
5 38 9 -9.7462 -1.7693
5 38 11 2.5843 1.8684
5 38 13 -4.8455 -2.5194
5 38 15 -1.7793 -1.6250
5 38 17 -7.9732 0.9134
5 38 19 3.0100 -1.2358
5 38 21 -0.6406 -1.5388
5 38 23 -8.7278 0.4927
5 38 25 1.0238 -1.1655
5 39 6 -20.5656 -1.2001
5 39 8 3.2604 0.3501
5 39 10 -11.1472 1.6104
5 39 12 4.3491 -0.2713
5 39 14 7.8569 -0.1154
5 39 16 -1.7681 -0.8232
5 39 18 -0.2930 -0.1017
5 39 20 -2.6544 1.0343
5 39 22 2.1080 -1.8569
5 39 24 -3.8574 2.6236
5 40 5 2.4795 -1.9210
5 40 7 -4.1397 2.7254
5 40 9 -4.3989 0.7753
5 40 11 2.4156 -1.4750
5 40 13 6.1191 1.5731
5 40 15 1.8981 0.6510
5 40 17 1.8733 -0.0761
5 40 19 -3.9239 -0.1466
5 40 21 0.5169 2.1734
5 40 23 1.2201 -3.6029
5 41 6 -4.2079 -2.3922
5 41 8 0.6664 2.0035
5 41 10 1.5792 -1.0679
5 41 12 -2.0208 0.9348
5 41 14 14.8135 -0.1153
5 41 16 -7.9041 -0.3916
5 41 18 1.0646 1.8590
5 41 20 -2.3682 -2.0454
5 42 5 -9.0590 0.7285
5 42 7 5.1404 -3.9069
5 42 9 -2.2460 1.5673
5 42 11 -4.9874 -0.6409
5 42 13 -13.2815 -0.5445
5 42 15 -1.3126 0.8686
5 42 17 -1.4144 -0.4012
5 42 19 3.6763 2.1194
5 43 6 3.5497 0.1100
5 43 8 -7.0924 0.8317
5 43 10 -3.0633 -1.5252
5 43 12 5.2848 0.9037
5 43 14 -1.7244 -0.5941
5 43 16 0.7563 1.0539
5 44 5 7.4774 -0.0199
5 44 7 -4.0423 0.4410
5 44 9 -8.0990 -1.1610
5 44 11 5.9320 0.0184
5 44 13 -6.8341 -0.5457
5 45 6 -8.4815 -2.4529
5 45 8 1.9625 2.9743
5 45 10 -2.6274 -0.2697
5 46 5 8.1979 -0.2180
6 6 6 -106.1119 13.2761
6 7 7 -77.2114 5.5201
6 8 6 -40.2426 6.1305
6 8 8 30.8659 -11.4102
6 9 7 24.0330 -7.5306
6 9 9 -60.4045 0.3228
6 10 6 69.0470 20.5742
6 10 8 -33.3366 -12.3573
6 10 10 15.4666 9.8358
6 11 7 -12.5614 -0.3544
6 11 9 -13.4464 -2.6657
6 11 11 -20.4200 0.1004
6 12 6 43.8175 2.9013
6 12 8 -15.2570 11.5835
6 12 10 38.2062 -6.8346
6 12 12 -6.0360 0.0171
6 13 7 -14.2445 -5.1764
6 13 9 1.3974 0.9562
6 13 11 -30.2394 -1.1041
6 13 13 12.2010 6.7754
6 14 6 -18.0907 15.8901
6 14 8 13.1590 -11.5357
6 14 10 -68.0173 12.8321
6 14 12 25.3373 -3.7699
6 14 14 -4.4842 12.3643
6 15 7 -10.2906 -4.1633
6 15 9 -6.4237 -8.7214
6 15 11 20.1579 -1.9319
6 15 13 -9.2660 -5.0017
6 15 15 -4.0346 10.6980
6 16 6 -15.0067 9.7974
6 16 8 -0.5086 3.2951
6 16 10 25.0332 9.1863
6 16 12 -4.3525 -7.5412
6 16 14 -6.0135 0.9838
6 16 16 -1.4494 0.9254
6 17 7 6.3571 -2.5901
6 17 9 -8.8899 -0.1105
6 17 11 -12.1348 0.1729
6 17 13 -10.0561 -2.4381
6 17 15 5.8655 -5.3937
6 17 17 -27.3618 11.5010
6 18 6 -2.0753 9.5837
6 18 8 8.6175 -2.2098
6 18 10 -18.5776 3.2787
6 18 12 0.3795 5.6023
6 18 14 16.2906 0.3795
6 18 16 -8.9384 0.0757
6 18 18 -8.4206 7.3090
6 19 7 9.7254 -0.4841
6 19 9 2.0013 -8.9284
6 19 11 4.0626 -4.1052
6 19 13 -12.7158 4.5310
6 19 15 -12.2302 -3.3319
6 19 17 2.8889 -2.3430
6 19 19 20.5815 8.4893
6 20 6 -20.1288 15.1489
6 20 8 -3.7361 -1.3421
6 20 10 6.0494 4.4509
6 20 12 -4.5262 -0.7071
6 20 14 -21.7457 1.8791
6 20 16 -5.2388 -1.3426
6 20 18 6.8385 -2.8073
6 20 20 -15.3077 1.6251
6 21 7 15.6028 -9.4534
6 21 9 15.9088 5.1767
6 21 11 3.4027 -2.4605
6 21 13 -16.2441 -5.8613
6 21 15 -3.5697 5.3798
6 21 17 -5.3339 -4.1083
6 21 19 -8.9860 -0.7709
6 21 21 -4.5904 4.5124
6 22 6 -6.8668 3.3584
6 22 8 -2.4870 -0.2546
6 22 10 12.6540 8.5088
6 22 12 -18.0888 -7.4022
6 22 14 4.3080 5.1128
6 22 16 -5.6467 1.1228
6 22 18 -12.5270 -0.7121
6 22 20 -21.6993 0.5722
6 22 22 -13.8407 0.8622
6 23 7 19.1487 0.8450
6 23 9 38.8593 -7.8521
6 23 11 11.2107 3.0702
6 23 13 10.2503 -0.1682
6 23 15 -3.3032 -3.6387
6 23 17 -29.0569 1.1458
6 23 19 4.1529 -1.3146
6 23 21 -9.0537 0.8589
6 23 23 -4.0213 2.7833
6 24 6 12.3763 18.3895
6 24 8 -4.8768 -3.9298
6 24 10 9.9891 4.2946
6 24 12 -5.4582 3.0376
6 24 14 -5.6192 -1.1806
6 24 16 -18.6886 0.6832
6 24 18 -3.1864 2.5358
6 24 20 -8.0413 0.1966
6 24 22 -11.5291 -1.8825
6 24 24 -9.0714 0.0783
6 25 7 37.9966 -4.1629
6 25 9 58.1594 -3.7762
6 25 11 47.6223 -3.5376
6 25 13 -6.7300 2.4940
6 25 15 11.4468 -0.3079
6 25 17 -4.0520 -0.0851
6 25 19 1.3283 -0.8361
6 25 21 -0.0410 -1.9223
6 25 23 -1.6905 1.1128
6 25 25 -4.5318 3.6777
6 26 6 -11.8268 4.1506
6 26 8 -0.0473 1.0106
6 26 10 14.9115 3.6332
6 26 12 -16.2668 -4.2774
6 26 14 9.4424 0.8919
6 26 16 1.3045 -0.3321
6 26 18 -0.9729 -1.2028
6 26 20 -3.3730 2.3248
6 26 22 1.4541 -0.7836
6 26 24 -6.0138 -1.2154
6 26 26 -0.1118 0.8383
6 27 7 -40.7135 -5.0394
6 27 9 14.3978 3.5947
6 27 11 -6.7035 -0.5439
6 27 13 -5.3984 -2.5976
6 27 15 0.9734 2.9927
6 27 17 -2.8460 -3.3825
6 27 19 7.6726 -0.1031
6 27 21 1.1354 0.0620
6 27 23 2.7886 -2.4103
6 27 25 12.6060 0.0355
6 27 27 -4.2198 4.7307
6 28 6 -23.1468 12.9190
6 28 8 12.7636 -2.1080
6 28 10 -1.7030 5.2129
6 28 12 -0.1865 -0.3447
6 28 14 -3.2399 0.1873
6 28 16 -10.3115 1.3791
6 28 18 2.5657 -0.6554
6 28 20 -3.8252 3.7152
6 28 22 1.6289 -0.3839
6 28 24 -9.4692 2.5927
6 28 26 -3.9752 -1.6748
6 28 28 6.1426 3.3411
6 29 7 -2.8676 -1.3290
6 29 9 -2.5361 -7.6406
6 29 11 5.8174 0.3114
6 29 13 -3.0783 2.0378
6 29 15 7.7904 -1.5870
6 29 17 -0.6226 2.6803
6 29 19 0.1214 -1.5286
6 29 21 -1.5162 -0.0049
6 29 23 5.0796 -0.1894
6 29 25 -0.6633 -0.8134
6 29 27 -0.3951 -0.8897
6 29 29 4.6737 4.6337
6 30 6 -1.4846 9.0094
6 30 8 -2.2858 -2.3923
6 30 10 -3.1556 3.9486
6 30 12 10.9801 -2.0105
6 30 14 -10.0879 1.1047
6 30 16 1.7527 -3.1189
6 30 18 -10.1795 1.4176
6 30 20 -1.6937 -2.3251
6 30 22 2.3735 0.3320
6 30 24 0.3104 1.4715
6 30 26 -3.8022 -1.2239
6 30 28 1.3081 -3.2270
6 30 30 -10.1603 3.9948
6 31 7 6.0738 -4.5322
6 31 9 20.0235 0.7395
6 31 11 4.7048 -0.6977
6 31 13 -19.9837 -2.6866
6 31 15 -14.9272 2.7883
6 31 17 -20.0628 -0.1923
6 31 19 -2.6972 0.4963
6 31 21 2.6523 -1.3256
6 31 23 -1.2056 -0.1145
6 31 25 -5.5358 -0.7736
6 31 27 17.6453 -0.9353
6 31 29 -1.8043 -1.3456
6 31 31 8.2508 4.0963
6 32 6 7.7546 6.2242
6 32 8 8.2894 0.2952
6 32 10 -3.4213 4.2651
6 32 12 0.7235 -1.3223
6 32 14 3.7667 -0.4873
6 32 16 -9.2564 0.7825
6 32 18 -4.5551 -3.4878
6 32 20 4.1893 3.7950
6 32 22 -12.1050 -1.2681
6 32 24 5.7391 0.9223
6 32 26 8.9836 3.9640
6 32 28 6.8242 -0.5040
6 32 30 -8.3526 -1.9133
6 32 32 1.8099 4.0249
6 33 7 -10.2417 1.4006
6 33 9 -3.8748 -3.7968
6 33 11 -7.3692 -1.3752
6 33 13 -10.7757 2.8086
6 33 15 -8.8664 -0.8986
6 33 17 -6.5536 0.3362
6 33 19 3.0181 0.5882
6 33 21 -3.3508 1.5705
6 33 23 -0.2913 -2.4070
6 33 25 -0.8530 -1.7288
6 33 27 -5.1674 2.1846
6 33 29 2.0474 0.4028
6 33 31 -1.0345 -2.6124
6 34 6 0.3682 11.8556
6 34 8 -13.1885 -2.6884
6 34 10 2.9287 3.4433
6 34 12 -12.5536 -0.1927
6 34 14 -2.6190 0.3989
6 34 16 -1.8681 -0.2754
6 34 18 -2.5523 0.4505
6 34 20 -6.2091 -1.3019
6 34 22 7.9631 0.5194
6 34 24 -6.8988 1.6400
6 34 26 -11.7818 -2.0651
6 34 28 4.3002 0.5702
6 34 30 0.4985 1.0547
6 35 7 21.9629 -8.3048
6 35 9 -20.9777 0.6309
6 35 11 10.2828 -1.0040
6 35 13 -7.1183 -1.7295
6 35 15 -10.4562 1.1545
6 35 17 -1.1821 0.7521
6 35 19 -5.9371 0.0956
6 35 21 -5.8538 -0.9159
6 35 23 0.2908 1.5572
6 35 25 6.6963 0.8769
6 35 27 -0.3028 -2.8317
6 35 29 -1.0181 0.8211
6 36 6 -14.8210 4.7395
6 36 8 -8.1966 -1.9739
6 36 10 -13.3313 4.3050
6 36 12 -4.5960 -2.1503
6 36 14 -1.3507 -0.2743
6 36 16 -3.7233 -0.3318
6 36 18 -0.3438 -0.7838
6 36 20 5.7939 -0.4344
6 36 22 -2.5497 -1.2727
6 36 24 -18.6867 -0.6571
6 36 26 -0.3457 0.1232
6 36 28 -5.6750 -0.8373
6 37 7 -22.4855 3.3496
6 37 9 6.4704 -3.9522
6 37 11 8.7185 0.4381
6 37 13 -8.3914 0.4510
6 37 15 1.7161 0.3565
6 37 17 -8.8947 -0.9268
6 37 19 1.5459 0.5431
6 37 21 -5.4112 1.4829
6 37 23 -1.2214 -0.7047
6 37 25 -0.8884 0.1157
6 37 27 16.4271 2.3399
6 38 6 -7.9709 11.3866
6 38 8 12.3148 0.4704
6 38 10 -7.3418 3.1226
6 38 12 -1.0671 -0.9444
6 38 14 -6.9644 1.7794
6 38 16 2.5620 -0.8521
6 38 18 -1.3228 -0.9818
6 38 20 -4.5458 1.7637
6 38 22 -2.9311 -0.8351
6 38 24 1.9294 0.6317
6 38 26 -0.5873 1.0461
6 39 7 -1.7618 -6.4036
6 39 9 -17.2460 -1.0061
6 39 11 8.7208 -1.1354
6 39 13 -14.5284 0.0665
6 39 15 0.1759 0.2084
6 39 17 1.1691 2.2133
6 39 19 3.3800 0.3399
6 39 21 4.0886 -1.1585
6 39 23 -2.5858 0.9070
6 40 6 -9.0246 5.4763
6 40 8 9.4953 -2.8727
6 40 10 -2.7813 3.8907
6 40 12 -6.7171 -1.4654
6 40 14 5.1217 -1.1149
6 40 16 0.4928 0.1816
6 40 18 -4.5840 -1.7155
6 40 20 1.8092 0.9931
6 40 22 8.9235 -0.6280
6 41 7 -13.1048 -1.9435
6 41 9 -1.6441 -0.8200
6 41 11 1.0026 -0.5787
6 41 13 -8.9498 -0.1265
6 41 15 -6.2343 1.0179
6 41 17 0.6809 -0.8814
6 41 19 0.5549 -1.4695
6 41 21 4.8271 0.4481
6 42 6 -4.6546 8.0891
6 42 8 0.0656 0.6341
6 42 10 -3.7080 2.0231
6 42 12 7.3273 -0.8208
6 42 14 3.1457 1.5553
6 42 16 -1.0301 -0.6390
6 42 18 2.5997 1.9449
6 43 7 -8.4349 -0.1161
6 43 9 -1.8540 -2.3333
6 43 11 -9.8609 -0.3423
6 43 13 -7.2634 -0.6194
6 43 15 -2.2547 -1.9183
6 43 17 -7.6736 -1.2095
6 44 6 6.0610 6.1852
6 44 8 -11.0366 -1.9577
6 44 10 6.1053 4.4680
6 44 12 10.9044 0.9270
6 44 14 1.8516 2.2013
6 45 7 3.1895 -4.4086
6 45 9 -7.5407 -3.0800
7 8 7 66.2888 -11.9277
7 9 8 13.8173 6.9787
7 10 7 -27.3209 21.7274
7 10 9 -8.2882 -3.9856
7 11 8 8.3439 7.4765
7 11 10 25.1316 3.7216
7 12 7 7.6767 -21.9072
7 12 9 7.5930 5.9338
7 12 11 -10.3195 -0.1229
7 13 8 17.6814 8.0691
7 13 10 4.4578 -12.1450
7 13 12 -1.8497 6.4427
7 14 7 22.9729 13.3327
7 14 9 -12.7944 -0.7167
7 14 11 0.9692 -3.9461
7 14 13 -8.7903 -3.6214
7 15 8 19.0482 3.6765
7 15 10 -7.1907 1.5487
7 15 12 14.3385 12.9589
7 15 14 18.3230 -8.5818
7 16 7 22.1578 -1.2309
7 16 9 -3.2973 -2.2983
7 16 11 -8.6548 1.7614
7 16 13 4.4354 -1.8296
7 16 15 9.5514 -0.1699
7 17 8 12.5593 4.3590
7 17 10 -24.1505 -11.4201
7 17 12 6.8483 0.0825
7 17 14 -16.7186 5.4677
7 17 16 5.0325 -0.6275
7 18 7 9.6805 -10.9193
7 18 9 -5.7717 8.7906
7 18 11 14.1546 -2.0341
7 18 13 3.5011 0.8143
7 18 15 5.4120 -4.8008
7 18 17 9.7864 -1.9131
7 19 8 -9.4353 9.2351
7 19 10 28.4035 -3.1116
7 19 12 2.6670 1.8245
7 19 14 -11.3511 -0.1355
7 19 16 5.6060 2.2314
7 19 18 9.3428 1.9817
7 20 7 11.7028 18.1524
7 20 9 -0.5564 -4.5210
7 20 11 6.0103 -0.7190
7 20 13 -12.5190 0.3796
7 20 15 19.5495 3.8196
7 20 17 -5.6621 -1.0575
7 20 19 7.7429 1.9335
7 21 8 62.3737 2.5852
7 21 10 -20.6672 -4.5018
7 21 12 14.1466 4.8700
7 21 14 6.3025 -6.4485
7 21 16 3.2133 1.8125
7 21 18 -17.7184 2.5922
7 21 20 -3.6816 -0.9606
7 22 7 15.9811 -20.5714
7 22 9 -5.4826 2.6663
7 22 11 -12.5582 6.4834
7 22 13 10.9986 -1.5904
7 22 15 3.5583 -4.3329
7 22 17 2.5040 2.0550
7 22 19 -0.3646 0.6243
7 22 21 -0.6151 -3.5876
7 23 8 -13.6826 5.7380
7 23 10 13.4823 -9.0127
7 23 12 5.4326 0.9742
7 23 14 -2.2584 3.2792
7 23 16 5.9091 -2.0100
7 23 18 8.3323 -0.2552
7 23 20 -10.6851 1.3797
7 23 22 -29.0218 1.1281
7 24 7 -5.0831 20.0268
7 24 9 -4.0662 -0.1557
7 24 11 11.6270 -7.4455
7 24 13 -3.4089 5.0952
7 24 15 -0.1154 1.4822
7 24 17 8.5737 -2.5607
7 24 19 -3.0122 -1.3366
7 24 21 -3.0418 4.9429
7 24 23 -8.2031 0.1865
7 25 8 -34.9185 8.2459
7 25 10 56.8689 -0.1865
7 25 12 9.9686 3.5769
7 25 14 4.6572 -6.3974
7 25 16 -2.5282 3.3803
7 25 18 -1.1372 0.8191
7 25 20 10.0486 -4.1824
7 25 22 -2.9005 4.1385
7 25 24 -26.1358 -0.3998
7 26 7 -0.9719 -15.3088
7 26 9 -0.5170 2.2917
7 26 11 -3.8446 4.9769
7 26 13 -2.5052 -2.2368
7 26 15 4.4596 -1.1342
7 26 17 0.7109 3.8480
7 26 19 2.0458 -0.8305
7 26 21 2.5014 -2.6769
7 26 23 1.1729 2.7533
7 26 25 -8.3551 0.6146
7 27 8 -35.6135 2.8175
7 27 10 -0.2930 -10.6592
7 27 12 8.4248 3.2239
7 27 14 -7.7852 2.2493
7 27 16 3.2870 -5.0624
7 27 18 -1.7137 3.6081
7 27 20 -0.3602 -0.6527
7 27 22 -2.7487 0.3406
7 27 24 -1.9958 -1.0952
7 27 26 -8.7677 1.3569
7 28 7 5.2701 7.8594
7 28 9 -5.0330 -0.5762
7 28 11 4.2981 -2.6801
7 28 13 -1.2313 0.9744
7 28 15 3.8434 1.2690
7 28 17 1.9149 -3.0196
7 28 19 10.7940 1.9827
7 28 21 -0.6676 -1.7017
7 28 23 1.4359 -0.4166
7 28 25 -4.7641 -0.0478
7 28 27 -6.4585 -0.8516
7 29 8 -0.5947 5.7348
7 29 10 -8.7154 0.9215
7 29 12 -0.1427 1.9178
7 29 14 0.0540 -3.8624
7 29 16 9.3860 3.1439
7 29 18 -1.3447 -1.4067
7 29 20 -4.7034 -1.5158
7 29 22 1.4939 1.1960
7 29 24 -3.4519 0.0465
7 29 26 -0.6506 -0.0863
7 29 28 14.5852 -0.9959
7 30 7 1.5369 0.8681
7 30 9 1.8536 0.0549
7 30 11 -0.5759 1.2536
7 30 13 3.6505 1.2221
7 30 15 4.0367 -1.4980
7 30 17 -5.7980 3.1570
7 30 19 -2.0112 -1.9469
7 30 21 2.2699 3.1166
7 30 23 -4.1033 -1.2353
7 30 25 6.2017 1.0260
7 30 27 -0.3776 3.4779
7 30 29 -4.9155 -1.1710
7 31 8 -10.4370 3.8762
7 31 10 7.4030 -7.5294
7 31 12 2.5283 2.9717
7 31 14 12.0145 0.0253
7 31 16 3.2385 -1.8998
7 31 18 3.7963 1.6864
7 31 20 3.4476 -1.1230
7 31 22 -0.0816 2.4317
7 31 24 -10.0164 -3.1631
7 31 26 2.2720 1.0518
7 31 28 3.8876 1.4593
7 31 30 3.8814 -1.5597
7 32 7 2.1774 -5.9222
7 32 9 1.9254 3.6574
7 32 11 -15.4743 -1.0042
7 32 13 -3.2312 -1.1331
7 32 15 2.8661 0.7005
7 32 17 -23.8302 -0.4941
7 32 19 1.5842 -0.2955
7 32 21 -5.6589 -1.5500
7 32 23 10.5350 1.2216
7 32 25 -1.7251 -1.3468
7 32 27 2.0552 -1.6967
7 32 29 0.5625 0.2495
7 32 31 5.8341 -0.3956
7 33 8 -7.8534 5.4345
7 33 10 10.1824 -3.0517
7 33 12 5.4007 2.0155
7 33 14 5.8243 -1.4623
7 33 16 3.7025 0.1238
7 33 18 4.2625 1.4117
7 33 20 4.2742 -2.1250
7 33 22 -22.0356 0.4703
7 33 24 -0.3315 0.3713
7 33 26 -0.1376 -1.0491
7 33 28 -0.4770 -0.3871
7 33 30 4.3191 0.2598
7 33 32 12.0131 0.0141
7 34 7 -7.3415 7.6606
7 34 9 7.3726 -2.0412
7 34 11 8.5862 -0.9072
7 34 13 -2.8562 2.3022
7 34 15 7.8204 -0.1051
7 34 17 2.2030 -1.4710
7 34 19 7.3691 2.4622
7 34 21 -10.1724 -0.7037
7 34 23 0.9927 0.8189
7 34 25 10.6804 0.5603
7 34 27 -0.8564 0.6164
7 34 29 1.1155 0.7840
7 34 31 -4.1327 0.8476
7 35 8 0.6249 3.7881
7 35 10 -4.2606 -4.0039
7 35 12 -1.4168 2.6055
7 35 14 6.9821 -0.8936
7 35 16 8.7682 0.0683
7 35 18 5.2004 -0.5338
7 35 20 7.8607 0.1276
7 35 22 -1.0600 0.1483
7 35 24 1.6269 -0.1635
7 35 26 4.6307 0.6271
7 35 28 15.8941 1.2060
7 36 7 7.4677 -6.8771
7 36 9 -7.6727 2.5734
7 36 11 1.4912 2.6139
7 36 13 2.9463 -2.4313
7 36 15 16.2727 -0.1520
7 36 17 4.7410 2.5747
7 36 19 4.0077 -2.9549
7 36 21 4.3669 2.0674
7 36 23 -3.9179 -1.6508
7 36 25 3.1405 0.4531
7 36 27 1.9860 -0.5484
7 37 8 6.7868 3.6497
7 37 10 -2.2731 -3.8330
7 37 12 12.0859 1.1988
7 37 14 14.1875 -0.8373
7 37 16 7.7361 -0.9117
7 37 18 3.0382 2.7365
7 37 20 -2.5076 -2.4725
7 37 22 1.3117 1.9597
7 37 24 2.3323 -1.0326
7 37 26 2.9963 0.0369
7 38 7 0.7222 5.1253
7 38 9 3.2868 -0.5773
7 38 11 7.1394 -3.0670
7 38 13 -5.5043 2.9050
7 38 15 2.7758 -0.1011
7 38 17 1.4306 -1.9730
7 38 19 -1.5158 1.4905
7 38 21 0.4505 -0.1142
7 38 23 2.9934 -1.1140
7 38 25 -1.1597 0.6841
7 39 8 4.7270 5.9495
7 39 10 -1.8947 -4.2599
7 39 12 -4.5915 3.1870
7 39 14 6.3078 -1.3026
7 39 16 -2.9311 0.2279
7 39 18 2.6461 0.1245
7 39 20 -0.6803 -2.0192
7 39 22 1.2274 1.9399
7 39 24 -2.3777 -2.2402
7 40 7 5.8601 -3.2100
7 40 9 -3.3349 1.4503
7 40 11 1.7850 2.4470
7 40 13 8.8889 -1.4040
7 40 15 6.5178 -0.2929
7 40 17 2.2962 1.0542
7 40 19 3.0167 0.6269
7 40 21 -2.0920 -2.1818
7 41 8 7.2315 2.9404
7 41 10 1.1190 -3.4966
7 41 12 -5.3468 0.8036
7 41 14 -1.7702 -0.4121
7 41 16 0.5688 0.6338
7 41 18 -0.6174 -0.1017
7 41 20 4.1536 1.6758
7 42 7 4.8392 1.4644
7 42 9 1.0755 -0.5814
7 42 11 -2.0010 -0.7214
7 42 13 -4.4312 0.9642
7 42 15 -2.2604 0.0693
7 42 17 -1.3263 -1.3745
7 43 8 2.4374 3.0611
7 43 10 1.6350 -2.4290
7 43 12 0.6438 1.5144
7 43 14 6.3601 -1.2215
7 43 16 -7.4019 -0.5536
7 44 7 3.8958 0.1330
7 44 9 -2.2591 0.8029
7 44 11 -5.3242 -0.2151
7 44 13 -7.6376 0.7549
7 45 8 5.4095 5.4998
8 8 8 -82.8281 -17.0465
8 9 9 -8.8722 -9.6298
8 10 8 -6.6088 2.5975
8 10 10 18.1803 2.1410
8 11 9 21.5017 2.8089
8 11 11 -14.9026 -0.9456
8 12 8 -25.2371 -24.5897
8 12 10 13.3157 21.4751
8 12 12 22.8166 -6.6112
8 13 9 -17.2904 1.0806
8 13 11 18.2388 1.9909
8 13 13 -20.7903 1.4523
8 14 8 -32.3471 0.2074
8 14 10 -8.3008 -5.2529
8 14 12 -19.1871 0.2196
8 14 14 -50.7530 7.0214
8 15 9 3.0534 -1.2552
8 15 11 -10.6949 -2.6580
8 15 13 2.1593 -1.9547
8 15 15 0.8432 0.6542
8 16 8 -2.3294 -13.6082
8 16 10 -12.4952 7.7968
8 16 12 -9.7053 -8.0788
8 16 14 18.4541 4.1871
8 16 16 2.0407 1.7234
8 17 9 -5.7955 3.7126
8 17 11 -5.7160 6.7639
8 17 13 4.8157 -1.3874
8 17 15 -7.1632 2.6582
8 17 17 22.6444 -2.4773
8 18 8 -11.2351 -12.2569
8 18 10 9.5661 5.4857
8 18 12 -7.0061 -0.4761
8 18 14 -21.0363 -1.7314
8 18 16 17.9281 3.9732
8 18 18 3.8400 1.7085
8 19 9 -2.8430 1.6132
8 19 11 11.0036 -3.1352
8 19 13 -0.7121 -0.6951
8 19 15 23.2071 -3.6880
8 19 17 0.0348 2.7558
8 19 19 3.6696 -6.0292
8 20 8 5.5199 -1.9923
8 20 10 -7.3550 0.0944
8 20 12 -4.2535 -7.7190
8 20 14 14.8204 8.7780
8 20 16 4.8914 -4.2579
8 20 18 -12.0842 -1.1294
8 20 20 16.9075 -6.8931
8 21 9 10.1473 -3.4779
8 21 11 -1.4313 5.1235
8 21 13 13.5280 -1.3593
8 21 15 7.3761 -0.1765
8 21 17 -2.3466 0.2492
8 21 19 -3.3258 -0.4851
8 21 21 8.1435 -7.7451
8 22 8 -8.1620 -22.0555
8 22 10 3.1702 11.2106
8 22 12 4.7120 -0.1758
8 22 14 -2.0665 -2.7125
8 22 16 -5.3862 2.8869
8 22 18 9.3415 3.6155
8 22 20 -11.8264 6.4305
8 22 22 -1.3935 -8.6000
8 23 9 30.3314 8.1527
8 23 11 11.4570 -1.4886
8 23 13 10.3486 -0.0529
8 23 15 14.7249 0.4275
8 23 17 7.3373 -5.1508
8 23 19 -1.2832 3.5918
8 23 21 2.1230 -1.8544
8 23 23 -8.2779 -7.3368
8 24 8 -27.3176 3.4729
8 24 10 17.6203 -4.4257
8 24 12 -16.6153 -4.3206
8 24 14 5.2847 5.3078
8 24 16 -4.8918 2.7986
8 24 18 -1.0338 -8.5662
8 24 20 3.0280 7.3542
8 24 22 -3.2160 -1.0863
8 24 24 6.3093 -5.3857
8 25 9 -30.4641 -2.4702
8 25 11 -18.0786 -0.0912
8 25 13 -11.4767 -2.9960
8 25 15 16.4189 -1.4919
8 25 17 -4.7259 2.7452
8 25 19 8.1102 -5.9870
8 25 21 14.5532 4.7897
8 25 23 -7.4666 -2.6708
8 25 25 -3.1096 -4.6628
8 26 8 -3.6444 -19.8653
8 26 10 -3.3774 12.8210
8 26 12 9.5368 -4.0554
8 26 14 6.1997 2.4696
8 26 16 -5.5008 -1.7157
8 26 18 3.3714 5.9579
8 26 20 3.2974 -3.8167
8 26 22 4.2626 1.4884
8 26 24 0.5502 3.9279
8 26 26 4.0763 -0.4991
8 27 9 -28.9838 0.9886
8 27 11 -0.5017 5.5023
8 27 13 1.6983 -2.3135
8 27 15 -4.2751 0.8364
8 27 17 10.7991 -3.7803
8 27 19 -10.9047 3.5005
8 27 21 1.2871 -5.5983
8 27 23 9.7319 2.9701
8 27 25 14.5492 -0.5327
8 27 27 -1.1228 -1.5975
8 28 8 -2.5169 -1.9162
8 28 10 -14.2275 0.0140
8 28 12 -7.8840 -2.4164
8 28 14 4.8520 3.3932
8 28 16 2.3381 3.6057
8 28 18 1.6913 -4.9480
8 28 20 -11.4821 7.4620
8 28 22 10.7944 -2.9354
8 28 24 -5.8301 1.3380
8 28 26 -2.1177 2.1035
8 28 28 1.5917 1.9318
8 29 9 -3.9234 1.7265
8 29 11 -3.1110 -4.9079
8 29 13 -9.6840 0.2581
8 29 15 1.1351 -3.3909
8 29 17 -6.4724 0.6257
8 29 19 1.1837 -2.2097
8 29 21 -4.3446 1.5337
8 29 23 -12.4937 -2.5285
8 29 25 1.0197 -0.0013
8 29 27 -13.5809 -1.1920
8 29 29 2.9697 0.8820
8 30 8 -7.2697 -10.5258
8 30 10 6.8511 6.1023
8 30 12 -3.1491 -3.2217
8 30 14 2.4442 2.0164
8 30 16 -6.8458 0.9806
8 30 18 0.0306 0.1629
8 30 20 -10.8342 1.1432
8 30 22 -6.7286 -1.5864
8 30 24 2.5530 1.7753
8 30 26 2.0100 -2.3717
8 30 28 -8.5933 0.6496
8 30 30 4.7551 1.9804
8 31 9 0.7290 -0.5757
8 31 11 -3.6329 3.3918
8 31 13 7.0002 -2.0227
8 31 15 -6.6142 0.5672
8 31 17 5.0451 -3.8971
8 31 19 -0.4635 0.2868
8 31 21 -1.1437 -1.3414
8 31 23 0.1846 -1.5037
8 31 25 -0.4968 1.4237
8 31 27 -2.6449 -2.2720
8 31 29 -8.6918 -1.2064
8 31 31 6.4725 1.3062
8 32 8 -13.1050 -8.5659
8 32 10 -7.1242 3.1157
8 32 12 13.6418 -0.5607
8 32 14 0.1438 2.4913
8 32 16 5.9218 2.7820
8 32 18 4.1513 1.1768
8 32 20 -11.1495 2.7360
8 32 22 11.6506 0.6020
8 32 24 1.2994 1.1928
8 32 26 2.1744 2.4895
8 32 28 7.4330 -0.0779
8 32 30 2.9237 4.6043
8 32 32 -3.5611 -0.7944
8 33 9 9.0602 3.8185
8 33 11 -7.1635 0.2065
8 33 13 -0.6216 -2.6725
8 33 15 3.9067 -2.1506
8 33 17 2.9645 0.4446
8 33 19 -1.6460 -2.6998
8 33 21 3.9484 -1.2621
8 33 23 -2.5848 1.9592
8 33 25 -0.2113 -1.5997
8 33 27 1.2864 0.2920
8 33 29 1.0494 -1.4999
8 33 31 0.2375 0.4100
8 34 8 3.0444 -4.4459
8 34 10 -4.1890 3.3756
8 34 12 5.4983 -4.4313
8 34 14 -0.4104 3.7315
8 34 16 -1.8597 0.1832
8 34 18 -1.6466 -1.0094
8 34 20 10.4457 3.2048
8 34 22 -2.9902 -2.2100
8 34 24 4.0543 0.9345
8 34 26 -2.2098 -1.1329
8 34 28 1.5665 1.0078
8 34 30 8.7949 -0.8250
8 35 9 6.8985 -4.7248
8 35 11 -1.4500 0.6646
8 35 13 7.5725 -0.2932
8 35 15 16.7983 -0.9697
8 35 17 -0.6759 -2.3095
8 35 19 -5.9273 0.2339
8 35 21 11.8513 -0.9548
8 35 23 1.4397 -2.7186
8 35 25 -0.4604 -0.8927
8 35 27 -4.0553 -0.6013
8 35 29 -6.8529 -1.2260
8 36 8 0.7688 -10.7574
8 36 10 -7.1212 4.8678
8 36 12 5.7503 -1.0209
8 36 14 -5.9155 1.1765
8 36 16 -1.9920 2.6348
8 36 18 -10.0332 -0.0815
8 36 20 14.2635 3.4208
8 36 22 -0.2823 0.4156
8 36 24 4.8342 2.8416
8 36 26 -0.5400 1.4830
8 36 28 -0.4568 0.2488
8 37 9 -1.0064 5.9901
8 37 11 14.2754 0.2909
8 37 13 5.5128 -0.7568
8 37 15 5.5315 -1.4873
8 37 17 -1.6457 -0.4800
8 37 19 -10.0482 -2.0956
8 37 21 0.2291 -2.4803
8 37 23 2.9278 0.6163
8 37 25 -2.5365 -0.7973
8 37 27 -13.1044 -1.4665
8 38 8 16.9144 -4.3660
8 38 10 13.1132 2.6231
8 38 12 -1.0406 -3.1356
8 38 14 -0.6722 2.6133
8 38 16 -1.9009 1.9146
8 38 18 1.5024 -0.5975
8 38 20 -13.1711 3.1612
8 38 22 1.0847 -0.4713
8 38 24 2.2318 0.5234
8 39 9 8.0937 -2.0520
8 39 11 3.0916 -0.1290
8 39 13 9.1854 -1.4922
8 39 15 1.4211 -0.8459
8 39 17 -3.0476 -2.2434
8 39 19 10.1953 -0.9224
8 39 21 -7.7716 0.6063
8 39 23 -4.3498 -1.2950
8 40 8 10.4023 -9.0973
8 40 10 8.0436 3.8057
8 40 12 -1.3756 -0.9609
8 40 14 6.4891 0.9917
8 40 16 1.2577 1.4265
8 40 18 4.6488 1.5282
8 40 20 0.8731 0.1227
8 40 22 -0.2084 -1.4316
8 41 9 1.1386 0.9526
8 41 11 6.3553 1.3188
8 41 13 3.6015 -1.2562
8 41 15 12.3754 -0.6681
8 41 17 3.0001 -1.0339
8 41 19 0.5715 0.0271
8 42 8 -3.0711 -4.7239
8 42 10 4.5066 3.8416
8 42 12 -3.1837 -3.0375
8 42 14 -2.4982 2.7502
8 42 16 8.6688 0.9840
8 42 18 -1.4951 -3.0081
8 43 9 -0.4133 1.7805
8 43 11 2.7017 -0.4998
8 43 13 -2.6665 0.8923
8 43 15 7.1385 -0.2332
8 44 8 -6.3724 -7.1064
8 44 10 -0.1792 2.5678
8 44 12 -9.2009 -4.1372
8 45 9 4.0286 -0.5816
9 10 9 26.5583 16.6090
9 11 10 -32.3522 -11.3006
9 12 9 -10.5988 -16.4269
9 12 11 1.2134 -0.4265
9 13 10 -15.3385 -9.9929
9 13 12 7.1097 0.0317
9 14 9 10.7645 9.5413
9 14 11 20.4957 4.7208
9 14 13 -1.2958 -2.4011
9 15 10 4.1778 -4.5912
9 15 12 -4.1427 -0.5281
9 15 14 0.2291 1.3565
9 16 9 -14.6590 -1.6238
9 16 11 -0.4135 -1.4795
9 16 13 3.0630 6.4362
9 16 15 -7.1820 -2.8885
9 17 10 3.5654 -7.9339
9 17 12 -2.2921 5.2427
9 17 14 -9.4339 -13.4896
9 17 16 -10.8599 1.6237
9 18 9 3.4221 -5.3370
9 18 11 12.3917 -3.6049
9 18 13 -11.8458 2.2293
9 18 15 -3.7037 2.6258
9 18 17 -4.7719 -4.8966
9 19 10 4.3975 -1.7204
9 19 12 -19.5045 6.3305
9 19 14 12.2605 0.0210
9 19 16 -10.2169 -2.1041
9 19 18 -12.4490 -1.0167
9 20 9 4.7075 9.8380
9 20 11 17.0580 2.0901
9 20 13 3.2559 -2.6688
9 20 15 -7.4490 -0.0933
9 20 17 -12.4993 5.4648
9 20 19 -2.4837 1.6415
9 21 10 -13.3357 -8.8921
9 21 12 0.1477 3.9848
9 21 14 -3.2231 0.1881
9 21 16 -0.8944 -2.3348
9 21 18 6.4239 0.9381
9 21 20 -0.3139 -3.4969
9 22 9 -14.2440 -12.3129
9 22 11 18.7151 -7.6726
9 22 13 -18.9350 3.5665
9 22 15 -11.7758 1.1637
9 22 17 3.3202 -5.4230
9 22 19 -1.6213 -1.8066
9 22 21 -1.5702 -1.1112
9 23 10 2.3762 -2.3714
9 23 12 -6.3912 3.0970
9 23 14 -6.0104 -4.3538
9 23 16 -5.2007 2.2522
9 23 18 -1.9025 2.1391
9 23 20 3.7007 -4.5625
9 23 22 23.7701 1.7573
9 24 9 15.6131 12.7712
9 24 11 -13.1595 4.7540
9 24 13 -13.1170 -4.4576
9 24 15 11.9580 -1.0110
9 24 17 -9.2375 5.1244
9 24 19 7.9600 1.1446
9 24 21 1.7795 -1.7789
9 24 23 9.6099 3.8086
9 25 10 -2.2491 -7.3048
9 25 12 2.8808 8.8936
9 25 14 1.7840 0.8915
9 25 16 0.1700 -2.4308
9 25 18 3.7419 1.7080
9 25 20 -7.5609 -0.8601
9 25 22 0.2948 -0.0563
9 25 24 8.3123 -1.2749
9 26 9 -4.1283 -10.7225
9 26 11 2.8751 -5.8348
9 26 13 -6.0191 4.9533
9 26 15 -15.2200 -2.6211
9 26 17 -3.7369 -1.6829
9 26 19 -4.1400 -0.0179
9 26 21 0.5871 1.6058
9 26 23 -1.9836 -2.8564
9 26 25 17.1345 -1.4776
9 27 10 18.7452 -4.9709
9 27 12 22.1722 -0.9154
9 27 14 -8.1930 -2.7812
9 27 16 11.7580 1.8674
9 27 18 -1.2895 1.3390
9 27 20 1.1123 -2.8812
9 27 22 7.2125 3.5643
9 27 24 2.8543 -2.6981
9 27 26 8.9721 -1.6817
9 28 9 0.5614 5.3499
9 28 11 4.7893 2.3801
9 28 13 -0.7900 -2.4574
9 28 15 -3.8322 -0.4668
9 28 17 2.2053 0.8558
9 28 19 -5.1941 -1.9557
9 28 21 -5.0707 0.0790
9 28 23 4.9078 0.8536
9 28 25 -1.5847 -1.4320
9 28 27 4.9923 -0.5305
9 29 10 6.8892 -6.2532
9 29 12 -7.2361 8.6983
9 29 14 3.4987 -0.4555
9 29 16 2.3512 -0.5821
9 29 18 -3.2479 2.4236
9 29 20 8.5916 -2.5902
9 29 22 -8.2156 1.8519
9 29 24 3.7566 -1.0292
9 29 26 -3.7533 0.7570
9 29 28 2.5513 -0.3199
9 30 9 8.5133 0.2014
9 30 11 -4.6601 -2.5705
9 30 13 4.7936 1.1352
9 30 15 -27.1002 0.0024
9 30 17 5.2620 -0.1840
9 30 19 8.9794 1.9307
9 30 21 -5.2594 -0.8434
9 30 23 -0.5165 1.9190
9 30 25 3.4719 0.5218
9 30 27 4.8962 -0.3294
9 30 29 18.2444 0.2611
9 31 10 17.5731 -3.7344
9 31 12 -11.3547 0.0645
9 31 14 -1.4051 -0.9478
9 31 16 -1.7234 -0.5421
9 31 18 5.4192 1.6047
9 31 20 -7.0673 -1.6786
9 31 22 2.2201 1.5344
9 31 24 -3.5584 0.6137
9 31 26 -0.4173 -0.2125
9 31 28 -6.5506 1.4318
9 31 30 -0.3257 -3.0843
9 32 9 -5.4802 -4.0375
9 32 11 -5.8236 -0.1545
9 32 13 -9.8361 0.4415
9 32 15 -13.3283 -1.6450
9 32 17 -1.4186 -0.9581
9 32 19 -9.5702 -0.8493
9 32 21 15.6486 -0.6217
9 32 23 -10.0154 -2.4614
9 32 25 -0.5053 -1.3262
9 32 27 -3.3596 -0.3666
9 32 29 0.7708 -1.5445
9 32 31 -0.9629 -2.2264
9 33 10 -7.6308 -5.4408
9 33 12 -4.3791 4.8114
9 33 14 -17.0479 -1.7168
9 33 16 8.5869 0.7876
9 33 18 4.9539 1.1994
9 33 20 19.3945 -1.8541
9 33 22 17.4801 2.6831
9 33 24 -7.2784 -2.7562
9 33 26 0.8297 1.0798
9 33 28 0.5005 0.6911
9 33 30 -2.9983 -3.0949
9 34 9 5.3066 5.6914
9 34 11 -10.7306 0.0986
9 34 13 2.3788 -0.7817
9 34 15 -4.6658 0.2320
9 34 17 -5.2781 2.5013
9 34 19 -4.6434 -1.5752
9 34 21 7.0427 2.3691
9 34 23 -13.8719 0.1357
9 34 25 -2.8818 1.4121
9 34 27 -3.3186 0.8706
9 34 29 -3.9445 1.2095
9 35 10 1.8610 -4.2929
9 35 12 -12.5514 3.7960
9 35 14 -6.3603 -0.4129
9 35 16 5.2642 -1.3356
9 35 18 -5.1907 2.5371
9 35 20 -6.6232 -2.8910
9 35 22 -3.9280 2.5318
9 35 24 -7.2634 -0.4913
9 35 26 -4.7213 0.5118
9 35 28 -0.0220 -0.5052
9 36 9 -6.5846 -5.8350
9 36 11 6.6665 -2.3745
9 36 13 -13.8977 1.8277
9 36 15 -13.9478 -1.0222
9 36 17 -2.9279 -2.4789
9 36 19 1.0259 1.7910
9 36 21 -3.7644 -2.8117
9 36 23 -3.1538 0.5650
9 36 25 9.8230 -0.8126
9 36 27 -2.4049 -1.0032
9 37 10 -2.1998 -4.7911
9 37 12 2.3411 1.4189
9 37 14 -22.2597 -0.9496
9 37 16 -6.7738 0.0816
9 37 18 -3.1863 0.8476
9 37 20 -0.2077 -0.4946
9 37 22 3.5493 0.7408
9 37 24 -0.2702 -1.5443
9 37 26 -15.1504 -0.6027
9 38 9 -2.6938 4.3081
9 38 11 -0.3076 1.3325
9 38 13 3.1503 -2.0676
9 38 15 15.1204 0.7791
9 38 17 -2.1801 1.1107
9 38 19 -0.4630 -0.8428
9 38 21 -3.9709 0.2050
9 38 23 1.3926 1.3745
9 38 25 -0.6664 -1.1536
9 39 10 -6.0751 -3.6829
9 39 12 -6.7673 4.9038
9 39 14 4.8635 -1.2966
9 39 16 1.4188 -0.2218
9 39 18 2.4842 1.2179
9 39 20 -2.0100 -1.2420
9 39 22 -2.0419 0.6639
9 40 9 -1.0460 -2.7465
9 40 11 -0.7192 -2.2045
9 40 13 1.2725 2.1600
9 40 15 -1.2040 -0.9540
9 40 17 -0.1587 0.3554
9 40 19 6.0085 -0.5658
9 40 21 -0.5493 2.2375
9 41 10 -2.9151 -3.9230
9 41 12 4.0559 1.9912
9 41 14 4.3293 -0.7098
9 41 16 0.9030 -1.7799
9 41 18 -2.3420 2.1533
9 41 20 -5.0727 -3.4994
9 42 9 -0.5414 0.9361
9 42 11 2.6519 -0.3952
9 42 13 -7.0718 -1.3184
9 42 15 -1.2496 -0.0252
9 42 17 -10.1957 1.0021
9 43 10 14.3551 -5.2507
9 43 12 1.4039 4.0497
9 43 14 -11.3818 -1.6076
9 44 9 -7.9422 0.4907
9 44 11 2.7239 0.0460
10 10 10 -8.4868 21.3866
10 11 11 4.9109 3.3782
10 12 10 -32.7924 -1.5583
10 12 12 25.4394 -10.7614
10 13 11 -30.3351 -0.6147
10 13 13 14.7282 -8.6952
10 14 10 -7.1279 12.3527
10 14 12 -0.1964 -4.6299
10 14 14 -6.7655 -9.9461
10 15 11 2.6913 0.0346
10 15 13 4.9921 4.0440
10 15 15 11.1014 -13.9092
10 16 10 20.1984 9.6423
10 16 12 6.5722 -8.8765
10 16 14 -7.5984 7.5258
10 16 16 3.1305 -15.2081
10 17 11 4.7275 3.0830
10 17 13 -2.1062 1.2994
10 17 15 1.3525 8.0450
10 17 17 -10.7862 -9.3736
10 18 10 -16.2476 0.5939
10 18 12 0.5286 -3.1656
10 18 14 3.0706 3.2155
10 18 16 1.7233 1.7950
10 18 18 -8.3800 -3.0651
10 19 11 -2.6765 -1.0267
10 19 13 2.5809 -1.7682
10 19 15 -6.6313 1.6743
10 19 17 -4.1115 0.2165
10 19 19 -0.2645 1.3517
10 20 10 -3.9858 19.8932
10 20 12 6.7630 -10.8808
10 20 14 -5.6052 -3.1636
10 20 16 3.5041 -0.7148
10 20 18 7.4487 -5.3389
10 20 20 0.6405 5.9135
10 21 11 24.0024 1.2511
10 21 13 -11.4210 2.7503
10 21 15 -3.0298 -0.0497
10 21 17 6.7953 3.1815
10 21 19 2.6879 -1.8682
10 21 21 -6.7764 9.9098
10 22 10 10.9063 -5.6628
10 22 12 -2.1203 2.0699
10 22 14 2.6166 4.2096
10 22 16 -5.3260 -2.4993
10 22 18 -2.2421 -0.8004
10 22 20 3.7162 -0.7813
10 22 22 4.4156 14.2687
10 23 11 -19.2937 1.5065
10 23 13 -8.2376 0.1251
10 23 15 13.6910 3.0329
10 23 17 -3.1451 2.8014
10 23 19 23.8654 -0.2965
10 23 21 7.7279 -1.0947
10 23 23 46.3241 11.2434
10 24 10 -12.4500 21.5201
10 24 12 2.4317 -11.8104
10 24 14 6.1416 -1.8092
10 24 16 -7.5232 -3.0512
10 24 18 -0.5287 -0.3417
10 24 20 1.3039 -4.1396
10 24 22 -0.9994 -8.7145
10 24 24 1.8390 10.5067
10 25 11 7.0125 -1.1891
10 25 13 11.8710 -2.0402
10 25 15 -1.3462 2.7108
10 25 17 1.1781 -1.6120
10 25 19 1.5462 6.1962
10 25 21 -2.6437 -1.4420
10 25 23 16.2295 -1.8154
10 25 25 14.6662 5.2080
10 26 10 10.5727 -2.4723
10 26 12 10.6150 0.5785
10 26 14 -3.4521 2.5066
10 26 16 8.3753 -0.1995
10 26 18 0.9058 -7.9851
10 26 20 -0.1374 8.1289
10 26 22 -5.3282 -5.2022
10 26 24 2.9342 0.2158
10 26 26 -5.2834 1.0542
10 27 11 7.2665 -0.5098
10 27 13 -1.4685 5.0380
10 27 15 -7.2346 1.1878
10 27 17 3.1154 2.8693
10 27 19 4.3224 -1.8172
10 27 21 0.3380 5.2488
10 27 23 -4.7936 -1.8811
10 27 25 -1.1114 2.6063
10 27 27 -4.4605 -3.0230
10 28 10 17.6257 12.6554
10 28 12 -7.3643 -7.7596
10 28 14 0.9329 -0.7658
10 28 16 -5.4957 -1.6183
10 28 18 -2.1909 1.8021
10 28 20 3.1880 -4.5824
10 28 22 -4.4549 0.0390
10 28 24 -5.8447 -0.5744
10 28 26 1.6166 0.6737
10 28 28 5.4510 -7.3188
10 29 11 -0.6773 2.7641
10 29 13 3.0273 -4.7174
10 29 15 2.7458 3.6290
10 29 17 6.0210 -1.2485
10 29 19 1.0170 2.9929
10 29 21 11.2566 0.3669
10 29 23 12.2500 2.8267
10 29 25 4.5770 0.1995
10 29 27 5.1076 2.9628
10 29 29 -5.1504 -7.0776
10 30 10 9.4314 4.1475
10 30 12 -14.9448 -3.5062
10 30 14 -10.0497 0.6260
10 30 16 2.5043 -1.1318
10 30 18 2.1885 -5.6775
10 30 20 5.0865 2.0903
10 30 22 0.0995 -5.4340
10 30 24 -0.3304 -1.5943
10 30 26 -6.4971 -0.9691
10 30 28 -0.5215 -0.4676
10 30 30 6.1757 -7.6568
10 31 11 8.0667 -0.9363
10 31 13 -2.0067 3.5002
10 31 15 -5.4967 0.4928
10 31 17 2.2930 3.8178
10 31 19 -0.2485 0.3173
10 31 21 -11.5068 0.9835
10 31 23 -3.9402 2.0777
10 31 25 -1.0015 -0.6990
10 31 27 3.2739 1.5386
10 31 29 -3.8319 4.3272
10 31 31 1.2292 -6.9633
10 32 10 3.4956 7.3016
10 32 12 -1.5406 -5.1230
10 32 14 -18.5574 1.0207
10 32 16 1.1526 -1.9050
10 32 18 -13.1353 -1.2291
10 32 20 -25.2353 2.0404
10 32 22 -9.0143 -2.7185
10 32 24 1.9505 3.3476
10 32 26 1.6576 -2.6810
10 32 28 0.5240 -0.2968
10 32 30 -6.4671 3.8459
10 32 32 3.9949 -3.9138
10 33 11 -7.4328 0.7701
10 33 13 10.6826 2.6558
10 33 15 1.5336 2.2073
10 33 17 2.2263 -1.4459
10 33 19 -1.1062 3.1098
10 33 21 2.6589 1.6237
10 33 23 -2.1233 -0.8419
10 33 25 4.6780 3.7776
10 33 27 -4.0161 0.0889
10 33 29 1.0973 1.4707
10 33 31 4.8377 2.1238
10 34 10 -9.6696 7.1630
10 34 12 2.1193 -4.8223
10 34 14 -6.2935 -2.0034
10 34 16 -7.4037 -0.0164
10 34 18 3.9145 -4.3528
10 34 20 -6.9099 -0.6734
10 34 22 6.6946 -3.8788
10 34 24 -3.0269 -1.3872
10 34 26 0.6344 -1.4819
10 34 28 -2.3311 -4.1115
10 34 30 0.1015 -0.5264
10 35 11 -8.8895 -0.8091
10 35 13 -2.0444 -2.7748
10 35 15 8.3518 2.3602
10 35 17 -0.7102 3.1002
10 35 19 -3.0634 -0.5646
10 35 21 6.1975 2.0537
10 35 23 3.0245 2.0123
10 35 25 -1.4716 -0.1744
10 35 27 1.3361 0.8286
10 35 29 2.9265 1.3818
10 36 10 9.1129 3.8776
10 36 12 -2.8990 -2.0694
10 36 14 6.3824 2.0919
10 36 16 6.1530 -2.4433
10 36 18 15.6046 -1.3304
10 36 20 15.1409 1.0285
10 36 22 1.4537 -2.4764
10 36 24 -1.1394 -0.1890
10 36 26 -3.0437 0.5951
10 37 11 2.1332 1.7910
10 37 13 -16.0396 3.3575
10 37 15 -2.6212 1.4147
10 37 17 -0.5531 -0.0107
10 37 19 9.6240 3.1206
10 37 21 2.4575 1.1703
10 37 23 -4.4096 1.2244
10 37 25 -0.6277 0.4654
10 38 10 -9.4282 9.4283
10 38 12 -15.5297 -5.5725
10 38 14 1.8936 -1.7042
10 38 16 6.9813 -0.1011
10 38 18 -0.6195 -3.3536
10 38 20 -2.7784 -0.8996
10 38 22 2.0748 -2.7190
10 38 24 -2.6789 1.6022
10 39 11 -3.8801 -1.2071
10 39 13 -2.1073 -1.1797
10 39 15 3.7762 1.5370
10 39 17 0.6696 2.1542
10 39 19 8.3353 0.7228
10 39 21 -2.2527 1.3827
10 39 23 1.7549 -0.9640
10 40 10 -18.8377 1.8919
10 40 12 -5.3686 -2.4845
10 40 14 -10.9102 2.1416
10 40 16 -1.6696 -2.4044
10 40 18 3.8100 -3.2464
10 40 20 5.4453 1.9781
10 41 11 -6.9662 0.4361
10 41 13 1.2361 2.0714
10 41 15 -1.2122 0.7003
10 41 17 -10.0267 1.2183
10 41 19 2.7959 0.9335
10 42 10 -1.9296 8.4961
10 42 12 3.2364 -4.3538
10 42 14 1.0005 -0.1602
10 42 16 -3.6553 0.2061
10 43 11 8.6613 2.2198
10 43 13 -5.7850 -2.2102
10 44 10 -2.7962 2.0298
11 12 11 8.1275 -1.4312
11 13 12 -28.6053 11.5408
11 14 11 -15.1354 -0.2995
11 14 13 13.9439 4.4163
11 15 12 3.7160 12.0307
11 15 14 -1.3504 -1.2907
11 16 11 0.1242 0.8346
11 16 13 -14.7437 -4.0364
11 16 15 9.6374 2.0076
11 17 12 -10.2654 2.8580
11 17 14 13.0410 0.1612
11 17 16 13.7484 0.9003
11 18 11 -12.8905 -1.7720
11 18 13 14.1788 -2.4038
11 18 15 0.8946 -1.9826
11 18 17 6.7911 0.5507
11 19 12 10.7419 10.3227
11 19 14 -2.7050 -5.3387
11 19 16 -0.0755 5.1889
11 19 18 10.4922 2.8117
11 20 11 26.2116 2.6140
11 20 13 3.7730 6.0246
11 20 15 -0.9528 -1.5421
11 20 17 18.3813 0.8166
11 20 19 -1.5041 5.1583
11 21 12 -10.3049 0.9813
11 21 14 7.2124 -2.9985
11 21 16 5.3429 1.4961
11 21 18 -0.8942 -1.1731
11 21 20 -1.8082 2.5315
11 22 11 -12.3706 -3.3635
11 22 13 -2.4069 -4.4001
11 22 15 18.5942 0.0022
11 22 17 -16.7333 -0.5307
11 22 19 5.8635 -3.1794
11 22 21 0.7488 -1.7095
11 23 12 10.4033 7.1465
11 23 14 3.5801 -5.1645
11 23 16 -4.0144 1.0666
11 23 18 6.2559 0.6688
11 23 20 -6.5248 -1.6403
11 23 22 -7.3738 4.2116
11 24 11 -0.4391 3.3982
11 24 13 14.0136 7.6923
11 24 15 -3.1452 -1.5446
11 24 17 0.9777 -0.0066
11 24 19 5.4867 3.1091
11 24 21 -9.8835 1.4367
11 24 23 -3.7002 1.1570
11 25 12 19.2346 3.4942
11 25 14 -8.5421 0.4480
11 25 16 3.6703 -0.6205
11 25 18 14.6907 1.8745
11 25 20 11.4257 -2.3324
11 25 22 -12.1824 3.1918
11 25 24 -7.0576 0.1725
11 26 11 -5.5280 -2.8730
11 26 13 -9.2441 -5.0397
11 26 15 5.0164 2.5698
11 26 17 6.2633 -0.2349
11 26 19 -2.5504 -1.5108
11 26 21 -2.3834 -1.7692
11 26 23 5.3509 1.1652
11 26 25 -10.8562 -2.0379
11 27 12 -12.1618 3.7591
11 27 14 12.3477 -6.9199
11 27 16 -5.2900 1.9211
11 27 18 11.6641 -1.0332
11 27 20 2.9155 -1.3215
11 27 22 -8.0688 1.3896
11 27 24 2.6564 -0.1971
11 27 26 -4.9085 1.1951
11 28 11 -3.6529 2.2922
11 28 13 1.6272 4.6726
11 28 15 -1.4422 -2.1398
11 28 17 3.9634 1.9190
11 28 19 10.3982 -0.1848
11 28 21 6.4792 -0.1808
11 28 23 -10.2504 -0.7153
11 28 25 -0.2369 1.1313
11 28 27 -8.2284 0.5977
11 29 12 3.7260 6.1750
11 29 14 7.0145 -0.5751
11 29 16 4.9630 -2.2349
11 29 18 0.4615 3.7472
11 29 20 -11.5369 -2.7205
11 29 22 2.5410 1.2132
11 29 24 -5.9221 -1.6502
11 29 26 -0.5760 0.3446
11 29 28 -16.7278 3.1107
11 30 11 -1.3529 -1.3139
11 30 13 7.5146 -0.0827
11 30 15 1.2318 0.8311
11 30 17 7.1518 0.0705
11 30 19 -9.8912 0.5680
11 30 21 -3.5663 2.1481
11 30 23 3.7434 0.4858
11 30 25 -3.1889 -0.3470
11 30 27 -3.8671 2.0509
11 30 29 -3.5456 2.4371
11 31 12 -6.2406 3.7524
11 31 14 3.4242 -3.0989
11 31 16 2.1020 0.8116
11 31 18 -2.8741 -0.8705
11 31 20 4.7715 -1.3287
11 31 22 3.4485 2.3368
11 31 24 1.5880 -2.0235
11 31 26 3.2033 0.6428
11 31 28 0.1131 -0.4385
11 31 30 15.9415 1.0918
11 32 11 -5.5721 0.0956
11 32 13 3.0652 -0.9324
11 32 15 7.7095 0.2909
11 32 17 -6.1848 0.6924
11 32 19 6.0023 -1.7786
11 32 21 -15.5569 -1.7461
11 32 23 -0.3137 0.5874
11 32 25 1.5070 -0.7595
11 32 27 -3.5672 -1.3495
11 32 29 0.1150 -0.9927
11 32 31 1.8988 -0.5133
11 33 12 1.0252 3.7934
11 33 14 -5.6895 -3.7062
11 33 16 8.2676 -0.1013
11 33 18 -5.0161 2.6779
11 33 20 -1.2378 -3.0660
11 33 22 -12.6401 1.2540
11 33 24 3.9359 -1.0696
11 33 26 -2.3490 -0.7861
11 33 28 -3.8395 0.1443
11 33 30 10.4806 0.8859
11 34 11 2.9759 1.3073
11 34 13 2.4488 3.1038
11 34 15 9.7795 0.1700
11 34 17 5.8631 -0.9899
11 34 19 2.2261 3.1209
11 34 21 2.4148 0.6610
11 34 23 4.2367 1.0059
11 34 25 -7.4835 1.4081
11 34 27 2.3936 0.9804
11 34 29 0.4163 -0.6647
11 35 12 2.6013 5.1422
11 35 14 12.3660 -0.7432
11 35 16 -13.8747 -0.1471
11 35 18 1.4762 0.3468
11 35 20 1.4433 -1.6636
11 35 22 10.8532 2.1540
11 35 24 -6.4212 -1.8700
11 35 26 -2.4977 0.8739
11 35 28 3.5265 3.1493
11 36 11 -21.6977 -2.4453
11 36 13 -3.3101 -2.1919
11 36 15 18.3018 -0.0097
11 36 17 2.7563 1.2596
11 36 19 -2.9281 -2.1964
11 36 21 4.8014 0.1682
11 36 23 -1.7695 -0.7313
11 36 25 6.2989 -1.7002
11 36 27 -2.2655 -0.3090
11 37 12 -2.9293 3.5735
11 37 14 1.0336 -4.5889
11 37 16 -2.3044 0.5606
11 37 18 1.6506 0.6451
11 37 20 4.3499 -1.4596
11 37 22 -6.0947 1.0473
11 37 24 5.4469 0.0508
11 37 26 -6.9174 0.0130
11 38 11 4.4804 2.8288
11 38 13 -5.5221 3.0547
11 38 15 -3.2427 -1.0143
11 38 17 1.2990 0.9436
11 38 19 0.8429 0.1558
11 38 21 -4.7862 0.6406
11 38 23 -1.3518 -0.8290
11 39 12 8.2824 3.0650
11 39 14 -5.2316 0.6523
11 39 16 6.1839 -0.8275
11 39 18 -9.2662 1.9858
11 39 20 -1.0394 -2.1014
11 39 22 1.1025 1.4352
11 40 11 5.5095 -2.3450
11 40 13 -0.1073 -1.6546
11 40 15 0.2469 1.3077
11 40 17 -5.0838 -1.5711
11 40 19 0.6290 0.6421
11 40 21 -6.6125 -0.8081
11 41 12 8.0179 4.1092
11 41 14 12.0678 -3.9087
11 41 16 1.2072 1.9920
11 41 18 -3.7099 -0.0620
11 42 11 -6.9234 1.4480
11 42 13 1.2964 1.9541
11 42 15 -2.7751 -1.5948
11 43 12 2.6872 2.1781
11 43 14 -4.2918 -1.9705
12 12 12 8.2921 -6.4778
12 13 13 -11.9004 11.2400
12 14 12 -6.8445 -11.9186
12 14 14 10.0288 20.3724
12 15 13 -4.2554 -4.6478
12 15 15 -8.9471 19.1204
12 16 12 -2.0603 1.3759
12 16 14 -1.0806 -3.9581
12 16 16 3.2895 13.5917
12 17 13 7.1974 -0.8858
12 17 15 -1.6298 -7.7035
12 17 17 -0.5503 16.4772
12 18 12 5.7345 -17.3628
12 18 14 0.9355 14.2980
12 18 16 1.1215 -8.9407
12 18 18 -9.5916 9.5784
12 19 13 -12.2745 -3.2725
12 19 15 5.2052 -1.0636
12 19 17 7.6381 -5.4730
12 19 19 -5.8459 3.9005
12 20 12 -11.6797 3.8169
12 20 14 -2.6237 2.7520
12 20 16 -4.4613 -0.9615
12 20 18 -12.3109 -2.2344
12 20 20 -13.3912 -4.8448
12 21 13 7.2084 -0.8458
12 21 15 10.5423 0.8356
12 21 17 -4.4337 -1.2960
12 21 19 9.5380 0.3065
12 21 21 11.7052 -7.7230
12 22 12 1.4631 -14.4320
12 22 14 10.2883 7.1616
12 22 16 14.5642 1.5473
12 22 18 0.5664 3.5314
12 22 20 2.1784 7.7733
12 22 22 -3.0051 -11.9485
12 23 13 9.7804 -1.4576
12 23 15 -8.3757 -2.8280
12 23 17 -5.2425 -0.8118
12 23 19 12.0537 -3.1741
12 23 21 -10.2146 4.5926
12 23 23 18.9818 -11.1483
12 24 12 6.8084 -2.7471
12 24 14 -22.0431 6.6656
12 24 16 8.4668 -3.8405
12 24 18 2.5007 0.5553
12 24 20 -7.5044 1.1878
12 24 22 -3.7118 1.8528
12 24 24 2.6103 -10.3491
12 25 13 -8.2208 -1.7744
12 25 15 -0.6756 -0.4750
12 25 17 8.4268 -3.0040
12 25 19 -4.4021 -2.3968
12 25 21 6.7990 -1.8642
12 25 23 -7.4136 3.2689
12 25 25 -16.4892 -4.5950
12 26 12 -9.3042 -6.3252
12 26 14 6.7283 0.9821
12 26 16 -0.8777 5.1781
12 26 18 -3.9552 2.2747
12 26 20 3.4442 0.7188
12 26 22 1.3257 1.8595
12 26 24 -4.5039 3.2869
12 26 26 3.0557 -0.6252
12 27 13 0.5514 -0.3430
12 27 15 1.7734 -1.6640
12 27 17 -8.3985 0.7913
12 27 19 -1.8514 -1.2694
12 27 21 -1.4099 -2.4638
12 27 23 -1.0685 -0.9595
12 27 25 -2.6478 -0.3288
12 27 27 6.7145 5.1960
12 28 12 -8.9004 -6.3996
12 28 14 1.8635 6.3079
12 28 16 -2.4611 -3.9396
12 28 18 6.1461 -0.1533
12 28 20 -4.4483 6.8426
12 28 22 -0.8062 -2.8851
12 28 24 -10.0340 3.4713
12 28 26 4.0730 -3.0536
12 28 28 -5.4994 8.4014
12 29 13 2.0271 0.1892
12 29 15 -4.7772 0.9710
12 29 17 5.3770 -3.8041
12 29 19 -3.8405 -0.4188
12 29 21 1.4264 -2.0321
12 29 23 -5.3181 -1.7616
12 29 25 1.0687 -0.1355
12 29 27 -0.2076 -4.5813
12 29 29 -1.1310 10.5957
12 30 12 -11.1405 -5.0349
12 30 14 -2.9990 2.6731
12 30 16 3.0283 2.0800
12 30 18 -3.1948 -0.4091
12 30 20 3.2648 1.2141
12 30 22 0.4309 0.1010
12 30 24 -3.0788 3.1362
12 30 26 2.8019 0.6446
12 30 28 -2.4687 -5.2395
12 30 30 -7.3724 11.3701
12 31 13 -0.4477 -1.6312
12 31 15 3.5022 -3.1051
12 31 17 -4.8641 1.0921
12 31 19 0.7547 -1.3335
12 31 21 2.9220 -0.9575
12 31 23 -0.5219 -3.0991
12 31 25 1.1005 -0.0855
12 31 27 -2.6204 -1.3837
12 31 29 5.1816 -4.9094
12 31 31 0.8559 10.0856
12 32 12 1.8827 -5.8130
12 32 14 2.4127 5.2221
12 32 16 -0.6982 0.2167
12 32 18 2.3056 -0.1382
12 32 20 6.0853 4.3517
12 32 22 -0.0196 1.1981
12 32 24 2.5255 0.9858
12 32 26 -5.3012 3.7436
12 32 28 0.8364 2.4260
12 32 30 1.3941 -3.1532
12 33 13 0.8243 -2.0934
12 33 15 0.1050 2.2467
12 33 17 -0.4023 -1.7237
12 33 19 6.4834 -1.8018
12 33 21 7.8380 -0.8917
12 33 23 -8.8051 0.5064
12 33 25 -3.4964 -2.8116
12 33 27 1.0910 -0.1505
12 33 29 -3.5546 0.1258
12 34 12 -5.4732 -4.5568
12 34 14 -2.8932 2.9623
12 34 16 -5.5569 -1.2878
12 34 18 4.1679 0.7410
12 34 20 11.0355 1.5247
12 34 22 1.1381 -2.4651
12 34 24 -3.1241 2.7678
12 34 26 1.3044 -1.0520
12 34 28 -2.9730 -0.1034
12 35 13 -1.5754 0.6334
12 35 15 -1.2592 -4.2827
12 35 17 -3.0825 -0.9124
12 35 19 5.5350 0.5018
12 35 21 -1.6613 -2.1926
12 35 23 -5.3956 -1.7213
12 35 25 0.8750 -0.5030
12 35 27 6.6534 -0.6616
12 36 12 1.7034 -6.7367
12 36 14 8.8172 5.4849
12 36 16 4.0277 1.9630
12 36 18 -11.0450 -0.9367
12 36 20 26.2611 4.1840
12 36 22 0.9244 0.2178
12 36 24 -0.2127 3.8062
12 36 26 -1.3643 -1.2898
12 37 13 7.3475 -1.2405
12 37 15 2.1178 2.0103
12 37 17 4.5952 -1.0354
12 37 19 -10.0677 -2.4907
12 37 21 -9.5605 -0.2161
12 37 23 -7.2791 -2.0770
12 37 25 2.4351 1.6457
12 38 12 4.4274 -2.7374
12 38 14 -3.5574 1.7357
12 38 16 16.1965 -1.6817
12 38 18 -11.6310 1.7852
12 38 20 5.3185 1.9235
12 38 22 -2.8867 0.0397
12 38 24 0.5308 -2.6331
12 39 13 -2.9713 -0.8765
12 39 15 -8.8014 -2.3076
12 39 17 -9.1905 -1.7220
12 39 19 -6.7984 0.3050
12 39 21 3.2754 -2.2935
12 40 12 -4.8714 -6.5800
12 40 14 -0.1140 3.9189
12 40 16 9.8229 1.8817
12 40 18 -3.9953 -0.2908
12 40 20 1.4745 1.6753
12 41 13 -5.7327 -1.4419
12 41 15 2.6759 1.0933
12 41 17 1.1375 -0.2238
12 42 12 -10.6620 -1.7049
12 42 14 16.7868 2.6010
12 42 16 5.1374 -2.9194
12 43 13 -21.9191 1.1564
13 14 13 21.7430 -9.7459
13 15 14 2.2730 -13.4429
13 16 13 -23.0803 4.4150
13 16 15 4.5962 -4.6094
13 17 14 -0.2875 -8.0494
13 17 16 -11.8377 -1.9931
13 18 13 -13.9398 -0.1308
13 18 15 8.0187 0.1505
13 18 17 -4.8997 1.0348
13 19 14 0.0530 -2.3874
13 19 16 -1.4470 3.9600
13 19 18 -3.1684 -1.2641
13 20 13 -5.5524 -1.3301
13 20 15 7.6253 0.9305
13 20 17 -16.3804 -1.9719
13 20 19 3.5004 2.1907
13 21 14 -6.9408 -9.1388
13 21 16 -5.9125 2.8851
13 21 18 4.7346 0.0437
13 21 20 -4.6139 -3.3072
13 22 13 -6.3415 2.8073
13 22 15 -5.4220 -1.4970
13 22 17 4.4113 -0.7101
13 22 19 1.8378 -1.7876
13 22 21 -16.3243 -3.6466
13 23 14 -23.1467 -2.9840
13 23 16 2.0303 2.5505
13 23 18 -6.2886 -1.0542
13 23 20 -12.5872 0.3488
13 23 22 2.3554 -1.4423
13 24 13 -10.6542 -3.1782
13 24 15 5.3762 2.2862
13 24 17 3.1378 1.2183
13 24 19 -4.7866 0.2512
13 24 21 6.4434 3.0553
13 24 23 2.4089 1.2486
13 25 14 8.9456 -4.4670
13 25 16 4.1772 3.8781
13 25 18 -11.2144 -0.3730
13 25 20 3.8123 -1.5124
13 25 22 -14.8469 1.5593
13 25 24 0.3374 -3.5026
13 26 13 6.4695 1.9257
13 26 15 -0.1002 -4.0243
13 26 17 9.1255 -0.4113
13 26 19 8.4887 0.0189
13 26 21 5.7814 -1.7272
13 26 23 -1.8203 -0.4906
13 26 25 10.2784 -0.4475
13 27 14 -2.5945 -3.3173
13 27 16 -14.0201 -1.0958
13 27 18 -7.5390 1.3398
13 27 20 4.1537 -0.5262
13 27 22 10.5093 0.8747
13 27 24 -2.4028 -1.9312
13 27 26 16.0175 -0.3401
13 28 13 6.9384 0.4063
13 28 15 -4.9719 1.4466
13 28 17 2.6153 -0.3738
13 28 19 -2.0402 0.0589
13 28 21 -8.6138 0.1689
13 28 23 1.1955 0.4967
13 28 25 0.3304 -0.8671
13 28 27 6.8404 0.1788
13 29 14 -4.2223 -1.6524
13 29 16 8.9710 3.7140
13 29 18 -14.0140 -0.9215
13 29 20 -3.6579 -1.3797
13 29 22 -2.8712 2.9583
13 29 24 -0.7528 -1.2676
13 29 26 9.4303 -0.4497
13 29 28 13.7805 -1.3679
13 30 13 -8.3615 -3.1204
13 30 15 4.0306 -0.2581
13 30 17 -5.1049 -0.2026
13 30 19 6.3311 0.1309
13 30 21 8.2464 -0.0026
13 30 23 -3.3191 0.1572
13 30 25 2.7131 1.5013
13 30 27 1.3178 -1.2999
13 30 29 3.2212 -1.4665
13 31 14 2.4939 -6.1245
13 31 16 1.7071 1.9376
13 31 18 -2.6748 2.1408
13 31 20 5.2696 -3.2994
13 31 22 1.7445 2.6198
13 31 24 2.5529 -0.9567
13 31 26 -5.2595 1.3499
13 31 28 5.7655 0.4754
13 31 30 -25.4013 -2.7088
13 32 13 -7.0148 3.0386
13 32 15 -7.4045 -2.4464
13 32 17 -2.7849 -0.1101
13 32 19 -1.0375 -0.2147
13 32 21 16.0342 -0.4175
13 32 23 0.6385 -2.2468
13 32 25 -2.3701 -0.9317
13 32 27 2.6360 1.2385
13 32 29 2.3907 -1.7451
13 32 31 -1.3436 -0.2867
13 33 14 0.1142 -1.0200
13 33 16 -4.5884 -0.7432
13 33 18 -4.0726 0.1783
13 33 20 10.9283 0.2821
13 33 22 4.1899 1.1608
13 33 24 -4.3001 -1.2452
13 33 26 -0.9486 0.0759
13 33 28 9.0438 1.3377
13 33 30 -4.1553 -3.3910
13 34 13 -3.7011 -1.6287
13 34 15 2.1897 1.3786
13 34 17 0.8472 0.9571
13 34 19 -4.6310 -0.5450
13 34 21 -1.8281 -0.0699
13 34 23 -3.9960 2.4673
13 34 25 3.4373 -0.4916
13 34 27 -7.0714 -0.5830
13 34 29 -0.8620 3.6986
13 35 14 -1.2907 -4.2266
13 35 16 -1.2122 4.2944
13 35 18 -3.1456 -0.1262
13 35 20 -1.9447 -1.4471
13 35 22 -10.2729 1.7944
13 35 24 -3.7473 -1.0678
13 35 26 4.3323 1.6190
13 36 13 -11.5609 -0.4559
13 36 15 -4.3186 -2.7662
13 36 17 -9.4353 -0.3406
13 36 19 -1.2763 -0.5236
13 36 21 0.0264 -0.0735
13 36 23 -1.7890 -1.6110
13 36 25 -14.3752 0.0944
13 37 14 -5.6422 -3.3182
13 37 16 20.0048 -0.4390
13 37 18 -8.7194 1.5098
13 37 20 16.0351 -2.1373
13 37 22 13.0134 2.3141
13 37 24 0.4965 -1.2210
13 38 13 6.5044 2.2386
13 38 15 6.5696 1.8036
13 38 17 -1.3008 -0.6197
13 38 19 -10.2637 0.8877
13 38 21 5.1082 -0.0354
13 38 23 9.3735 0.4100
13 39 14 14.7626 -2.1320
13 39 16 10.9593 2.3438
13 39 18 -9.1460 -0.7879
13 39 20 7.0662 -0.9771
13 39 22 -6.7451 1.6832
13 40 13 -2.0509 -2.6726
13 40 15 2.0201 -2.1123
13 40 17 -3.5152 1.4559
13 40 19 -1.1054 0.2519
13 41 14 6.5419 -3.6415
13 41 16 -3.3825 1.0501
13 42 13 1.9182 2.9840
13 42 15 0.6339 -0.8543
14 14 14 -8.7488 -0.4606
14 15 15 -0.6835 -16.2108
14 16 14 -1.3556 12.2559
14 16 16 6.4416 -12.4315
14 17 15 4.0247 6.6392
14 17 17 8.0731 -15.4683
14 18 14 7.9209 -3.2334
14 18 16 -0.0587 -0.3695
14 18 18 7.2182 -7.8739
14 19 15 0.5943 2.2342
14 19 17 -20.0975 2.6651
14 19 19 4.9367 -7.2862
14 20 14 4.4714 11.9518
14 20 16 -1.1933 -2.8698
14 20 18 1.7401 0.4894
14 20 20 2.2553 -1.6067
14 21 15 -1.8643 -0.7779
14 21 17 0.7618 2.6708
14 21 19 -1.6660 2.0378
14 21 21 -3.4580 3.3291
14 22 14 -18.6326 3.7358
14 22 16 18.9215 -7.2430
14 22 18 1.3402 1.5514
14 22 20 1.0104 1.0629
14 22 22 7.5736 5.5867
14 23 15 -9.7603 1.5006
14 23 17 -7.7991 -0.7675
14 23 19 8.7576 1.9125
14 23 21 -0.0164 -2.1638
14 23 23 -3.3850 7.5634
14 24 14 16.7066 0.0683
14 24 16 -5.5079 1.4565
14 24 18 -5.9461 -3.5900
14 24 20 2.1411 -2.5871
14 24 22 -0.2485 -4.8567
14 24 24 4.5708 5.8626
14 25 15 2.9952 0.4211
14 25 17 -4.8854 2.7020
14 25 19 5.3275 0.7605
14 25 21 5.8455 2.2181
14 25 23 -3.4658 -3.4278
14 25 25 6.5335 2.9561
14 26 14 5.7785 11.4896
14 26 16 -11.1837 -9.8364
14 26 18 7.0892 3.3984
14 26 20 -0.8390 1.4989
14 26 22 0.2423 -2.9999
14 26 24 -3.5709 3.1209
14 26 26 7.3997 -0.8946
14 27 15 -2.3664 2.9952
14 27 17 6.0544 -2.0716
14 27 19 -5.8894 2.3478
14 27 21 -4.2773 1.3853
14 27 23 0.8171 1.0130
14 27 25 0.8672 -0.3092
14 27 27 -4.7942 -4.8781
14 28 14 -12.1849 -1.8762
14 28 16 8.3935 3.7688
14 28 18 -2.8623 -5.0033
14 28 20 1.1816 -1.1077
14 28 22 0.6152 -1.3914
14 28 24 -3.9419 -0.3779
14 28 26 -5.3123 1.0882
14 28 28 6.5396 -7.7020
14 29 15 9.9251 -3.9467
14 29 17 -10.0932 4.6766
14 29 19 10.4830 -1.5193
14 29 21 -0.8339 1.9971
14 29 23 -10.3998 1.6814
14 29 25 2.4529 0.6196
14 29 27 -6.9335 3.8144
14 29 29 3.4518 -10.4550
14 30 14 3.7116 7.8727
14 30 16 -3.6399 -4.7552
14 30 18 -1.3096 2.2008
14 30 20 2.5119 -0.0920
14 30 22 -1.7955 -4.0984
14 30 24 6.4971 -1.8697
14 30 26 -0.4140 -0.8716
14 30 28 -1.1413 3.9840
14 30 30 5.4020 -10.0264
14 31 15 -4.9066 3.9957
14 31 17 4.2247 -4.9543
14 31 19 1.5502 3.1856
14 31 21 -6.3623 0.4755
14 31 23 -11.6367 2.0672
14 31 25 -2.2542 -0.2199
14 31 27 4.0432 0.7156
14 31 29 -3.1540 4.6194
14 31 31 -6.5570 -10.3085
14 32 14 0.2626 2.2327
14 32 16 4.3140 -0.3752
14 32 18 5.5376 -1.2731
14 32 20 -5.3571 1.6580
14 32 22 4.6061 -2.8627
14 32 24 -8.6361 3.7346
14 32 26 6.9820 -4.3136
14 32 28 -0.4003 -1.6846
14 32 30 2.9445 7.7091
14 33 15 -0.9634 -2.1028
14 33 17 -1.0941 3.5500
14 33 19 -2.3372 -1.3314
14 33 21 -0.0404 1.0498
14 33 23 -3.4850 -0.1620
14 33 25 -2.3652 2.9485
14 33 27 -1.2121 0.0530
14 33 29 -5.1801 -1.1763
14 34 14 2.8063 4.9181
14 34 16 -2.9001 -2.3163
14 34 18 -3.1012 -1.4004
14 34 20 2.8852 0.5963
14 34 22 -0.3687 -2.5931
14 34 24 0.9777 -1.6450
14 34 26 -1.3262 -0.4841
14 34 28 3.7221 0.0884
14 35 15 -1.6892 1.7833
14 35 17 -1.2192 -2.8160
14 35 19 2.4195 1.6912
14 35 21 -10.7496 0.6716
14 35 23 -4.0528 1.0331
14 35 25 17.5667 0.2607
14 35 27 -6.3750 -0.8555
14 36 14 -32.2775 3.1946
14 36 16 -3.6464 -1.3012
14 36 18 16.3063 1.7006
14 36 20 15.3442 -0.1367
14 36 22 0.9826 -1.6225
14 36 24 -3.9905 0.5963
14 36 26 4.0140 1.9835
14 37 15 -0.3852 0.8576
14 37 17 1.7280 0.9982
14 37 19 9.1119 0.5305
14 37 21 11.7737 0.4173
14 37 23 -4.2069 0.9283
14 38 14 -1.0824 3.6173
14 38 16 -1.1376 -1.9697
14 38 18 12.4520 -2.8599
14 38 20 0.7264 1.7488
14 38 22 6.7167 -3.4468
14 39 15 7.9493 -1.0806
14 39 17 -12.2569 0.6866
14 39 19 0.3666 -0.6744
14 39 21 3.3579 1.4875
14 40 14 12.7103 3.7929
14 40 16 2.2775 -1.6367
14 40 18 7.1644 2.1757
14 41 15 -9.9375 1.4885
14 41 17 -3.8548 -3.3655
14 42 14 15.4325 2.3723
15 16 15 -6.6344 8.6292
15 17 16 5.3639 12.2324
15 18 15 -26.0561 -1.5538
15 18 17 16.6317 7.0892
15 19 16 0.1998 0.1235
15 19 18 29.6022 6.0891
15 20 15 3.7723 -2.2013
15 20 17 2.1574 -0.1589
15 20 19 4.0130 -1.0242
15 21 16 15.9901 0.5454
15 21 18 1.1854 -2.4654
15 21 20 3.5366 -3.1815
15 22 15 1.0282 3.7705
15 22 17 -3.0281 2.5692
15 22 19 -0.0524 0.0362
15 22 21 18.2370 -4.1575
15 23 16 -5.7908 3.1879
15 23 18 0.8533 -0.0956
15 23 20 -22.4074 0.8390
15 23 22 5.6289 -0.1331
15 24 15 7.7848 -4.5166
15 24 17 -5.1866 -1.6554
15 24 19 10.3141 3.2587
15 24 21 -1.9839 0.8988
15 24 23 -0.7864 0.7177
15 25 16 -8.0955 5.3686
15 25 18 -7.7001 -3.5531
15 25 20 -6.1287 0.1174
15 25 22 11.0158 2.8154
15 25 24 1.8102 -1.6530
15 26 15 -3.8288 2.9257
15 26 17 -7.7397 0.1952
15 26 19 -15.4458 -2.8807
15 26 21 -15.1245 0.4996
15 26 23 3.2631 -1.4114
15 26 25 -7.3964 -0.5765
15 27 16 9.8763 -0.8023
15 27 18 -9.7722 2.3662
15 27 20 14.1576 -3.9545
15 27 22 3.6180 2.8877
15 27 24 -2.3208 -1.3885
15 27 26 -8.7573 3.0306
15 28 15 1.6706 0.1877
15 28 17 3.6008 0.8940
15 28 19 0.4627 1.6380
15 28 21 7.9565 -0.4832
15 28 23 -11.7091 0.1480
15 28 25 -4.2437 0.7365
15 28 27 4.9059 1.2563
15 29 16 -2.4412 4.3700
15 29 18 -5.5395 -1.7364
15 29 20 8.1733 1.4703
15 29 22 8.0981 -0.7763
15 29 24 3.8372 -1.2323
15 29 26 -11.4421 0.9868
15 29 28 -25.2004 1.7041
15 30 15 3.1094 -2.7253
15 30 17 -1.7171 -0.2998
15 30 19 3.2142 -0.3521
15 30 21 6.8395 0.5234
15 30 23 4.1928 1.0748
15 30 25 0.0573 -0.9737
15 30 27 -4.2821 0.6302
15 30 29 4.1272 2.7257
15 31 16 -2.2717 -1.1905
15 31 18 3.5043 0.4677
15 31 20 -7.7464 -1.3509
15 31 22 3.0899 1.2678
15 31 24 0.6233 -0.2401
15 31 26 9.1226 -0.6807
15 31 28 -9.9223 0.9533
15 31 30 18.1397 0.0745
15 32 15 4.8178 3.8140
15 32 17 1.5002 -0.0378
15 32 19 -6.4084 -0.1514
15 32 21 -7.3506 -0.9817
15 32 23 -3.4216 -0.1638
15 32 25 -3.4464 0.3935
15 32 27 -1.0574 -2.7265
15 32 29 -3.1946 1.4298
15 33 16 3.5195 3.8122
15 33 18 -0.6595 0.1232
15 33 20 1.6811 -2.5849
15 33 22 16.8970 2.8042
15 33 24 -1.0778 -3.0756
15 33 26 1.3699 2.9655
15 33 28 -5.8168 -2.9297
15 34 15 4.3889 -1.9513
15 34 17 -2.5038 1.1700
15 34 19 3.0217 -0.1950
15 34 21 2.8818 2.6656
15 34 23 2.2680 -0.8936
15 34 25 1.3442 0.0726
15 34 27 -0.3153 3.6809
15 35 16 5.7409 0.7086
15 35 18 -1.4023 0.2380
15 35 20 -6.7656 -1.1077
15 35 22 0.4824 0.8790
15 35 24 3.7478 -0.0239
15 35 26 -5.0168 -2.3546
15 36 15 1.3155 -0.5977
15 36 17 2.1489 -0.6709
15 36 19 7.2294 0.2149
15 36 21 9.2829 -2.0826
15 36 23 0.4342 0.9037
15 36 25 17.8111 0.5193
15 37 16 3.9747 0.3255
15 37 18 16.5570 0.0973
15 37 20 8.3815 -0.9029
15 37 22 8.0823 1.5995
15 37 24 -7.0659 -2.7185
15 38 15 -4.8140 2.6365
15 38 17 -3.2305 0.9407
15 38 19 -0.1748 -0.0891
15 38 21 -17.6907 0.4008
15 39 16 -8.5177 3.9892
15 39 18 -0.7641 -0.5626
15 39 20 0.8217 0.5248
15 40 15 0.3011 -4.1226
15 40 17 1.5001 0.6238
15 41 16 -2.2492 -2.2612
16 16 16 -8.8827 -2.1476
16 17 17 -12.1046 10.6107
16 18 16 -3.7987 -4.5762
16 18 18 3.5003 2.6441
16 19 17 18.0984 -5.8326
16 19 19 7.9097 6.9106
16 20 16 34.9270 -0.2271
16 20 18 10.1747 3.5273
16 20 20 12.6133 5.1416
16 21 17 -7.0769 -1.9698
16 21 19 -5.7452 -0.3864
16 21 21 14.5390 0.7140
16 22 16 -11.9979 -3.2827
16 22 18 -5.1312 -3.3208
16 22 20 7.5054 4.4095
16 22 22 2.6846 1.9200
16 23 17 0.3254 0.1252
16 23 19 11.9512 -2.3635
16 23 21 -0.1553 -0.5943
16 23 23 -8.2394 -2.7666
16 24 16 -0.8857 -5.8254
16 24 18 2.0060 4.3283
16 24 20 -16.5383 -0.2424
16 24 22 -4.8520 -3.1588
16 24 24 -13.6142 0.8740
16 25 17 -1.1754 1.7326
16 25 19 -5.5121 -0.6448
16 25 21 -3.3757 -0.3896
16 25 23 9.5908 0.7505
16 25 25 2.9676 -0.7595
16 26 16 11.0535 2.3960
16 26 18 -2.9290 -0.8629
16 26 20 2.5033 1.7983
16 26 22 -9.9387 0.5575
16 26 24 -2.0589 0.7886
16 26 26 -1.9313 1.8348
16 27 17 -4.8853 -1.7321
16 27 19 4.3393 0.4762
16 27 21 -1.1502 -1.0456
16 27 23 -1.2271 0.0674
16 27 25 2.6761 -0.4742
16 27 27 0.6397 3.2945
16 28 16 -1.7828 -9.2613
16 28 18 -7.8527 2.9428
16 28 20 3.5876 0.6566
16 28 22 -5.6003 -1.0232
16 28 24 3.2844 1.6457
16 28 26 -1.6971 -3.0751
16 28 28 -2.3000 5.1480
16 29 17 3.5162 -0.5423
16 29 19 -0.7212 -0.8095
16 29 21 1.0525 -0.5277
16 29 23 9.3164 -1.5790
16 29 25 0.5558 0.3158
16 29 27 4.3755 -1.8953
16 29 29 -0.0046 6.9815
16 30 16 -4.2309 2.2266
16 30 18 3.9870 -1.6724
16 30 20 -4.8906 2.1563
16 30 22 3.6200 -0.7750
16 30 24 -5.2412 3.3326
16 30 26 0.5924 -1.2838
16 30 28 1.1031 -3.5771
16 30 30 -4.1527 7.4768
16 31 17 0.3974 3.4869
16 31 19 -2.0638 -1.1036
16 31 21 1.6217 0.1353
16 31 23 -8.9227 -1.3121
16 31 25 0.4601 -0.9358
16 31 27 -3.3763 0.4228
16 31 29 0.5906 -4.2753
16 32 16 -4.7374 -5.6510
16 32 18 -2.1041 0.4796
16 32 20 1.3357 0.5659
16 32 22 0.5857 0.5291
16 32 24 -6.6428 -0.0179
16 32 26 -4.1580 3.3668
16 32 28 -2.7337 1.6581
16 33 17 -1.1877 -1.5714
16 33 19 7.1969 2.0416
16 33 21 -6.3141 -1.6141
16 33 23 11.4636 1.0830
16 33 25 7.5124 -1.7546
16 33 27 0.6195 0.0380
16 34 16 1.3766 -1.4701
16 34 18 -0.5271 -0.8495
16 34 20 -3.5851 0.7325
16 34 22 -10.4762 -2.2457
16 34 24 -8.5171 2.2735
16 34 26 0.7557 -2.4484
16 35 17 -5.5315 0.8830
16 35 19 -4.4046 -0.6368
16 35 21 0.7966 0.6211
16 35 23 9.6753 -1.8225
16 35 25 -2.9514 1.8052
16 36 16 2.7017 -1.6952
16 36 18 -2.1307 -1.1184
16 36 20 -7.0686 2.7119
16 36 22 -0.9176 -0.4734
16 36 24 5.0011 1.3457
16 37 17 -25.0112 2.5590
16 37 19 0.5916 -0.1214
16 37 21 5.0422 -0.4502
16 37 23 7.1920 1.1630
16 38 16 3.7668 -4.6832
16 38 18 5.3085 0.7129
16 38 20 -10.6145 -1.1745
16 39 17 4.8043 -3.1303
16 39 19 8.0726 2.3621
16 40 16 15.1081 1.0972
17 18 17 -0.0265 -6.1423
17 19 18 27.1422 -8.7031
17 20 17 16.1238 1.1242
17 20 19 -3.8021 -5.9765
17 21 18 -1.9545 2.4890
17 21 20 -5.5129 -4.0095
17 22 17 -0.4538 1.1835
17 22 19 -3.4422 1.1939
17 22 21 15.8427 1.6255
17 23 18 11.1164 1.2442
17 23 20 -8.2642 -3.0395
17 23 22 5.1568 6.1655
17 24 17 9.6486 -1.7541
17 24 19 -15.8940 -2.8766
17 24 21 11.9384 0.5232
17 24 23 3.2644 3.5335
17 25 18 -0.1686 0.3609
17 25 20 7.3350 1.3641
17 25 22 -5.3083 -2.7048
17 25 24 -1.6899 1.5585
17 26 17 -1.7516 1.5671
17 26 19 -6.7375 1.4660
17 26 21 -15.5206 -2.0275
17 26 23 6.4478 -0.3741
17 26 25 -2.2414 -1.6492
17 27 18 0.3272 -6.5020
17 27 20 13.1704 1.5046
17 27 22 -0.2140 1.3024
17 27 24 -3.6415 -2.1126
17 27 26 -11.2487 0.0273
17 28 17 0.1759 -0.4653
17 28 19 -0.4906 1.2000
17 28 21 -0.6158 0.1903
17 28 23 1.6382 0.0508
17 28 25 2.6150 0.7926
17 28 27 -12.6393 -2.1613
17 29 18 7.9182 4.7233
17 29 20 -17.0733 -3.1496
17 29 22 -1.3013 3.2541
17 29 24 -4.3242 -1.7679
17 29 26 12.0291 0.8217
17 29 28 -17.9092 -2.4511
17 30 17 3.6315 -0.2402
17 30 19 -0.8660 -2.0853
17 30 21 -6.8284 0.4248
17 30 23 -17.2320 -0.0322
17 30 25 -4.7667 0.9973
17 30 27 8.4265 0.1818
17 30 29 -11.0290 -1.0819
17 31 18 -6.5437 -4.1415
17 31 20 9.3518 0.4903
17 31 22 -2.6174 -0.0586
17 31 24 -3.6687 -1.3673
17 31 26 -8.1125 1.6158
17 31 28 8.9358 -0.2946
17 31 30 -16.8596 0.2213
17 32 17 -6.6760 0.1777
17 32 19 1.7307 2.1841
17 32 21 2.4776 -0.6756
17 32 23 2.7944 -0.1978
17 32 25 6.7985 -1.0341
17 32 27 -4.2231 0.9081
17 32 29 6.6313 -2.4763
17 33 18 -2.5328 0.4427
17 33 20 -1.9514 0.4799
17 33 22 -0.0118 0.0132
17 33 24 -0.6557 0.8103
17 33 26 -3.0142 -2.8396
17 33 28 2.8039 3.2313
17 34 17 3.9877 0.2551
17 34 19 5.3400 -0.9223
17 34 21 -0.5425 -0.4207
17 34 23 -1.5659 1.3636
17 34 25 -0.9811 1.5496
17 35 18 3.1607 1.5643
17 35 20 -1.1597 -2.3097
17 35 22 2.1030 2.5336
17 35 24 -8.4154 -2.9714
17 36 17 -8.9116 -2.1630
17 36 19 3.4954 0.1133
17 36 21 -2.1721 0.3053
17 36 23 3.4941 -1.4424
17 37 18 1.9329 -3.2235
17 37 20 2.7858 0.4575
17 37 22 5.1361 0.3624
17 38 17 6.4951 4.5197
17 38 19 -1.7094 -0.4415
17 39 18 2.2739 3.4786
18 18 18 -26.1823 3.8676
18 19 19 4.7885 -6.0048
18 20 18 0.3004 1.5325
18 20 20 -5.1802 -2.2632
18 21 19 3.5313 5.5766
18 21 21 -8.1882 -3.0337
18 22 18 16.7712 -2.0556
18 22 20 -1.8351 -1.8849
18 22 22 1.8354 -6.3557
18 23 19 -9.6214 1.3370
18 23 21 1.2385 1.6204
18 23 23 -2.9257 -0.7527
18 24 18 -9.9835 4.4550
18 24 20 0.3652 0.7293
18 24 22 1.3220 -0.9490
18 24 24 0.2437 -4.5131
18 25 19 -6.9238 -0.5228
18 25 21 0.8528 -0.5267
18 25 23 -5.9765 1.1582
18 25 25 4.1555 -0.9148
18 26 18 2.8431 1.0744
18 26 20 -0.0660 1.6292
18 26 22 -0.7061 -0.7965
18 26 24 3.9831 3.5704
18 26 26 -2.1740 -3.8493
18 27 19 1.8011 -2.4810
18 27 21 -5.6049 1.9488
18 27 23 -6.4125 -1.1895
18 27 25 -7.7405 0.8395
18 27 27 5.9816 -2.2522
18 28 18 6.3579 -0.0245
18 28 20 -5.3724 -1.4578
18 28 22 3.9033 -1.4921
18 28 24 -5.8603 1.3654
18 28 26 1.5174 0.4932
18 28 28 0.1164 -2.8752
18 29 19 -4.6231 1.9606
18 29 21 -0.7091 -1.6584
18 29 23 3.4156 0.6941
18 29 25 -18.4146 -0.4669
18 29 27 -0.9081 1.8582
18 29 29 -3.2312 -3.5894
18 30 18 0.3061 5.3476
18 30 20 4.6219 1.0440
18 30 22 1.7009 -0.8922
18 30 24 -13.9169 -0.7423
18 30 26 -8.9872 -0.4806
18 30 28 0.1498 1.5848
18 30 30 1.0813 -3.7684
18 31 19 0.3029 -1.8612
18 31 21 0.3551 1.5429
18 31 23 3.7050 0.1472
18 31 25 6.1273 0.8504
18 31 27 -0.2127 -1.3303
18 31 29 6.6937 1.2872
18 32 18 -1.7903 -1.5032
18 32 20 2.6641 0.2660
18 32 22 -1.9601 -0.2154
18 32 24 6.0211 1.4519
18 32 26 6.9938 -1.3694
18 32 28 -1.8481 1.1345
18 33 19 3.6952 -0.3861
18 33 21 -4.1318 -0.4977
18 33 23 -0.6532 -1.2044
18 33 25 11.2150 1.0753
18 33 27 -2.8497 -0.3379
18 34 18 2.5523 3.4440
18 34 20 -0.6841 0.6137
18 34 22 -3.2435 -1.0689
18 34 24 -0.4138 -0.1731
18 34 26 9.9183 0.3921
18 35 19 -1.8200 -2.4742
18 35 21 1.0502 0.3518
18 35 23 2.0359 2.0247
18 36 18 1.3108 1.9046
18 36 20 -1.6572 1.0034
18 36 22 4.0475 -1.2726
18 37 19 -0.7838 2.7320
18 37 21 11.6514 -0.6733
18 38 18 -8.3470 -1.4929
18 38 20 -10.8536 1.6513
19 20 19 -0.0987 4.2709
19 21 20 -3.5090 7.6779
19 22 19 1.6233 -2.7039
19 22 21 1.6988 4.6265
19 23 20 5.7694 -0.9447
19 23 22 6.1072 -0.5307
19 24 19 6.3842 1.7255
19 24 21 -5.1554 -1.8836
19 24 23 -5.0108 -1.1370
19 25 20 -2.9192 -2.6265
19 25 22 -5.8868 5.7526
19 25 24 6.6171 -5.3131
19 26 19 -4.2149 -0.2544
19 26 21 0.5923 0.9173
19 26 23 9.8331 -0.3244
19 26 25 -9.1275 0.5214
19 27 20 -10.0088 -0.3496
19 27 22 3.0158 -2.6070
19 27 24 2.7646 0.5655
19 27 26 0.5740 1.5821
19 28 19 1.2007 -1.1773
19 28 21 6.9429 1.5265
19 28 23 5.2329 0.6782
19 28 25 -4.4338 -0.7420
19 28 27 5.7335 2.1256
19 29 20 4.2740 2.8572
19 29 22 0.3198 1.6977
19 29 24 0.1222 -0.8130
19 29 26 -0.5469 -0.4155
19 29 28 -1.8669 1.0518
19 30 19 7.1364 2.2457
19 30 21 7.0416 -3.5915
19 30 23 3.1853 0.5929
19 30 25 -6.2518 -0.6029
19 30 27 1.3508 0.3853
19 30 29 1.6949 1.6466
19 31 20 -1.7564 -2.2972
19 31 22 11.7600 0.2725
19 31 24 13.2020 -0.2761
19 31 26 -1.3989 1.1375
19 31 28 -0.6613 -0.3440
19 32 19 -0.1123 -2.4729
19 32 21 -0.9720 2.6446
19 32 23 -1.4207 -0.8843
19 32 25 3.2495 -0.6316
19 32 27 0.3644 -1.3942
19 33 20 3.9791 1.2353
19 33 22 5.1086 1.6680
19 33 24 -3.8763 -1.3599
19 33 26 7.7849 2.3878
19 34 19 -1.9006 3.1682
19 34 21 2.5792 -1.9645
19 34 23 0.1946 0.0146
19 34 25 5.5775 0.7456
19 35 20 12.0432 0.3408
19 35 22 2.2306 -0.5784
19 35 24 2.2819 0.8723
19 36 19 0.8985 -3.7749
19 36 21 -2.5509 1.0573
19 37 20 8.6940 -1.6331
19 38 19 1.5372 5.3184
20 20 20 -7.2212 0.2428
20 21 21 -4.4596 4.6634
20 22 20 5.7525 -5.4264
20 22 22 -0.6310 4.8123
20 23 21 -1.5673 -3.8563
20 23 23 5.7139 3.2098
20 24 20 1.5625 5.8614
20 24 22 -5.1540 -2.1060
20 24 24 10.1202 5.7460
20 25 21 -3.9902 -0.4643
20 25 23 1.6176 -1.9661
20 25 25 -0.7552 2.0753
20 26 20 -7.4941 -5.5322
20 26 22 4.1130 0.4025
20 26 24 -3.8391 0.0715
20 26 26 4.3294 2.8746
20 27 21 -7.9255 1.0843
20 27 23 20.0990 1.6618
20 27 25 11.5103 -1.3924
20 27 27 -3.2378 1.2606
20 28 20 -1.6353 1.3659
20 28 22 0.2992 -3.0374
20 28 24 7.0182 0.6130
20 28 26 -0.9989 -2.3842
20 28 28 0.3832 2.1477
20 29 21 4.2502 0.7287
20 29 23 -1.0610 -1.1695
20 29 25 2.8172 0.5911
20 29 27 3.7342 0.3351
20 29 29 -1.7634 0.4892
20 30 20 0.4222 0.4474
20 30 22 -6.2993 0.6302
20 30 24 7.0180 1.2532
20 30 26 4.4576 -1.2132
20 30 28 0.8654 -0.4240
20 31 21 -2.0853 0.3988
20 31 23 0.7176 0.9630
20 31 25 0.1064 0.1534
20 31 27 -2.2719 -0.4643
20 32 20 -1.4499 -4.7074
20 32 22 -2.7110 -1.5214
20 32 24 -3.2839 0.7458
20 32 26 8.3248 0.0080
20 33 21 2.4983 1.4438
20 33 23 0.2682 -0.0132
20 33 25 -2.0725 -0.8335
20 34 20 0.3159 2.4797
20 34 22 2.4685 -1.1260
20 34 24 -0.2796 0.5498
20 35 21 -7.1162 -1.2750
20 35 23 5.8223 -1.6598
20 36 20 5.0130 -2.4505
21 22 21 2.4766 -5.3718
21 23 22 -1.0300 -5.0556
21 24 21 -4.9009 4.4427
21 24 23 4.6610 -3.3686
21 25 22 2.3099 0.6438
21 25 24 -7.6330 0.3367
21 26 21 6.0235 -2.3019
21 26 23 -8.9341 0.7334
21 26 25 5.6665 -1.3613
21 27 22 -6.3290 3.1284
21 27 24 3.1041 -2.9659
21 27 26 1.8188 1.4063
21 28 21 -3.4951 -0.0838
21 28 23 5.3438 0.1714
21 28 25 -5.0769 1.2236
21 28 27 -9.4163 -1.3012
21 29 22 5.6176 -0.0138
21 29 24 1.5637 0.3330
21 29 26 -7.8042 1.2169
21 29 28 9.7740 -1.2842
21 30 21 -0.7861 1.8441
21 30 23 -4.3936 -1.2806
21 30 25 -12.3165 0.5317
21 30 27 14.9270 -0.3759
21 31 22 -12.5571 -1.1430
21 31 24 -6.9587 -2.4929
21 31 26 17.9172 0.3915
21 32 21 -11.4525 -2.3610
21 32 23 7.9817 2.6168
21 32 25 0.5321 0.2374
21 33 22 1.2735 1.6867
21 33 24 -0.3274 -0.6184
21 34 21 -11.6833 2.1856
21 34 23 5.4193 0.3763
21 35 22 16.1743 -2.3699
22 22 22 -12.4023 -3.3502
22 23 23 2.8819 -4.9955
22 24 22 12.2814 6.5373
22 24 24 -4.3372 -4.3532
22 25 23 -0.8209 3.0374
22 25 25 1.5616 -2.9463
22 26 22 -2.2063 -6.0286
22 26 24 -3.2478 3.9037
22 26 26 3.2526 -2.5712
22 27 23 8.1289 -0.2740
22 27 25 5.1615 0.8503
22 27 27 -5.0260 0.0533
22 28 22 1.6351 3.0924
22 28 24 2.5621 -1.0674
22 28 26 0.1708 0.2397
22 28 28 2.6790 -0.7594
22 29 23 11.5524 -1.1834
22 29 25 -1.1358 -0.3541
22 29 27 3.0117 -1.2831
22 29 29 -2.3173 2.2634
22 30 22 4.0890 1.0073
22 30 24 -8.7879 1.8202
22 30 26 -6.7120 -0.3573
22 30 28 8.0365 1.2254
22 31 23 0.2267 0.7046
22 31 25 -1.3293 -0.9229
22 32 22 0.3782 -3.4264
22 32 24 0.5725 2.1181
22 33 23 1.4327 -3.0553
22 34 22 -4.5097 6.3764
23 24 23 -2.6761 5.2022
23 25 24 -3.1250 3.1749
23 26 23 8.7339 -3.9435
23 26 25 3.9378 1.8615
23 27 24 -4.5072 -2.3268
23 27 26 -0.3912 0.2028
23 28 23 -4.3207 2.3385
23 28 25 -3.6785 -0.6246
23 28 27 3.2309 0.1454
23 29 24 -3.9422 0.8870
23 29 26 1.1496 0.9340
23 29 28 1.7407 -1.5854
23 30 23 -7.6544 -1.9062
23 30 25 6.1748 -0.1420
23 30 27 -1.1089 -0.4742
23 31 24 -5.9714 -1.0834
23 31 26 -4.0157 0.5812
23 32 23 2.1102 1.0075
24 24 24 -1.1126 2.4613
24 25 25 6.1120 3.4661
24 26 24 13.4980 -3.8370
24 26 26 -13.2441 2.0643
24 27 25 -4.0992 -0.4151
24 27 27 5.9605 -0.6775
24 28 24 1.6848 2.6467
24 28 26 6.4941 -1.6582
24 28 28 1.1215 -0.0452
24 29 25 1.9153 -1.6586
24 29 27 -3.0314 2.4921
24 30 24 6.2426 -0.3909
24 30 26 -0.5609 0.2250
24 31 25 6.5363 4.2471
25 26 25 -8.7625 -3.9511
25 27 26 10.9222 -2.4253
25 28 25 2.1758 3.8099
25 28 27 1.1344 -0.1143
25 29 26 -8.4201 0.2840
25 30 25 2.3445 -4.0154
26 26 26 14.8074 -0.8001
26 27 27 3.6678 -0.7740
26 28 26 -2.9186 2.3698
0 0 0 0.0 0.0
;
_shelx_fab_checksum              14519
_olex2_submission_original_sample_id PCN224Mn
_olex2_submission_special_instructions 'No special instructions were received'
loop_
_space_group_symop_operation_xyz
'x, y, z'
'-y, x, z'
'-x, -y, z'
'y, -x, z'
'x, -z, y'
'x, -y, -z'
'x, z, -y'
'z, y, -x'
'-x, y, -z'
'-z, y, x'
'z, x, y'
'y, z, x'
'-y, -z, x'
'z, -x, -y'
'-y, z, -x'
'-z, -x, y'
'-z, x, -y'
'y, -z, -x'
'y, x, -z'
'-y, -x, -z'
'-x, z, y'
'-x, -z, -y'
'z, -y, x'
'-z, -y, -x'
'x+1/2, y+1/2, z+1/2'
'-y+1/2, x+1/2, z+1/2'
'-x+1/2, -y+1/2, z+1/2'
'y+1/2, -x+1/2, z+1/2'
'x+1/2, -z+1/2, y+1/2'
'x+1/2, -y+1/2, -z+1/2'
'x+1/2, z+1/2, -y+1/2'
'z+1/2, y+1/2, -x+1/2'
'-x+1/2, y+1/2, -z+1/2'
'-z+1/2, y+1/2, x+1/2'
'z+1/2, x+1/2, y+1/2'
'y+1/2, z+1/2, x+1/2'
'-y+1/2, -z+1/2, x+1/2'
'z+1/2, -x+1/2, -y+1/2'
'-y+1/2, z+1/2, -x+1/2'
'-z+1/2, -x+1/2, y+1/2'
'-z+1/2, x+1/2, -y+1/2'
'y+1/2, -z+1/2, -x+1/2'
'y+1/2, x+1/2, -z+1/2'
'-y+1/2, -x+1/2, -z+1/2'
'-x+1/2, z+1/2, y+1/2'
'-x+1/2, -z+1/2, -y+1/2'
'z+1/2, -y+1/2, x+1/2'
'-z+1/2, -y+1/2, -x+1/2'
'-x, -y, -z'
'y, -x, -z'
'x, y, -z'
'-y, x, -z'
'-x, z, -y'
'-x, y, z'
'-x, -z, y'
'-z, -y, x'
'x, -y, z'
'z, -y, -x'
'-z, -x, -y'
'-y, -z, -x'
'y, z, -x'
'-z, x, y'
'y, -z, x'
'z, x, -y'
'z, -x, y'
'-y, z, x'
'-y, -x, z'
'y, x, z'
'x, -z, -y'
'x, z, y'
'-z, y, -x'
'z, y, x'
'-x+1/2, -y+1/2, -z+1/2'
'y+1/2, -x+1/2, -z+1/2'
'x+1/2, y+1/2, -z+1/2'
'-y+1/2, x+1/2, -z+1/2'
'-x+1/2, z+1/2, -y+1/2'
'-x+1/2, y+1/2, z+1/2'
'-x+1/2, -z+1/2, y+1/2'
'-z+1/2, -y+1/2, x+1/2'
'x+1/2, -y+1/2, z+1/2'
'z+1/2, -y+1/2, -x+1/2'
'-z+1/2, -x+1/2, -y+1/2'
'-y+1/2, -z+1/2, -x+1/2'
'y+1/2, z+1/2, -x+1/2'
'-z+1/2, x+1/2, y+1/2'
'y+1/2, -z+1/2, x+1/2'
'z+1/2, x+1/2, -y+1/2'
'z+1/2, -x+1/2, y+1/2'
'-y+1/2, z+1/2, x+1/2'
'-y+1/2, -x+1/2, z+1/2'
'y+1/2, x+1/2, z+1/2'
'x+1/2, -z+1/2, -y+1/2'
'x+1/2, z+1/2, y+1/2'
'-z+1/2, y+1/2, -x+1/2'
'z+1/2, y+1/2, x+1/2'
loop_
_atom_site_label
_atom_site_type_symbol
_atom_site_fract_x
_atom_site_fract_y
_atom_site_fract_z
_atom_site_U_iso_or_equiv
_atom_site_adp_type
_atom_site_occupancy
_atom_site_site_symmetry_order
_atom_site_calc_flag
_atom_site_refinement_flags_posn
_atom_site_refinement_flags_adp
_atom_site_refinement_flags_occupancy
_atom_site_disorder_assembly
_atom_site_disorder_group
Zr1 Zr 0.28505(17) 0.28505(17) 0.22263(9) 0.0678(10) Uani 0.489(16) 2 d S TU P
. .
Zr2 Zr 0.29594(16) 0.29594(16) 0.22688(9) 0.0659(10) Uani 0.511(16) 2 d S TU P
. .
O1 O 0.32830(10) 0.27724(11) 0.18443(10) 0.1166(16) Uani 1 1 d . U . . .
O2 O 0.32327(16) 0.32327(16) 0.2479(2) 0.158(3) Uani 1 2 d S TU P . .
O3 O 0.25698(12) 0.25698(12) 0.19646(12) 0.0971(14) Uani 1 2 d S TU P . .
O4 O 0.28091(13) 0.28091(13) 0.28091(13) 0.0718(18) Uani 1 6 d S TU P . .
N17 N 0.5000 0.2502(3) 0.05168(12) 0.138(3) Uani 1 2 d S TU P . .
C1 C 0.48251(11) 0.2483(2) 0.10864(9) 0.138(3) Uani 1 1 d . U . . .
H1 H 0.4678 0.2476 0.1283 0.166 Uiso 1 1 calc R U . . .
C2 C 0.47199(10) 0.2496(2) 0.07330(10) 0.129(3) Uani 1 1 d . U . . .
C3 C 0.43735(9) 0.2500 0.06265(9) 0.120(3) Uani 1 2 d S TU P . .
C4 C 0.41012(10) 0.2500 0.08988(10) 0.109(3) Uani 1 2 d S TU P . .
C5 C 0.39228(13) 0.2206(2) 0.09665(14) 0.120(2) Uani 1 1 d . U . . .
H5 H 0.3974 0.2002 0.0840 0.144 Uiso 1 1 calc R U . . .
C6 C 0.36606(13) 0.21999(19) 0.12235(13) 0.1048(19) Uani 1 1 d . U . . .
H6 H 0.3533 0.1995 0.1270 0.126 Uiso 1 1 calc R U . . .
C7 C 0.35977(10) 0.2500 0.14023(10) 0.091(2) Uani 1 2 d S TU P . .
C8 C 0.33213(11) 0.2500 0.16787(11) 0.094(2) Uani 1 2 d S TU P . .
Mn1 Mn 0.5000 0.2500 0.0000 0.193(2) Uani 1 8 d S TU P A 2
loop_
_atom_site_aniso_label
_atom_site_aniso_U_11
_atom_site_aniso_U_22
_atom_site_aniso_U_33
_atom_site_aniso_U_23
_atom_site_aniso_U_13
_atom_site_aniso_U_12
Zr1 0.0614(13) 0.0614(13) 0.0806(10) 0.0396(9) 0.0396(9) 0.0234(13)
Zr2 0.0594(13) 0.0594(13) 0.0787(10) 0.0408(9) 0.0408(9) 0.0265(12)
O1 0.124(3) 0.122(3) 0.104(2) 0.071(2) 0.083(2) 0.067(2)
O2 0.134(3) 0.134(3) 0.207(7) 0.015(3) 0.015(3) 0.016(4)
O3 0.115(2) 0.115(2) 0.061(2) 0.0339(18) 0.0339(18) 0.082(2)
O4 0.0718(18) 0.0718(18) 0.0718(18) 0.027(2) 0.027(2) 0.027(2)
N17 0.026(2) 0.357(11) 0.031(2) 0.004(4) 0.000 0.000
C1 0.044(2) 0.347(10) 0.0230(16) -0.001(3) 0.0034(16) 0.003(4)
C2 0.0276(17) 0.329(9) 0.0300(17) 0.002(3) 0.0074(15) 0.005(3)
C3 0.0255(14) 0.309(11) 0.0255(14) 0.006(3) 0.0047(19) 0.006(3)
C4 0.0331(16) 0.260(9) 0.0331(16) 0.009(3) 0.013(2) 0.009(3)
C5 0.059(3) 0.235(7) 0.065(3) -0.009(4) 0.025(2) 0.025(4)
C6 0.062(3) 0.179(5) 0.073(3) 0.010(3) 0.034(2) 0.032(3)
C7 0.053(2) 0.168(6) 0.053(2) 0.035(3) 0.027(3) 0.035(3)
C8 0.076(3) 0.131(6) 0.076(3) 0.043(3) 0.048(3) 0.043(3)
Mn1 0.0233(5) 0.532(7) 0.0233(5) 0.000 0.000 0.000
loop_
_atom_type_symbol
_atom_type_description
_atom_type_scat_dispersion_real
_atom_type_scat_dispersion_imag
_atom_type_scat_source
C C 0.0181 0.0091 'International Tables Vol C Tables 4.2.6.8 and 6.1.1.4'
H H 0.0000 0.0000 'International Tables Vol C Tables 4.2.6.8 and 6.1.1.4'
Mn Mn -0.5299 2.8052 'International Tables Vol C Tables 4.2.6.8 and 6.1.1.4'
N N 0.0311 0.0180 'International Tables Vol C Tables 4.2.6.8 and 6.1.1.4'
O O 0.0492 0.0322 'International Tables Vol C Tables 4.2.6.8 and 6.1.1.4'
Zr Zr -0.1862 2.2449 'International Tables Vol C Tables 4.2.6.8 and 6.1.1.4'
loop_
_geom_angle_atom_site_label_1
_geom_angle_atom_site_label_2
_geom_angle_atom_site_label_3
_geom_angle
_geom_angle_site_symmetry_1
_geom_angle_site_symmetry_3
Zr1 Zr1 Zr1 77.0(4) 83 84
Zr1 Zr1 Zr2 74.4(3) 84 83
Zr1 Zr1 Zr2 74.4(3) 83 84
Zr1 Zr1 Zr2 6.89(8) 84 84
Zr1 Zr1 Zr2 6.89(8) 83 83
Zr2 Zr1 Zr1 140.9(2) . 83
Zr2 Zr1 Zr1 140.9(2) . 84
Zr2 Zr1 Zr2 144.42(15) . 83
Zr2 Zr1 Zr2 144.42(15) . 84
Zr2 Zr1 Zr2 71.1(3) 84 83
Zr2 Zr1 O1 76.1(4) . 68
Zr2 Zr1 O1 76.1(4) . .
Zr2 Zr1 O2 9.7(4) . .
Zr2 Zr1 O3 162.0(5) . .
Zr2 Zr1 O3 102.2(4) . 83
Zr2 Zr1 O3 102.2(4) . 84
Zr2 Zr1 O4 80.3(5) . .
O1 Zr1 Zr1 82.9(2) . 83
O1 Zr1 Zr1 130.4(4) 68 83
O1 Zr1 Zr1 82.9(2) 68 84
O1 Zr1 Zr1 130.4(4) . 84
O1 Zr1 Zr2 123.5(4) . 84
O1 Zr1 Zr2 80.3(2) 68 84
O1 Zr1 Zr2 80.3(2) . 83
O1 Zr1 Zr2 123.5(4) 68 83
O1 Zr1 O1 76.6(2) 68 .
O1 Zr1 O2 83.6(3) . .
O1 Zr1 O2 83.6(3) 68 .
O1 Zr1 O4 134.1(3) . .
O1 Zr1 O4 134.1(3) 68 .
O2 Zr1 Zr1 138.4(2) . 84
O2 Zr1 Zr1 138.4(2) . 83
O2 Zr1 Zr2 143.39(15) . 83
O2 Zr1 Zr2 143.39(15) . 84
O3 Zr1 Zr1 108.5(4) 84 83
O3 Zr1 Zr1 42.0(2) 83 83
O3 Zr1 Zr1 45.0(3) . 84
O3 Zr1 Zr1 108.5(4) 83 84
O3 Zr1 Zr1 45.0(3) . 83
O3 Zr1 Zr1 42.0(2) 84 84
O3 Zr1 Zr2 48.3(2) 84 84
O3 Zr1 Zr2 109.0(4) 84 83
O3 Zr1 Zr2 39.2(2) . 84
O3 Zr1 Zr2 39.2(2) . 83
O3 Zr1 Zr2 109.0(4) 83 84
O3 Zr1 Zr2 48.3(2) 83 83
O3 Zr1 O1 159.53(18) 84 .
O3 Zr1 O1 83.14(14) 83 .
O3 Zr1 O1 89.9(3) . .
O3 Zr1 O1 83.14(14) 84 68
O3 Zr1 O1 89.9(3) . 68
O3 Zr1 O1 159.53(18) 83 68
O3 Zr1 O2 97.4(3) 83 .
O3 Zr1 O2 171.7(3) . .
O3 Zr1 O2 97.4(3) 84 .
O3 Zr1 O3 116.8(3) 84 83
O3 Zr1 O3 87.0(4) . 84
O3 Zr1 O3 87.0(4) . 83
O3 Zr1 O4 64.11(19) 84 .
O3 Zr1 O4 117.7(4) . .
O3 Zr1 O4 64.11(19) 83 .
O4 Zr1 Zr1 91.74(17) . 84
O4 Zr1 Zr1 91.74(17) . 83
O4 Zr1 Zr2 98.2(2) . 84
O4 Zr1 Zr2 98.2(2) . 83
O4 Zr1 O2 70.7(4) . .
Zr1 Zr2 Zr1 63.6(3) . 12
Zr1 Zr2 Zr1 46.48(15) 84 11
Zr1 Zr2 Zr1 32.19(16) . 84
Zr1 Zr2 Zr1 32.19(16) . 83
Zr1 Zr2 Zr1 55.86(5) 11 12
Zr1 Zr2 Zr1 63.6(3) . 11
Zr1 Zr2 Zr1 46.48(15) 83 12
Zr1 Zr2 Zr1 78.69(6) 83 11
Zr1 Zr2 Zr1 63.4(2) 84 83
Zr1 Zr2 Zr1 78.69(6) 84 12
Zr1 Zr2 O1 88.0(5) . .
Zr1 Zr2 O1 88.0(5) . 68
Zr1 Zr2 O2 166.8(6) . .
Zr1 Zr2 O3 61.5(3) . 83
Zr1 Zr2 O3 61.5(3) . 84
Zr1 Zr2 O3 13.5(4) . .
Zr1 Zr2 O4 83.9(5) . .
O1 Zr2 Zr1 72.6(3) 68 84
O1 Zr2 Zr1 105.80(14) 68 11
O1 Zr2 Zr1 105.80(14) . 12
O1 Zr2 Zr1 111.9(4) 68 83
O1 Zr2 Zr1 111.9(4) . 84
O1 Zr2 Zr1 72.6(3) . 83
O1 Zr2 Zr1 150.5(3) 68 12
O1 Zr2 Zr1 150.5(3) . 11
O1 Zr2 O1 79.34(19) 68 .
O1 Zr2 O3 77.7(3) . .
O1 Zr2 O3 77.7(3) 68 .
O1 Zr2 O4 139.55(13) 68 .
O1 Zr2 O4 139.55(13) . .
O2 Zr2 Zr1 105.1(3) . 11
O2 Zr2 Zr1 143.57(18) . 84
O2 Zr2 Zr1 105.1(3) . 12
O2 Zr2 Zr1 143.57(19) . 83
O2 Zr2 O1 102.1(4) . .
O2 Zr2 O1 102.1(4) . 68
O2 Zr2 O3 111.5(3) . 83
O2 Zr2 O3 111.5(3) . 84
O2 Zr2 O3 179.7(5) . .
O2 Zr2 O4 82.9(4) . .
O3 Zr2 Zr1 36.59(18) . 83
O3 Zr2 Zr1 32.53(19) 83 83
O3 Zr2 Zr1 75.24(9) . 11
O3 Zr2 Zr1 25.84(12) 84 11
O3 Zr2 Zr1 79.51(13) 84 12
O3 Zr2 Zr1 79.51(13) 83 11
O3 Zr2 Zr1 25.84(12) 83 12
O3 Zr2 Zr1 36.59(18) . 84
O3 Zr2 Zr1 75.24(9) . 12
O3 Zr2 Zr1 87.9(3) 84 83
O3 Zr2 Zr1 87.9(3) 83 84
O3 Zr2 Zr1 32.53(19) 84 84
O3 Zr2 O1 143.5(4) 84 .
O3 Zr2 O1 79.96(18) 83 .
O3 Zr2 O1 143.5(4) 83 68
O3 Zr2 O1 79.96(18) 84 68
O3 Zr2 O3 68.7(3) 83 .
O3 Zr2 O3 68.7(3) 84 .
O3 Zr2 O3 100.1(3) 84 83
O3 Zr2 O4 61.4(2) 83 .
O3 Zr2 O4 61.4(2) 84 .
O4 Zr2 Zr1 36.3(2) . 12
O4 Zr2 Zr1 36.3(2) . 11
O4 Zr2 Zr1 79.9(2) . 83
O4 Zr2 Zr1 79.9(2) . 84
O4 Zr2 O3 97.4(4) . .
Zr2 O1 Zr1 15.92(8) . .
C8 O1 Zr1 122.7(4) . .
C8 O1 Zr2 137.4(4) . .
Zr2 O2 Zr1 3.49(15) . .
Zr1 O3 Zr1 93.0(4) . 83
Zr1 O3 Zr1 122.9(3) 84 83
Zr1 O3 Zr1 93.0(4) . 84
Zr1 O3 Zr2 95.1(3) 84 .
Zr1 O3 Zr2 108.3(3) . 84
Zr1 O3 Zr2 16.24(11) 83 83
Zr1 O3 Zr2 16.24(11) 84 84
Zr1 O3 Zr2 125.2(3) 83 84
Zr1 O3 Zr2 108.3(3) . 83
Zr1 O3 Zr2 125.2(3) 84 83
Zr1 O3 Zr2 95.1(3) 83 .
Zr1 O3 Zr2 4.50(13) . .
Zr2 O3 Zr2 110.0(3) 83 .
Zr2 O3 Zr2 110.0(3) 84 .
Zr2 O3 Zr2 121.9(3) 83 84
Zr1 O4 Zr1 97.8(4) 11 .
Zr1 O4 Zr1 97.8(4) 11 12
Zr1 O4 Zr1 97.8(4) 12 .
Zr2 O4 Zr1 107.8(3) 12 11
Zr2 O4 Zr1 15.74(7) 12 12
Zr2 O4 Zr1 107.8(3) 11 .
Zr2 O4 Zr1 107.8(3) . 11
Zr2 O4 Zr1 15.74(7) 11 11
Zr2 O4 Zr1 107.8(3) . 12
Zr2 O4 Zr1 15.74(7) . .
Zr2 O4 Zr1 107.8(3) 11 12
Zr2 O4 Zr1 107.8(3) 12 .
Zr2 O4 Zr2 114.5(2) 12 11
Zr2 O4 Zr2 114.5(2) 12 .
Zr2 O4 Zr2 114.5(2) 11 .
C2 N17 C2 104.6(5) . 54_655
C2 N17 Mn1 127.7(2) 54_655 .
C2 N17 Mn1 127.7(2) . .
C1 C1 C2 106.6(2) 54_655 .
N17 C2 C1 111.1(3) . .
N17 C2 C3 125.2(4) . .
C3 C2 C1 123.7(4) . .
C2 C3 C2 124.2(5) . 48
C2 C3 C4 117.9(2) . .
C2 C3 C4 117.9(2) 48 .
C5 C4 C3 119.8(3) 48 .
C5 C4 C3 119.8(3) . .
C5 C4 C5 120.4(6) . 48
C4 C5 C6 120.9(7) . .
C7 C6 C5 117.6(7) . .
C6 C7 C6 122.5(6) . 48
C6 C7 C8 118.8(3) . .
C6 C7 C8 118.8(3) 48 .
O1 C8 O1 126.6(6) 48 .
O1 C8 C7 116.7(3) . .
O1 C8 C7 116.7(3) 48 .
N17 Mn1 N17 90.001(3) . 82
N17 Mn1 N17 90.001(3) . 80_554
N17 Mn1 N17 179.5(6) 82 80_554
N17 Mn1 N17 90.001(3) 51 80_554
N17 Mn1 N17 179.5(6) . 51
N17 Mn1 N17 90.001(3) 82 51
loop_
_geom_bond_atom_site_label_1
_geom_bond_atom_site_label_2
_geom_bond_distance
_geom_bond_site_symmetry_2
Zr1 Zr1 2.743(15) 84
Zr1 Zr1 2.743(15) 83
Zr1 Zr2 3.246(15) 84
Zr1 Zr2 3.246(15) 83
Zr1 Zr2 0.618(3) .
Zr1 O1 2.252(4) .
Zr1 O1 2.252(4) 68
Zr1 O2 2.308(14) .
Zr1 O3 1.943(3) 84
Zr1 O3 1.839(12) .
Zr1 O3 1.943(3) 83
Zr1 O4 2.265(6) .
Zr2 Zr1 3.246(15) 84
Zr2 Zr1 3.246(15) 83
Zr2 Zr1 3.643(5) 12
Zr2 Zr1 3.643(5) 11
Zr2 O1 2.187(4) 68
Zr2 O1 2.187(4) .
Zr2 O2 1.702(14) .
Zr2 O3 2.160(5) 83
Zr2 O3 2.434(12) .
Zr2 O3 2.160(5) 84
Zr2 O4 2.246(3) .
O1 C8 1.242(5) .
O3 Zr1 1.943(3) 83
O3 Zr1 1.943(3) 84
O3 Zr2 2.160(5) 83
O3 Zr2 2.160(5) 84
O4 Zr1 2.265(6) 11
O4 Zr1 2.265(6) 12
O4 Zr2 2.245(3) 12
O4 Zr2 2.245(3) 11
N17 C2 1.369(5) .
N17 C2 1.369(5) 54_655
N17 Mn1 1.998(5) .
C1 C1 1.353(9) 54_655
C1 C2 1.427(5) .
C2 C3 1.402(4) .
C3 C2 1.402(4) 48
C3 C4 1.489(7) .
C4 C5 1.354(8) 48
C4 C5 1.354(8) .
C5 C6 1.420(6) .
C6 C7 1.373(7) .
C7 C6 1.373(7) 48
C7 C8 1.512(7) .
C8 O1 1.242(5) 48
Mn1 N17 1.999(5) 82
Mn1 N17 1.999(5) 80_554
Mn1 N17 1.999(5) 51
loop_
_smtbx_masks_void_nr
_smtbx_masks_void_average_x
_smtbx_masks_void_average_y
_smtbx_masks_void_average_z
_smtbx_masks_void_volume
_smtbx_masks_void_count_electrons
1 -0.100 -0.461 -0.268 47302.4 1784.5
