#------------------------------------------------------------------------------
#$Date: 2019-11-17 07:23:19 +0200 (Sun, 17 Nov 2019) $
#$Revision: 228646 $
#$URL: file:///home/coder/svn-repositories/cod/cif/1/54/93/1549370.cif $
#------------------------------------------------------------------------------
#
# This file is available in the Crystallography Open Database (COD),
# http://www.crystallography.net/
#
# All data on this site have been placed in the public domain by the
# contributors.
#
data_1549370
loop_
_publ_author_name
'Wang, Zikuan'
'Yao, Zhengmin'
'Lyu, Zeyu'
'Xiong, Qinsi'
'Wang, Bingwu'
'Fu, Xuefeng'
_publ_section_title
;
 Thermodynamic and reactivity studies of a tin corrole-cobalt porphyrin
 heterobimetallic complex.
;
_journal_issue                   22
_journal_name_full               'Chemical science'
_journal_page_first              4999
_journal_page_last               5007
_journal_paper_doi               10.1039/c8sc01269e
_journal_volume                  9
_journal_year                    2018
_chemical_formula_moiety         'C74 H16 F30 N8 O Sn2'
_chemical_formula_sum            'C74 H16 F30 N8 O Sn2'
_chemical_formula_weight         1840.33
_chemical_name_systematic        (TPFC)Sn-O-Sn(TPFC)
_space_group_crystal_system      triclinic
_space_group_IT_number           2
_space_group_name_Hall           '-P 1'
_space_group_name_H-M_alt        'P -1'
_symmetry_space_group_name_Hall  '-P 1'
_symmetry_space_group_name_H-M   'P -1'
_atom_sites_solution_hydrogens   geom
_audit_creation_method           SHELXL-2014/7
_audit_update_record
;
2017-03-29 deposited with the CCDC.
2018-05-01 downloaded from the CCDC.
;
_cell_angle_alpha                101.533(2)
_cell_angle_beta                 90.070(2)
_cell_angle_gamma                106.286(2)
_cell_formula_units_Z            2
_cell_length_a                   12.8962(18)
_cell_length_b                   15.333(2)
_cell_length_c                   21.248(3)
_cell_measurement_reflns_used    11066
_cell_measurement_temperature    173(2)
_cell_measurement_theta_max      27.5
_cell_measurement_theta_min      1.0
_cell_volume                     3944.2(9)
_computing_cell_refinement
'CrystalClear-SM Expert 2.0 r4 (Rigaku, 2009)'
_computing_data_collection
'CrystalClear-SM Expert 2.0 r4 (Rigaku, 2009)'
_computing_data_reduction
'CrystalClear-SM Expert 2.0 r4 (Rigaku, 2009)'
_computing_publication_material  'CIFTAB (Sheldrick, 2013)'
_computing_structure_refinement  'SHELXL-2014/7 (Sheldrick, 2014)'
_computing_structure_solution    'SHELXT (Sheldrick, 2014)'
_diffrn_ambient_temperature      173(2)
_diffrn_measured_fraction_theta_full 0.995
_diffrn_measured_fraction_theta_max 0.993
_diffrn_measurement_device_type  'MM007-HF CCD(Saturn 724+)'
_diffrn_measurement_method       '\w scans at fixed \c = 45\%'
_diffrn_radiation_type           MoK\a
_diffrn_radiation_wavelength     0.71073
_diffrn_reflns_av_R_equivalents  0.0451
_diffrn_reflns_av_unetI/netI     0.0491
_diffrn_reflns_Laue_measured_fraction_full 0.995
_diffrn_reflns_Laue_measured_fraction_max 0.993
_diffrn_reflns_limit_h_max       16
_diffrn_reflns_limit_h_min       -16
_diffrn_reflns_limit_k_max       19
_diffrn_reflns_limit_k_min       -19
_diffrn_reflns_limit_l_max       27
_diffrn_reflns_limit_l_min       -27
_diffrn_reflns_number            55543
_diffrn_reflns_point_group_measured_fraction_full 0.995
_diffrn_reflns_point_group_measured_fraction_max 0.993
_diffrn_reflns_theta_full        26.000
_diffrn_reflns_theta_max         27.476
_diffrn_reflns_theta_min         1.415
_exptl_absorpt_coefficient_mu    0.751
_exptl_absorpt_correction_T_max  1.000
_exptl_absorpt_correction_T_min  0.886
_exptl_absorpt_correction_type   multi-scan
_exptl_absorpt_process_details
'CrystalClear-SM Expert 2.0 r4 (Rigaku, 2009)'
_exptl_crystal_colour            black
_exptl_crystal_density_diffrn    1.550
_exptl_crystal_description       block
_exptl_crystal_F_000             1788
_exptl_crystal_size_max          0.27
_exptl_crystal_size_mid          0.15
_exptl_crystal_size_min          0.13
_refine_diff_density_max         1.444
_refine_diff_density_min         -0.907
_refine_diff_density_rms         0.088
_refine_ls_extinction_method     none
_refine_ls_goodness_of_fit_ref   1.089
_refine_ls_hydrogen_treatment    constr
_refine_ls_matrix_type           full
_refine_ls_number_parameters     1148
_refine_ls_number_reflns         17963
_refine_ls_number_restraints     427
_refine_ls_restrained_S_all      1.084
_refine_ls_R_factor_all          0.0606
_refine_ls_R_factor_gt           0.0557
_refine_ls_shift/su_max          0.002
_refine_ls_shift/su_mean         0.000
_refine_ls_structure_factor_coef Fsqd
_refine_ls_weighting_details
'w=1/[\s^2^(Fo^2^)+(0.0526P)^2^+6.9802P] where P=(Fo^2^+2Fc^2^)/3'
_refine_ls_weighting_scheme      calc
_refine_ls_wR_factor_gt          0.1298
_refine_ls_wR_factor_ref         0.1333
_reflns_Friedel_coverage         0.000
_reflns_number_gt                16473
_reflns_number_total             17963
_reflns_threshold_expression     'I > 2\s(I)'
_cod_data_source_file            c8sc01269e2.cif
_cod_data_source_block           mx5350_sq
_cod_depositor_comments
'Adding full bibliography for 1549367--1549371.cif.'
_cod_original_cell_volume        3944.1(10)
_cod_database_code               1549370
_shelx_space_group_comment
;
The symmetry employed for this shelxl refinement is uniquely defined
by the following loop, which should always be used as a source of
symmetry information in preference to the above space-group names.
They are only intended as comments.
;
_olex2_refinement_description
;
1. Fixed Uiso
 At 1.2 times of:
  All C(H) groups
2. Restrained distances
 C8A-C7A = C7A-C6A = C6A-C11A = C11A-C10A = C9A-C10A = C9A-C8A
 1.39 with sigma of 0.01
 F2A-C8A
 1.36 with sigma of 0.01
3. Uiso/Uaniso restraints and constraints
F2 \\sim F3 \\sim F4 \\sim C7 \\sim C8 \\sim C9 \\sim C10 \\sim F3A \\sim F4A
\\sim C9A \\sim C10A \\sim C7A \\sim F1A \\sim C8A \\sim F2A \\sim F5 \\sim C11
\\sim C11A \\sim C6 \\sim C6A \\sim F5A \\sim F1: within 1.7A with sigma of
0.02 and sigma for terminal atoms of 0.04
Uanis(F5) \\sim Ueq, Uanis(F4) \\sim Ueq, Uanis(F3) \\sim Ueq, Uanis(F2) \\sim
Ueq: with sigma of 0.01 and sigma for terminal atoms of 0.02
Uanis(F2) \\sim Ueq, Uanis(F3) \\sim Ueq, Uanis(F4) \\sim Ueq, Uanis(C6) \\sim
Ueq, Uanis(C7) \\sim Ueq, Uanis(C8) \\sim Ueq, Uanis(C9) \\sim Ueq, Uanis(C10)
\\sim Ueq, Uanis(C11) \\sim Ueq, Uanis(F3A) \\sim Ueq, Uanis(F4A) \\sim Ueq,
Uanis(C9A) \\sim Ueq, Uanis(C10A) \\sim Ueq, Uanis(C11A) \\sim Ueq, Uanis(C6A)
\\sim Ueq, Uanis(C7A) \\sim Ueq, Uanis(F1A) \\sim Ueq, Uanis(C8A) \\sim Ueq,
Uanis(F2A) \\sim Ueq, Uanis(F5) \\sim Ueq, Uanis(F5A) \\sim Ueq, Uanis(F1)
\\sim Ueq: with sigma of 0.01 and sigma for terminal atoms of 0.02
4. Others
 Sof(F3A)=Sof(F4A)=Sof(C9A)=Sof(C10A)=Sof(F5A)=1-FVAR(1)
 Sof(F3)=Sof(F4)=Sof(F5)=Sof(C9)=Sof(C10)=FVAR(1)
 Sof(C11A)=1-FVAR(2)
 Sof(C11)=FVAR(2)
 Sof(C6A)=Sof(C7A)=Sof(F8A)=Sof(F1A)=1-FVAR(3)
 Sof(F1)=Sof(F8)=Sof(C6)=Sof(C7)=FVAR(3)
 Sof(C8A)=Sof(F2A)=1-FVAR(4)
 Sof(F2)=Sof(C8)=FVAR(4)
5.a Aromatic/amide H refined with riding coordinates:
 C2(H2), C3(H3), C13(H13), C14(H14), C24(H24), C25(H25), C35(H35), C36(H36),
 C39(H39), C40(H40), C50(H50), C51(H51), C61(H61), C62(H62), C72(H72), C73(H73)
;
_shelx_res_file
;
    mx5350_sq.res created by SHELXL-2014/7

TITL mx5350_a.res in P-1
CELL 0.71073 12.8962 15.3327 21.2478 101.533 90.07 106.286
ZERR 2 0.0018 0.0023 0.0029 0.002 0.002 0.002
LATT 1
SFAC C H F N O Sn
UNIT 148 32 60 16 2 4
DFIX 1.39 0.01 C8A C7A C7A C6A C6A C11A C11A C10A C9A C10A C9A C8A
DFIX 1.36 0.01 F2A C8A
SIMU 0.02 0.04 1.7 F2 F3 F4 C7 C8 C9 C10 F3A F4A C9A C10A C7A F1A C8A F2A F5 =
 C11 C11A C6 C6A F5A F1
ISOR 0.01 0.02 F5 F4 F3 F2
ISOR 0.01 0.02 F2 F3 F4 C6 C7 C8 C9 C10 C11 F3A F4A C9A C10A C11A C6A C7A =
 F1A C8A F2A F5 H13 F5A F1

L.S. 5 0 123
PLAN  20
TEMP 173.15
BOND $H
list 4
MORE -1
CONF
ABIN
fmap 2
acta 52
OMIT -2 -1 3
OMIT 2 3 0
OMIT 1 -5 1
OMIT 0 0 1
OMIT 1 -4 7
REM <olex2.extras>
REM <HklSrc "%.\\mx5350.hkl">
REM </olex2.extras>

WGHT    0.052600    6.980200
FVAR       0.16466   0.66446   0.72936   0.61132   0.64290
SN1   6    0.848401    0.345655    0.779151    11.00000    0.03059    0.02388 =
         0.03773    0.00655    0.00007    0.00642
SN2   6    0.568092    0.330528    0.772440    11.00000    0.03093    0.02759 =
         0.03140    0.00821    0.00381    0.00816
PART 1
F1    3    0.692029   -0.013983    0.802130    41.00000    0.06718    0.04280 =
         0.07859    0.00530   -0.01849    0.00184
F2    3    0.684544   -0.169168    0.841893    51.00000    0.14397    0.03694 =
         0.11250    0.02153   -0.00894   -0.00535
F3    3    0.855514   -0.180297    0.913248    21.00000    0.17416    0.06218 =
         0.09826    0.04552    0.02026    0.06241
F4    3    1.036191   -0.033553    0.940378    21.00000    0.11080    0.13172 =
         0.09177    0.05722    0.01666    0.08666
F5    3    1.041226    0.125105    0.904010    21.00000    0.06272    0.10106 =
         0.09771    0.03861   -0.00974    0.02847
PART 0
F6    3    0.812163    0.160170    0.547899    11.00000    0.05814    0.05960 =
         0.06375    0.00695   -0.01107    0.00391
F7    3    0.858737    0.097176    0.427045    11.00000    0.13349    0.09792 =
         0.05484   -0.00871   -0.03127    0.02333
PART 1
F8    3    1.051607    0.160460    0.388229    41.00000    0.22528    0.26233 =
         0.04435    0.02326    0.03552    0.15694
PART 0
F9    3    1.220970    0.281266    0.473438    11.00000    0.08493    0.17845 =
         0.06617    0.02947    0.03615    0.05097
F10   3    1.175339    0.339533    0.594589    11.00000    0.04334    0.10330 =
         0.05934    0.01595    0.01038    0.01764
F11   3    1.168530    0.691133    0.782641    11.00000    0.04618    0.06739 =
         0.38661    0.10484   -0.04500    0.00093
F12   3    1.223884    0.864498    0.759811    11.00000    0.05394    0.07598 =
         0.40761    0.11779   -0.04101   -0.01829
F13   3    1.071229    0.946028    0.740049    11.00000    0.08066    0.03446 =
         0.15213    0.03832   -0.00994    0.00634
F14   3    0.861537    0.850268    0.735505    11.00000    0.07855    0.06430 =
         0.08334    0.03124    0.00630    0.03980
F15   3    0.804335    0.677880    0.760104    11.00000    0.04480    0.07014 =
         0.12951    0.04335    0.00308    0.01430
F16   3    0.667826    0.624883    0.648162    11.00000    0.07727    0.05915 =
         0.06932    0.02900    0.03757    0.03790
F17   3    0.666681    0.790547    0.625355    11.00000    0.10771    0.07527 =
         0.09540    0.05812    0.04964    0.04353
F18   3    0.540970    0.886692    0.691734    11.00000    0.10266    0.04691 =
         0.09679    0.03472    0.01437    0.03527
F19   3    0.415716    0.815689    0.782095    11.00000    0.08816    0.05986 =
         0.08622    0.01665    0.02136    0.04835
F20   3    0.412014    0.649694    0.804240    11.00000    0.06362    0.05869 =
         0.08119    0.02935    0.03307    0.03038
F21   3    0.624451    0.077139    0.907263    11.00000    0.06289    0.07477 =
         0.09737    0.03155    0.00030    0.01183
F22   3    0.567409   -0.085709    0.946137    11.00000    0.10811    0.08806 =
         0.10716    0.05366    0.01590    0.04674
F23   3    0.355172   -0.181554    0.946115    11.00000    0.10033    0.06445 =
         0.11118    0.05991    0.00415    0.01335
F24   3    0.201514   -0.117817    0.902413    11.00000    0.07227    0.09258 =
         0.15364    0.06902    0.03030    0.01138
F25   3    0.255237    0.042017    0.859600    11.00000    0.06136    0.09387 =
         0.14227    0.06955    0.02053    0.02524
F26   3    0.561889    0.157054    0.548370    11.00000    0.04440    0.10196 =
         0.06002   -0.00830    0.00607    0.00959
F27   3    0.501848    0.053574    0.429836    11.00000    0.08236    0.10611 =
         0.05173   -0.01100    0.01969    0.01786
F28   3    0.289408   -0.006135    0.388514    11.00000    0.10543    0.05875 =
         0.04108    0.00134   -0.01586    0.00429
F29   3    0.137881    0.034785    0.469523    11.00000    0.06264    0.09311 =
         0.08314   -0.01721   -0.03755    0.01814
F30   3    0.198989    0.137097    0.588694    11.00000    0.04241    0.08364 =
         0.07360   -0.01142   -0.00778    0.02039
O1    5    0.704102    0.315847    0.740898    11.00000    0.03522    0.03575 =
         0.03469    0.00453    0.00289    0.01347
N1    4    0.853769    0.307420    0.866216    11.00000    0.04357    0.03362 =
         0.03904    0.00744   -0.00182    0.00933
N2    4    0.906968    0.235432    0.743360    11.00000    0.03543    0.02502 =
         0.04218    0.00818    0.00351    0.00947
N3    4    0.945027    0.420315    0.720396    11.00000    0.03706    0.02468 =
         0.04889    0.01132    0.00542    0.00398
N4    4    0.882112    0.469477    0.845713    11.00000    0.04525    0.02842 =
         0.04661    0.00410   -0.00043    0.00779
N5    4    0.462121    0.200412    0.749333    11.00000    0.03620    0.02810 =
         0.03546    0.00840    0.00018    0.00334
N6    4    0.495033    0.368913    0.701471    11.00000    0.03371    0.02833 =
         0.03537    0.00932    0.00114    0.00993
N7    4    0.580961    0.461699    0.824484    11.00000    0.04427    0.03111 =
         0.03545    0.00382    0.00320    0.01356
N8    4    0.556928    0.314330    0.866187    11.00000    0.04487    0.03487 =
         0.03311    0.01168    0.00449    0.00874
C1    1    0.855835    0.373279    0.921111    11.00000    0.04121    0.04147 =
         0.03565    0.00361    0.00100    0.01123
C2    1    0.852489    0.329355    0.973628    11.00000    0.04957    0.05812 =
         0.03816    0.00520    0.00015    0.01799
AFIX  43
H2    2    0.850142    0.356536    1.016646    11.00000   -1.20000
AFIX   0
C3    1    0.853303    0.239172    0.950099    11.00000    0.05178    0.04638 =
         0.04572    0.01564    0.00240    0.01375
AFIX  43
H3    2    0.851725    0.194787    0.974470    11.00000   -1.20000
AFIX   0
C4    1    0.857012    0.225512    0.881352    11.00000    0.03987    0.04275 =
         0.04034    0.01677    0.00001    0.01152
C5    1    0.874726    0.153682    0.834117    11.00000    0.04533    0.03421 =
         0.04936    0.01343   -0.00231    0.01271
PART 1
C6    1    0.865008    0.062252    0.853772    41.00000    0.04788    0.03507 =
         0.04778    0.01370   -0.00181    0.01362
C7    1    0.776020   -0.015467    0.837638    41.00000    0.05157    0.03925 =
         0.05812    0.01077   -0.00393    0.01556
C8    1    0.774823   -0.094836    0.858999    51.00000    0.07953    0.03536 =
         0.07322    0.01757    0.00465    0.01341
C9    1    0.862591   -0.099331    0.894116    21.00000    0.08807    0.05178 =
         0.06364    0.02420    0.01367    0.04160
C10   1    0.949054   -0.029054    0.907745    21.00000    0.07158    0.06439 =
         0.05055    0.02093    0.01014    0.03635
C11   1    0.952973    0.054456    0.888056    31.00000    0.06117    0.06059 =
         0.05831    0.02476    0.00532    0.02305
PART 0
C12   1    0.897839    0.158133    0.770194    11.00000    0.04142    0.03034 =
         0.04541    0.00877   -0.00406    0.01192
C13   1    0.927223    0.091359    0.722046    11.00000    0.06039    0.03264 =
         0.04801    0.00688   -0.00311    0.02187
AFIX  43
H13   2    0.928566    0.032541    0.726454    11.00000   -1.20000
AFIX   0
C14   1    0.952830    0.127303    0.668932    11.00000    0.04983    0.03496 =
         0.04269    0.00204   -0.00225    0.01955
AFIX  43
H14   2    0.974376    0.097450    0.630862    11.00000   -1.20000
AFIX   0
C15   1    0.941012    0.219150    0.681496    11.00000    0.03520    0.03386 =
         0.04052    0.00768    0.00013    0.00982
C16   1    0.965791    0.285530    0.642971    11.00000    0.03688    0.03852 =
         0.03741    0.00663    0.00000    0.01412
C17   1    0.992037    0.251827    0.575405    11.00000    0.04983    0.04385 =
         0.04079    0.01058    0.00136    0.02107
C18   1    0.913446    0.190784    0.530988    11.00000    0.05975    0.05214 =
         0.04386    0.00932   -0.00440    0.01857
C19   1    0.937343    0.158039    0.467725    11.00000    0.09968    0.06789 =
         0.04533    0.00290   -0.01989    0.02746
C20   1    1.040569    0.190490    0.449064    11.00000    0.08697    0.10528 =
         0.03962    0.01104    0.01201    0.04000
C21   1    1.120163    0.251698    0.491433    11.00000    0.07360    0.11007 =
         0.04735    0.02327    0.02045    0.03857
C22   1    1.094554    0.281184    0.553959    11.00000    0.05296    0.07524 =
         0.04361    0.01393    0.00571    0.02869
C23   1    0.971229    0.379885    0.661074    11.00000    0.03268    0.03885 =
         0.04476    0.01348    0.00696    0.00944
C24   1    1.008382    0.452269    0.625993    11.00000    0.04895    0.04673 =
         0.05456    0.02098    0.01142    0.01015
AFIX  43
H24   2    1.031304    0.444974    0.584282    11.00000   -1.20000
AFIX   0
C25   1    1.004325    0.533180    0.664131    11.00000    0.05353    0.03664 =
         0.06510    0.02215    0.00884    0.00511
AFIX  43
H25   2    1.024277    0.590886    0.652787    11.00000   -1.20000
AFIX   0
C26   1    0.964247    0.515838    0.725044    11.00000    0.03943    0.02892 =
         0.05846    0.01526    0.00244    0.00483
C27   1    0.952579    0.579962    0.779856    11.00000    0.03846    0.02139 =
         0.06476    0.00799   -0.00520    0.00447
C28   1    0.984233    0.679609    0.773516    11.00000    0.04205    0.02569 =
         0.06381    0.00804   -0.00425    0.00372
C29   1    1.089981    0.730179    0.774185    11.00000    0.04253    0.03756 =
         0.18812    0.04223   -0.02735    0.00267
C30   1    1.119552    0.819284    0.761975    11.00000    0.04520    0.04149 =
         0.19405    0.04198   -0.01998   -0.00450
C31   1    1.041602    0.859224    0.751296    11.00000    0.06161    0.02803 =
         0.09915    0.02100   -0.00456    0.01164
C32   1    0.937683    0.811627    0.749384    11.00000    0.05955    0.03952 =
         0.04420    0.00957    0.00129    0.02076
C33   1    0.909167    0.722464    0.760930    11.00000    0.04688    0.03357 =
         0.05051    0.00907   -0.00169    0.01054
C34   1    0.917853    0.559708    0.839288    11.00000    0.04141    0.02551 =
         0.05754    0.00389   -0.00320    0.00974
C35   1    0.924658    0.615036    0.902063    11.00000    0.05159    0.02912 =
         0.06612   -0.00598   -0.00912    0.01061
AFIX  43
H35   2    0.944174    0.679603    0.912486    11.00000   -1.20000
AFIX   0
C36   1    0.897573    0.557183    0.944820    11.00000    0.05488    0.04533 =
         0.05086   -0.00478   -0.00370    0.01618
AFIX  43
H36   2    0.896016    0.575557    0.989172    11.00000   -1.20000
AFIX   0
C37   1    0.872466    0.464680    0.909401    11.00000    0.04033    0.03838 =
         0.04041   -0.00149   -0.00503    0.00768
C38   1    0.598619    0.476527    0.889857    11.00000    0.04193    0.03892 =
         0.03346    0.00452    0.00426    0.01205
C39   1    0.615675    0.572790    0.914544    11.00000    0.05228    0.04193 =
         0.04103   -0.00133    0.00477    0.01242
AFIX  43
H39   2    0.631724    0.603269    0.957382    11.00000   -1.20000
AFIX   0
C40   1    0.604145    0.612767    0.863588    11.00000    0.05099    0.03164 =
         0.04836    0.00140    0.00622    0.01078
AFIX  43
H40   2    0.611448    0.675486    0.866145    11.00000   -1.20000
AFIX   0
C41   1    0.579174    0.542550    0.806156    11.00000    0.03714    0.02833 =
         0.04332    0.00750    0.00826    0.00863
C42   1    0.543556    0.540015    0.743065    11.00000    0.03763    0.03327 =
         0.04609    0.01356    0.00798    0.01432
C43   1    0.541208    0.631436    0.727595    11.00000    0.04298    0.03378 =
         0.04866    0.01425    0.00637    0.01254
C44   1    0.604874    0.670478    0.682491    11.00000    0.05113    0.04647 =
         0.05305    0.01767    0.01592    0.02336
C45   1    0.604946    0.756090    0.670269    11.00000    0.06294    0.04458 =
         0.06563    0.02702    0.01775    0.01874
C46   1    0.541848    0.804470    0.703590    11.00000    0.07139    0.04086 =
         0.06619    0.02195    0.00866    0.02650
C47   1    0.477919    0.768125    0.748778    11.00000    0.06153    0.04273 =
         0.06592    0.01370    0.01152    0.03001
C48   1    0.477649    0.682646    0.760164    11.00000    0.04798    0.04113 =
         0.05579    0.01266    0.01174    0.01771
C49   1    0.504038    0.459738    0.695055    11.00000    0.03196    0.03037 =
         0.04350    0.01184    0.00375    0.01009
C50   1    0.459003    0.450685    0.631179    11.00000    0.04176    0.04202 =
         0.05136    0.01871    0.00033    0.01719
AFIX  43
H50   2    0.453313    0.499714    0.613078    11.00000   -1.20000
AFIX   0
C51   1    0.426434    0.360391    0.601728    11.00000    0.04346    0.04187 =
         0.04107    0.01428   -0.00418    0.01483
AFIX  43
H51   2    0.395700    0.336947    0.559980    11.00000   -1.20000
AFIX   0
C52   1    0.447007    0.306797    0.645329    11.00000    0.03302    0.03421 =
         0.03822    0.01096    0.00076    0.00944
C53   1    0.420279    0.210150    0.637923    11.00000    0.03575    0.03816 =
         0.03402    0.00741    0.00028    0.00803
C54   1    0.382957    0.152941    0.572239    11.00000    0.04565    0.03235 =
         0.03646    0.00764   -0.00309    0.00605
C55   1    0.275570    0.118623    0.549880    11.00000    0.04124    0.04419 =
         0.04999    0.00534   -0.00691    0.01111
C56   1    0.244215    0.066545    0.488529    11.00000    0.05459    0.04580 =
         0.05913    0.00518   -0.01985    0.00604
C57   1    0.319407    0.045210    0.447874    11.00000    0.07325    0.04107 =
         0.03687    0.00842   -0.00855    0.00740
C58   1    0.425617    0.075166    0.468710    11.00000    0.07094    0.05734 =
         0.04110    0.01075    0.01087    0.01364
C59   1    0.456719    0.129145    0.529771    11.00000    0.04656    0.05188 =
         0.04105    0.00467    0.00002    0.00416
C60   1    0.423616    0.159410    0.686399    11.00000    0.03312    0.03089 =
         0.03911    0.00663   -0.00166    0.00620
C61   1    0.385361    0.061929    0.683150    11.00000    0.04465    0.03293 =
         0.04942    0.00968   -0.00194    0.00303
AFIX  43
H61   2    0.354944    0.017132    0.646553    11.00000   -1.20000
AFIX   0
C62   1    0.400659    0.045242    0.742332    11.00000    0.04663    0.02646 =
         0.05823    0.01229   -0.00415    0.00118
AFIX  43
H62   2    0.383360   -0.012887    0.752999    11.00000   -1.20000
AFIX   0
C63   1    0.447742    0.131946    0.785362    11.00000    0.03902    0.03509 =
         0.04446    0.01884    0.00655    0.00782
C64   1    0.472736    0.148888    0.852232    11.00000    0.04248    0.04040 =
         0.04365    0.02301    0.00985    0.01093
C65   1    0.440883    0.065652    0.881858    11.00000    0.04937    0.04561 =
         0.04764    0.02221    0.00598    0.01251
C66   1    0.336828    0.014488    0.883038    11.00000    0.05803    0.07153 =
         0.09655    0.05112    0.01615    0.02372
C67   1    0.307162   -0.068340    0.904782    11.00000    0.05711    0.06514 =
         0.09865    0.04610    0.01782    0.00658
C68   1    0.384415   -0.100764    0.926201    11.00000    0.07805    0.05161 =
         0.06955    0.03355   -0.00177    0.01412
C69   1    0.488527   -0.053640    0.925034    11.00000    0.07695    0.05276 =
         0.04847    0.02007    0.00737    0.03033
C70   1    0.516059    0.028332    0.902942    11.00000    0.05404    0.05561 =
         0.06144    0.02432    0.01026    0.01650
C71   1    0.519901    0.236881    0.892281    11.00000    0.04116    0.04613 =
         0.03877    0.01889    0.00987    0.01425
C72   1    0.528992    0.269583    0.960235    11.00000    0.05468    0.05698 =
         0.03684    0.01847    0.00701    0.01765
AFIX  43
H72   2    0.512266    0.232689    0.990732    11.00000   -1.20000
AFIX   0
C73   1    0.566517    0.364516    0.973073    11.00000    0.05711    0.06059 =
         0.03286    0.01071    0.00663    0.02143
AFIX  43
H73   2    0.579494    0.403442    1.013633    11.00000   -1.20000
AFIX   0
C74   1    0.582079    0.392871    0.913148    11.00000    0.04137    0.04254 =
         0.03238    0.00651    0.00205    0.01008
PART 2
F3A   3    0.939345   -0.142110    0.933175   -21.00000    0.14932    0.06214 =
         0.08812    0.04112    0.03093    0.06569
F4A   3    1.096407    0.024372    0.957650   -21.00000    0.09687    0.10437 =
         0.06939    0.03952    0.01066    0.06024
C9A   1    0.925061   -0.072973    0.909186   -21.00000    0.08506    0.05697 =
         0.06092    0.02225    0.01023    0.02983
C10A  1    1.003324    0.011944    0.921232   -21.00000    0.06785    0.05697 =
         0.05284    0.02016    0.00998    0.03485
F5A   3    1.064627    0.164349    0.911452   -21.00000    0.07392    0.07810 =
         0.06292    0.02446   -0.00395    0.03456
C11A  1    0.986855    0.084912    0.897277   -31.00000    0.05308    0.05052 =
         0.05050    0.02056   -0.00053    0.01679
C6A   1    0.896435    0.075270    0.858422   -41.00000    0.05638    0.03731 =
         0.04676    0.02518    0.00760    0.01371
C7A   1    0.819044   -0.010595    0.846948   -41.00000    0.06131    0.04488 =
         0.05900    0.01685    0.00583    0.01907
F8A   3    1.072430    0.156559    0.389716   -41.00000    0.06642    0.10556 =
         0.03010   -0.00133    0.01024    0.03063
F1A   3    0.731330   -0.023025    0.807441   -41.00000    0.08514    0.04204 =
         0.10736    0.00620    0.00089    0.00948
C8A   1    0.833090   -0.084030    0.871651   -51.00000    0.07539    0.05361 =
         0.06909    0.01133    0.00575    0.02575
F2A   3    0.753513   -0.164796    0.860739   -51.00000    0.13997    0.04277 =
         0.10938    0.02042    0.02622    0.01281
HKLF 4

REM  mx5350_a.res in P-1
REM R1 =  0.0557 for   16473 Fo > 4sig(Fo)  and  0.0606 for all   17963 data
REM   1148 parameters refined using    427 restraints

END

WGHT      0.0526      6.9801

REM Highest difference peak  1.444,  deepest hole -0.907,  1-sigma level  0.088
Q1    1   0.2376 -0.0223  0.9968  11.00000  0.05    1.44
Q2    1   0.5759  0.0178  0.8486  11.00000  0.05    1.36
Q3    1   0.5130 -0.1332  0.9019  11.00000  0.05    1.05
Q4    1   1.2110  0.8894  0.8316  11.00000  0.05    0.93
Q5    1   0.3194 -0.0140  0.9615  11.00000  0.05    0.90
Q6    1   0.3414 -0.1401  0.9921  11.00000  0.05    0.90
Q7    1   0.3548  0.0681  0.9363  11.00000  0.05    0.86
Q8    1   1.1480  0.7092  0.8469  11.00000  0.05    0.67
Q9    1   0.3024  0.1058  0.9272  11.00000  0.05    0.65
Q10   1   0.8330  0.6655  0.7138  11.00000  0.05    0.61
Q11   1   0.9367  0.3935  0.7524  11.00000  0.05    0.55
Q12   1   0.7374  0.3127  0.7822  11.00000  0.05    0.54
Q13   1   1.1226  0.8356  0.8128  11.00000  0.05    0.54
Q14   1   0.5940  0.4209  0.8096  11.00000  0.05    0.53
Q15   1   0.6790  0.3572  0.7641  11.00000  0.05    0.49
Q16   1   1.1034  0.9578  0.7841  11.00000  0.05    0.48
Q17   1   0.5299  0.2612  0.7209  11.00000  0.05    0.45
Q18   1   0.8849  0.4343  0.8166  11.00000  0.05    0.45
Q19   1   0.4850  0.2501  0.7629  11.00000  0.05    0.44
Q20   1   0.4601  0.2982  0.7904  11.00000  0.05    0.44
;
_shelx_res_checksum              22812
_shelx_fab_checksum              49845
_shelx_fab_file
;
    0    0    1    -52.31      0.00
    0    0    4      1.57      0.00
    0    0    5      0.82      0.00
    0    0    6     -3.13      0.00
    0    0    7     -3.47      0.00
    0    0    8      6.66      0.00
    0    0    9      4.28      0.00
    0    0   10      1.18      0.00
    0    0   11     -3.51      0.00
    0    0   12     -1.23      0.00
    0    0   13      2.34      0.00
    0    0   14     -3.66      0.00
    0    0   15     -0.24      0.00
    0    0   16     -2.29      0.00
    0    0   17      2.60      0.00
    0    0   18      1.62      0.00
    0    0   19      0.96      0.00
    0    0   20     -0.28      0.00
    0    0   21     -0.85      0.00
    0    0   22      1.50      0.00
    0    0   23     -0.43      0.00
    0    0   24      0.14      0.00
    0    0   25      0.39      0.00
    0   -1   26     -1.47      0.00
    0   -1   25      2.18      0.00
    0   -1   24     -1.45      0.00
    0   -1   23      1.45      0.00
    0   -1   22     -1.64      0.00
    0   -1   21      0.71      0.00
    0   -1   20     -0.69      0.00
    0   -1   19     -0.15      0.00
    0   -1   18     -0.08      0.00
    0   -1   17     -0.69      0.00
    0   -1   16      4.28      0.00
    0   -1   15     -0.33      0.00
    0   -1   14      1.80      0.00
    0   -1   13     -2.36      0.00
    0   -1   12      0.38      0.00
    0   -1   11      2.18      0.00
    0   -1   10     -7.51      0.00
    0   -1    9      0.97      0.00
    0   -1    8     -6.02      0.00
    0   -1    7      4.12      0.00
    0   -1    6    -11.76      0.00
    0   -1    5     19.45      0.00
    0   -1    4     -4.44      0.00
    0   -1    3     98.42      0.00
    0    1    0   -130.96      0.00
    0    1    1     68.19      0.00
    0    1    3     32.97      0.00
    0    1    4     -1.25      0.00
    0    1    5      5.77      0.00
    0    1    6      5.95      0.00
    0    1    7     -6.79      0.00
    0    1    8    -10.08      0.00
    0    1    9     -6.25      0.00
    0    1   10      2.17      0.00
    0    1   11     -0.68      0.00
    0    1   12     -1.14      0.00
    0    1   13      0.47      0.00
    0    1   14      3.41      0.00
    0    1   15      0.40      0.00
    0    1   16      0.88      0.00
    0    1   17     -3.75      0.00
    0    1   18      0.52      0.00
    0    1   19      1.88      0.00
    0    1   20      1.62      0.00
    0    1   21      0.89      0.00
    0    1   22     -0.10      0.00
    0    1   23     -1.12      0.00
    0    1   24      1.37      0.00
    0   -2   27     -1.15      0.00
    0   -2   26      1.13      0.00
    0   -2   25     -2.24      0.00
    0   -2   24      0.47      0.00
    0   -2   23     -0.68      0.00
    0   -2   22      0.02      0.00
    0   -2   21     -0.38      0.00
    0   -2   20      0.25      0.00
    0   -2   19     -0.28      0.00
    0   -2   18     -0.21      0.00
    0   -2   17      0.05      0.00
    0   -2   16     -1.72      0.00
    0   -2   15      2.35      0.00
    0   -2   14      0.59      0.00
    0   -2   13      2.79      0.00
    0   -2   12      2.18      0.00
    0   -2   11     -2.32      0.00
    0   -2   10      4.31      0.00
    0   -2    9     -4.97      0.00
    0   -2    8      4.15      0.00
    0   -2    7    -10.56      0.00
    0   -2    6     16.78      0.00
    0   -2    5    -39.80      0.00
    0   -2    4      6.71      0.00
    0   -2    3    -30.90      0.00
    0   -2    2     52.63      0.00
    0    2    0      3.30      0.00
    0    2    2    -20.90      0.00
    0    2    3    -10.30      0.00
    0    2    4      8.60      0.00
    0    2    5     -7.87      0.00
    0    2    6      3.86      0.00
    0    2    7     12.28      0.00
    0    2    8      4.92      0.00
    0    2    9      0.36      0.00
    0    2   10     -1.51      0.00
    0    2   11     -1.78      0.00
    0    2   12     -0.95      0.00
    0    2   13     -4.53      0.00
    0    2   14     -3.45      0.00
    0    2   15      1.31      0.00
    0    2   16      1.96      0.00
    0    2   17      1.21      0.00
    0    2   18     -1.32      0.00
    0    2   19     -1.57      0.00
    0    2   20     -0.19      0.00
    0    2   21     -0.17      0.00
    0    2   22      1.43      0.00
    0    2   24     -0.14      0.00
    0    2   25     -0.61      0.00
    0   -3   27      0.92      0.00
    0   -3   26      0.27      0.00
    0   -3   25      0.45      0.00
    0   -3   24      0.49      0.00
    0   -3   23     -0.33      0.00
    0   -3   22     -0.01      0.00
    0   -3   21     -0.96      0.00
    0   -3   20     -1.02      0.00
    0   -3   19      0.49      0.00
    0   -3   18     -0.92      0.00
    0   -3   17      1.08      0.00
    0   -3   16     -0.74      0.00
    0   -3   15      0.05      0.00
    0   -3   14      0.00      0.00
    0   -3   13     -0.33      0.00
    0   -3   12      2.16      0.00
    0   -3   11      3.73      0.00
    0   -3   10      1.04      0.00
    0   -3    9      6.26      0.00
    0   -3    8     -4.38      0.00
    0   -3    7     11.83      0.00
    0   -3    6    -15.01      0.00
    0   -3    5     10.86      0.00
    0   -3    4     -1.01      0.00
    0   -3    3    -20.06      0.00
    0   -3    2      9.13      0.00
    0   -3    1    -29.43      0.00
    0    3    0     14.22      0.00
    0    3    1      7.33      0.00
    0    3    2     -0.92      0.00
    0    3    3      8.75      0.00
    0    3    4     -6.37      0.00
    0    3    5      5.13      0.00
    0    3    6     -5.53      0.00
    0    3    7     -1.87      0.00
    0    3    8     -0.50      0.00
    0    3    9      1.68      0.00
    0    3   10      0.00      0.00
    0    3   11      3.27      0.00
    0    3   12      1.42      0.00
    0    3   13      2.36      0.00
    0    3   14     -1.45      0.00
    0    3   15     -2.47      0.00
    0    3   16     -3.01      0.00
    0    3   17      1.17      0.00
    0    3   18      0.75      0.00
    0    3   19      0.51      0.00
    0    3   20     -0.50      0.00
    0    3   21      0.43      0.00
    0    3   22     -1.63      0.00
    0    3   24      0.05      0.00
    0    3   25      0.91      0.00
    0   -4   27      0.30      0.00
    0   -4   26     -0.43      0.00
    0   -4   25     -0.32      0.00
    0   -4   24      0.19      0.00
    0   -4   23      1.01      0.00
    0   -4   22     -0.49      0.00
    0   -4   21      0.73      0.00
    0   -4   20      1.09      0.00
    0   -4   19     -2.40      0.00
    0   -4   18      1.26      0.00
    0   -4   17     -1.75      0.00
    0   -4   16      1.71      0.00
    0   -4   15     -2.06      0.00
    0   -4   14      1.57      0.00
    0   -4   13      0.37      0.00
    0   -4   12     -2.29      0.00
    0   -4   11      1.39      0.00
    0   -4   10     -0.88      0.00
    0   -4    9     -3.71      0.00
    0   -4    8      4.03      0.00
    0   -4    7      0.18      0.00
    0   -4    6      9.03      0.00
    0   -4    5     11.64      0.00
    0   -4    4    -15.60      0.00
    0   -4    3     10.05      0.00
    0   -4    2    -15.51      0.00
    0   -4    1     11.24      0.00
    0    4    0     -1.16      0.00
    0    4    1     -5.79      0.00
    0    4    3     -5.63      0.00
    0    4    4      5.37      0.00
    0    4    5     -4.23      0.00
    0    4    6      4.24      0.00
    0    4    7     -0.42      0.00
    0    4    8      4.31      0.00
    0    4    9      0.45      0.00
    0    4   10     -0.20      0.00
    0    4   11     -1.15      0.00
    0    4   12     -0.84      0.00
    0    4   13     -0.33      0.00
    0    4   14      2.65      0.00
    0    4   15     -0.38      0.00
    0    4   16      0.45      0.00
    0    4   17     -1.59      0.00
    0    4   18     -2.06      0.00
    0    4   19      0.02      0.00
    0    4   20      0.30      0.00
    0    4   21     -0.33      0.00
    0    4   22     -0.72      0.00
    0    4   23     -1.62      0.00
    0    4   24      0.32      0.00
    0    4   25     -0.17      0.00
    0   -5   27     -0.81      0.00
    0   -5   26      0.35      0.00
    0   -5   25     -1.31      0.00
    0   -5   24     -0.24      0.00
    0   -5   23      0.17      0.00
    0   -5   22      0.06      0.00
    0   -5   21     -0.76      0.00
    0   -5   20     -0.57      0.00
    0   -5   19      1.64      0.00
    0   -5   18     -2.57      0.00
    0   -5   17      1.41      0.00
    0   -5   16     -2.19      0.00
    0   -5   15      1.74      0.00
    0   -5   14     -1.78      0.00
    0   -5   13     -1.19      0.00
    0   -5   12      1.68      0.00
    0   -5   11     -0.07      0.00
    0   -5   10      4.98      0.00
    0   -5    9      0.11      0.00
    0   -5    8      2.66      0.00
    0   -5    7     -8.72      0.00
    0   -5    6     -2.04      0.00
    0   -5    5     -2.36      0.00
    0   -5    4     13.31      0.00
    0   -5    3      4.32      0.00
    0   -5    2     -0.52      0.00
    0   -5    1     -6.27      0.00
    0    5    0     -4.58      0.00
    0    5    1      0.24      0.00
    0    5    2     -2.88      0.00
    0    5    3      0.83      0.00
    0    5    4     -4.53      0.00
    0    5    5      6.01      0.00
    0    5    6     -3.79      0.00
    0    5    7     -0.18      0.00
    0    5    8     -1.99      0.00
    0    5    9      0.73      0.00
    0    5   10      2.87      0.00
    0    5   11      0.32      0.00
    0    5   12      1.12      0.00
    0    5   13      0.47      0.00
    0    5   14     -0.18      0.00
    0    5   15     -0.35      0.00
    0    5   16      0.58      0.00
    0    5   17      0.97      0.00
    0    5   18      0.78      0.00
    0    5   19     -1.84      0.00
    0    5   20      0.52      0.00
    0    5   21      0.24      0.00
    0    5   22      0.89      0.00
    0    5   23      0.66      0.00
    0    5   24     -1.67      0.00
    0   -6   27      0.65      0.00
    0   -6   26      0.02      0.00
    0   -6   25      0.23      0.00
    0   -6   24     -1.38      0.00
    0   -6   23     -0.78      0.00
    0   -6   22      0.97      0.00
    0   -6   21     -0.33      0.00
    0   -6   20      0.30      0.00
    0   -6   19     -0.18      0.00
    0   -6   18      0.83      0.00
    0   -6   17     -1.87      0.00
    0   -6   16     -0.39      0.00
    0   -6   15     -1.81      0.00
    0   -6   14      1.10      0.00
    0   -6   13     -0.91      0.00
    0   -6   12     -3.36      0.00
    0   -6   11     -0.57      0.00
    0   -6   10     -6.50      0.00
    0   -6    9      5.65      0.00
    0   -6    8     -2.08      0.00
    0   -6    7      8.42      0.00
    0   -6    6      3.80      0.00
    0   -6    5     -6.56      0.00
    0   -6    4     -3.24      0.00
    0   -6    3     -4.71      0.00
    0   -6    2      6.63      0.00
    0   -6    1      6.33      0.00
    0    6    0      0.82      0.00
    0    6    1     -0.66      0.00
    0    6    2      1.16      0.00
    0    6    3     -5.07      0.00
    0    6    4     -0.68      0.00
    0    6    5     -6.35      0.00
    0    6    6      1.30      0.00
    0    6    7      0.68      0.00
    0    6    8      0.41      0.00
    0    6    9      0.48      0.00
    0    6   10     -0.84      0.00
    0    6   11      2.09      0.00
    0    6   12     -1.46      0.00
    0    6   13      0.85      0.00
    0    6   14     -0.25      0.00
    0    6   15      0.53      0.00
    0    6   16     -0.03      0.00
    0    6   17     -0.28      0.00
    0    6   18     -0.31      0.00
    0    6   19      1.33      0.00
    0    6   20     -0.51      0.00
    0    6   21     -0.42      0.00
    0    6   22      0.33      0.00
    0    6   23      0.28      0.00
    0   -7   27      0.04      0.00
    0   -7   26     -0.06      0.00
    0   -7   25      1.85      0.00
    0   -7   24     -0.05      0.00
    0   -7   23      0.60      0.00
    0   -7   22     -0.35      0.00
    0   -7   21      0.47      0.00
    0   -7   20      0.12      0.00
    0   -7   19     -0.39      0.00
    0   -7   18      1.32      0.00
    0   -7   17      0.97      0.00
    0   -7   16     -0.33      0.00
    0   -7   15      0.01      0.00
    0   -7   14     -2.30      0.00
    0   -7   13      0.61      0.00
    0   -7   12      1.34      0.00
    0   -7   11     -2.54      0.00
    0   -7   10      2.31      0.00
    0   -7    9     -4.88      0.00
    0   -7    8     -1.39      0.00
    0   -7    7     -2.19      0.00
    0   -7    6     -2.62      0.00
    0   -7    5      9.38      0.00
    0   -7    4      3.40      0.00
    0   -7    3      2.51      0.00
    0   -7    2     -4.63      0.00
    0   -7    1     -1.25      0.00
    0    7    0      0.14      0.00
    0    7    1      2.46      0.00
    0    7    2     -0.26      0.00
    0    7    3      2.12      0.00
    0    7    4      1.32      0.00
    0    7    5      1.30      0.00
    0    7    6     -2.76      0.00
    0    7    7     -3.30      0.00
    0    7    8     -1.66      0.00
    0    7    9     -1.99      0.00
    0    7   10     -0.13      0.00
    0    7   11     -1.17      0.00
    0    7   12      2.23      0.00
    0    7   13      0.60      0.00
    0    7   14      0.29      0.00
    0    7   15     -0.26      0.00
    0    7   16     -0.63      0.00
    0    7   17      0.11      0.00
    0    7   18      0.16      0.00
    0    7   19     -0.90      0.00
    0    7   20     -0.45      0.00
    0    7   21      0.40      0.00
    0    7   22     -0.13      0.00
    0   -8   26      2.03      0.00
    0   -8   25     -0.96      0.00
    0   -8   24      0.98      0.00
    0   -8   23      0.23      0.00
    0   -8   22      0.25      0.00
    0   -8   21      0.20      0.00
    0   -8   20      0.15      0.00
    0   -8   19      0.52      0.00
    0   -8   18     -0.53      0.00
    0   -8   17      0.06      0.00
    0   -8   16      1.86      0.00
    0   -8   15      0.04      0.00
    0   -8   14      0.96      0.00
    0   -8   13     -1.00      0.00
    0   -8   12      0.53      0.00
    0   -8   11     -0.42      0.00
    0   -8   10     -0.87      0.00
    0   -8    9     -1.04      0.00
    0   -8    8      1.84      0.00
    0   -8    7     -0.29      0.00
    0   -8    6     -0.94      0.00
    0   -8    5     -5.96      0.00
    0   -8    4     -1.42      0.00
    0   -8    3      1.54      0.00
    0   -8    2      6.21      0.00
    0   -8    1     -0.35      0.00
    0    8    0      1.97      0.00
    0    8    1      0.80      0.00
    0    8    2      0.70      0.00
    0    8    3      0.91      0.00
    0    8    4     -1.80      0.00
    0    8    5      0.46      0.00
    0    8    6      1.59      0.00
    0    8    7      1.11      0.00
    0    8    8      0.39      0.00
    0    8    9     -0.26      0.00
    0    8   10     -0.95      0.00
    0    8   11     -0.90      0.00
    0    8   12     -2.14      0.00
    0    8   13     -1.10      0.00
    0    8   14      1.05      0.00
    0    8   15      1.92      0.00
    0    8   16      0.34      0.00
    0    8   17     -0.27      0.00
    0    8   18      0.43      0.00
    0    8   19     -0.24      0.00
    0    8   20     -0.07      0.00
    0    8   21     -0.64      0.00
    0    8   22     -1.10      0.00
    0   -9   26     -2.29      0.00
    0   -9   25      0.38      0.00
    0   -9   24      0.64      0.00
    0   -9   23     -0.74      0.00
    0   -9   22     -0.34      0.00
    0   -9   21      1.14      0.00
    0   -9   20     -0.57      0.00
    0   -9   19      0.77      0.00
    0   -9   18      0.95      0.00
    0   -9   17     -0.21      0.00
    0   -9   16     -0.35      0.00
    0   -9   15      1.51      0.00
    0   -9   14     -0.69      0.00
    0   -9   13      1.11      0.00
    0   -9   12     -1.90      0.00
    0   -9   11      2.66      0.00
    0   -9   10     -1.41      0.00
    0   -9    9      0.13      0.00
    0   -9    8     -3.77      0.00
    0   -9    7     -0.52      0.00
    0   -9    6      2.09      0.00
    0   -9    5      1.14      0.00
    0   -9    4     -1.51      0.00
    0   -9    3     -1.60      0.00
    0   -9    2     -2.16      0.00
    0   -9    1      1.25      0.00
    0    9    0      0.64      0.00
    0    9    1     -0.16      0.00
    0    9    2      1.62      0.00
    0    9    3      1.21      0.00
    0    9    4      1.07      0.00
    0    9    5      0.02      0.00
    0    9    6     -0.67      0.00
    0    9    7     -0.50      0.00
    0    9    8     -1.02      0.00
    0    9    9      0.34      0.00
    0    9   10      0.09      0.00
    0    9   11      1.07      0.00
    0    9   12      1.62      0.00
    0    9   13     -0.40      0.00
    0    9   14     -1.38      0.00
    0    9   15     -1.61      0.00
    0    9   16      0.46      0.00
    0    9   17      1.91      0.00
    0    9   18      0.32      0.00
    0    9   19      0.87      0.00
    0    9   20      0.50      0.00
    0    9   21      0.18      0.00
    0  -10   25     -0.26      0.00
    0  -10   24     -1.66      0.00
    0  -10   23      1.50      0.00
    0  -10   22      0.72      0.00
    0  -10   21     -1.67      0.00
    0  -10   20     -0.43      0.00
    0  -10   19     -0.60      0.00
    0  -10   18     -0.42      0.00
    0  -10   17      0.55      0.00
    0  -10   16     -0.46      0.00
    0  -10   15      0.29      0.00
    0  -10   14      1.41      0.00
    0  -10   13     -1.16      0.00
    0  -10   12      2.60      0.00
    0  -10   11     -2.75      0.00
    0  -10   10      2.63      0.00
    0  -10    9      0.34      0.00
    0  -10    8      0.86      0.00
    0  -10    7     -2.05      0.00
    0  -10    6     -2.23      0.00
    0  -10    5     -0.05      0.00
    0  -10    4     -0.48      0.00
    0  -10    3     -0.40      0.00
    0  -10    2     -0.50      0.00
    0  -10    1     -0.71      0.00
    0   10    0     -0.83      0.00
    0   10    1     -0.61      0.00
    0   10    2      0.25      0.00
    0   10    3     -0.02      0.00
    0   10    4      1.31      0.00
    0   10    5      0.64      0.00
    0   10    6      1.22      0.00
    0   10    7      0.64      0.00
    0   10    8      1.04      0.00
    0   10    9     -0.71      0.00
    0   10   10     -0.88      0.00
    0   10   11     -2.02      0.00
    0   10   12     -1.08      0.00
    0   10   13      0.44      0.00
    0   10   14      2.02      0.00
    0   10   15      0.28      0.00
    0   10   16     -1.28      0.00
    0   10   17     -1.72      0.00
    0   10   18     -0.13      0.00
    0   10   19      0.36      0.00
    0  -11   25      0.89      0.00
    0  -11   24      0.52      0.00
    0  -11   23     -2.49      0.00
    0  -11   22      0.66      0.00
    0  -11   21      1.87      0.00
    0  -11   20      0.15      0.00
    0  -11   19     -0.49      0.00
    0  -11   18     -0.16      0.00
    0  -11   17     -0.55      0.00
    0  -11   16      0.99      0.00
    0  -11   15     -0.65      0.00
    0  -11   14     -0.36      0.00
    0  -11   13      2.07      0.00
    0  -11   12     -1.32      0.00
    0  -11   11      2.80      0.00
    0  -11   10     -1.59      0.00
    0  -11    9      1.24      0.00
    0  -11    8     -0.35      0.00
    0  -11    7      1.25      0.00
    0  -11    6      0.11      0.00
    0  -11    5     -0.77      0.00
    0  -11    4     -1.24      0.00
    0  -11    3     -0.84      0.00
    0  -11    2     -0.88      0.00
    0  -11    1      0.05      0.00
    0   11    0      0.05      0.00
    0   11    1      0.37      0.00
    0   11    2     -0.93      0.00
    0   11    3      0.46      0.00
    0   11    4     -0.32      0.00
    0   11    5      0.40      0.00
    0   11    6      0.26      0.00
    0   11    7      0.22      0.00
    0   11    8     -0.14      0.00
    0   11    9      1.37      0.00
    0   11   10      1.02      0.00
    0   11   11      1.86      0.00
    0   11   12     -0.73      0.00
    0   11   13     -0.40      0.00
    0   11   14     -1.76      0.00
    0   11   15      0.11      0.00
    0   11   16      1.93      0.00
    0   11   17      0.28      0.00
    0   11   18     -0.47      0.00
    0  -12   24      1.00      0.00
    0  -12   23      0.06      0.00
    0  -12   22     -1.58      0.00
    0  -12   21     -0.28      0.00
    0  -12   20      0.58      0.00
    0  -12   19      0.66      0.00
    0  -12   18     -0.12      0.00
    0  -12   17     -0.92      0.00
    0  -12   16     -0.27      0.00
    0  -12   15      0.11      0.00
    0  -12   14      0.59      0.00
    0  -12   13     -0.83      0.00
    0  -12   12      0.20      0.00
    0  -12   11     -0.90      0.00
    0  -12   10      2.76      0.00
    0  -12    9      0.05      0.00
    0  -12    8      1.54      0.00
    0  -12    7     -0.38      0.00
    0  -12    6      0.85      0.00
    0  -12    5      1.27      0.00
    0  -12    4      0.76      0.00
    0  -12    3     -0.11      0.00
    0  -12    2     -1.28      0.00
    0  -12    1     -0.85      0.00
    0   12    0     -0.75      0.00
    0   12    1     -0.62      0.00
    0   12    2     -0.04      0.00
    0   12    3     -0.37      0.00
    0   12    4     -0.08      0.00
    0   12    5      0.44      0.00
    0   12    6     -0.19      0.00
    0   12    7      0.85      0.00
    0   12    8      0.73      0.00
    0   12    9     -0.64      0.00
    0   12   10     -0.18      0.00
    0   12   11     -0.24      0.00
    0   12   12      0.22      0.00
    0   12   13      0.51      0.00
    0   12   14      0.88      0.00
    0   12   15      0.48      0.00
    0   12   16     -1.12      0.00
    0  -13   23      0.48      0.00
    0  -13   22     -0.02      0.00
    0  -13   21     -2.16      0.00
    0  -13   20     -0.76      0.00
    0  -13   19      0.60      0.00
    0  -13   18     -1.24      0.00
    0  -13   17      1.03      0.00
    0  -13   16     -1.71      0.00
    0  -13   15     -0.42      0.00
    0  -13   14     -0.32      0.00
    0  -13   13     -0.34      0.00
    0  -13   12      0.99      0.00
    0  -13   11     -0.74      0.00
    0  -13   10     -1.09      0.00
    0  -13    9      0.76      0.00
    0  -13    8      1.33      0.00
    0  -13    7      0.31      0.00
    0  -13    6     -0.18      0.00
    0  -13    5      0.63      0.00
    0  -13    4      1.32      0.00
    0  -13    3      0.90      0.00
    0  -13    2      1.34      0.00
    0  -13    1     -0.26      0.00
    0   13    0      0.11      0.00
    0   13    1     -1.18      0.00
    0   13    2     -0.03      0.00
    0   13    3     -1.26      0.00
    0   13    4      0.10      0.00
    0   13    5     -0.79      0.00
    0   13    6      0.15      0.00
    0   13    7     -0.44      0.00
    0   13    8     -0.03      0.00
    0   13    9      0.53      0.00
    0   13   10      0.56      0.00
    0   13   11      0.64      0.00
    0   13   12      1.06      0.00
    0   13   13     -1.56      0.00
    0   13   14     -0.50      0.00
    0   13   15     -0.26      0.00
    0  -14   22      0.96      0.00
    0  -14   21     -0.30      0.00
    0  -14   20      1.17      0.00
    0  -14   19     -0.97      0.00
    0  -14   18      2.18      0.00
    0  -14   17     -0.15      0.00
    0  -14   16      0.38      0.00
    0  -14   15     -0.02      0.00
    0  -14   14     -0.49      0.00
    0  -14   13      0.45      0.00
    0  -14   12     -1.18      0.00
    0  -14   11      0.35      0.00
    0  -14   10     -1.55      0.00
    0  -14    9      0.01      0.00
    0  -14    8      0.12      0.00
    0  -14    7      0.06      0.00
    0  -14    6      0.85      0.00
    0  -14    5     -1.00      0.00
    0  -14    4     -0.48      0.00
    0  -14    3      0.29      0.00
    0  -14    2     -0.12      0.00
    0  -14    1      1.21      0.00
    0   14    0     -0.59      0.00
    0   14    1      1.62      0.00
    0   14    2     -1.08      0.00
    0   14    3      0.25      0.00
    0   14    4     -1.21      0.00
    0   14    5      0.46      0.00
    0   14    6     -0.99      0.00
    0   14    7     -0.70      0.00
    0   14    8      1.02      0.00
    0   14    9     -1.13      0.00
    0   14   10     -0.99      0.00
    0   14   12     -0.12      0.00
    0   14   13      0.98      0.00
    0   14   14     -0.61      0.00
    0  -15   21      2.70      0.00
    0  -15   20     -1.87      0.00
    0  -15   19     -1.14      0.00
    0  -15   18      0.09      0.00
    0  -15   17      0.49      0.00
    0  -15   16      0.72      0.00
    0  -15   15     -0.29      0.00
    0  -15   14     -0.12      0.00
    0  -15   13     -0.59      0.00
    0  -15   12      0.17      0.00
    0  -15   11      0.85      0.00
    0  -15   10     -0.65      0.00
    0  -15    9     -1.40      0.00
    0  -15    8     -1.03      0.00
    0  -15    7      0.86      0.00
    0  -15    6     -0.38      0.00
    0  -15    5      0.28      0.00
    0  -15    4      0.68      0.00
    0  -15    3     -1.23      0.00
    0  -15    2      0.82      0.00
    0  -15    1     -0.84      0.00
    0   15    0      0.47      0.00
    0   15    1     -0.32      0.00
    0   15    2      1.85      0.00
    0   15    3     -1.08      0.00
    0   15    4      0.84      0.00
    0   15    5     -0.25      0.00
    0   15    6      0.12      0.00
    0   15    7      0.13      0.00
    0   15    8     -1.40      0.00
    0   15    9      1.01      0.00
    0   15   10     -0.20      0.00
    0   15   11     -1.10      0.00
    0   15   12      0.09      0.00
    0  -16   19      1.16      0.00
    0  -16   18     -1.02      0.00
    0  -16   17      0.08      0.00
    0  -16   16     -0.58      0.00
    0  -16   15      1.12      0.00
    0  -16   14      0.78      0.00
    0  -16   13     -0.63      0.00
    0  -16   12      0.38      0.00
    0  -16   11     -0.38      0.00
    0  -16   10      1.54      0.00
    0  -16    9     -0.93      0.00
    0  -16    8     -0.06      0.00
    0  -16    7     -1.01      0.00
    0  -16    6     -1.17      0.00
    0  -16    5      1.24      0.00
    0  -16    4     -0.09      0.00
    0  -16    3      0.42      0.00
    0  -16    2     -0.58      0.00
    0  -16    1      1.14      0.00
    0   16    0     -1.13      0.00
    0   16    1      0.06      0.00
    0   16    2     -0.33      0.00
    0   16    3      1.24      0.00
    0   16    4     -0.47      0.00
    0   16    5      0.00      0.00
    0   16    6      0.10      0.00
    0   16    7      0.59      0.00
    0   16    8      0.84      0.00
    0   16    9     -0.14      0.00
    0  -17   17     -0.06      0.00
    0  -17   16      0.85      0.00
    0  -17   15     -1.04      0.00
    0  -17   14      0.34      0.00
    0  -17   13      0.83      0.00
    0  -17   12     -1.24      0.00
    0  -17   11      0.65      0.00
    0  -17   10     -0.62      0.00
    0  -17    9      1.48      0.00
    0  -17    8      0.03      0.00
    0  -17    7      0.34      0.00
    0  -17    6      0.07      0.00
    0  -17    5     -1.04      0.00
    0  -17    4      0.39      0.00
    0  -17    3      0.78      0.00
    0  -17    2      1.29      0.00
    0  -17    1      0.44      0.00
    0   17    0      1.19      0.00
    0   17    1      0.08      0.00
    0   17    2      0.35      0.00
    0   17    3     -0.08      0.00
    0   17    4      0.57      0.00
    0   17    5      0.16      0.00
    0   17    6     -0.26      0.00
    0   17    7     -1.33      0.00
    0  -18   14     -0.16      0.00
    0  -18   13     -0.21      0.00
    0  -18   12      0.74      0.00
    0  -18   11     -0.78      0.00
    0  -18   10     -0.04      0.00
    0  -18    9     -0.64      0.00
    0  -18    8      0.19      0.00
    0  -18    7     -0.09      0.00
    0  -18    6      0.30      0.00
    0  -18    5     -0.30      0.00
    0  -18    4     -0.79      0.00
    0  -18    3     -1.35      0.00
    0  -18    2     -0.63      0.00
    0  -18    1     -0.27      0.00
    0   18    0      0.24      0.00
    0   18    1      0.22      0.00
    0   18    2     -0.67      0.00
    0   18    3      0.42      0.00
    0  -19    8     -0.82      0.00
    0  -19    7      0.67      0.00
    0  -19    6     -0.10      0.00
    0  -19    5      0.03      0.00
    0  -19    4      0.32      0.00
    0  -19    3      0.33      0.00
    1  -19    1     -0.29      0.00
    1  -19    2     -0.07      0.00
    1  -19    3     -0.93      0.00
    1  -19    4     -0.05      0.00
    1  -19    5      0.04      0.00
    1  -19    6     -0.59      0.00
    1  -19    7     -0.10      0.00
    1  -19    8     -0.33      0.00
    1  -19    9     -0.17      0.00
    1  -19   10     -0.48      0.00
    1  -19   11      0.86      0.00
   -1   18    4     -0.19      0.00
   -1   18    3      0.37      0.00
   -1   18    2      0.00      0.00
   -1   18    1     -0.53      0.00
   -1   18    0      0.83      0.00
    1  -18    1      1.96      0.00
    1  -18    2      0.16      0.00
    1  -18    3      0.49      0.00
    1  -18    4      0.20      0.00
    1  -18    5      0.10      0.00
    1  -18    6     -0.05      0.00
    1  -18    7      0.01      0.00
    1  -18    8      0.52      0.00
    1  -18    9     -0.17      0.00
    1  -18   10     -0.41      0.00
    1  -18   11     -1.35      0.00
    1  -18   12      0.99      0.00
    1  -18   13      0.24      0.00
    1  -18   14      0.19      0.00
    1  -18   15      0.06      0.00
   -1   17    8      0.89      0.00
   -1   17    7     -0.01      0.00
   -1   17    6     -0.31      0.00
   -1   17    5     -1.15      0.00
   -1   17    4      0.78      0.00
   -1   17    3      0.66      0.00
   -1   17    2     -0.57      0.00
   -1   17    1      0.20      0.00
   -1   17    0     -0.18      0.00
    1  -17    1     -0.39      0.00
    1  -17    2      0.77      0.00
    1  -17    3      0.40      0.00
    1  -17    4      0.57      0.00
    1  -17    5     -0.30      0.00
    1  -17    6      0.23      0.00
    1  -17    7     -0.87      0.00
    1  -17    8     -0.62      0.00
    1  -17    9      0.53      0.00
    1  -17   10      0.68      0.00
    1  -17   11      0.42      0.00
    1  -17   12     -1.30      0.00
    1  -17   13      0.50      0.00
    1  -17   14      0.28      0.00
    1  -17   15      1.14      0.00
    1  -17   16      0.76      0.00
    1  -17   17      0.05      0.00
    1  -17   18      0.44      0.00
   -1   16   10      0.35      0.00
   -1   16    9      0.45      0.00
   -1   16    8     -0.30      0.00
   -1   16    7     -0.04      0.00
   -1   16    6      0.84      0.00
   -1   16    5     -0.64      0.00
   -1   16    4     -0.62      0.00
   -1   16    3     -0.22      0.00
   -1   16    2      0.77      0.00
   -1   16    1     -0.39      0.00
   -1   16    0     -0.31      0.00
    1  -16    1     -0.21      0.00
    1  -16    2     -0.42      0.00
    1  -16    3      0.31      0.00
    1  -16    4     -0.49      0.00
    1  -16    5      0.65      0.00
    1  -16    6      1.03      0.00
    1  -16    7     -0.08      0.00
    1  -16    8     -0.87      0.00
    1  -16    9     -0.44      0.00
    1  -16   10     -0.62      0.00
    1  -16   11     -0.33      0.00
    1  -16   12      0.44      0.00
    1  -16   13     -1.14      0.00
    1  -16   14     -1.35      0.00
    1  -16   15     -0.02      0.00
    1  -16   16      0.72      0.00
    1  -16   17      0.56      0.00
    1  -16   18     -0.83      0.00
    1  -16   19     -1.23      0.00
    1  -16   20      0.24      0.00
   -1   15   12      1.10      0.00
   -1   15   11     -0.25      0.00
   -1   15   10     -1.06      0.00
   -1   15    9      0.31      0.00
   -1   15    8     -0.34      0.00
   -1   15    7      0.29      0.00
   -1   15    6     -0.85      0.00
   -1   15    5      0.47      0.00
   -1   15    4     -0.16      0.00
   -1   15    3     -0.66      0.00
   -1   15    2     -0.70      0.00
   -1   15    1     -0.22      0.00
   -1   15    0      0.67      0.00
    1  -15    1     -1.27      0.00
    1  -15    2      0.35      0.00
    1  -15    3      0.24      0.00
    1  -15    4     -0.99      0.00
    1  -15    5     -0.10      0.00
    1  -15    6      1.00      0.00
    1  -15    7      0.62      0.00
    1  -15    8      0.81      0.00
    1  -15    9      0.03      0.00
    1  -15   10      0.03      0.00
    1  -15   11     -0.40      0.00
    1  -15   12      1.29      0.00
    1  -15   13      0.43      0.00
    1  -15   14      0.61      0.00
    1  -15   15     -1.46      0.00
    1  -15   16     -0.56      0.00
    1  -15   17      1.28      0.00
    1  -15   18      0.10      0.00
    1  -15   19      2.30      0.00
    1  -15   20     -1.85      0.00
    1  -15   21     -0.32      0.00
   -1   14   14     -0.24      0.00
   -1   14   13     -0.79      0.00
   -1   14   12      0.79      0.00
   -1   14   11      0.24      0.00
   -1   14   10      0.26      0.00
   -1   14    9      0.00      0.00
   -1   14    8     -0.07      0.00
   -1   14    7      0.75      0.00
   -1   14    6     -0.01      0.00
   -1   14    5     -0.84      0.00
   -1   14    4     -0.57      0.00
   -1   14    3      0.90      0.00
   -1   14    2     -1.37      0.00
   -1   14    1     -0.11      0.00
   -1   14    0      0.04      0.00
    1  -14    1      0.40      0.00
    1  -14    2     -0.37      0.00
    1  -14    3      1.14      0.00
    1  -14    4      0.54      0.00
    1  -14    5     -0.34      0.00
    1  -14    6     -1.51      0.00
    1  -14    7      1.69      0.00
    1  -14    8      0.81      0.00
    1  -14    9      0.04      0.00
    1  -14   10      0.54      0.00
    1  -14   11     -0.03      0.00
    1  -14   12     -1.10      0.00
    1  -14   13      0.32      0.00
    1  -14   14     -0.67      0.00
    1  -14   15      0.16      0.00
    1  -14   16      0.23      0.00
    1  -14   17     -2.82      0.00
    1  -14   18      1.49      0.00
    1  -14   19     -1.01      0.00
    1  -14   20      0.25      0.00
    1  -14   21     -1.42      0.00
    1  -14   22     -0.05      0.00
   -1   13   16     -0.82      0.00
   -1   13   15      0.48      0.00
   -1   13   14      0.57      0.00
   -1   13   13     -1.02      0.00
   -1   13   12     -0.90      0.00
   -1   13   11      1.49      0.00
   -1   13   10      0.71      0.00
   -1   13    9     -0.86      0.00
   -1   13    8      0.99      0.00
   -1   13    7      0.15      0.00
   -1   13    6      1.23      0.00
   -1   13    5      0.50      0.00
   -1   13    4      0.71      0.00
   -1   13    3     -0.01      0.00
   -1   13    2      0.24      0.00
   -1   13    1     -0.48      0.00
   -1   13    0     -0.92      0.00
    1  -13    1     -1.09      0.00
    1  -13    2     -1.15      0.00
    1  -13    3     -0.54      0.00
    1  -13    4      1.48      0.00
    1  -13    5     -0.06      0.00
    1  -13    6      0.58      0.00
    1  -13    7     -0.50      0.00
    1  -13    8     -0.43      0.00
    1  -13    9      1.57      0.00
    1  -13   10      0.40      0.00
    1  -13   11      0.00      0.00
    1  -13   12      0.00      0.00
    1  -13   13      1.38      0.00
    1  -13   14      0.16      0.00
    1  -13   15      0.23      0.00
    1  -13   16     -0.40      0.00
    1  -13   17      0.20      0.00
    1  -13   18     -1.65      0.00
    1  -13   19      1.00      0.00
    1  -13   20      0.15      0.00
    1  -13   21      0.60      0.00
    1  -13   22     -2.34      0.00
    1  -13   23     -0.37      0.00
   -1   12   17      1.20      0.00
   -1   12   16      0.27      0.00
   -1   12   15     -0.56      0.00
   -1   12   14      0.92      0.00
   -1   12   13      0.47      0.00
   -1   12   12     -0.55      0.00
   -1   12   11     -0.26      0.00
   -1   12   10      0.79      0.00
   -1   12    9      0.71      0.00
   -1   12    8     -0.64      0.00
   -1   12    7      0.19      0.00
   -1   12    6      0.90      0.00
   -1   12    5      0.14      0.00
   -1   12    4      0.43      0.00
   -1   12    3      0.16      0.00
   -1   12    2      0.95      0.00
   -1   12    1      0.68      0.00
   -1   12    0      0.77      0.00
    1  -12    1      0.52      0.00
    1  -12    2     -0.67      0.00
    1  -12    3     -2.62      0.00
    1  -12    4     -1.17      0.00
    1  -12    5     -0.59      0.00
    1  -12    6     -0.66      0.00
    1  -12    7      0.15      0.00
    1  -12    8     -0.25      0.00
    1  -12    9      0.15      0.00
    1  -12   10      0.31      0.00
    1  -12   11      0.55      0.00
    1  -12   12      1.27      0.00
    1  -12   13     -1.75      0.00
    1  -12   14      0.90      0.00
    1  -12   15      0.61      0.00
    1  -12   16      0.39      0.00
    1  -12   17      1.09      0.00
    1  -12   18     -0.40      0.00
    1  -12   19     -1.19      0.00
    1  -12   20      1.50      0.00
    1  -12   21     -0.45      0.00
    1  -12   22     -0.15      0.00
    1  -12   23     -0.39      0.00
    1  -12   24     -0.05      0.00
   -1   11   19     -0.35      0.00
   -1   11   18     -0.81      0.00
   -1   11   17      0.05      0.00
   -1   11   16     -0.88      0.00
   -1   11   15      1.20      0.00
   -1   11   14      0.01      0.00
   -1   11   13     -1.20      0.00
   -1   11   12     -0.85      0.00
   -1   11   11     -1.83      0.00
   -1   11   10     -0.79      0.00
   -1   11    9      0.35      0.00
   -1   11    8     -0.19      0.00
   -1   11    7      0.29      0.00
   -1   11    6     -0.77      0.00
   -1   11    5      1.29      0.00
   -1   11    4      0.63      0.00
   -1   11    3      0.50      0.00
   -1   11    2      0.20      0.00
   -1   11    1     -0.73      0.00
   -1   11    0      0.05      0.00
    1  -11    1      0.96      0.00
    1  -11    2      0.26      0.00
    1  -11    3      1.09      0.00
    1  -11    4     -0.54      0.00
    1  -11    5     -0.60      0.00
    1  -11    6     -1.82      0.00
    1  -11    7     -2.11      0.00
    1  -11    8      0.72      0.00
    1  -11    9     -1.36      0.00
    1  -11   10     -0.47      0.00
    1  -11   11      0.44      0.00
    1  -11   12     -0.71      0.00
    1  -11   13      1.43      0.00
    1  -11   14     -0.17      0.00
    1  -11   15     -0.09      0.00
    1  -11   16     -0.54      0.00
    1  -11   17      0.28      0.00
    1  -11   18      0.61      0.00
    1  -11   19     -0.15      0.00
    1  -11   20     -0.80      0.00
    1  -11   21      2.57      0.00
    1  -11   22      0.65      0.00
    1  -11   23      1.21      0.00
    1  -11   24     -0.94      0.00
    1  -11   25     -0.18      0.00
   -1   10   20      0.93      0.00
   -1   10   19     -0.04      0.00
   -1   10   18      0.58      0.00
   -1   10   17      0.02      0.00
   -1   10   16      0.05      0.00
   -1   10   15     -1.25      0.00
   -1   10   14      0.15      0.00
   -1   10   13      2.71      0.00
   -1   10   12      0.82      0.00
   -1   10   11     -0.08      0.00
   -1   10   10     -0.59      0.00
   -1   10    9     -1.64      0.00
   -1   10    8     -1.18      0.00
   -1   10    7     -0.60      0.00
   -1   10    6     -0.15      0.00
   -1   10    5     -1.14      0.00
   -1   10    4      0.31      0.00
   -1   10    3      1.08      0.00
   -1   10    2      0.16      0.00
   -1   10    1      1.46      0.00
   -1   10    0      0.76      0.00
    1  -10    1     -0.44      0.00
    1  -10    2      0.82      0.00
    1  -10    3     -1.54      0.00
    1  -10    4      1.18      0.00
    1  -10    5      0.99      0.00
    1  -10    6      0.80      0.00
    1  -10    7     -1.45      0.00
    1  -10    8     -2.38      0.00
    1  -10    9      0.05      0.00
    1  -10   10     -0.71      0.00
    1  -10   11     -0.22      0.00
    1  -10   12     -1.42      0.00
    1  -10   13     -0.57      0.00
    1  -10   14      0.99      0.00
    1  -10   15     -0.13      0.00
    1  -10   16      1.34      0.00
    1  -10   17      0.10      0.00
    1  -10   18      0.47      0.00
    1  -10   19     -0.10      0.00
    1  -10   20      0.81      0.00
    1  -10   21     -2.56      0.00
    1  -10   22      0.04      0.00
    1  -10   23     -0.95      0.00
    1  -10   24      1.37      0.00
    1  -10   25     -1.47      0.00
    1  -10   26      0.24      0.00
   -1    9   21     -0.09      0.00
   -1    9   20      0.00      0.00
   -1    9   19      1.14      0.00
   -1    9   18      0.26      0.00
   -1    9   17      0.14      0.00
   -1    9   16      1.63      0.00
   -1    9   15      0.64      0.00
   -1    9   14     -1.01      0.00
   -1    9   13     -1.23      0.00
   -1    9   12     -0.35      0.00
   -1    9   11      0.09      0.00
   -1    9   10      1.45      0.00
   -1    9    9     -0.07      0.00
   -1    9    8      0.87      0.00
   -1    9    7     -1.06      0.00
   -1    9    6     -1.23      0.00
   -1    9    5     -0.75      0.00
   -1    9    4     -1.71      0.00
   -1    9    3      0.47      0.00
   -1    9    2      0.82      0.00
   -1    9    1      0.24      0.00
   -1    9    0      0.00      0.00
    1   -9    1      2.88      0.00
    1   -9    2      1.85      0.00
    1   -9    3      1.06      0.00
    1   -9    4     -2.94      0.00
    1   -9    5      0.74      0.00
    1   -9    6      0.39      0.00
    1   -9    7      3.30      0.00
    1   -9    8     -0.22      0.00
    1   -9    9     -2.58      0.00
    1   -9   10      0.88      0.00
    1   -9   11     -1.84      0.00
    1   -9   12      1.76      0.00
    1   -9   13     -1.20      0.00
    1   -9   14     -1.44      0.00
    1   -9   15      0.50      0.00
    1   -9   16     -0.98      0.00
    1   -9   17      0.36      0.00
    1   -9   18     -0.63      0.00
    1   -9   19      0.39      0.00
    1   -9   20     -0.04      0.00
    1   -9   21      1.09      0.00
    1   -9   22      0.03      0.00
    1   -9   23      0.70      0.00
    1   -9   24     -0.60      0.00
    1   -9   25      1.93      0.00
    1   -9   26     -0.23      0.00
   -1    8   22      1.36      0.00
   -1    8   21     -2.14      0.00
   -1    8   20     -0.86      0.00
   -1    8   19     -1.04      0.00
   -1    8   18     -0.90      0.00
   -1    8   17      0.44      0.00
   -1    8   16     -0.71      0.00
   -1    8   15     -0.18      0.00
   -1    8   14      1.32      0.00
   -1    8   13      2.33      0.00
   -1    8   12     -0.53      0.00
   -1    8   11      0.16      0.00
   -1    8   10     -2.72      0.00
   -1    8    9      0.18      0.00
   -1    8    8     -2.13      0.00
   -1    8    7     -0.10      0.00
   -1    8    6      1.67      0.00
   -1    8    5     -1.01      0.00
   -1    8    4      1.03      0.00
   -1    8    3     -3.83      0.00
   -1    8    2      0.44      0.00
   -1    8    1      0.04      0.00
   -1    8    0     -1.37      0.00
    1   -8    1     -0.23      0.00
    1   -8    2     -0.28      0.00
    1   -8    3      4.35      0.00
    1   -8    4      7.73      0.00
    1   -8    5     -3.65      0.00
    1   -8    6      0.61      0.00
    1   -8    7     -2.67      0.00
    1   -8    8      0.66      0.00
    1   -8    9      3.27      0.00
    1   -8   10     -2.96      0.00
    1   -8   11      1.74      0.00
    1   -8   12     -2.01      0.00
    1   -8   13     -0.09      0.00
    1   -8   14     -0.30      0.00
    1   -8   15     -1.67      0.00
    1   -8   16      1.23      0.00
    1   -8   17     -0.16      0.00
    1   -8   18      0.40      0.00
    1   -8   19     -0.28      0.00
    1   -8   20      0.54      0.00
    1   -8   21     -0.28      0.00
    1   -8   22      0.86      0.00
    1   -8   23     -1.09      0.00
    1   -8   24      0.46      0.00
    1   -8   25     -0.26      0.00
    1   -8   26     -0.60      0.00
   -1    7   23      1.41      0.00
   -1    7   22     -1.16      0.00
   -1    7   21      1.56      0.00
   -1    7   20      0.91      0.00
   -1    7   19     -0.79      0.00
   -1    7   18     -0.36      0.00
   -1    7   17     -0.90      0.00
   -1    7   16      0.85      0.00
   -1    7   15     -1.04      0.00
   -1    7   14     -0.60      0.00
   -1    7   13     -1.46      0.00
   -1    7   12      2.11      0.00
   -1    7   11      1.63      0.00
   -1    7   10      2.78      0.00
   -1    7    9      0.56      0.00
   -1    7    8      0.83      0.00
   -1    7    7     -0.85      0.00
   -1    7    6     -3.92      0.00
   -1    7    5      0.06      0.00
   -1    7    4     -3.87      0.00
   -1    7    3      2.63      0.00
   -1    7    2     -1.50      0.00
   -1    7    1     -2.02      0.00
   -1    7    0      2.68      0.00
    1   -7    1      0.05      0.00
    1   -7    2     -3.26      0.00
    1   -7    3     -4.68      0.00
    1   -7    4     -5.75      0.00
    1   -7    5      7.90      0.00
    1   -7    6      4.97      0.00
    1   -7    7      2.22      0.00
    1   -7    8      0.89      0.00
    1   -7    9     -2.61      0.00
    1   -7   10      0.24      0.00
    1   -7   11     -1.22      0.00
    1   -7   12      0.45      0.00
    1   -7   13      1.25      0.00
    1   -7   14     -0.40      0.00
    1   -7   15     -0.29      0.00
    1   -7   16     -2.44      0.00
    1   -7   17      0.69      0.00
    1   -7   18     -0.71      0.00
    1   -7   19      0.78      0.00
    1   -7   20     -1.94      0.00
    1   -7   21      1.45      0.00
    1   -7   22     -1.11      0.00
    1   -7   23      0.04      0.00
    1   -7   24      0.88      0.00
    1   -7   25     -0.66      0.00
    1   -7   26      0.61      0.00
    1   -7   27     -1.80      0.00
   -1    6   24     -0.20      0.00
   -1    6   23     -0.34      0.00
   -1    6   22      1.14      0.00
   -1    6   21     -0.60      0.00
   -1    6   20     -1.10      0.00
   -1    6   19      1.26      0.00
   -1    6   18     -0.43      0.00
   -1    6   17     -0.17      0.00
   -1    6   16     -1.30      0.00
   -1    6   15      0.72      0.00
   -1    6   14      0.70      0.00
   -1    6   13     -0.46      0.00
   -1    6   12      0.07      0.00
   -1    6   11     -0.90      0.00
   -1    6   10      0.51      0.00
   -1    6    9      1.34      0.00
   -1    6    8      1.05      0.00
   -1    6    7      1.69      0.00
   -1    6    6      4.15      0.00
   -1    6    5      0.41      0.00
   -1    6    4     -0.91      0.00
   -1    6    3     -3.63      0.00
   -1    6    2     -2.24      0.00
   -1    6    1     -2.81      0.00
   -1    6    0     -2.81      0.00
    1   -6    1     -4.05      0.00
    1   -6    2      5.60      0.00
    1   -6    3      7.93      0.00
    1   -6    4     -3.67      0.00
    1   -6    5     -5.70      0.00
    1   -6    6     -8.47      0.00
    1   -6    7      2.00      0.00
    1   -6    8      6.53      0.00
    1   -6    9      0.87      0.00
    1   -6   10      6.45      0.00
    1   -6   11     -1.16      0.00
    1   -6   12     -1.04      0.00
    1   -6   13     -0.47      0.00
    1   -6   14      0.30      0.00
    1   -6   15      0.03      0.00
    1   -6   16      0.85      0.00
    1   -6   17     -1.95      0.00
    1   -6   18      0.18      0.00
    1   -6   19     -0.86      0.00
    1   -6   20      0.73      0.00
    1   -6   21     -1.34      0.00
    1   -6   22      0.22      0.00
    1   -6   23     -0.25      0.00
    1   -6   24     -2.46      0.00
    1   -6   25      0.81      0.00
    1   -6   26      0.05      0.00
    1   -6   27      0.03      0.00
   -1    5   24      0.40      0.00
   -1    5   23     -0.98      0.00
   -1    5   22     -0.86      0.00
   -1    5   21      1.08      0.00
   -1    5   20     -0.16      0.00
   -1    5   17     -0.26      0.00
   -1    5   16      0.01      0.00
   -1    5   15      0.61      0.00
   -1    5   14     -2.01      0.00
   -1    5   13      0.38      0.00
   -1    5   12     -0.45      0.00
   -1    5   11      0.38      0.00
   -1    5   10     -0.22      0.00
   -1    5    9      2.27      0.00
   -1    5    8      1.82      0.00
   -1    5    7     -1.76      0.00
   -1    5    6      1.61      0.00
   -1    5    5     -0.54      0.00
   -1    5    4      5.22      0.00
   -1    5    3      1.20      0.00
   -1    5    2     -2.05      0.00
   -1    5    1      4.57      0.00
   -1    5    0     -2.22      0.00
    1   -5    1     -2.69      0.00
    1   -5    2     -6.71      0.00
    1   -5    3    -13.25      0.00
    1   -5    4     13.56      0.00
    1   -5    5      6.67      0.00
    1   -5    6      0.78      0.00
    1   -5    7      0.89      0.00
    1   -5    8    -13.17      0.00
    1   -5    9      4.83      0.00
    1   -5   10     -4.76      0.00
    1   -5   11      4.30      0.00
    1   -5   12      2.28      0.00
    1   -5   13      0.66      0.00
    1   -5   14      1.42      0.00
    1   -5   15     -0.84      0.00
    1   -5   16      1.50      0.00
    1   -5   17     -0.24      0.00
    1   -5   18      0.17      0.00
    1   -5   19     -0.59      0.00
    1   -5   20      0.27      0.00
    1   -5   21      0.09      0.00
    1   -5   22      0.30      0.00
    1   -5   23      0.53      0.00
    1   -5   24      0.58      0.00
    1   -5   25     -1.15      0.00
    1   -5   26      0.06      0.00
    1   -5   27      0.82      0.00
   -1    4   25      1.11      0.00
   -1    4   24      0.12      0.00
   -1    4   23      0.33      0.00
   -1    4   21     -1.18      0.00
   -1    4   20      0.83      0.00
   -1    4   19      0.78      0.00
   -1    4   18      0.11      0.00
   -1    4   17     -1.67      0.00
   -1    4   16     -1.42      0.00
   -1    4   15     -0.62      0.00
   -1    4   14      0.06      0.00
   -1    4   13      0.21      0.00
   -1    4   12      0.53      0.00
   -1    4   11     -1.58      0.00
   -1    4   10     -1.91      0.00
   -1    4    9     -0.70      0.00
   -1    4    8     -2.25      0.00
   -1    4    7      5.05      0.00
   -1    4    6     -4.09      0.00
   -1    4    5      6.72      0.00
   -1    4    4     -1.27      0.00
   -1    4    3      1.82      0.00
   -1    4    2      6.42      0.00
   -1    4    1     -7.31      0.00
   -1    4    0      3.04      0.00
    1   -4    1      3.38      0.00
    1   -4    2      2.53      0.00
    1   -4    3     -5.33      0.00
    1   -4    4     -4.28      0.00
    1   -4    5    -17.47      0.00
    1   -4    6     12.95      0.00
    1   -4    7     -4.06      0.00
    1   -4    8     11.29      0.00
    1   -4    9     -3.68      0.00
    1   -4   10      3.59      0.00
    1   -4   11     -2.78      0.00
    1   -4   12      0.84      0.00
    1   -4   13      0.39      0.00
    1   -4   14     -1.22      0.00
    1   -4   15      3.59      0.00
    1   -4   16     -2.97      0.00
    1   -4   17      2.61      0.00
    1   -4   18     -0.94      0.00
    1   -4   19      0.20      0.00
    1   -4   20     -1.01      0.00
    1   -4   21     -0.27      0.00
    1   -4   22      0.41      0.00
    1   -4   23      0.06      0.00
    1   -4   24     -0.07      0.00
    1   -4   25      0.72      0.00
    1   -4   26     -0.53      0.00
    1   -4   27     -1.20      0.00
   -1    3   23      0.15      0.00
   -1    3   22      0.93      0.00
   -1    3   20     -0.60      0.00
   -1    3   19      0.09      0.00
   -1    3   18      1.11      0.00
   -1    3   17      2.70      0.00
   -1    3   16      2.46      0.00
   -1    3   15     -2.60      0.00
   -1    3   14     -1.51      0.00
   -1    3   13     -2.87      0.00
   -1    3   12     -0.17      0.00
   -1    3   11      0.29      0.00
   -1    3   10      1.43      0.00
   -1    3    9     -1.48      0.00
   -1    3    8      7.01      0.00
   -1    3    7     -5.39      0.00
   -1    3    6      3.02      0.00
   -1    3    5     -8.65      0.00
   -1    3    4      1.30      0.00
   -1    3    3      1.06      0.00
   -1    3    2     -6.65      0.00
   -1    3    1     11.10      0.00
   -1    3    0     -7.30      0.00
    1   -3    1     33.35      0.00
    1   -3    2    -29.12      0.00
    1   -3    3     25.95      0.00
    1   -3    4    -29.62      0.00
    1   -3    5     17.88      0.00
    1   -3    6    -12.55      0.00
    1   -3    7     -2.41      0.00
    1   -3    8     -3.95      0.00
    1   -3    9      0.74      0.00
    1   -3   10     -3.00      0.00
    1   -3   11      4.23      0.00
    1   -3   12     -0.40      0.00
    1   -3   13      1.12      0.00
    1   -3   14      2.37      0.00
    1   -3   15     -2.49      0.00
    1   -3   16      3.05      0.00
    1   -3   17     -2.44      0.00
    1   -3   18      2.41      0.00
    1   -3   19      0.15      0.00
    1   -3   20     -0.21      0.00
    1   -3   21      0.24      0.00
    1   -3   22     -1.23      0.00
    1   -3   23      0.00      0.00
    1   -3   24      0.58      0.00
    1   -3   25      0.29      0.00
    1   -3   26     -0.06      0.00
    1   -3   27      1.72      0.00
   -1    2   25      0.37      0.00
   -1    2   24     -1.25      0.00
   -1    2   23      0.26      0.00
   -1    2   22     -0.17      0.00
   -1    2   21      2.39      0.00
   -1    2   20      1.58      0.00
   -1    2   19     -0.42      0.00
   -1    2   18     -1.59      0.00
   -1    2   17     -0.80      0.00
   -1    2   16     -0.13      0.00
   -1    2   15      5.04      0.00
   -1    2   14      1.81      0.00
   -1    2   13      0.86      0.00
   -1    2   12     -4.43      0.00
   -1    2   11      0.36      0.00
   -1    2   10     -4.69      0.00
   -1    2    9     -5.96      0.00
   -1    2    8     -8.43      0.00
   -1    2    7      7.56      0.00
   -1    2    6      5.94      0.00
   -1    2    5      7.32      0.00
   -1    2    4     -2.92      0.00
   -1    2    3     11.00      0.00
   -1    2    2     21.85      0.00
   -1    2    1    -49.55      0.00
   -1    2    0     11.61      0.00
    1   -2    1    -71.71      0.00
    1   -2    2     84.56      0.00
    1   -2    3    -11.57      0.00
    1   -2    4     23.83      0.00
    1   -2    5    -10.53      0.00
    1   -2    6     -8.33      0.00
    1   -2    7      6.81      0.00
    1   -2    8     -3.04      0.00
    1   -2    9     -4.36      0.00
    1   -2   10      0.21      0.00
    1   -2   11     -4.22      0.00
    1   -2   12     -0.88      0.00
    1   -2   13     -1.35      0.00
    1   -2   14     -0.59      0.00
    1   -2   15      3.08      0.00
    1   -2   16     -1.16      0.00
    1   -2   17      1.68      0.00
    1   -2   18     -1.35      0.00
    1   -2   19      0.64      0.00
    1   -2   20      1.06      0.00
    1   -2   21     -0.46      0.00
    1   -2   22      1.21      0.00
    1   -2   23     -0.88      0.00
    1   -2   24      0.28      0.00
    1   -2   25      0.00      0.00
    1   -2   26     -0.30      0.00
    1   -2   27     -0.90      0.00
   -1    1   26      0.45      0.00
   -1    1   25      0.82      0.00
   -1    1   24     -0.55      0.00
   -1    1   23      0.71      0.00
   -1    1   22     -1.74      0.00
   -1    1   21     -0.66      0.00
   -1    1   20     -0.58      0.00
   -1    1   19      2.32      0.00
   -1    1   18      2.06      0.00
   -1    1   17      0.56      0.00
   -1    1   16     -1.36      0.00
   -1    1   15     -3.64      0.00
   -1    1   14      2.33      0.00
   -1    1   13      1.09      0.00
   -1    1   12      2.77      0.00
   -1    1   11     -0.19      0.00
   -1    1   10      4.67      0.00
   -1    1    9      7.12      0.00
   -1    1    8     -5.50      0.00
   -1    1    7    -12.01      0.00
   -1    1    6     -8.38      0.00
   -1    1    5     -3.76      0.00
   -1    1    4     -9.17      0.00
   -1    1    3    -11.20      0.00
   -1    1    2     -3.25      0.00
   -1    1    1    117.19      0.00
   -1    1    0     -2.27      0.00
    1   -1    1     11.67      0.00
    1   -1    2    -85.39      0.00
    1   -1    3    -14.13      0.00
    1   -1    4     24.75      0.00
    1   -1    5      4.45      0.00
    1   -1    6      9.05      0.00
    1   -1    7     -4.51      0.00
    1   -1    8      4.94      0.00
    1   -1    9      1.84      0.00
    1   -1   10     -3.10      0.00
    1   -1   11     -1.48      0.00
    1   -1   12     -0.19      0.00
    1   -1   13     -1.56      0.00
    1   -1   14     -1.99      0.00
    1   -1   15     -2.47      0.00
    1   -1   16      0.46      0.00
    1   -1   17      0.65      0.00
    1   -1   18      1.44      0.00
    1   -1   19     -0.59      0.00
    1   -1   20      0.07      0.00
    1   -1   21      1.38      0.00
    1   -1   22     -0.47      0.00
    1   -1   23      0.11      0.00
    1   -1   24      0.20      0.00
    1   -1   25     -1.26      0.00
    1   -1   26      1.43      0.00
   -1    0   26      1.41      0.00
   -1    0   25     -1.42      0.00
   -1    0   24      1.88      0.00
   -1    0   23     -1.84      0.00
   -1    0   22      0.42      0.00
   -1    0   21     -0.62      0.00
   -1    0   20      0.16      0.00
   -1    0   19     -2.89      0.00
   -1    0   18     -0.14      0.00
   -1    0   17      1.78      0.00
   -1    0   16      1.87      0.00
   -1    0   15      2.10      0.00
   -1    0   14     -1.89      0.00
   -1    0   13     -0.34      0.00
   -1    0   12      1.06      0.00
   -1    0   11     -1.37      0.00
   -1    0   10     -3.00      0.00
   -1    0    9     -2.88      0.00
   -1    0    8     10.28      0.00
   -1    0    7      4.77      0.00
   -1    0    6      1.84      0.00
   -1    0    5      5.78      0.00
   -1    0    4     22.43      0.00
   -1    0    3    -17.83      0.00
    1    0    0      1.03      0.00
    1    0    2     26.44      0.00
    1    0    3      7.22      0.00
    1    0    4    -27.03      0.00
    1    0    5     -0.38      0.00
    1    0    6      3.08      0.00
    1    0    7     -6.01      0.00
    1    0    8     -4.98      0.00
    1    0    9      4.23      0.00
    1    0   10      3.12      0.00
    1    0   11      0.89      0.00
    1    0   12     -1.12      0.00
    1    0   13      0.66      0.00
    1    0   14      2.15      0.00
    1    0   15     -0.64      0.00
    1    0   16     -1.99      0.00
    1    0   17     -1.48      0.00
    1    0   18     -0.12      0.00
    1    0   19      1.37      0.00
    1    0   20     -0.01      0.00
    1    0   21     -0.62      0.00
    1    0   22      0.13      0.00
    1    0   23      1.43      0.00
    1    0   24     -0.20      0.00
   -1   -1   26     -1.67      0.00
   -1   -1   25      0.25      0.00
   -1   -1   24      0.39      0.00
   -1   -1   23      0.32      0.00
   -1   -1   22     -0.11      0.00
   -1   -1   21     -0.97      0.00
   -1   -1   20     -0.82      0.00
   -1   -1   19      0.54      0.00
   -1   -1   18     -1.83      0.00
   -1   -1   17     -1.66      0.00
   -1   -1   16     -1.54      0.00
   -1   -1   15      2.16      0.00
   -1   -1   14      1.70      0.00
   -1   -1   13      1.74      0.00
   -1   -1   12      0.79      0.00
   -1   -1   11      1.87      0.00
   -1   -1   10      4.09      0.00
   -1   -1    9     -2.36      0.00
   -1   -1    8     -2.41      0.00
   -1   -1    7     -1.39      0.00
   -1   -1    6     -9.01      0.00
   -1   -1    5    -13.85      0.00
   -1   -1    4     -0.57      0.00
   -1   -1    3     19.05      0.00
   -1   -1    2     98.44      0.00
   -1   -1    1    -49.53      0.00
    1    1    0     -5.77      0.00
    1    1    1   -111.19      0.00
    1    1    2     17.30      0.00
    1    1    3     16.35      0.00
    1    1    5     10.00      0.00
    1    1    6      2.69      0.00
    1    1    7     11.35      0.00
    1    1    8      0.46      0.00
    1    1    9     -6.80      0.00
    1    1   10     -1.17      0.00
    1    1   11      0.67      0.00
    1    1   12     -1.56      0.00
    1    1   13     -2.10      0.00
    1    1   14     -1.29      0.00
    1    1   15      2.61      0.00
    1    1   16      1.20      0.00
    1    1   17      0.10      0.00
    1    1   18     -2.33      0.00
    1    1   19     -0.87      0.00
    1    1   20      0.85      0.00
    1    1   21      0.36      0.00
    1    1   22     -0.46      0.00
    1    1   23     -0.36      0.00
    1    1   24     -1.01      0.00
   -1   -2   27      1.97      0.00
   -1   -2   26     -0.70      0.00
   -1   -2   25     -0.17      0.00
   -1   -2   24     -0.83      0.00
   -1   -2   23      0.15      0.00
   -1   -2   22     -0.27      0.00
   -1   -2   21      0.56      0.00
   -1   -2   20     -0.71      0.00
   -1   -2   19     -0.29      0.00
   -1   -2   18      1.69      0.00
   -1   -2   17     -2.52      0.00
   -1   -2   16      1.39      0.00
   -1   -2   15     -3.82      0.00
   -1   -2   14     -0.13      0.00
   -1   -2   13      1.13      0.00
   -1   -2   12     -0.26      0.00
   -1   -2   11      5.04      0.00
   -1   -2   10     -4.16      0.00
   -1   -2    9      6.93      0.00
   -1   -2    8     -0.80      0.00
   -1   -2    7      3.68      0.00
   -1   -2    6      5.10      0.00
   -1   -2    5     13.04      0.00
   -1   -2    4    -35.37      0.00
   -1   -2    3      3.83      0.00
   -1   -2    2    -65.37      0.00
   -1   -2    1     70.75      0.00
    1    2    0     -0.10      0.00
    1    2    1     32.05      0.00
    1    2    2    -15.24      0.00
    1    2    3    -16.40      0.00
    1    2    4      0.64      0.00
    1    2    5    -11.58      0.00
    1    2    6     -2.60      0.00
    1    2    7     -3.01      0.00
    1    2    8      6.46      0.00
    1    2    9      6.30      0.00
    1    2   10      1.01      0.00
    1    2   11      3.09      0.00
    1    2   12      2.40      0.00
    1    2   16      1.46      0.00
    1    2   17      0.53      0.00
    1    2   18      0.91      0.00
    1    2   19     -0.43      0.00
    1    2   20     -1.82      0.00
    1    2   21      0.15      0.00
    1    2   22      0.73      0.00
    1    2   23     -0.19      0.00
    1    2   24      0.11      0.00
   -1   -3   27     -0.86      0.00
   -1   -3   26      0.56      0.00
   -1   -3   25      1.21      0.00
   -1   -3   24     -0.34      0.00
   -1   -3   23      0.50      0.00
   -1   -3   22      1.11      0.00
   -1   -3   21      0.04      0.00
   -1   -3   20     -0.06      0.00
   -1   -3   19     -0.24      0.00
   -1   -3   18     -1.02      0.00
   -1   -3   17      1.97      0.00
   -1   -3   16     -2.63      0.00
   -1   -3   15      1.59      0.00
   -1   -3   14     -1.07      0.00
   -1   -3   13     -3.80      0.00
   -1   -3   12      1.82      0.00
   -1   -3   11     -5.79      0.00
   -1   -3   10      6.42      0.00
   -1   -3    9     -3.33      0.00
   -1   -3    8      6.25      0.00
   -1   -3    7     -2.10      0.00
   -1   -3    6     11.12      0.00
   -1   -3    5    -10.47      0.00
   -1   -3    4     27.27      0.00
   -1   -3    3    -10.53      0.00
   -1   -3    2     15.24      0.00
   -1   -3    1    -20.36      0.00
    1    3    0     -3.59      0.00
    1    3    1     -6.03      0.00
    1    3    2      4.70      0.00
    1    3    3      2.54      0.00
    1    3    4      3.08      0.00
    1    3    5      2.88      0.00
    1    3    6     -2.31      0.00
    1    3    7     -0.43      0.00
    1    3    8     -2.64      0.00
    1    3    9     -3.00      0.00
    1    3   10      0.20      0.00
    1    3   11     -3.38      0.00
    1    3   12      2.43      0.00
    1    3   13      2.20      0.00
    1    3   14      2.81      0.00
    1    3   15      1.39      0.00
    1    3   16     -3.10      0.00
    1    3   17     -1.39      0.00
    1    3   18      0.55      0.00
    1    3   19     -0.16      0.00
    1    3   20      1.06      0.00
    1    3   21     -2.85      0.00
    1    3   22      0.44      0.00
    1    3   23     -0.66      0.00
    1    3   24      1.28      0.00
   -1   -4   27     -0.43      0.00
   -1   -4   26     -0.12      0.00
   -1   -4   25     -1.15      0.00
   -1   -4   24      0.64      0.00
   -1   -4   23      0.05      0.00
   -1   -4   22     -1.14      0.00
   -1   -4   21      0.69      0.00
   -1   -4   20      0.70      0.00
   -1   -4   19      0.66      0.00
   -1   -4   18     -0.12      0.00
   -1   -4   17      0.09      0.00
   -1   -4   16      0.33      0.00
   -1   -4   15     -0.98      0.00
   -1   -4   14     -1.27      0.00
   -1   -4   13      1.69      0.00
   -1   -4   12     -3.04      0.00
   -1   -4   11      2.23      0.00
   -1   -4   10     -5.61      0.00
   -1   -4    9      3.22      0.00
   -1   -4    8    -10.22      0.00
   -1   -4    7      5.45      0.00
   -1   -4    6     -8.40      0.00
   -1   -4    5     11.75      0.00
   -1   -4    4      2.58      0.00
   -1   -4    3     -2.43      0.00
   -1   -4    2      1.59      0.00
   -1   -4    1     -1.40      0.00
    1    4    0      5.04      0.00
    1    4    1      6.52      0.00
    1    4    2     -6.10      0.00
    1    4    3      0.47      0.00
    1    4    4     -2.46      0.00
    1    4    5     -1.78      0.00
    1    4    6     -0.53      0.00
    1    4    7     -2.09      0.00
    1    4    8     -0.56      0.00
    1    4    9      4.40      0.00
    1    4   10      0.10      0.00
    1    4   11      1.15      0.00
    1    4   12     -2.17      0.00
    1    4   13     -0.76      0.00
    1    4   14     -0.47      0.00
    1    4   15      2.34      0.00
    1    4   16      2.20      0.00
    1    4   17      0.21      0.00
    1    4   18     -1.21      0.00
    1    4   19      0.75      0.00
    1    4   20     -0.77      0.00
    1    4   21      3.54      0.00
    1    4   22     -1.59      0.00
    1    4   23      0.36      0.00
    1    4   24     -1.85      0.00
   -1   -5   27      0.23      0.00
   -1   -5   26      0.18      0.00
   -1   -5   25     -0.60      0.00
   -1   -5   24     -1.05      0.00
   -1   -5   23      0.15      0.00
   -1   -5   22      1.95      0.00
   -1   -5   21     -0.33      0.00
   -1   -5   20     -0.74      0.00
   -1   -5   19     -0.39      0.00
   -1   -5   18      0.63      0.00
   -1   -5   17     -1.62      0.00
   -1   -5   16      1.05      0.00
   -1   -5   15     -1.02      0.00
   -1   -5   14      0.42      0.00
   -1   -5   13     -1.55      0.00
   -1   -5   12     -1.74      0.00
   -1   -5   11     -3.23      0.00
   -1   -5   10      3.71      0.00
   -1   -5    9     -4.75      0.00
   -1   -5    8      8.99      0.00
   -1   -5    7     -4.71      0.00
   -1   -5    6     -2.01      0.00
   -1   -5    5     -4.91      0.00
   -1   -5    4     -6.03      0.00
   -1   -5    3     13.01      0.00
   -1   -5    2      2.58      0.00
   -1   -5    1      1.18      0.00
    1    5    1     -3.20      0.00
    1    5    2      2.00      0.00
    1    5    3     -1.71      0.00
    1    5    4     -0.37      0.00
    1    5    5      0.24      0.00
    1    5    6      2.44      0.00
    1    5    7     -0.84      0.00
    1    5    8     -2.27      0.00
    1    5    9     -3.67      0.00
    1    5   10      0.10      0.00
    1    5   11      0.39      0.00
    1    5   12      0.75      0.00
    1    5   13      0.39      0.00
    1    5   14     -0.19      0.00
    1    5   15     -1.05      0.00
    1    5   16     -0.24      0.00
    1    5   17      0.86      0.00
    1    5   18      1.49      0.00
    1    5   19     -0.69      0.00
    1    5   21     -1.95      0.00
    1    5   22      2.13      0.00
    1    5   23      0.35      0.00
    1    5   24      1.56      0.00
   -1   -6   27      0.71      0.00
   -1   -6   26      1.06      0.00
   -1   -6   25      1.68      0.00
   -1   -6   24      0.17      0.00
   -1   -6   23     -1.97      0.00
   -1   -6   22     -0.88      0.00
   -1   -6   21      0.84      0.00
   -1   -6   20      0.68      0.00
   -1   -6   19      0.93      0.00
   -1   -6   18      0.02      0.00
   -1   -6   17      2.72      0.00
   -1   -6   16     -1.24      0.00
   -1   -6   15      0.27      0.00
   -1   -6   14      0.23      0.00
   -1   -6   13      1.27      0.00
   -1   -6   12      0.67      0.00
   -1   -6   11      0.02      0.00
   -1   -6   10     -5.02      0.00
   -1   -6    9     -1.03      0.00
   -1   -6    8     -4.09      0.00
   -1   -6    7      0.68      0.00
   -1   -6    6      4.44      0.00
   -1   -6    5      1.32      0.00
   -1   -6    4     -0.76      0.00
   -1   -6    3     -8.15      0.00
   -1   -6    2     -2.63      0.00
   -1   -6    1      1.70      0.00
    1    6    0      4.78      0.00
    1    6    1      2.66      0.00
    1    6    2      2.90      0.00
    1    6    3      4.24      0.00
    1    6    4     -2.14      0.00
    1    6    5     -0.18      0.00
    1    6    6     -3.69      0.00
    1    6    7      0.35      0.00
    1    6    8      1.08      0.00
    1    6    9     -0.38      0.00
    1    6   10     -0.21      0.00
    1    6   11     -1.32      0.00
    1    6   12      0.64      0.00
    1    6   13     -0.61      0.00
    1    6   14      0.62      0.00
    1    6   15     -0.17      0.00
    1    6   16     -0.21      0.00
    1    6   17     -0.20      0.00
    1    6   18     -0.60      0.00
    1    6   19      0.36      0.00
    1    6   20      0.94      0.00
    1    6   21      0.03      0.00
    1    6   22     -1.90      0.00
    1    6   23      0.36      0.00
   -1   -7   27     -0.88      0.00
   -1   -7   26     -0.57      0.00
   -1   -7   25      0.53      0.00
   -1   -7   24      1.66      0.00
   -1   -7   23      1.34      0.00
   -1   -7   22      0.06      0.00
   -1   -7   21      0.11      0.00
   -1   -7   20      0.84      0.00
   -1   -7   19     -1.16      0.00
   -1   -7   18      0.18      0.00
   -1   -7   17      0.63      0.00
   -1   -7   16      2.64      0.00
   -1   -7   15      0.07      0.00
   -1   -7   14      0.89      0.00
   -1   -7   13     -0.42      0.00
   -1   -7   12      1.13      0.00
   -1   -7   11      1.96      0.00
   -1   -7   10      0.67      0.00
   -1   -7    9      1.43      0.00
   -1   -7    8     -1.86      0.00
   -1   -7    7     -2.44      0.00
   -1   -7    6     -3.24      0.00
   -1   -7    5     -4.73      0.00
   -1   -7    4      5.07      0.00
   -1   -7    3      4.27      0.00
   -1   -7    2      1.34      0.00
   -1   -7    1     -0.50      0.00
    1    7    0     -4.10      0.00
    1    7    1      0.01      0.00
    1    7    2      1.09      0.00
    1    7    3     -1.81      0.00
    1    7    4      5.01      0.00
    1    7    5      1.60      0.00
    1    7    6      3.14      0.00
    1    7    7      0.14      0.00
    1    7    8     -2.33      0.00
    1    7    9      0.37      0.00
    1    7   10     -1.76      0.00
    1    7   11     -0.58      0.00
    1    7   12     -2.26      0.00
    1    7   13      0.71      0.00
    1    7   14      0.32      0.00
    1    7   15      0.12      0.00
    1    7   16      0.13      0.00
    1    7   17      0.31      0.00
    1    7   18     -1.13      0.00
    1    7   19      0.51      0.00
    1    7   20     -0.54      0.00
    1    7   21      0.12      0.00
    1    7   22     -0.02      0.00
   -1   -8   26     -1.23      0.00
   -1   -8   25     -0.20      0.00
   -1   -8   24     -0.48      0.00
   -1   -8   23      0.39      0.00
   -1   -8   22     -0.89      0.00
   -1   -8   21     -0.36      0.00
   -1   -8   20      0.44      0.00
   -1   -8   19      0.31      0.00
   -1   -8   18     -0.84      0.00
   -1   -8   17     -0.50      0.00
   -1   -8   16     -1.18      0.00
   -1   -8   15      2.60      0.00
   -1   -8   14     -0.83      0.00
   -1   -8   13      0.97      0.00
   -1   -8   12      0.51      0.00
   -1   -8   11     -0.19      0.00
   -1   -8   10      2.20      0.00
   -1   -8    9     -1.32      0.00
   -1   -8    8      0.67      0.00
   -1   -8    7      3.31      0.00
   -1   -8    6      0.21      0.00
   -1   -8    5      1.66      0.00
   -1   -8    4     -7.35      0.00
   -1   -8    3     -3.17      0.00
   -1   -8    2     -0.76      0.00
   -1   -8    1      1.62      0.00
    1    8    0      0.98      0.00
    1    8    1     -0.03      0.00
    1    8    2     -0.32      0.00
    1    8    3      1.63      0.00
    1    8    4     -1.75      0.00
    1    8    5     -0.93      0.00
    1    8    6      0.30      0.00
    1    8    7      1.37      0.00
    1    8    8      2.27      0.00
    1    8    9      0.11      0.00
    1    8   10      2.06      0.00
    1    8   11      0.68      0.00
    1    8   12      0.54      0.00
    1    8   13     -1.60      0.00
    1    8   14     -0.80      0.00
    1    8   15     -0.33      0.00
    1    8   16      1.89      0.00
    1    8   17      0.00      0.00
    1    8   18      1.36      0.00
    1    8   20      0.42      0.00
    1    8   21      0.92      0.00
   -1   -9   26      0.33      0.00
   -1   -9   25     -2.39      0.00
   -1   -9   24      0.13      0.00
   -1   -9   23     -0.37      0.00
   -1   -9   22      0.02      0.00
   -1   -9   21     -0.93      0.00
   -1   -9   20     -0.14      0.00
   -1   -9   19     -0.29      0.00
   -1   -9   18      0.47      0.00
   -1   -9   17     -1.33      0.00
   -1   -9   16      1.03      0.00
   -1   -9   15     -2.72      0.00
   -1   -9   14      2.45      0.00
   -1   -9   13     -0.28      0.00
   -1   -9   12     -0.31      0.00
   -1   -9   11      1.12      0.00
   -1   -9   10      0.69      0.00
   -1   -9    9      2.42      0.00
   -1   -9    8     -0.69      0.00
   -1   -9    7     -2.82      0.00
   -1   -9    6      0.40      0.00
   -1   -9    5      0.66      0.00
   -1   -9    4      3.02      0.00
   -1   -9    3     -1.41      0.00
   -1   -9    2     -1.10      0.00
   -1   -9    1     -2.58      0.00
    1    9    0     -0.94      0.00
    1    9    1     -0.57      0.00
    1    9    2     -1.10      0.00
    1    9    3      0.57      0.00
    1    9    4      1.44      0.00
    1    9    5      1.11      0.00
    1    9    6      0.10      0.00
    1    9    7      0.21      0.00
    1    9    8     -0.47      0.00
    1    9    9     -0.06      0.00
    1    9   10     -1.10      0.00
    1    9   11      0.22      0.00
    1    9   12     -0.41      0.00
    1    9   13      2.62      0.00
    1    9   14     -0.80      0.00
    1    9   15     -0.37      0.00
    1    9   16     -3.41      0.00
    1    9   17      1.26      0.00
    1    9   18      0.95      0.00
    1    9   19      0.84      0.00
    1    9   20      0.21      0.00
   -1  -10   25      1.48      0.00
   -1  -10   24     -1.17      0.00
   -1  -10   23      0.41      0.00
   -1  -10   22     -0.08      0.00
   -1  -10   21      0.82      0.00
   -1  -10   20     -1.27      0.00
   -1  -10   19      0.31      0.00
   -1  -10   18     -1.26      0.00
   -1  -10   17      1.34      0.00
   -1  -10   16     -1.79      0.00
   -1  -10   15      1.22      0.00
   -1  -10   14     -2.29      0.00
   -1  -10   13      0.90      0.00
   -1  -10   12     -0.04      0.00
   -1  -10   11     -1.02      0.00
   -1  -10   10      0.15      0.00
   -1  -10    9     -0.38      0.00
   -1  -10    8      3.31      0.00
   -1  -10    7      1.28      0.00
   -1  -10    6     -0.10      0.00
   -1  -10    5     -0.62      0.00
   -1  -10    4      0.07      0.00
   -1  -10    3      0.17      0.00
   -1  -10    2     -0.45      0.00
   -1  -10    1      0.44      0.00
    1   10    0      0.26      0.00
    1   10    1     -1.35      0.00
    1   10    2     -0.71      0.00
    1   10    3     -1.55      0.00
    1   10    4     -1.14      0.00
    1   10    5     -0.55      0.00
    1   10    6      0.02      0.00
    1   10    7      0.51      0.00
    1   10    8      0.88      0.00
    1   10    9      0.56      0.00
    1   10   10      1.89      0.00
    1   10   11     -0.52      0.00
    1   10   12      0.03      0.00
    1   10   13     -3.46      0.00
    1   10   14      2.67      0.00
    1   10   15      1.08      0.00
    1   10   16      0.83      0.00
    1   10   17     -1.84      0.00
    1   10   18     -1.41      0.00
    1   10   19     -0.52      0.00
   -1  -11   25      0.06      0.00
   -1  -11   24      0.52      0.00
   -1  -11   23     -0.11      0.00
   -1  -11   22     -0.38      0.00
   -1  -11   21     -0.51      0.00
   -1  -11   20      2.20      0.00
   -1  -11   19     -0.62      0.00
   -1  -11   18      0.32      0.00
   -1  -11   17     -1.53      0.00
   -1  -11   16      0.56      0.00
   -1  -11   15     -0.30      0.00
   -1  -11   14      0.19      0.00
   -1  -11   13     -1.16      0.00
   -1  -11   12      0.77      0.00
   -1  -11   11      0.59      0.00
   -1  -11   10      0.07      0.00
   -1  -11    9      0.92      0.00
   -1  -11    8     -1.61      0.00
   -1  -11    7      1.32      0.00
   -1  -11    6      0.66      0.00
   -1  -11    5      1.01      0.00
   -1  -11    4      1.31      0.00
   -1  -11    3      0.31      0.00
   -1  -11    2     -0.01      0.00
   -1  -11    1     -0.95      0.00
    1   11    0     -0.47      0.00
    1   11    1      0.55      0.00
    1   11    2     -0.58      0.00
    1   11    3     -0.04      0.00
    1   11    4      0.22      0.00
    1   11    5     -1.00      0.00
    1   11    6     -0.17      0.00
    1   11    7     -0.43      0.00
    1   11    8     -0.67      0.00
    1   11    9     -0.85      0.00
    1   11   10     -1.08      0.00
    1   11   11      2.01      0.00
    1   11   12      1.22      0.00
    1   11   13      1.82      0.00
    1   11   14     -1.50      0.00
    1   11   15     -0.96      0.00
    1   11   16      0.94      0.00
    1   11   17      0.80      0.00
   -1  -12   24      0.75      0.00
   -1  -12   23     -0.13      0.00
   -1  -12   22     -0.83      0.00
   -1  -12   21     -0.64      0.00
   -1  -12   20     -1.70      0.00
   -1  -12   19      1.22      0.00
   -1  -12   18      0.84      0.00
   -1  -12   17     -0.06      0.00
   -1  -12   16      0.10      0.00
   -1  -12   15     -0.96      0.00
   -1  -12   14      0.20      0.00
   -1  -12   13      1.02      0.00
   -1  -12   12     -1.96      0.00
   -1  -12   11     -0.96      0.00
   -1  -12   10     -0.97      0.00
   -1  -12    9      0.46      0.00
   -1  -12    8      0.58      0.00
   -1  -12    7      0.32      0.00
   -1  -12    6      0.44      0.00
   -1  -12    5      0.05      0.00
   -1  -12    4      0.41      0.00
   -1  -12    3      1.94      0.00
   -1  -12    2      0.68      0.00
   -1  -12    1      0.54      0.00
    1   12    0      0.49      0.00
    1   12    1     -0.41      0.00
    1   12    2     -0.39      0.00
    1   12    3      0.25      0.00
    1   12    4     -1.17      0.00
    1   12    5      0.51      0.00
    1   12    6     -0.48      0.00
    1   12    7     -0.16      0.00
    1   12    8      1.06      0.00
    1   12    9      0.52      0.00
    1   12   10      0.39      0.00
    1   12   11     -1.68      0.00
    1   12   12     -1.22      0.00
    1   12   13     -0.64      0.00
    1   12   14     -0.47      0.00
    1   12   15      1.71      0.00
    1   12   16     -1.29      0.00
   -1  -13   23      0.76      0.00
   -1  -13   22      1.84      0.00
   -1  -13   21      0.40      0.00
   -1  -13   20     -0.47      0.00
   -1  -13   19     -0.19      0.00
   -1  -13   18      0.22      0.00
   -1  -13   17      0.53      0.00
   -1  -13   16      0.33      0.00
   -1  -13   15     -0.31      0.00
   -1  -13   14     -1.08      0.00
   -1  -13   13     -0.85      0.00
   -1  -13   12      1.18      0.00
   -1  -13   11     -0.59      0.00
   -1  -13   10     -0.19      0.00
   -1  -13    9     -1.61      0.00
   -1  -13    8     -1.14      0.00
   -1  -13    7     -0.11      0.00
   -1  -13    6     -0.84      0.00
   -1  -13    5     -0.25      0.00
   -1  -13    4     -0.80      0.00
   -1  -13    3      0.64      0.00
   -1  -13    2      0.54      0.00
   -1  -13    1      0.53      0.00
    1   13    0      1.58      0.00
    1   13    1      0.27      0.00
    1   13    2      0.34      0.00
    1   13    3     -0.14      0.00
    1   13    4      0.57      0.00
    1   13    5     -0.91      0.00
    1   13    6     -0.23      0.00
    1   13    7      0.62      0.00
    1   13    8     -2.20      0.00
    1   13    9      0.29      0.00
    1   13   10     -0.81      0.00
    1   13   11      1.23      0.00
    1   13   12      1.55      0.00
    1   13   13     -0.39      0.00
    1   13   14     -0.33      0.00
    1   13   15     -1.73      0.00
   -1  -14   22      0.60      0.00
   -1  -14   21      0.49      0.00
   -1  -14   20     -0.60      0.00
   -1  -14   19      0.42      0.00
   -1  -14   18     -1.24      0.00
   -1  -14   17      1.12      0.00
   -1  -14   16      0.39      0.00
   -1  -14   15      1.60      0.00
   -1  -14   14      0.29      0.00
   -1  -14   13     -0.40      0.00
   -1  -14   12      1.13      0.00
   -1  -14   11     -0.91      0.00
   -1  -14   10     -0.23      0.00
   -1  -14    9     -0.61      0.00
   -1  -14    8      0.76      0.00
   -1  -14    7     -1.11      0.00
   -1  -14    6      0.51      0.00
   -1  -14    5      0.07      0.00
   -1  -14    4     -1.24      0.00
   -1  -14    3     -0.59      0.00
   -1  -14    2     -0.59      0.00
   -1  -14    1     -0.57      0.00
    1   14    0     -0.26      0.00
    1   14    1      1.02      0.00
    1   14    2      0.41      0.00
    1   14    3      0.26      0.00
    1   14    4      0.88      0.00
    1   14    5     -0.58      0.00
    1   14    6      0.22      0.00
    1   14    7     -0.93      0.00
    1   14    8      1.10      0.00
    1   14    9     -0.73      0.00
    1   14   10     -0.53      0.00
    1   14   11     -1.16      0.00
    1   14   12     -0.57      0.00
    1   14   13      0.93      0.00
   -1  -15   20      2.39      0.00
   -1  -15   19     -0.98      0.00
   -1  -15   18      0.20      0.00
   -1  -15   17     -1.72      0.00
   -1  -15   16      0.43      0.00
   -1  -15   15      0.20      0.00
   -1  -15   14      0.10      0.00
   -1  -15   13      1.09      0.00
   -1  -15   12     -1.25      0.00
   -1  -15   11      2.15      0.00
   -1  -15   10     -0.06      0.00
   -1  -15    9      0.48      0.00
   -1  -15    8     -2.00      0.00
   -1  -15    7     -0.83      0.00
   -1  -15    6      0.59      0.00
   -1  -15    5     -0.93      0.00
   -1  -15    4      0.75      0.00
   -1  -15    3     -0.04      0.00
   -1  -15    2      0.14      0.00
   -1  -15    1     -0.18      0.00
    1   15    0     -0.67      0.00
    1   15    1      0.04      0.00
    1   15    2     -0.32      0.00
    1   15    3      1.23      0.00
    1   15    4     -0.61      0.00
    1   15    5      1.26      0.00
    1   15    6      0.11      0.00
    1   15    7      0.28      0.00
    1   15    8      1.15      0.00
    1   15    9     -0.50      0.00
    1   15   10      1.44      0.00
    1   15   11      0.00      0.00
   -1  -16   18      1.03      0.00
   -1  -16   17      0.34      0.00
   -1  -16   16     -1.03      0.00
   -1  -16   15     -0.76      0.00
   -1  -16   14      0.26      0.00
   -1  -16   13     -0.37      0.00
   -1  -16   12      0.68      0.00
   -1  -16   11     -0.56      0.00
   -1  -16   10      1.07      0.00
   -1  -16    9      1.12      0.00
   -1  -16    8      1.58      0.00
   -1  -16    7      0.59      0.00
   -1  -16    6     -1.12      0.00
   -1  -16    5      0.74      0.00
   -1  -16    4      0.10      0.00
   -1  -16    3      0.19      0.00
   -1  -16    2      1.15      0.00
   -1  -16    1      0.17      0.00
    1   16    0      0.67      0.00
    1   16    1     -0.58      0.00
    1   16    2     -0.15      0.00
    1   16    3     -1.22      0.00
    1   16    4      1.42      0.00
    1   16    5     -0.15      0.00
    1   16    6     -1.38      0.00
    1   16    7      0.67      0.00
    1   16    8     -0.97      0.00
   -1  -17   16      0.41      0.00
   -1  -17   15      0.74      0.00
   -1  -17   14     -0.33      0.00
   -1  -17   13     -0.65      0.00
   -1  -17   12     -0.05      0.00
   -1  -17   11     -0.88      0.00
   -1  -17   10     -0.14      0.00
   -1  -17    9     -0.77      0.00
   -1  -17    8      0.59      0.00
   -1  -17    7     -0.05      0.00
   -1  -17    6      0.47      0.00
   -1  -17    5     -0.11      0.00
   -1  -17    4     -1.40      0.00
   -1  -17    3     -0.60      0.00
   -1  -17    2     -1.49      0.00
   -1  -17    1      0.63      0.00
    1   17    0     -0.06      0.00
    1   17    1      0.32      0.00
    1   17    2      0.53      0.00
    1   17    3     -0.19      0.00
    1   17    4     -0.73      0.00
    1   17    5      0.75      0.00
    1   17    6      0.60      0.00
   -1  -18   12     -0.65      0.00
   -1  -18   11      1.55      0.00
   -1  -18   10     -1.44      0.00
   -1  -18    9      0.33      0.00
   -1  -18    8      0.16      0.00
   -1  -18    7     -0.35      0.00
   -1  -18    6      0.01      0.00
   -1  -18    5      0.01      0.00
   -1  -18    4      1.34      0.00
   -1  -18    3     -0.68      0.00
   -1  -18    2     -0.53      0.00
   -1  -18    1     -0.99      0.00
    1   18    0     -1.10      0.00
    1   18    1     -0.11      0.00
   -2   19    1      1.67      0.00
   -2   19    0      1.35      0.00
    2  -19    1      0.11      0.00
    2  -19    2      0.66      0.00
    2  -19    3     -0.39      0.00
    2  -19    4      0.91      0.00
    2  -19    5      0.60      0.00
    2  -19    6      0.09      0.00
    2  -19    7     -0.56      0.00
    2  -19    8     -0.32      0.00
    2  -19    9     -0.31      0.00
    2  -19   10     -1.12      0.00
    2  -19   11      0.62      0.00
    2  -19   12     -0.20      0.00
   -2   18    5     -0.15      0.00
   -2   18    4      1.29      0.00
   -2   18    3     -0.52      0.00
   -2   18    2      0.18      0.00
   -2   18    1     -1.92      0.00
   -2   18    0     -0.93      0.00
    2  -18    1      0.61      0.00
    2  -18    2      0.46      0.00
    2  -18    3     -0.10      0.00
    2  -18    4     -0.87      0.00
    2  -18    5      0.65      0.00
    2  -18    6      0.07      0.00
    2  -18    7      0.56      0.00
    2  -18    8      0.42      0.00
    2  -18    9      0.07      0.00
    2  -18   10      0.58      0.00
    2  -18   11     -0.65      0.00
    2  -18   12     -0.42      0.00
    2  -18   13     -0.07      0.00
    2  -18   14      1.99      0.00
    2  -18   15      0.30      0.00
    2  -18   16      0.72      0.00
   -2   17    8     -1.02      0.00
   -2   17    7      0.95      0.00
   -2   17    6     -1.06      0.00
   -2   17    5      0.40      0.00
   -2   17    4     -1.11      0.00
   -2   17    3      0.38      0.00
   -2   17    2      0.77      0.00
   -2   17    1      0.21      0.00
   -2   17    0     -1.35      0.00
    2  -17    1     -0.31      0.00
    2  -17    2     -0.12      0.00
    2  -17    3     -0.31      0.00
    2  -17    4      0.60      0.00
    2  -17    5      0.45      0.00
    2  -17    6     -0.96      0.00
    2  -17    7     -0.01      0.00
    2  -17    8      0.49      0.00
    2  -17    9     -1.25      0.00
    2  -17   10     -0.55      0.00
    2  -17   11      1.37      0.00
    2  -17   12     -0.43      0.00
    2  -17   13     -1.13      0.00
    2  -17   14     -1.36      0.00
    2  -17   15      0.73      0.00
    2  -17   16     -0.47      0.00
    2  -17   17      1.23      0.00
    2  -17   18     -0.76      0.00
   -2   16   11     -1.55      0.00
   -2   16   10      0.26      0.00
   -2   16    9     -0.30      0.00
   -2   16    8      2.12      0.00
   -2   16    7     -0.85      0.00
   -2   16    6      1.06      0.00
   -2   16    5     -0.14      0.00
   -2   16    4     -0.52      0.00
   -2   16    3     -0.57      0.00
   -2   16    2     -1.25      0.00
   -2   16    1      0.98      0.00
   -2   16    0     -0.54      0.00
    2  -16    1     -0.52      0.00
    2  -16    2     -0.08      0.00
    2  -16    3     -0.89      0.00
    2  -16    4      0.10      0.00
    2  -16    5     -0.30      0.00
    2  -16    6      0.97      0.00
    2  -16    7      1.24      0.00
    2  -16    8      0.48      0.00
    2  -16    9      1.21      0.00
    2  -16   10      0.34      0.00
    2  -16   11     -0.45      0.00
    2  -16   12      0.96      0.00
    2  -16   13      0.39      0.00
    2  -16   14     -0.44      0.00
    2  -16   15     -1.83      0.00
    2  -16   16      0.60      0.00
    2  -16   17     -0.66      0.00
    2  -16   18      2.08      0.00
    2  -16   19     -1.69      0.00
    2  -16   20     -0.74      0.00
   -2   15   13     -1.55      0.00
   -2   15   12      0.61      0.00
   -2   15   11      2.48      0.00
   -2   15   10     -1.01      0.00
   -2   15    9     -0.55      0.00
   -2   15    8      0.12      0.00
   -2   15    7     -0.43      0.00
   -2   15    6      0.16      0.00
   -2   15    5     -0.05      0.00
   -2   15    4      1.66      0.00
   -2   15    3     -0.19      0.00
   -2   15    2      1.09      0.00
   -2   15    1     -0.60      0.00
   -2   15    0      0.44      0.00
    2  -15    1      0.15      0.00
    2  -15    2     -0.83      0.00
    2  -15    3      0.82      0.00
    2  -15    4     -0.60      0.00
    2  -15    5     -1.45      0.00
    2  -15    6      0.21      0.00
    2  -15    7     -1.36      0.00
    2  -15    8      0.47      0.00
    2  -15    9      0.79      0.00
    2  -15   10     -0.80      0.00
    2  -15   11      0.28      0.00
    2  -15   12      0.02      0.00
    2  -15   13      1.00      0.00
    2  -15   14      0.66      0.00
    2  -15   15      1.07      0.00
    2  -15   16     -2.36      0.00
    2  -15   17      0.24      0.00
    2  -15   18     -0.08      0.00
    2  -15   19      0.66      0.00
    2  -15   20      1.14      0.00
    2  -15   21     -0.71      0.00
   -2   14   15      1.75      0.00
   -2   14   14      1.03      0.00
   -2   14   13     -0.82      0.00
   -2   14   12     -0.61      0.00
   -2   14   11     -0.23      0.00
   -2   14   10     -0.14      0.00
   -2   14    9      0.72      0.00
   -2   14    8     -0.91      0.00
   -2   14    7      1.90      0.00
   -2   14    6      0.87      0.00
   -2   14    5      0.13      0.00
   -2   14    4     -0.56      0.00
   -2   14    3      0.46      0.00
   -2   14    2     -0.11      0.00
   -2   14    1     -0.52      0.00
   -2   14    0      0.67      0.00
    2  -14    1     -0.61      0.00
    2  -14    2      0.41      0.00
    2  -14    3     -0.05      0.00
    2  -14    4      0.01      0.00
    2  -14    5      1.42      0.00
    2  -14    6     -1.42      0.00
    2  -14    7     -1.03      0.00
    2  -14    8      0.17      0.00
    2  -14    9     -0.16      0.00
    2  -14   10      0.67      0.00
    2  -14   11     -0.37      0.00
    2  -14   12      0.53      0.00
    2  -14   13     -0.80      0.00
    2  -14   14      0.93      0.00
    2  -14   15     -0.06      0.00
    2  -14   16      0.38      0.00
    2  -14   17      0.43      0.00
    2  -14   18     -3.13      0.00
    2  -14   19      2.18      0.00
    2  -14   20     -1.18      0.00
    2  -14   21     -1.03      0.00
    2  -14   22     -1.10      0.00
    2  -14   23     -1.02      0.00
   -2   13   16     -0.84      0.00
   -2   13   15      0.02      0.00
   -2   13   14     -0.01      0.00
   -2   13   13      0.99      0.00
   -2   13   12     -1.39      0.00
   -2   13   11     -0.47      0.00
   -2   13   10      1.72      0.00
   -2   13    9     -0.45      0.00
   -2   13    8     -1.38      0.00
   -2   13    7     -0.64      0.00
   -2   13    6     -0.94      0.00
   -2   13    5      1.02      0.00
   -2   13    4      0.36      0.00
   -2   13    3      1.18      0.00
   -2   13    2      0.99      0.00
   -2   13    1      1.26      0.00
   -2   13    0      0.14      0.00
    2  -13    1      0.36      0.00
    2  -13    2     -1.28      0.00
    2  -13    3     -1.06      0.00
    2  -13    4     -0.83      0.00
    2  -13    5      0.02      0.00
    2  -13    6      0.13      0.00
    2  -13    7      0.03      0.00
    2  -13    8     -0.82      0.00
    2  -13    9     -0.93      0.00
    2  -13   10      0.81      0.00
    2  -13   11     -0.46      0.00
    2  -13   12     -1.44      0.00
    2  -13   13      1.02      0.00
    2  -13   14     -0.11      0.00
    2  -13   15      0.06      0.00
    2  -13   16      2.50      0.00
    2  -13   17     -2.22      0.00
    2  -13   18      2.71      0.00
    2  -13   19     -3.12      0.00
    2  -13   20      1.13      0.00
    2  -13   21      2.05      0.00
    2  -13   22      0.34      0.00
    2  -13   23      0.16      0.00
    2  -13   24      0.93      0.00
   -2   12   18     -1.32      0.00
   -2   12   17     -0.37      0.00
   -2   12   16      1.58      0.00
   -2   12   15     -2.01      0.00
   -2   12   14      1.01      0.00
   -2   12   13      0.53      0.00
   -2   12   12     -0.14      0.00
   -2   12   11     -1.35      0.00
   -2   12   10     -0.97      0.00
   -2   12    9     -0.01      0.00
   -2   12    8      1.06      0.00
   -2   12    7     -1.26      0.00
   -2   12    6      0.57      0.00
   -2   12    5     -0.33      0.00
   -2   12    4     -0.37      0.00
   -2   12    3     -0.97      0.00
   -2   12    2     -0.82      0.00
   -2   12    1      0.40      0.00
   -2   12    0      0.72      0.00
    2  -12    1      1.50      0.00
    2  -12    2      2.21      0.00
    2  -12    3      0.31      0.00
    2  -12    4     -0.27      0.00
    2  -12    5     -1.34      0.00
    2  -12    6     -0.52      0.00
    2  -12    7     -0.03      0.00
    2  -12    8     -1.97      0.00
    2  -12    9      0.68      0.00
    2  -12   10     -0.74      0.00
    2  -12   11      0.23      0.00
    2  -12   12     -0.01      0.00
    2  -12   13     -0.33      0.00
    2  -12   14     -1.11      0.00
    2  -12   15      0.28      0.00
    2  -12   16     -1.06      0.00
    2  -12   17      2.87      0.00
    2  -12   18     -0.03      0.00
    2  -12   19      2.22      0.00
    2  -12   20     -0.64      0.00
    2  -12   21     -0.31      0.00
    2  -12   22      1.67      0.00
    2  -12   23     -1.86      0.00
    2  -12   24     -0.07      0.00
   -2   11   19     -0.42      0.00
   -2   11   18      0.54      0.00
   -2   11   17      1.08      0.00
   -2   11   16     -0.91      0.00
   -2   11   15      1.00      0.00
   -2   11   14      0.17      0.00
   -2   11   13      0.61      0.00
   -2   11   12      0.55      0.00
   -2   11   11      0.34      0.00
   -2   11   10     -1.39      0.00
   -2   11    9     -0.67      0.00
   -2   11    8     -0.67      0.00
   -2   11    7     -1.05      0.00
   -2   11    6     -1.72      0.00
   -2   11    5     -0.79      0.00
   -2   11    4      0.09      0.00
   -2   11    3      0.49      0.00
   -2   11    2      0.31      0.00
   -2   11    1     -0.62      0.00
   -2   11    0     -0.83      0.00
    2  -11    1     -0.66      0.00
    2  -11    2      0.31      0.00
    2  -11    3      1.38      0.00
    2  -11    4      1.51      0.00
    2  -11    5      1.60      0.00
    2  -11    6      1.30      0.00
    2  -11    7     -1.32      0.00
    2  -11    8     -0.04      0.00
    2  -11    9     -1.03      0.00
    2  -11   10     -0.43      0.00
    2  -11   11     -1.53      0.00
    2  -11   12      1.34      0.00
    2  -11   13     -1.52      0.00
    2  -11   14      1.34      0.00
    2  -11   15      0.12      0.00
    2  -11   16     -1.01      0.00
    2  -11   17     -1.73      0.00
    2  -11   18     -0.11      0.00
    2  -11   19     -0.47      0.00
    2  -11   20     -0.51      0.00
    2  -11   21     -0.42      0.00
    2  -11   22     -0.14      0.00
    2  -11   23      2.04      0.00
    2  -11   24     -0.51      0.00
    2  -11   25      0.15      0.00
   -2   10   20      0.96      0.00
   -2   10   19     -0.35      0.00
   -2   10   18     -0.18      0.00
   -2   10   17     -1.06      0.00
   -2   10   16      0.46      0.00
   -2   10   15     -0.16      0.00
   -2   10   14     -1.14      0.00
   -2   10   13     -0.22      0.00
   -2   10   12      2.05      0.00
   -2   10   11      0.98      0.00
   -2   10   10      0.87      0.00
   -2   10    9      1.27      0.00
   -2   10    8     -0.67      0.00
   -2   10    7      0.10      0.00
   -2   10    6     -0.14      0.00
   -2   10    5     -1.57      0.00
   -2   10    4     -0.99      0.00
   -2   10    3     -1.39      0.00
   -2   10    2      0.45      0.00
   -2   10    1     -0.06      0.00
   -2   10    0      0.99      0.00
    2  -10    1      1.18      0.00
    2  -10    2     -0.41      0.00
    2  -10    3      0.53      0.00
    2  -10    4     -1.10      0.00
    2  -10    5      0.48      0.00
    2  -10    6      2.48      0.00
    2  -10    7      1.86      0.00
    2  -10    8      0.63      0.00
    2  -10    9      0.07      0.00
    2  -10   10     -0.39      0.00
    2  -10   11      2.03      0.00
    2  -10   12     -3.09      0.00
    2  -10   13      0.23      0.00
    2  -10   14     -2.31      0.00
    2  -10   15      0.61      0.00
    2  -10   16      0.60      0.00
    2  -10   17     -0.15      0.00
    2  -10   18      0.39      0.00
    2  -10   19      0.14      0.00
    2  -10   20     -0.34      0.00
    2  -10   21      0.99      0.00
    2  -10   22     -1.21      0.00
    2  -10   23     -0.83      0.00
    2  -10   24     -0.09      0.00
    2  -10   25     -0.46      0.00
    2  -10   26     -0.69      0.00
   -2    9   21     -0.45      0.00
   -2    9   20     -2.63      0.00
   -2    9   19      1.23      0.00
   -2    9   18      0.25      0.00
   -2    9   17     -0.14      0.00
   -2    9   16     -0.53      0.00
   -2    9   15      0.22      0.00
   -2    9   14      1.38      0.00
   -2    9   13     -0.91      0.00
   -2    9   12     -0.97      0.00
   -2    9   11     -0.52      0.00
   -2    9   10      0.30      0.00
   -2    9    9     -0.12      0.00
   -2    9    8      1.77      0.00
   -2    9    7      1.44      0.00
   -2    9    6      0.09      0.00
   -2    9    5      0.65      0.00
   -2    9    4     -1.67      0.00
   -2    9    3     -0.38      0.00
   -2    9    2     -2.13      0.00
   -2    9    1     -0.36      0.00
   -2    9    0     -0.71      0.00
    2   -9    1     -3.21      0.00
    2   -9    2      3.10      0.00
    2   -9    3      1.42      0.00
    2   -9    4      0.45      0.00
    2   -9    5     -0.67      0.00
    2   -9    6     -2.08      0.00
    2   -9    7      1.99      0.00
    2   -9    8      1.82      0.00
    2   -9    9     -0.14      0.00
    2   -9   10      0.67      0.00
    2   -9   11     -1.16      0.00
    2   -9   12      3.01      0.00
    2   -9   13     -0.46      0.00
    2   -9   14      0.79      0.00
    2   -9   15     -1.60      0.00
    2   -9   16     -0.24      0.00
    2   -9   17      0.04      0.00
    2   -9   18     -0.85      0.00
    2   -9   19      0.38      0.00
    2   -9   20      0.14      0.00
    2   -9   21     -0.76      0.00
    2   -9   22     -0.03      0.00
    2   -9   23      1.23      0.00
    2   -9   24     -0.85      0.00
    2   -9   25     -0.07      0.00
    2   -9   26      1.04      0.00
   -2    8   22      1.91      0.00
   -2    8   21      0.41      0.00
   -2    8   20      0.30      0.00
   -2    8   19     -1.73      0.00
   -2    8   18     -1.30      0.00
   -2    8   17      0.70      0.00
   -2    8   16     -1.09      0.00
   -2    8   15     -0.46      0.00
   -2    8   14     -2.15      0.00
   -2    8   13      1.33      0.00
   -2    8   12      1.74      0.00
   -2    8   11      0.73      0.00
   -2    8   10      1.09      0.00
   -2    8    9     -0.51      0.00
   -2    8    8     -0.61      0.00
   -2    8    7     -0.23      0.00
   -2    8    6     -0.15      0.00
   -2    8    5      1.67      0.00
   -2    8    4      1.87      0.00
   -2    8    3     -0.47      0.00
   -2    8    2     -1.81      0.00
   -2    8    1      0.30      0.00
   -2    8    0     -1.69      0.00
    2   -8    1     -0.76      0.00
    2   -8    2     -5.18      0.00
    2   -8    3     -3.20      0.00
    2   -8    4      2.18      0.00
    2   -8    5      4.49      0.00
    2   -8    6     -0.77      0.00
    2   -8    7      0.12      0.00
    2   -8    8     -1.45      0.00
    2   -8    9      1.61      0.00
    2   -8   10      1.68      0.00
    2   -8   11      0.19      0.00
    2   -8   12     -0.13      0.00
    2   -8   13      1.27      0.00
    2   -8   14     -0.65      0.00
    2   -8   15      0.71      0.00
    2   -8   16     -0.32      0.00
    2   -8   17     -0.46      0.00
    2   -8   18      0.74      0.00
    2   -8   19     -1.48      0.00
    2   -8   20      1.34      0.00
    2   -8   21     -1.12      0.00
    2   -8   22      1.51      0.00
    2   -8   23     -0.60      0.00
    2   -8   24      0.53      0.00
    2   -8   25     -0.26      0.00
    2   -8   26     -1.54      0.00
   -2    7   23     -0.56      0.00
   -2    7   22     -0.14      0.00
   -2    7   21     -0.50      0.00
   -2    7   20      1.71      0.00
   -2    7   19     -0.21      0.00
   -2    7   18      0.81      0.00
   -2    7   17     -1.87      0.00
   -2    7   16      1.30      0.00
   -2    7   15     -0.04      0.00
   -2    7   14     -0.36      0.00
   -2    7   13     -0.94      0.00
   -2    7   12     -3.18      0.00
   -2    7   11      1.00      0.00
   -2    7   10      1.10      0.00
   -2    7    9      1.79      0.00
   -2    7    8      3.01      0.00
   -2    7    7      1.14      0.00
   -2    7    6      2.66      0.00
   -2    7    5     -3.53      0.00
   -2    7    4      1.67      0.00
   -2    7    3     -2.03      0.00
   -2    7    2      2.84      0.00
   -2    7    1     -1.96      0.00
   -2    7    0     -1.96      0.00
    2   -7    1      3.34      0.00
    2   -7    2      2.51      0.00
    2   -7    3     -3.18      0.00
    2   -7    4     -4.05      0.00
    2   -7    5    -11.66      0.00
    2   -7    6      6.95      0.00
    2   -7    7      0.24      0.00
    2   -7    8      1.63      0.00
    2   -7    9      2.48      0.00
    2   -7   10     -2.85      0.00
    2   -7   11      1.47      0.00
    2   -7   12     -0.40      0.00
    2   -7   13     -0.35      0.00
    2   -7   14      2.45      0.00
    2   -7   15     -0.10      0.00
    2   -7   16      0.22      0.00
    2   -7   17     -0.21      0.00
    2   -7   18     -0.88      0.00
    2   -7   19      1.22      0.00
    2   -7   20     -1.29      0.00
    2   -7   21     -0.39      0.00
    2   -7   22     -1.30      0.00
    2   -7   23     -0.67      0.00
    2   -7   24      0.17      0.00
    2   -7   25      0.85      0.00
    2   -7   26      0.36      0.00
    2   -7   27     -0.06      0.00
   -2    6   24     -1.25      0.00
   -2    6   23      0.54      0.00
   -2    6   22     -0.79      0.00
   -2    6   21      1.42      0.00
   -2    6   20     -0.37      0.00
   -2    6   19      1.15      0.00
   -2    6   18     -0.43      0.00
   -2    6   17      1.51      0.00
   -2    6   16     -0.67      0.00
   -2    6   15     -1.50      0.00
   -2    6   14      1.09      0.00
   -2    6   13      0.20      0.00
   -2    6   12      0.10      0.00
   -2    6   11     -1.70      0.00
   -2    6   10     -1.87      0.00
   -2    6    9     -0.66      0.00
   -2    6    8     -2.52      0.00
   -2    6    7      2.53      0.00
   -2    6    6     -1.99      0.00
   -2    6    5      9.32      0.00
   -2    6    4     -2.08      0.00
   -2    6    3      4.90      0.00
   -2    6    2     -2.22      0.00
   -2    6    1      2.24      0.00
   -2    6    0      0.85      0.00
    2   -6    1     -6.52      0.00
    2   -6    2     -4.35      0.00
    2   -6    3      9.07      0.00
    2   -6    4      1.83      0.00
    2   -6    5      6.86      0.00
    2   -6    6    -11.55      0.00
    2   -6    7     -6.17      0.00
    2   -6    8      0.38      0.00
    2   -6    9     -3.12      0.00
    2   -6   10      4.46      0.00
    2   -6   11      1.81      0.00
    2   -6   12      0.98      0.00
    2   -6   13     -0.05      0.00
    2   -6   14     -0.71      0.00
    2   -6   15      1.58      0.00
    2   -6   16     -0.11      0.00
    2   -6   17      1.46      0.00
    2   -6   18     -0.95      0.00
    2   -6   19      0.36      0.00
    2   -6   20      0.15      0.00
    2   -6   21      1.16      0.00
    2   -6   22      0.26      0.00
    2   -6   23      0.05      0.00
    2   -6   24     -0.28      0.00
    2   -6   25     -1.20      0.00
    2   -6   26      0.78      0.00
    2   -6   27      0.78      0.00
   -2    5   24      1.33      0.00
   -2    5   22     -0.18      0.00
   -2    5   21     -1.18      0.00
   -2    5   20      1.05      0.00
   -2    5   19     -0.17      0.00
   -2    5   18     -0.20      0.00
   -2    5   17      0.60      0.00
   -2    5   16      0.76      0.00
   -2    5   15      0.52      0.00
   -2    5   14      0.11      0.00
   -2    5   13     -1.71      0.00
   -2    5   12      0.06      0.00
   -2    5   11     -1.10      0.00
   -2    5   10     -0.49      0.00
   -2    5    9     -1.87      0.00
   -2    5    8      2.28      0.00
   -2    5    7     -3.90      0.00
   -2    5    6      3.33      0.00
   -2    5    5     -7.82      0.00
   -2    5    4      8.14      0.00
   -2    5    3     -1.71      0.00
   -2    5    2      4.36      0.00
   -2    5    1     -0.01      0.00
   -2    5    0      6.38      0.00
    2   -5    1      4.64      0.00
    2   -5    2     -0.66      0.00
    2   -5    3     -9.68      0.00
    2   -5    4     -8.42      0.00
    2   -5    5      5.63      0.00
    2   -5    6      7.36      0.00
    2   -5    7      4.64      0.00
    2   -5    8     -1.35      0.00
    2   -5    9     -4.34      0.00
    2   -5   10     -3.36      0.00
    2   -5   11     -1.19      0.00
    2   -5   12     -1.00      0.00
    2   -5   13      1.77      0.00
    2   -5   14     -0.04      0.00
    2   -5   15     -0.61      0.00
    2   -5   16      1.43      0.00
    2   -5   17     -0.99      0.00
    2   -5   18      1.44      0.00
    2   -5   19     -1.37      0.00
    2   -5   20      0.63      0.00
    2   -5   21      0.10      0.00
    2   -5   22     -1.05      0.00
    2   -5   23      0.73      0.00
    2   -5   24      0.91      0.00
    2   -5   25     -0.79      0.00
    2   -5   26      0.10      0.00
    2   -5   27      0.37      0.00
   -2    4   24     -0.17      0.00
   -2    4   23      1.14      0.00
   -2    4   22     -0.42      0.00
   -2    4   21      0.90      0.00
   -2    4   20     -0.05      0.00
   -2    4   19      0.79      0.00
   -2    4   18      1.72      0.00
   -2    4   17      0.05      0.00
   -2    4   16     -0.44      0.00
   -2    4   15      0.60      0.00
   -2    4   14     -1.67      0.00
   -2    4   13      1.76      0.00
   -2    4   12     -0.17      0.00
   -2    4   11      1.62      0.00
   -2    4   10     -1.60      0.00
   -2    4    9     -0.41      0.00
   -2    4    8     -3.29      0.00
   -2    4    7      1.15      0.00
   -2    4    6     -6.63      0.00
   -2    4    5      4.26      0.00
   -2    4    4     -6.11      0.00
   -2    4    3      6.02      0.00
   -2    4    2     -5.17      0.00
   -2    4    1      6.27      0.00
   -2    4    0     -4.17      0.00
    2   -4    1     -1.14      0.00
    2   -4    2     17.31      0.00
    2   -4    3     -1.72      0.00
    2   -4    4      9.76      0.00
    2   -4    5    -12.13      0.00
    2   -4    6     -8.91      0.00
    2   -4    7      3.39      0.00
    2   -4    8     -3.07      0.00
    2   -4    9      6.17      0.00
    2   -4   10     -0.45      0.00
    2   -4   11     -1.63      0.00
    2   -4   12      1.92      0.00
    2   -4   13     -2.99      0.00
    2   -4   14      0.49      0.00
    2   -4   15     -0.35      0.00
    2   -4   16      0.03      0.00
    2   -4   17      1.20      0.00
    2   -4   18      0.07      0.00
    2   -4   19      1.01      0.00
    2   -4   20     -0.38      0.00
    2   -4   21      0.17      0.00
    2   -4   22      1.05      0.00
    2   -4   23      0.69      0.00
    2   -4   24     -0.26      0.00
    2   -4   25      1.02      0.00
    2   -4   26     -0.19      0.00
    2   -4   27     -0.66      0.00
   -2    3   25      0.48      0.00
   -2    3   24     -1.15      0.00
   -2    3   23     -0.98      0.00
   -2    3   22      1.21      0.00
   -2    3   21     -0.13      0.00
   -2    3   20     -1.54      0.00
   -2    3   19      0.13      0.00
   -2    3   18     -1.24      0.00
   -2    3   17     -0.09      0.00
   -2    3   16      3.47      0.00
   -2    3   15      2.45      0.00
   -2    3   14      1.42      0.00
   -2    3   13     -2.39      0.00
   -2    3   12     -0.26      0.00
   -2    3   11     -1.97      0.00
   -2    3   10     -0.23      0.00
   -2    3    9     -1.37      0.00
   -2    3    8      0.26      0.00
   -2    3    7      3.76      0.00
   -2    3    6      3.10      0.00
   -2    3    5     -8.92      0.00
   -2    3    4      3.77      0.00
   -2    3    3     -9.33      0.00
   -2    3    2      9.20      0.00
   -2    3    1    -11.28      0.00
   -2    3    0     -1.88      0.00
    2   -3    1      9.05      0.00
    2   -3    2     -5.72      0.00
    2   -3    3     10.13      0.00
    2   -3    4      3.01      0.00
    2   -3    5     -2.91      0.00
    2   -3    6     13.34      0.00
    2   -3    7     -7.95      0.00
    2   -3    8      1.54      0.00
    2   -3    9     -5.22      0.00
    2   -3   10     -1.84      0.00
    2   -3   11     -0.94      0.00
    2   -3   12     -2.12      0.00
    2   -3   13      1.84      0.00
    2   -3   14     -1.59      0.00
    2   -3   15      0.93      0.00
    2   -3   16     -0.91      0.00
    2   -3   17     -0.60      0.00
    2   -3   18      0.19      0.00
    2   -3   19      0.28      0.00
    2   -3   20      1.03      0.00
    2   -3   21     -0.62      0.00
    2   -3   22     -0.42      0.00
    2   -3   23     -0.64      0.00
    2   -3   24     -0.04      0.00
    2   -3   25      0.54      0.00
    2   -3   26     -0.55      0.00
    2   -3   27      0.59      0.00
   -2    2   26      0.28      0.00
   -2    2   25     -0.26      0.00
   -2    2   24      1.82      0.00
   -2    2   23     -1.73      0.00
   -2    2   22     -0.39      0.00
   -2    2   21     -1.09      0.00
   -2    2   20      1.65      0.00
   -2    2   19      0.93      0.00
   -2    2   18      0.73      0.00
   -2    2   17     -2.25      0.00
   -2    2   16     -2.98      0.00
   -2    2   15     -0.69      0.00
   -2    2   14      2.60      0.00
   -2    2   13      4.65      0.00
   -2    2   12      2.37      0.00
   -2    2   11      1.03      0.00
   -2    2   10      4.08      0.00
   -2    2    9     -0.94      0.00
   -2    2    8     -7.16      0.00
   -2    2    7     -9.03      0.00
   -2    2    6      1.94      0.00
   -2    2    5      9.61      0.00
   -2    2    4    -10.82      0.00
   -2    2    3      9.62      0.00
   -2    2    2      2.34      0.00
   -2    2    1     30.13      0.00
   -2    2    0    -20.85      0.00
    2   -2    2    -34.81      0.00
    2   -2    3     29.83      0.00
    2   -2    4     -2.41      0.00
    2   -2    5     11.13      0.00
    2   -2    6     -8.13      0.00
    2   -2    7      3.44      0.00
    2   -2    8      4.11      0.00
    2   -2    9      3.50      0.00
    2   -2   10     -1.42      0.00
    2   -2   11     -0.36      0.00
    2   -2   12     -0.89      0.00
    2   -2   13     -2.42      0.00
    2   -2   14     -1.36      0.00
    2   -2   15     -2.17      0.00
    2   -2   16      1.58      0.00
    2   -2   17     -0.34      0.00
    2   -2   18     -0.44      0.00
    2   -2   19      0.31      0.00
    2   -2   20     -0.82      0.00
    2   -2   21      1.03      0.00
    2   -2   22      0.17      0.00
    2   -2   23     -0.38      0.00
    2   -2   24     -0.56      0.00
    2   -2   25      0.07      0.00
    2   -2   26      0.74      0.00
    2   -2   27     -0.68      0.00
   -2    1   26     -0.28      0.00
   -2    1   24     -0.86      0.00
   -2    1   23      0.80      0.00
   -2    1   22      0.35      0.00
   -2    1   21     -0.55      0.00
   -2    1   20     -3.02      0.00
   -2    1   19     -1.27      0.00
   -2    1   18      0.17      0.00
   -2    1   17      2.71      0.00
   -2    1   16      0.42      0.00
   -2    1   15     -0.88      0.00
   -2    1   14     -4.37      0.00
   -2    1   13     -0.22      0.00
   -2    1   12     -0.08      0.00
   -2    1   11     -0.16      0.00
   -2    1   10      0.58      0.00
   -2    1    9      7.60      0.00
   -2    1    8     11.88      0.00
   -2    1    7      0.91      0.00
   -2    1    6     -4.88      0.00
   -2    1    5     -6.46      0.00
   -2    1    4      5.06      0.00
   -2    1    3    -30.92      0.00
   -2    1    2    -17.46      0.00
   -2    1    1    -43.15      0.00
   -2    1    0    105.30      0.00
    2   -1    1    -10.33      0.00
    2   -1    2     32.44      0.00
    2   -1    3    -57.44      0.00
    2   -1    4     -0.35      0.00
    2   -1    5      9.77      0.00
    2   -1    6     -1.54      0.00
    2   -1    7      0.53      0.00
    2   -1    8     -1.96      0.00
    2   -1    9      1.87      0.00
    2   -1   10      5.50      0.00
    2   -1   11     -1.54      0.00
    2   -1   12      0.94      0.00
    2   -1   13      3.15      0.00
    2   -1   14     -0.24      0.00
    2   -1   15      0.01      0.00
    2   -1   16     -3.15      0.00
    2   -1   17     -0.55      0.00
    2   -1   18      0.16      0.00
    2   -1   19     -0.65      0.00
    2   -1   20      0.07      0.00
    2   -1   21     -0.75      0.00
    2   -1   22      1.52      0.00
    2   -1   23      0.63      0.00
    2   -1   24     -0.13      0.00
    2   -1   25     -0.33      0.00
    2   -1   26     -2.01      0.00
   -2    0   26     -1.36      0.00
   -2    0   25      2.04      0.00
   -2    0   24     -1.12      0.00
   -2    0   23      1.07      0.00
   -2    0   22     -1.80      0.00
   -2    0   21      0.44      0.00
   -2    0   20      1.33      0.00
   -2    0   19     -1.25      0.00
   -2    0   18     -2.19      0.00
   -2    0   17     -2.79      0.00
   -2    0   16      1.65      0.00
   -2    0   15      0.30      0.00
   -2    0   14      3.93      0.00
   -2    0   13     -2.04      0.00
   -2    0   12      0.83      0.00
   -2    0   11      3.66      0.00
   -2    0   10     -5.11      0.00
   -2    0    9     -1.73      0.00
   -2    0    8     -6.46      0.00
   -2    0    7      7.50      0.00
   -2    0    6      2.10      0.00
   -2    0    5      1.56      0.00
   -2    0    4      8.73      0.00
   -2    0    3     57.48      0.00
   -2    0    2    -24.79      0.00
   -2    0    1      1.16      0.00
    2    0    0   -133.61      0.00
    2    0    1     36.87      0.00
    2    0    2     11.12      0.00
    2    0    3     28.23      0.00
    2    0    4     -2.31      0.00
    2    0    5    -11.18      0.00
    2    0    6      7.31      0.00
    2    0    7      1.90      0.00
    2    0    8     -4.60      0.00
    2    0    9     -2.10      0.00
    2    0   10      0.83      0.00
    2    0   11      3.03      0.00
    2    0   12     -0.83      0.00
    2    0   13     -1.15      0.00
    2    0   14      2.34      0.00
    2    0   15      1.51      0.00
    2    0   16      2.49      0.00
    2    0   17     -1.42      0.00
    2    0   18     -0.92      0.00
    2    0   19      0.51      0.00
    2    0   20     -0.25      0.00
    2    0   21     -0.57      0.00
    2    0   22     -1.62      0.00
    2    0   23     -1.05      0.00
    2    0   24      2.47      0.00
    2    0   25     -0.21      0.00
   -2   -1   26      1.35      0.00
   -2   -1   25     -3.33      0.00
   -2   -1   24      1.40      0.00
   -2   -1   23      0.66      0.00
   -2   -1   22      0.96      0.00
   -2   -1   21     -0.39      0.00
   -2   -1   20      0.18      0.00
   -2   -1   19      0.53      0.00
   -2   -1   18      0.66      0.00
   -2   -1   17      0.50      0.00
   -2   -1   16     -5.06      0.00
   -2   -1   15     -0.24      0.00
   -2   -1   14     -2.45      0.00
   -2   -1   13      0.40      0.00
   -2   -1   12      0.65      0.00
   -2   -1   11     -3.53      0.00
   -2   -1   10      6.71      0.00
   -2   -1    9     -1.63      0.00
   -2   -1    8      3.82      0.00
   -2   -1    7     -1.19      0.00
   -2   -1    6      4.60      0.00
   -2   -1    5    -12.77      0.00
   -2   -1    4    -14.32      0.00
   -2   -1    3    -38.98      0.00
   -2   -1    1     30.59      0.00
    2    1    0     45.98      0.00
    2    1    1    -37.51      0.00
    2    1    2    -29.34      0.00
    2    1    3    -12.38      0.00
    2    1    4      7.58      0.00
    2    1    5     -8.75      0.00
    2    1    6     -0.12      0.00
    2    1    7      3.11      0.00
    2    1    8      6.64      0.00
    2    1    9      0.68      0.00
    2    1   10     -1.70      0.00
    2    1   11      0.69      0.00
    2    1   12      2.47      0.00
    2    1   13     -1.56      0.00
    2    1   14     -2.44      0.00
    2    1   15     -0.68      0.00
    2    1   16      0.22      0.00
    2    1   17      2.78      0.00
    2    1   18     -0.67      0.00
    2    1   19     -1.24      0.00
    2    1   20      0.18      0.00
    2    1   21      1.00      0.00
    2    1   22     -0.17      0.00
    2    1   23     -0.63      0.00
    2    1   24     -2.14      0.00
   -2   -2   27      1.04      0.00
   -2   -2   26      1.06      0.00
   -2   -2   25      0.25      0.00
   -2   -2   24     -0.14      0.00
   -2   -2   23     -0.38      0.00
   -2   -2   22      0.66      0.00
   -2   -2   21      1.29      0.00
   -2   -2   20     -0.30      0.00
   -2   -2   19      0.77      0.00
   -2   -2   18      0.55      0.00
   -2   -2   17      1.05      0.00
   -2   -2   16      1.67      0.00
   -2   -2   15     -0.88      0.00
   -2   -2   14     -1.45      0.00
   -2   -2   13     -2.14      0.00
   -2   -2   12     -2.66      0.00
   -2   -2   11      1.46      0.00
   -2   -2   10     -2.48      0.00
   -2   -2    9     -0.20      0.00
   -2   -2    8     -0.69      0.00
   -2   -2    7      1.63      0.00
   -2   -2    6     -1.93      0.00
   -2   -2    5     24.62      0.00
   -2   -2    4      5.69      0.00
   -2   -2    3     -1.54      0.00
   -2   -2    2    -24.03      0.00
   -2   -2    1    -25.79      0.00
    2    2    0     11.45      0.00
    2    2    1     22.46      0.00
    2    2    2      6.77      0.00
    2    2    3     14.38      0.00
    2    2    4    -14.89      0.00
    2    2    5      8.15      0.00
    2    2    6     -9.26      0.00
    2    2    7     -6.23      0.00
    2    2    8     -2.36      0.00
    2    2    9     -0.70      0.00
    2    2   10      0.40      0.00
    2    2   11      0.41      0.00
    2    2   12      0.92      0.00
    2    2   13      4.34      0.00
    2    2   14      2.35      0.00
    2    2   15     -1.76      0.00
    2    2   16     -2.18      0.00
    2    2   17      0.00      0.00
    2    2   18      1.76      0.00
    2    2   19     -0.11      0.00
    2    2   20     -0.58      0.00
    2    2   21     -0.23      0.00
    2    2   22      0.60      0.00
    2    2   23      2.43      0.00
   -2   -3   27     -0.53      0.00
   -2   -3   26     -0.27      0.00
   -2   -3   25      0.29      0.00
   -2   -3   24      0.20      0.00
   -2   -3   23     -0.53      0.00
   -2   -3   22      0.45      0.00
   -2   -3   21     -0.59      0.00
   -2   -3   20      1.99      0.00
   -2   -3   19     -0.74      0.00
   -2   -3   18      0.81      0.00
   -2   -3   17     -0.70      0.00
   -2   -3   16      1.09      0.00
   -2   -3   15     -0.97      0.00
   -2   -3   14      1.55      0.00
   -2   -3   13      0.55      0.00
   -2   -3   12     -3.53      0.00
   -2   -3   11     -0.47      0.00
   -2   -3   10     -4.19      0.00
   -2   -3    9     -1.01      0.00
   -2   -3    8      1.14      0.00
   -2   -3    7     -7.23      0.00
   -2   -3    6      4.56      0.00
   -2   -3    5     -8.25      0.00
   -2   -3    4      0.60      0.00
   -2   -3    3     16.01      0.00
   -2   -3    2     -0.78      0.00
   -2   -3    1     15.58      0.00
    2    3    0     -2.99      0.00
    2    3    1    -13.21      0.00
    2    3    2      7.54      0.00
    2    3    3    -10.87      0.00
    2    3    4     10.19      0.00
    2    3    5     -1.31      0.00
    2    3    6      3.07      0.00
    2    3    7      1.02      0.00
    2    3    8     -0.50      0.00
    2    3    9      0.32      0.00
    2    3   10     -2.38      0.00
    2    3   11     -1.44      0.00
    2    3   12     -3.94      0.00
    2    3   13     -1.62      0.00
    2    3   14      2.03      0.00
    2    3   15      2.74      0.00
    2    3   16      1.05      0.00
    2    3   17     -1.30      0.00
    2    3   18     -0.67      0.00
    2    3   19      1.19      0.00
    2    3   20      0.97      0.00
    2    3   21     -0.57      0.00
    2    3   22     -1.39      0.00
    2    3   23     -2.07      0.00
   -2   -4   27      0.77      0.00
   -2   -4   26     -1.23      0.00
   -2   -4   25      0.82      0.00
   -2   -4   24     -1.57      0.00
   -2   -4   23      1.99      0.00
   -2   -4   22     -0.67      0.00
   -2   -4   21     -0.68      0.00
   -2   -4   20     -1.26      0.00
   -2   -4   19      1.02      0.00
   -2   -4   18     -0.12      0.00
   -2   -4   17      1.18      0.00
   -2   -4   16     -0.04      0.00
   -2   -4   15      1.90      0.00
   -2   -4   14     -0.36      0.00
   -2   -4   13     -1.26      0.00
   -2   -4   12      3.95      0.00
   -2   -4   11     -2.56      0.00
   -2   -4   10      1.77      0.00
   -2   -4    9      0.81      0.00
   -2   -4    8     -4.51      0.00
   -2   -4    7      1.78      0.00
   -2   -4    6     -7.49      0.00
   -2   -4    5     -3.01      0.00
   -2   -4    4      4.86      0.00
   -2   -4    3     -6.39      0.00
   -2   -4    2      0.84      0.00
   -2   -4    1     -3.02      0.00
    2    4    0     -3.94      0.00
    2    4    1      9.99      0.00
    2    4    2     -0.48      0.00
    2    4    3      3.52      0.00
    2    4    4     -1.49      0.00
    2    4    5      1.60      0.00
    2    4    6      0.14      0.00
    2    4    7     -2.05      0.00
    2    4    8     -1.35      0.00
    2    4    9     -1.88      0.00
    2    4   10      3.00      0.00
    2    4   11      0.07      0.00
    2    4   12      1.88      0.00
    2    4   13     -1.90      0.00
    2    4   14     -2.02      0.00
    2    4   15     -1.01      0.00
    2    4   16      0.95      0.00
    2    4   17      1.95      0.00
    2    4   18     -0.42      0.00
    2    4   19     -1.31      0.00
    2    4   20      0.11      0.00
    2    4   21      0.87      0.00
    2    4   22      2.52      0.00
    2    4   23      1.03      0.00
    2    4   24     -0.64      0.00
   -2   -5   27     -0.64      0.00
   -2   -5   26      2.59      0.00
   -2   -5   25     -1.08      0.00
   -2   -5   24     -0.31      0.00
   -2   -5   23     -2.33      0.00
   -2   -5   22      1.00      0.00
   -2   -5   21      2.05      0.00
   -2   -5   20     -0.57      0.00
   -2   -5   19      0.18      0.00
   -2   -5   18      0.47      0.00
   -2   -5   17     -0.56      0.00
   -2   -5   16      0.48      0.00
   -2   -5   15     -0.10      0.00
   -2   -5   14      1.39      0.00
   -2   -5   13      2.26      0.00
   -2   -5   12     -1.08      0.00
   -2   -5   11     -0.26      0.00
   -2   -5   10     -1.54      0.00
   -2   -5    9     -0.96      0.00
   -2   -5    8      0.50      0.00
   -2   -5    7      2.65      0.00
   -2   -5    6      0.50      0.00
   -2   -5    5     -2.52      0.00
   -2   -5    4     -5.48      0.00
   -2   -5    3     -3.81      0.00
   -2   -5    2      4.14      0.00
   -2   -5    1      1.60      0.00
    2    5    0      2.44      0.00
    2    5    1     -0.86      0.00
    2    5    2     -0.92      0.00
    2    5    3      1.54      0.00
    2    5    4     -0.39      0.00
    2    5    5     -0.53      0.00
    2    5    6      2.09      0.00
    2    5    7      3.89      0.00
    2    5    8      0.60      0.00
    2    5    9      0.36      0.00
    2    5   10     -3.57      0.00
    2    5   11      0.75      0.00
    2    5   12     -1.06      0.00
    2    5   13      1.07      0.00
    2    5   14      0.23      0.00
    2    5   15     -0.47      0.00
    2    5   16     -0.93      0.00
    2    5   17     -1.33      0.00
    2    5   18      1.25      0.00
    2    5   19      1.87      0.00
    2    5   20     -1.39      0.00
    2    5   21     -1.09      0.00
    2    5   22     -2.20      0.00
    2    5   23      0.48      0.00
   -2   -6   27      0.00      0.00
   -2   -6   26     -1.54      0.00
   -2   -6   25      3.25      0.00
   -2   -6   24      1.89      0.00
   -2   -6   23     -0.38      0.00
   -2   -6   22     -0.36      0.00
   -2   -6   21     -1.13      0.00
   -2   -6   20     -0.08      0.00
   -2   -6   19     -0.67      0.00
   -2   -6   18      0.52      0.00
   -2   -6   17      0.85      0.00
   -2   -6   16      0.81      0.00
   -2   -6   15      1.00      0.00
   -2   -6   14     -1.48      0.00
   -2   -6   13      1.99      0.00
   -2   -6   12      1.79      0.00
   -2   -6   11      3.35      0.00
   -2   -6   10      2.32      0.00
   -2   -6    9     -2.11      0.00
   -2   -6    8      1.00      0.00
   -2   -6    7     -3.30      0.00
   -2   -6    6     -0.53      0.00
   -2   -6    5      5.07      0.00
   -2   -6    4      0.19      0.00
   -2   -6    3      3.45      0.00
   -2   -6    2     -7.00      0.00
   -2   -6    1     -5.30      0.00
    2    6    0     -0.01      0.00
    2    6    1     -2.61      0.00
    2    6    2      2.97      0.00
    2    6    3      0.69      0.00
    2    6    4      2.74      0.00
    2    6    5      0.93      0.00
    2    6    6     -0.87      0.00
    2    6    7     -2.80      0.00
    2    6    8      1.49      0.00
    2    6    9      0.39      0.00
    2    6   10      0.94      0.00
    2    6   11     -1.23      0.00
    2    6   12      0.03      0.00
    2    6   13     -0.08      0.00
    2    6   14     -0.56      0.00
    2    6   15      1.37      0.00
    2    6   16     -0.06      0.00
    2    6   17     -0.86      0.00
    2    6   18     -0.72      0.00
    2    6   19     -1.25      0.00
    2    6   20      1.53      0.00
    2    6   21      0.72      0.00
    2    6   22      0.49      0.00
    2    6   23     -1.41      0.00
   -2   -7   26     -0.58      0.00
   -2   -7   25     -2.21      0.00
   -2   -7   24     -0.84      0.00
   -2   -7   23      0.94      0.00
   -2   -7   22     -0.72      0.00
   -2   -7   21      0.63      0.00
   -2   -7   20      0.26      0.00
   -2   -7   19      0.44      0.00
   -2   -7   18     -2.59      0.00
   -2   -7   17     -0.74      0.00
   -2   -7   16      0.34      0.00
   -2   -7   15     -0.39      0.00
   -2   -7   14      2.08      0.00
   -2   -7   13     -2.61      0.00
   -2   -7   12      1.08      0.00
   -2   -7   11      0.26      0.00
   -2   -7   10      1.15      0.00
   -2   -7    9      3.99      0.00
   -2   -7    8      0.63      0.00
   -2   -7    7      2.53      0.00
   -2   -7    6      0.92      0.00
   -2   -7    5     -5.69      0.00
   -2   -7    4     -1.89      0.00
   -2   -7    3     -0.29      0.00
   -2   -7    2      4.28      0.00
   -2   -7    1      2.96      0.00
    2    7    0     -2.34      0.00
    2    7    1     -0.54      0.00
    2    7    2     -3.85      0.00
    2    7    3     -0.31      0.00
    2    7    4     -2.83      0.00
    2    7    5      1.40      0.00
    2    7    6      2.08      0.00
    2    7    7      2.39      0.00
    2    7    8      0.15      0.00
    2    7    9      0.55      0.00
    2    7   10      1.59      0.00
    2    7   11      0.37      0.00
    2    7   12      0.15      0.00
    2    7   13     -1.65      0.00
    2    7   14     -0.18      0.00
    2    7   15     -0.39      0.00
    2    7   16      0.75      0.00
    2    7   17      1.29      0.00
    2    7   18     -0.24      0.00
    2    7   19     -0.17      0.00
    2    7   20     -0.08      0.00
    2    7   21     -0.06      0.00
    2    7   22      0.45      0.00
   -2   -8   26     -0.13      0.00
   -2   -8   25     -0.87      0.00
   -2   -8   24      0.60      0.00
   -2   -8   23     -0.83      0.00
   -2   -8   22      0.16      0.00
   -2   -8   21     -1.07      0.00
   -2   -8   20     -0.12      0.00
   -2   -8   19     -0.78      0.00
   -2   -8   18      1.79      0.00
   -2   -8   17     -1.82      0.00
   -2   -8   16     -2.32      0.00
   -2   -8   15      0.52      0.00
   -2   -8   14     -1.18      0.00
   -2   -8   13      1.03      0.00
   -2   -8   12     -2.14      0.00
   -2   -8   11      0.34      0.00
   -2   -8   10      0.36      0.00
   -2   -8    9     -0.29      0.00
   -2   -8    8      0.01      0.00
   -2   -8    7     -0.72      0.00
   -2   -8    6      3.56      0.00
   -2   -8    5      3.94      0.00
   -2   -8    4      1.59      0.00
   -2   -8    3     -3.33      0.00
   -2   -8    2     -2.98      0.00
   -2   -8    1     -1.41      0.00
    2    8    0      0.84      0.00
    2    8    1     -0.17      0.00
    2    8    2      0.98      0.00
    2    8    3     -0.90      0.00
    2    8    4      0.60      0.00
    2    8    5     -1.81      0.00
    2    8    6     -1.64      0.00
    2    8    7     -0.37      0.00
    2    8    8     -0.32      0.00
    2    8    9      0.38      0.00
    2    8   10     -1.11      0.00
    2    8   11      0.73      0.00
    2    8   12      1.51      0.00
    2    8   13      1.02      0.00
    2    8   14     -0.28      0.00
    2    8   15     -1.37      0.00
    2    8   16     -0.24      0.00
    2    8   17      0.67      0.00
    2    8   18      0.65      0.00
    2    8   19      0.62      0.00
    2    8   20     -1.02      0.00
    2    8   21      0.67      0.00
   -2   -9   25      1.22      0.00
   -2   -9   24     -1.82      0.00
   -2   -9   23      0.52      0.00
   -2   -9   22     -0.37      0.00
   -2   -9   21     -0.02      0.00
   -2   -9   20     -0.54      0.00
   -2   -9   19      0.79      0.00
   -2   -9   18     -1.11      0.00
   -2   -9   17      1.61      0.00
   -2   -9   16     -0.80      0.00
   -2   -9   15     -1.80      0.00
   -2   -9   14     -0.30      0.00
   -2   -9   13     -0.67      0.00
   -2   -9   12      0.72      0.00
   -2   -9   11     -2.31      0.00
   -2   -9   10     -0.45      0.00
   -2   -9    9      1.32      0.00
   -2   -9    8      1.27      0.00
   -2   -9    7      0.47      0.00
   -2   -9    6     -2.74      0.00
   -2   -9    5      1.06      0.00
   -2   -9    4      0.67      0.00
   -2   -9    3      2.97      0.00
   -2   -9    2      1.05      0.00
   -2   -9    1      0.01      0.00
    2    9    0     -0.92      0.00
    2    9    1     -1.28      0.00
    2    9    2     -1.18      0.00
    2    9    3     -0.88      0.00
    2    9    4     -0.53      0.00
    2    9    5      0.06      0.00
    2    9    6      0.39      0.00
    2    9    7     -0.42      0.00
    2    9    8      0.25      0.00
    2    9    9      0.48      0.00
    2    9   10      0.40      0.00
    2    9   11     -0.24      0.00
    2    9   12     -1.47      0.00
    2    9   13      1.22      0.00
    2    9   14      0.90      0.00
    2    9   15      0.66      0.00
    2    9   16     -1.20      0.00
    2    9   17     -2.13      0.00
    2    9   18      0.37      0.00
    2    9   19      0.19      0.00
    2    9   20      0.72      0.00
   -2  -10   25      0.02      0.00
   -2  -10   24      2.44      0.00
   -2  -10   23     -1.24      0.00
   -2  -10   22      1.50      0.00
   -2  -10   21     -0.08      0.00
   -2  -10   20      0.50      0.00
   -2  -10   19     -1.36      0.00
   -2  -10   18      1.58      0.00
   -2  -10   17     -0.97      0.00
   -2  -10   16      2.18      0.00
   -2  -10   15     -0.29      0.00
   -2  -10   14      0.10      0.00
   -2  -10   13     -0.59      0.00
   -2  -10   12     -0.76      0.00
   -2  -10   11      1.27      0.00
   -2  -10   10     -1.98      0.00
   -2  -10    9     -1.80      0.00
   -2  -10    8     -0.36      0.00
   -2  -10    7      0.10      0.00
   -2  -10    6      1.14      0.00
   -2  -10    5     -0.36      0.00
   -2  -10    4      0.57      0.00
   -2  -10    3      0.29      0.00
   -2  -10    2     -0.35      0.00
   -2  -10    1      1.08      0.00
    2   10    0      0.84      0.00
    2   10    1      1.26      0.00
    2   10    2      0.19      0.00
    2   10    3     -0.25      0.00
    2   10    4     -0.67      0.00
    2   10    5     -0.77      0.00
    2   10    6     -1.28      0.00
    2   10    7     -0.44      0.00
    2   10    8     -0.55      0.00
    2   10    9     -1.25      0.00
    2   10   10      0.62      0.00
    2   10   11      0.54      0.00
    2   10   12      1.42      0.00
    2   10   13     -1.48      0.00
    2   10   14     -1.09      0.00
    2   10   15      1.70      0.00
    2   10   16      0.99      0.00
    2   10   17      0.91      0.00
    2   10   18     -1.55      0.00
   -2  -11   24     -1.46      0.00
   -2  -11   23      1.43      0.00
   -2  -11   22     -1.69      0.00
   -2  -11   21      1.29      0.00
   -2  -11   20     -0.37      0.00
   -2  -11   19      1.95      0.00
   -2  -11   18     -0.92      0.00
   -2  -11   17      1.51      0.00
   -2  -11   16     -2.29      0.00
   -2  -11   15      1.68      0.00
   -2  -11   14     -0.07      0.00
   -2  -11   13     -0.16      0.00
   -2  -11   12     -0.23      0.00
   -2  -11   11     -1.31      0.00
   -2  -11   10      1.19      0.00
   -2  -11    9     -0.61      0.00
   -2  -11    8      0.19      0.00
   -2  -11    7     -0.33      0.00
   -2  -11    6     -0.64      0.00
   -2  -11    5     -0.34      0.00
   -2  -11    4      0.47      0.00
   -2  -11    3      0.41      0.00
   -2  -11    2      1.64      0.00
   -2  -11    1      0.08      0.00
    2   11    0     -0.01      0.00
    2   11    1      0.15      0.00
    2   11    2      1.03      0.00
    2   11    3     -0.22      0.00
    2   11    4      0.71      0.00
    2   11    5      0.99      0.00
    2   11    6      0.13      0.00
    2   11    7      0.06      0.00
    2   11    8      0.27      0.00
    2   11    9      0.72      0.00
    2   11   10     -2.56      0.00
    2   11   11     -1.11      0.00
    2   11   12     -0.61      0.00
    2   11   13      0.95      0.00
    2   11   14      0.87      0.00
    2   11   15     -2.32      0.00
    2   11   16      0.23      0.00
    2   11   17      0.02      0.00
   -2  -12   23      0.25      0.00
   -2  -12   22      1.01      0.00
   -2  -12   21     -1.42      0.00
   -2  -12   20      0.60      0.00
   -2  -12   19     -2.20      0.00
   -2  -12   18      1.08      0.00
   -2  -12   17      0.33      0.00
   -2  -12   16      1.11      0.00
   -2  -12   15     -1.28      0.00
   -2  -12   14     -0.09      0.00
   -2  -12   13      1.08      0.00
   -2  -12   12      0.30      0.00
   -2  -12   11      0.23      0.00
   -2  -12   10     -1.38      0.00
   -2  -12    9     -0.69      0.00
   -2  -12    8     -1.14      0.00
   -2  -12    7     -0.67      0.00
   -2  -12    6      0.08      0.00
   -2  -12    5     -0.52      0.00
   -2  -12    4     -0.18      0.00
   -2  -12    3     -1.04      0.00
   -2  -12    2      0.45      0.00
   -2  -12    1      0.92      0.00
    2   12    0      0.30      0.00
    2   12    1      0.92      0.00
    2   12    2      0.24      0.00
    2   12    3      0.94      0.00
    2   12    4      0.06      0.00
    2   12    5     -0.84      0.00
    2   12    6      1.13      0.00
    2   12    7     -0.81      0.00
    2   12    8     -0.25      0.00
    2   12    9      0.33      0.00
    2   12   10      2.73      0.00
    2   12   11      0.06      0.00
    2   12   12     -0.39      0.00
    2   12   13     -1.06      0.00
    2   12   14     -0.98      0.00
    2   12   15      0.43      0.00
    2   12   16     -0.10      0.00
   -2  -13   22     -0.17      0.00
   -2  -13   21      1.21      0.00
   -2  -13   20      0.31      0.00
   -2  -13   19      0.28      0.00
   -2  -13   18     -0.82      0.00
   -2  -13   17     -0.31      0.00
   -2  -13   16      2.09      0.00
   -2  -13   15      0.09      0.00
   -2  -13   14      0.59      0.00
   -2  -13   13     -0.17      0.00
   -2  -13   12     -0.41      0.00
   -2  -13   11      1.36      0.00
   -2  -13   10      0.12      0.00
   -2  -13    9      0.98      0.00
   -2  -13    8     -0.05      0.00
   -2  -13    7     -0.19      0.00
   -2  -13    6     -1.41      0.00
   -2  -13    5     -0.47      0.00
   -2  -13    4     -0.92      0.00
   -2  -13    3     -0.86      0.00
   -2  -13    2     -1.29      0.00
   -2  -13    1     -0.24      0.00
    2   13    0     -0.15      0.00
    2   13    1      0.23      0.00
    2   13    2      0.14      0.00
    2   13    3      0.75      0.00
    2   13    4     -0.74      0.00
    2   13    5      1.17      0.00
    2   13    6     -0.64      0.00
    2   13    7      0.23      0.00
    2   13    8     -0.02      0.00
    2   13    9     -1.26      0.00
    2   13   10     -1.30      0.00
    2   13   11      0.05      0.00
    2   13   12      1.19      0.00
    2   13   13      1.71      0.00
    2   13   14      0.34      0.00
   -2  -14   21      0.73      0.00
   -2  -14   20     -0.28      0.00
   -2  -14   19      0.53      0.00
   -2  -14   18     -0.74      0.00
   -2  -14   17     -0.33      0.00
   -2  -14   16     -2.07      0.00
   -2  -14   15      1.28      0.00
   -2  -14   14      0.35      0.00
   -2  -14   13     -0.46      0.00
   -2  -14   12      0.83      0.00
   -2  -14   11      0.53      0.00
   -2  -14   10      0.56      0.00
   -2  -14    9     -1.64      0.00
   -2  -14    8      0.32      0.00
   -2  -14    7      1.28      0.00
   -2  -14    6      0.17      0.00
   -2  -14    5      0.34      0.00
   -2  -14    4      0.74      0.00
   -2  -14    3      0.21      0.00
   -2  -14    2     -0.24      0.00
   -2  -14    1     -1.18      0.00
    2   14    0     -0.10      0.00
    2   14    1     -1.73      0.00
    2   14    2      0.79      0.00
    2   14    3     -0.67      0.00
    2   14    4      1.16      0.00
    2   14    5     -0.49      0.00
    2   14    6      0.38      0.00
    2   14    7      1.05      0.00
    2   14    8     -0.45      0.00
    2   14    9      1.68      0.00
    2   14   10     -0.39      0.00
    2   14   11     -0.39      0.00
    2   14   12     -1.33      0.00
   -2  -15   19      0.71      0.00
   -2  -15   18      0.72      0.00
   -2  -15   17     -0.63      0.00
   -2  -15   16     -0.09      0.00
   -2  -15   15     -0.92      0.00
   -2  -15   14      0.43      0.00
   -2  -15   13     -0.16      0.00
   -2  -15   12      0.09      0.00
   -2  -15   11     -0.76      0.00
   -2  -15   10      2.24      0.00
   -2  -15    9      2.02      0.00
   -2  -15    8     -0.25      0.00
   -2  -15    7     -0.59      0.00
   -2  -15    6      0.26      0.00
   -2  -15    5     -0.12      0.00
   -2  -15    4     -0.26      0.00
   -2  -15    3      0.58      0.00
   -2  -15    2     -0.14      0.00
   -2  -15    1      1.68      0.00
    2   15    0     -1.04      0.00
    2   15    1      0.20      0.00
    2   15    2     -1.31      0.00
    2   15    3      0.63      0.00
    2   15    4     -0.71      0.00
    2   15    5      0.09      0.00
    2   15    6     -0.15      0.00
    2   15    7     -0.71      0.00
    2   15    8      0.29      0.00
    2   15    9     -0.06      0.00
    2   15   10      1.00      0.00
   -2  -16   17      1.36      0.00
   -2  -16   16      0.19      0.00
   -2  -16   15     -0.65      0.00
   -2  -16   14     -1.26      0.00
   -2  -16   13      0.99      0.00
   -2  -16   12     -1.82      0.00
   -2  -16   11     -0.07      0.00
   -2  -16   10     -1.62      0.00
   -2  -16    9      0.34      0.00
   -2  -16    8      0.35      0.00
   -2  -16    7      1.29      0.00
   -2  -16    6      0.75      0.00
   -2  -16    5     -0.43      0.00
   -2  -16    4      0.10      0.00
   -2  -16    3     -0.99      0.00
   -2  -16    2      0.63      0.00
   -2  -16    1     -1.14      0.00
    2   16    0      2.05      0.00
    2   16    1     -0.06      0.00
    2   16    2     -0.14      0.00
    2   16    4      0.42      0.00
    2   16    5     -0.38      0.00
    2   16    6      1.21      0.00
    2   16    7     -1.01      0.00
   -2  -17   15      0.68      0.00
   -2  -17   14      0.80      0.00
   -2  -17   13     -0.38      0.00
   -2  -17   12      1.51      0.00
   -2  -17   11     -1.38      0.00
   -2  -17   10      0.15      0.00
   -2  -17    9     -0.87      0.00
   -2  -17    8     -0.17      0.00
   -2  -17    7     -1.20      0.00
   -2  -17    6     -0.68      0.00
   -2  -17    5      1.46      0.00
   -2  -17    4     -0.14      0.00
   -2  -17    3      0.37      0.00
   -2  -17    2     -1.57      0.00
   -2  -17    1     -0.38      0.00
    2   17    0     -1.56      0.00
    2   17    1      0.50      0.00
    2   17    2     -0.48      0.00
    2   17    4     -1.27      0.00
   -2  -18   10     -0.08      0.00
   -2  -18    9     -0.50      0.00
   -2  -18    8      0.39      0.00
   -2  -18    7      0.44      0.00
   -2  -18    6      0.19      0.00
   -2  -18    5     -1.52      0.00
   -2  -18    4      0.52      0.00
   -2  -18    3      1.21      0.00
   -2  -18    2      0.86      0.00
   -2  -18    1      0.00      0.00
   -3   19    2     -1.76      0.00
   -3   19    1     -1.66      0.00
   -3   19    0      0.17      0.00
    3  -19    1      1.75      0.00
    3  -19    2     -1.18      0.00
    3  -19    3     -0.37      0.00
    3  -19    4     -0.55      0.00
    3  -19    5      0.46      0.00
    3  -19    6      0.90      0.00
    3  -19    7      0.80      0.00
    3  -19    8     -0.75      0.00
    3  -19    9      0.61      0.00
    3  -19   10     -0.39      0.00
    3  -19   11     -0.11      0.00
    3  -19   12      0.17      0.00
    3  -19   13      0.61      0.00
   -3   18    6      1.77      0.00
   -3   18    5     -1.22      0.00
   -3   18    4      0.53      0.00
   -3   18    3      1.58      0.00
   -3   18    2      0.62      0.00
   -3   18    1     -0.57      0.00
   -3   18    0     -0.84      0.00
    3  -18    1     -2.20      0.00
    3  -18    2      1.44      0.00
    3  -18    3      0.17      0.00
    3  -18    4     -0.43      0.00
    3  -18    5     -2.15      0.00
    3  -18    6      1.06      0.00
    3  -18    7     -0.28      0.00
    3  -18    8      0.44      0.00
    3  -18    9      0.36      0.00
    3  -18   10      0.37      0.00
    3  -18   11     -0.15      0.00
    3  -18   12     -0.03      0.00
    3  -18   13     -0.53      0.00
    3  -18   14     -0.25      0.00
    3  -18   15     -0.17      0.00
    3  -18   16      0.73      0.00
   -3   17    9      2.91      0.00
   -3   17    8     -2.27      0.00
   -3   17    7      0.79      0.00
   -3   17    6     -1.17      0.00
   -3   17    5      0.37      0.00
   -3   17    4     -0.79      0.00
   -3   17    3     -0.51      0.00
   -3   17    2      0.63      0.00
   -3   17    1      1.00      0.00
   -3   17    0      0.53      0.00
    3  -17    1     -0.66      0.00
    3  -17    2     -0.81      0.00
    3  -17    3      0.59      0.00
    3  -17    4     -0.65      0.00
    3  -17    5      1.99      0.00
    3  -17    6     -0.99      0.00
    3  -17    7      0.00      0.00
    3  -17    8      0.54      0.00
    3  -17    9      0.39      0.00
    3  -17   10     -0.36      0.00
    3  -17   11     -0.16      0.00
    3  -17   12      0.44      0.00
    3  -17   13      0.12      0.00
    3  -17   14     -0.77      0.00
    3  -17   15     -0.44      0.00
    3  -17   16     -0.40      0.00
    3  -17   17     -0.23      0.00
    3  -17   18     -0.28      0.00
   -3   16   11     -0.95      0.00
   -3   16   10     -0.61      0.00
   -3   16    9     -1.84      0.00
   -3   16    8      1.15      0.00
   -3   16    7      0.94      0.00
   -3   16    6      0.58      0.00
   -3   16    5      0.36      0.00
   -3   16    4      1.25      0.00
   -3   16    3     -0.52      0.00
   -3   16    2     -0.24      0.00
   -3   16    1      0.41      0.00
   -3   16    0      0.09      0.00
    3  -16    1      0.80      0.00
    3  -16    2     -0.16      0.00
    3  -16    3     -0.59      0.00
    3  -16    4      0.21      0.00
    3  -16    5     -1.86      0.00
    3  -16    6     -0.40      0.00
    3  -16    7      0.28      0.00
    3  -16    8     -0.62      0.00
    3  -16    9     -0.11      0.00
    3  -16   10      1.06      0.00
    3  -16   11      0.43      0.00
    3  -16   12      0.06      0.00
    3  -16   13      1.47      0.00
    3  -16   14      0.68      0.00
    3  -16   15     -0.74      0.00
    3  -16   16      0.10      0.00
    3  -16   17      0.89      0.00
    3  -16   18     -0.27      0.00
    3  -16   19      1.70      0.00
    3  -16   20     -0.81      0.00
   -3   15   13     -1.51      0.00
   -3   15   12     -2.32      0.00
   -3   15   11      1.55      0.00
   -3   15   10      1.18      0.00
   -3   15    9     -0.53      0.00
   -3   15    8      0.07      0.00
   -3   15    7     -0.78      0.00
   -3   15    6     -0.76      0.00
   -3   15    5      0.38      0.00
   -3   15    4     -1.22      0.00
   -3   15    3      1.29      0.00
   -3   15    2      0.55      0.00
   -3   15    1      0.00      0.00
   -3   15    0      1.01      0.00
    3  -15    1      0.85      0.00
    3  -15    2     -0.11      0.00
    3  -15    3      0.08      0.00
    3  -15    4      1.27      0.00
    3  -15    5      0.08      0.00
    3  -15    6     -1.26      0.00
    3  -15    7     -0.36      0.00
    3  -15    8     -0.79      0.00
    3  -15    9     -0.53      0.00
    3  -15   10     -0.57      0.00
    3  -15   11     -0.74      0.00
    3  -15   12     -0.75      0.00
    3  -15   13     -0.26      0.00
    3  -15   14      0.97      0.00
    3  -15   15      0.94      0.00
    3  -15   16     -0.16      0.00
    3  -15   17     -2.44      0.00
    3  -15   18      1.71      0.00
    3  -15   19     -2.27      0.00
    3  -15   20      1.33      0.00
    3  -15   21     -0.13      0.00
   -3   14   15     -0.66      0.00
   -3   14   14      3.49      0.00
   -3   14   13      0.20      0.00
   -3   14   12      0.32      0.00
   -3   14   11     -0.79      0.00
   -3   14   10     -0.48      0.00
   -3   14    9     -0.75      0.00
   -3   14    8     -0.94      0.00
   -3   14    7     -0.90      0.00
   -3   14    6      1.00      0.00
   -3   14    5      0.51      0.00
   -3   14    4      0.12      0.00
   -3   14    3     -0.02      0.00
   -3   14    2     -0.24      0.00
   -3   14    1     -0.01      0.00
   -3   14    0     -1.02      0.00
    3  -14    1      0.26      0.00
    3  -14    2      0.07      0.00
    3  -14    3     -0.17      0.00
    3  -14    4      0.20      0.00
    3  -14    5      0.40      0.00
    3  -14    6      1.79      0.00
    3  -14    7     -1.12      0.00
    3  -14    8      0.11      0.00
    3  -14    9     -0.13      0.00
    3  -14   10     -0.44      0.00
    3  -14   11      0.21      0.00
    3  -14   12     -0.38      0.00
    3  -14   13     -0.77      0.00
    3  -14   14     -0.32      0.00
    3  -14   15      0.65      0.00
    3  -14   16      0.08      0.00
    3  -14   17      2.70      0.00
    3  -14   18     -2.16      0.00
    3  -14   19      0.68      0.00
    3  -14   20      1.04      0.00
    3  -14   21      0.66      0.00
    3  -14   22      0.25      0.00
    3  -14   23     -1.39      0.00
   -3   13   16     -0.15      0.00
   -3   13   15      0.05      0.00
   -3   13   14     -2.07      0.00
   -3   13   13      1.96      0.00
   -3   13   12     -0.20      0.00
   -3   13   11     -1.08      0.00
   -3   13   10      0.61      0.00
   -3   13    9      1.81      0.00
   -3   13    8      0.12      0.00
   -3   13    7     -1.31      0.00
   -3   13    6     -0.75      0.00
   -3   13    5     -2.42      0.00
   -3   13    4     -0.39      0.00
   -3   13    3     -1.52      0.00
   -3   13    2      0.44      0.00
   -3   13    1      0.29      0.00
   -3   13    0      1.24      0.00
    3  -13    1      0.84      0.00
    3  -13    2      0.99      0.00
    3  -13    3     -0.59      0.00
    3  -13    4     -0.70      0.00
    3  -13    5      1.42      0.00
    3  -13    6     -1.54      0.00
    3  -13    7      1.01      0.00
    3  -13    8      0.35      0.00
    3  -13    9     -0.17      0.00
    3  -13   10     -0.42      0.00
    3  -13   11      0.44      0.00
    3  -13   12     -0.05      0.00
    3  -13   13     -1.28      0.00
    3  -13   14      0.15      0.00
    3  -13   15     -0.71      0.00
    3  -13   16      0.18      0.00
    3  -13   17      0.71      0.00
    3  -13   18      1.12      0.00
    3  -13   19     -0.52      0.00
    3  -13   20     -1.40      0.00
    3  -13   21     -0.41      0.00
    3  -13   22      1.23      0.00
    3  -13   23      0.48      0.00
    3  -13   24     -0.18      0.00
   -3   12   18     -0.08      0.00
   -3   12   17     -1.27      0.00
   -3   12   16      0.99      0.00
   -3   12   15     -1.03      0.00
   -3   12   14     -0.32      0.00
   -3   12   13      0.38      0.00
   -3   12   12      0.73      0.00
   -3   12   11      0.56      0.00
   -3   12   10     -0.98      0.00
   -3   12    9     -0.47      0.00
   -3   12    8     -0.62      0.00
   -3   12    7      1.15      0.00
   -3   12    6     -1.05      0.00
   -3   12    5      1.30      0.00
   -3   12    4      0.37      0.00
   -3   12    3     -0.40      0.00
   -3   12    2     -1.54      0.00
   -3   12    1     -1.67      0.00
   -3   12    0     -1.50      0.00
    3  -12    1     -0.17      0.00
    3  -12    2      0.93      0.00
    3  -12    3      1.62      0.00
    3  -12    4      1.03      0.00
    3  -12    5     -0.09      0.00
    3  -12    6      1.90      0.00
    3  -12    7     -1.33      0.00
    3  -12    8      1.11      0.00
    3  -12    9     -0.95      0.00
    3  -12   10      0.72      0.00
    3  -12   11      0.27      0.00
    3  -12   12     -0.78      0.00
    3  -12   13      1.53      0.00
    3  -12   14     -1.35      0.00
    3  -12   15     -0.81      0.00
    3  -12   16     -1.26      0.00
    3  -12   17     -1.32      0.00
    3  -12   18      0.82      0.00
    3  -12   19      1.26      0.00
    3  -12   20      0.06      0.00
    3  -12   21      1.78      0.00
    3  -12   22     -2.11      0.00
    3  -12   23      1.27      0.00
    3  -12   24     -1.26      0.00
   -3   11   19      0.54      0.00
   -3   11   18     -2.82      0.00
   -3   11   17      1.72      0.00
   -3   11   16     -0.09      0.00
   -3   11   15     -0.06      0.00
   -3   11   14      0.19      0.00
   -3   11   13     -0.34      0.00
   -3   11   12      1.39      0.00
   -3   11   11      0.37      0.00
   -3   11   10      1.10      0.00
   -3   11    9      0.63      0.00
   -3   11    8      1.35      0.00
   -3   11    7      0.10      0.00
   -3   11    6     -0.04      0.00
   -3   11    5     -1.54      0.00
   -3   11    4     -0.93      0.00
   -3   11    3      1.04      0.00
   -3   11    2      0.65      0.00
   -3   11    1      0.67      0.00
   -3   11    0     -0.75      0.00
    3  -11    1     -1.33      0.00
    3  -11    2     -1.24      0.00
    3  -11    3     -0.87      0.00
    3  -11    4     -0.61      0.00
    3  -11    5      1.66      0.00
    3  -11    6      0.56      0.00
    3  -11    7      3.33      0.00
    3  -11    8     -1.51      0.00
    3  -11    9      1.72      0.00
    3  -11   10      0.06      0.00
    3  -11   11     -1.45      0.00
    3  -11   12      1.38      0.00
    3  -11   13     -1.25      0.00
    3  -11   14      1.61      0.00
    3  -11   15      0.41      0.00
    3  -11   16      1.34      0.00
    3  -11   17     -1.38      0.00
    3  -11   18     -1.46      0.00
    3  -11   19     -1.48      0.00
    3  -11   20      0.39      0.00
    3  -11   21     -2.99      0.00
    3  -11   22      2.34      0.00
    3  -11   23     -2.83      0.00
    3  -11   24      0.53      0.00
    3  -11   25     -0.59      0.00
   -3   10   20      2.05      0.00
   -3   10   19     -0.92      0.00
   -3   10   18      2.09      0.00
   -3   10   17     -2.52      0.00
   -3   10   16     -0.66      0.00
   -3   10   15      0.77      0.00
   -3   10   14     -1.70      0.00
   -3   10   13     -0.58      0.00
   -3   10   12     -1.87      0.00
   -3   10   11      1.06      0.00
   -3   10   10      0.11      0.00
   -3   10    9      0.23      0.00
   -3   10    8      1.63      0.00
   -3   10    7      1.04      0.00
   -3   10    6      1.72      0.00
   -3   10    5      1.69      0.00
   -3   10    4     -1.25      0.00
   -3   10    3     -1.30      0.00
   -3   10    2     -0.25      0.00
   -3   10    1     -0.73      0.00
   -3   10    0     -0.38      0.00
    3  -10    1      0.32      0.00
    3  -10    2      0.26      0.00
    3  -10    3     -0.16      0.00
    3  -10    4     -0.70      0.00
    3  -10    5     -2.83      0.00
    3  -10    6     -0.27      0.00
    3  -10    7     -0.11      0.00
    3  -10    8      1.43      0.00
    3  -10    9      0.90      0.00
    3  -10   10      1.00      0.00
    3  -10   11      1.88      0.00
    3  -10   12      0.64      0.00
    3  -10   13      0.73      0.00
    3  -10   14     -2.33      0.00
    3  -10   15     -0.01      0.00
    3  -10   16     -0.53      0.00
    3  -10   17      1.59      0.00
    3  -10   18      0.42      0.00
    3  -10   19      0.75      0.00
    3  -10   20     -0.86      0.00
    3  -10   21      1.26      0.00
    3  -10   22     -0.20      0.00
    3  -10   23      0.95      0.00
    3  -10   24      0.24      0.00
    3  -10   25     -0.65      0.00
    3  -10   26      0.25      0.00
   -3    9   21     -0.21      0.00
   -3    9   20     -1.37      0.00
   -3    9   19     -0.30      0.00
   -3    9   18      0.53      0.00
   -3    9   17      0.45      0.00
   -3    9   16      0.35      0.00
   -3    9   15     -2.12      0.00
   -3    9   14      1.68      0.00
   -3    9   13     -0.32      0.00
   -3    9   12      0.71      0.00
   -3    9   11     -0.67      0.00
   -3    9   10     -1.43      0.00
   -3    9    9      0.68      0.00
   -3    9    8     -1.50      0.00
   -3    9    7      0.28      0.00
   -3    9    6      2.41      0.00
   -3    9    5      0.76      0.00
   -3    9    4      3.18      0.00
   -3    9    3     -0.42      0.00
   -3    9    2      0.56      0.00
   -3    9    1     -0.55      0.00
   -3    9    0     -0.29      0.00
    3   -9    1     -1.61      0.00
    3   -9    2     -3.37      0.00
    3   -9    3     -0.30      0.00
    3   -9    4      2.14      0.00
    3   -9    5     -1.69      0.00
    3   -9    6      1.04      0.00
    3   -9    7     -3.18      0.00
    3   -9    8      1.26      0.00
    3   -9    9     -0.57      0.00
    3   -9   10     -1.18      0.00
    3   -9   11      0.46      0.00
    3   -9   12     -1.04      0.00
    3   -9   13      2.28      0.00
    3   -9   14      2.36      0.00
    3   -9   15     -0.23      0.00
    3   -9   16      0.09      0.00
    3   -9   17     -0.77      0.00
    3   -9   18     -0.05      0.00
    3   -9   19      0.27      0.00
    3   -9   20      0.10      0.00
    3   -9   21      0.65      0.00
    3   -9   22     -1.12      0.00
    3   -9   23      1.17      0.00
    3   -9   24     -0.39      0.00
    3   -9   25      0.20      0.00
    3   -9   26     -0.24      0.00
   -3    8   22     -0.18      0.00
   -3    8   21      2.08      0.00
   -3    8   20     -0.64      0.00
   -3    8   19      1.43      0.00
   -3    8   18     -2.10      0.00
   -3    8   17      1.66      0.00
   -3    8   16     -0.30      0.00
   -3    8   15      1.36      0.00
   -3    8   14     -1.33      0.00
   -3    8   13     -2.09      0.00
   -3    8   12      0.32      0.00
   -3    8   11     -0.18      0.00
   -3    8   10      1.44      0.00
   -3    8    9     -0.25      0.00
   -3    8    8      0.52      0.00
   -3    8    7     -0.29      0.00
   -3    8    6     -2.82      0.00
   -3    8    5      1.93      0.00
   -3    8    4     -1.40      0.00
   -3    8    3      4.77      0.00
   -3    8    2     -0.33      0.00
   -3    8    1      0.50      0.00
   -3    8    0      1.62      0.00
    3   -8    1      1.83      0.00
    3   -8    2      0.68      0.00
    3   -8    3     -1.95      0.00
    3   -8    4     -7.41      0.00
    3   -8    5      4.64      0.00
    3   -8    6     -3.96      0.00
    3   -8    7      2.79      0.00
    3   -8    8     -2.47      0.00
    3   -8    9     -1.37      0.00
    3   -8   10      2.85      0.00
    3   -8   11     -1.88      0.00
    3   -8   12      1.25      0.00
    3   -8   13     -1.11      0.00
    3   -8   14      0.17      0.00
    3   -8   15      0.62      0.00
    3   -8   16      0.60      0.00
    3   -8   17      0.69      0.00
    3   -8   18      0.09      0.00
    3   -8   19     -0.38      0.00
    3   -8   20     -0.46      0.00
    3   -8   21     -0.87      0.00
    3   -8   22     -0.08      0.00
    3   -8   23     -0.06      0.00
    3   -8   24      0.46      0.00
    3   -8   25      0.60      0.00
    3   -8   26      0.03      0.00
   -3    7   23     -0.46      0.00
   -3    7   22      1.18      0.00
   -3    7   21     -1.28      0.00
   -3    7   20      1.79      0.00
   -3    7   19     -0.10      0.00
   -3    7   18      2.54      0.00
   -3    7   17     -1.52      0.00
   -3    7   16      0.17      0.00
   -3    7   15      1.51      0.00
   -3    7   14      0.59      0.00
   -3    7   13      0.81      0.00
   -3    7   12     -1.34      0.00
   -3    7   11     -2.32      0.00
   -3    7   10     -2.03      0.00
   -3    7    9     -0.38      0.00
   -3    7    8     -0.22      0.00
   -3    7    7      0.05      0.00
   -3    7    6      3.24      0.00
   -3    7    5     -1.34      0.00
   -3    7    4      1.88      0.00
   -3    7    3     -3.42      0.00
   -3    7    2      4.10      0.00
   -3    7    1      0.66      0.00
   -3    7    0      0.80      0.00
    3   -7    1     -2.83      0.00
    3   -7    2      5.35      0.00
    3   -7    3      3.08      0.00
    3   -7    4      4.99      0.00
    3   -7    5     -7.21      0.00
    3   -7    6     -2.28      0.00
    3   -7    7     -0.82      0.00
    3   -7    8     -0.12      0.00
    3   -7    9      0.53      0.00
    3   -7   10     -1.22      0.00
    3   -7   11      1.06      0.00
    3   -7   12     -2.28      0.00
    3   -7   13      0.84      0.00
    3   -7   14     -0.70      0.00
    3   -7   15      0.63      0.00
    3   -7   16     -0.68      0.00
    3   -7   17      0.29      0.00
    3   -7   18      0.13      0.00
    3   -7   19      0.07      0.00
    3   -7   20      1.89      0.00
    3   -7   21     -0.57      0.00
    3   -7   22     -0.01      0.00
    3   -7   23     -0.45      0.00
    3   -7   24     -1.21      0.00
    3   -7   25      0.31      0.00
    3   -7   26      1.06      0.00
   -3    6   24      0.43      0.00
   -3    6   23     -0.24      0.00
   -3    6   22     -1.08      0.00
   -3    6   21      0.78      0.00
   -3    6   20     -0.79      0.00
   -3    6   19      0.31      0.00
   -3    6   18      0.70      0.00
   -3    6   17      1.34      0.00
   -3    6   16      0.89      0.00
   -3    6   15     -0.55      0.00
   -3    6   14     -0.42      0.00
   -3    6   13      1.68      0.00
   -3    6   12      0.47      0.00
   -3    6   11      0.83      0.00
   -3    6   10     -0.66      0.00
   -3    6    9     -1.91      0.00
   -3    6    8     -1.60      0.00
   -3    6    7     -3.50      0.00
   -3    6    6     -3.04      0.00
   -3    6    5      0.60      0.00
   -3    6    4      0.18      0.00
   -3    6    3      3.88      0.00
   -3    6    2     -4.17      0.00
   -3    6    1      5.80      0.00
   -3    6    0     -1.53      0.00
    3   -6    1      6.73      0.00
    3   -6    2     -7.21      0.00
    3   -6    3     -4.21      0.00
    3   -6    4      6.69      0.00
    3   -6    5      5.57      0.00
    3   -6    6      5.75      0.00
    3   -6    7     -3.59      0.00
    3   -6    8     -3.90      0.00
    3   -6    9     -0.22      0.00
    3   -6   10     -3.54      0.00
    3   -6   11     -0.02      0.00
    3   -6   12      2.48      0.00
    3   -6   13     -3.25      0.00
    3   -6   14      1.72      0.00
    3   -6   15     -1.27      0.00
    3   -6   16      0.88      0.00
    3   -6   17     -0.49      0.00
    3   -6   18      0.05      0.00
    3   -6   19      0.05      0.00
    3   -6   20     -0.57      0.00
    3   -6   21      0.81      0.00
    3   -6   22      0.99      0.00
    3   -6   23      0.56      0.00
    3   -6   24      0.81      0.00
    3   -6   25      0.10      0.00
    3   -6   26     -0.72      0.00
    3   -6   27      1.42      0.00
   -3    5   24     -0.65      0.00
   -3    5   23      0.22      0.00
   -3    5   22      0.71      0.00
   -3    5   21     -1.05      0.00
   -3    5   20     -0.43      0.00
   -3    5   19      0.07      0.00
   -3    5   18     -2.02      0.00
   -3    5   17      0.26      0.00
   -3    5   16      0.30      0.00
   -3    5   15      0.36      0.00
   -3    5   14      1.69      0.00
   -3    5   13     -0.73      0.00
   -3    5   12      0.79      0.00
   -3    5   11      0.42      0.00
   -3    5   10     -0.03      0.00
   -3    5    9      0.24      0.00
   -3    5    8     -1.15      0.00
   -3    5    7      2.45      0.00
   -3    5    6     -4.00      0.00
   -3    5    5     -1.92      0.00
   -3    5    4     -2.24      0.00
   -3    5    3     -3.89      0.00
   -3    5    2      6.01      0.00
   -3    5    1     -9.64      0.00
   -3    5    0      6.81      0.00
    3   -5    1      1.11      0.00
    3   -5    2      9.36      0.00
    3   -5    3      5.09      0.00
    3   -5    4    -12.66      0.00
    3   -5    5     -2.86      0.00
    3   -5    6      1.23      0.00
    3   -5    7      3.69      0.00
    3   -5    8      6.99      0.00
    3   -5    9     -2.11      0.00
    3   -5   10      1.03      0.00
    3   -5   11     -1.57      0.00
    3   -5   12     -2.89      0.00
    3   -5   13      1.42      0.00
    3   -5   14     -2.45      0.00
    3   -5   15      1.35      0.00
    3   -5   16     -1.20      0.00
    3   -5   17      1.22      0.00
    3   -5   18      0.28      0.00
    3   -5   19      0.15      0.00
    3   -5   20     -0.05      0.00
    3   -5   21      0.47      0.00
    3   -5   22      0.14      0.00
    3   -5   23     -1.16      0.00
    3   -5   24     -0.12      0.00
    3   -5   25     -0.29      0.00
    3   -5   26     -1.16      0.00
    3   -5   27     -0.69      0.00
   -3    4   25     -0.35      0.00
   -3    4   24     -0.30      0.00
   -3    4   23     -0.54      0.00
   -3    4   22     -0.43      0.00
   -3    4   21     -0.17      0.00
   -3    4   20      0.69      0.00
   -3    4   19     -1.38      0.00
   -3    4   18      1.01      0.00
   -3    4   17      0.52      0.00
   -3    4   16     -0.18      0.00
   -3    4   15     -0.24      0.00
   -3    4   14      0.16      0.00
   -3    4   13      0.22      0.00
   -3    4   12     -0.19      0.00
   -3    4   11      2.10      0.00
   -3    4   10      2.48      0.00
   -3    4    9     -1.14      0.00
   -3    4    8      4.07      0.00
   -3    4    7     -2.92      0.00
   -3    4    6      3.25      0.00
   -3    4    5     -4.71      0.00
   -3    4    4     -2.03      0.00
   -3    4    3      1.74      0.00
   -3    4    2     -6.03      0.00
   -3    4    1      6.25      0.00
   -3    4    0    -11.97      0.00
    3   -4    1     -3.52      0.00
    3   -4    2     -3.43      0.00
    3   -4    3      8.84      0.00
    3   -4    4      6.79      0.00
    3   -4    5      7.58      0.00
    3   -4    6     -6.42      0.00
    3   -4    7     -2.39      0.00
    3   -4    8     -1.89      0.00
    3   -4    9      0.90      0.00
    3   -4   10      0.46      0.00
    3   -4   11      1.52      0.00
    3   -4   12     -0.21      0.00
    3   -4   13     -0.34      0.00
    3   -4   14      0.07      0.00
    3   -4   15     -1.53      0.00
    3   -4   16     -0.09      0.00
    3   -4   17     -1.71      0.00
    3   -4   18      0.67      0.00
    3   -4   19     -0.03      0.00
    3   -4   20     -0.41      0.00
    3   -4   21     -0.03      0.00
    3   -4   22     -0.32      0.00
    3   -4   23      0.82      0.00
    3   -4   24      2.12      0.00
    3   -4   25     -0.81      0.00
    3   -4   26      1.34      0.00
    3   -4   27      0.18      0.00
   -3    3   25      1.06      0.00
   -3    3   24      0.79      0.00
   -3    3   23     -0.28      0.00
   -3    3   22     -0.95      0.00
   -3    3   21      0.87      0.00
   -3    3   20     -0.44      0.00
   -3    3   18     -1.26      0.00
   -3    3   17     -1.83      0.00
   -3    3   16     -1.48      0.00
   -3    3   15      1.80      0.00
   -3    3   14      1.64      0.00
   -3    3   13      1.83      0.00
   -3    3   12     -0.74      0.00
   -3    3   11      0.77      0.00
   -3    3   10     -0.77      0.00
   -3    3    9      0.82      0.00
   -3    3    8     -5.05      0.00
   -3    3    7      5.35      0.00
   -3    3    6      1.47      0.00
   -3    3    5      6.02      0.00
   -3    3    4     -4.66      0.00
   -3    3    3     -3.76      0.00
   -3    3    2      2.15      0.00
   -3    3    1     -1.50      0.00
   -3    3    0      7.40      0.00
    3   -3    1    -18.75      0.00
    3   -3    2     12.76      0.00
    3   -3    3    -18.88      0.00
    3   -3    4      7.31      0.00
    3   -3    5     -5.04      0.00
    3   -3    6      3.39      0.00
    3   -3    7      8.38      0.00
    3   -3    8     -0.86      0.00
    3   -3    9      1.38      0.00
    3   -3   10      0.09      0.00
    3   -3   11     -2.42      0.00
    3   -3   12      1.89      0.00
    3   -3   13     -2.24      0.00
    3   -3   14      0.45      0.00
    3   -3   15      0.93      0.00
    3   -3   16     -0.41      0.00
    3   -3   17      0.66      0.00
    3   -3   18     -1.84      0.00
    3   -3   19     -0.05      0.00
    3   -3   20     -0.39      0.00
    3   -3   21      0.31      0.00
    3   -3   22     -1.15      0.00
    3   -3   23     -0.89      0.00
    3   -3   24     -1.57      0.00
    3   -3   25      0.73      0.00
    3   -3   26     -0.18      0.00
   -3    2   26     -1.57      0.00
   -3    2   25      0.53      0.00
   -3    2   24     -0.41      0.00
   -3    2   23      1.90      0.00
   -3    2   22     -1.08      0.00
   -3    2   21     -0.35      0.00
   -3    2   20     -1.01      0.00
   -3    2   19      0.40      0.00
   -3    2   18      1.20      0.00
   -3    2   17      0.19      0.00
   -3    2   16     -0.75      0.00
   -3    2   15     -5.07      0.00
   -3    2   14     -2.31      0.00
   -3    2   13     -0.71      0.00
   -3    2   12      2.93      0.00
   -3    2   11     -0.82      0.00
   -3    2   10      4.20      0.00
   -3    2    9      6.84      0.00
   -3    2    8      3.78      0.00
   -3    2    7     -7.22      0.00
   -3    2    6     -2.61      0.00
   -3    2    5     -0.64      0.00
   -3    2    4     10.84      0.00
   -3    2    3    -12.35      0.00
   -3    2    2     -6.47      0.00
   -3    2    1     17.91      0.00
   -3    2    0     -4.84      0.00
    3   -2    1     26.93      0.00
    3   -2    2    -38.75      0.00
    3   -2    3      7.86      0.00
    3   -2    4     -0.92      0.00
    3   -2    5     -0.93      0.00
    3   -2    6      0.99      0.00
    3   -2    7    -10.06      0.00
    3   -2    8      3.18      0.00
    3   -2    9      4.24      0.00
    3   -2   10      0.54      0.00
    3   -2   11      3.95      0.00
    3   -2   12      0.37      0.00
    3   -2   13      2.69      0.00
    3   -2   14     -0.73      0.00
    3   -2   15     -2.02      0.00
    3   -2   16      0.22      0.00
    3   -2   17     -0.94      0.00
    3   -2   18      1.62      0.00
    3   -2   19     -1.32      0.00
    3   -2   20      0.97      0.00
    3   -2   21     -0.24      0.00
    3   -2   22      0.81      0.00
    3   -2   23      0.59      0.00
    3   -2   24     -1.26      0.00
    3   -2   25     -1.03      0.00
    3   -2   26      0.64      0.00
   -3    1   26      1.99      0.00
   -3    1   25     -2.53      0.00
   -3    1   24      2.44      0.00
   -3    1   23     -2.59      0.00
   -3    1   22      2.04      0.00
   -3    1   21      0.19      0.00
   -3    1   20      0.97      0.00
   -3    1   19     -1.12      0.00
   -3    1   18     -2.23      0.00
   -3    1   17      0.28      0.00
   -3    1   16      2.16      0.00
   -3    1   15      3.14      0.00
   -3    1   14     -2.09      0.00
   -3    1   13     -1.23      0.00
   -3    1   12     -2.81      0.00
   -3    1   11     -1.00      0.00
   -3    1   10     -5.65      0.00
   -3    1    9     -4.48      0.00
   -3    1    8      6.22      0.00
   -3    1    7     10.14      0.00
   -3    1    6     -0.38      0.00
   -3    1    5      4.81      0.00
   -3    1    4      1.06      0.00
   -3    1    3     16.20      0.00
   -3    1    2    -10.41      0.00
   -3    1    1    -47.05      0.00
   -3    1    0      2.53      0.00
    3   -1    1     10.45      0.00
    3   -1    2     29.95      0.00
    3   -1    3     -5.51      0.00
    3   -1    4    -15.73      0.00
    3   -1    5      1.98      0.00
    3   -1    6      5.78      0.00
    3   -1    7      0.02      0.00
    3   -1    8     -3.62      0.00
    3   -1    9     -3.49      0.00
    3   -1   10      2.18      0.00
    3   -1   11     -0.98      0.00
    3   -1   12     -0.44      0.00
    3   -1   13      1.04      0.00
    3   -1   14      2.55      0.00
    3   -1   15      3.06      0.00
    3   -1   16     -0.19      0.00
    3   -1   17      0.61      0.00
    3   -1   18     -2.02      0.00
    3   -1   19      1.51      0.00
    3   -1   20     -1.98      0.00
    3   -1   21     -0.73      0.00
    3   -1   22     -0.03      0.00
    3   -1   23      1.55      0.00
    3   -1   24      0.90      0.00
    3   -1   25      0.81      0.00
    3   -1   26     -1.53      0.00
   -3    0   26     -2.92      0.00
   -3    0   25      1.63      0.00
   -3    0   24     -0.90      0.00
   -3    0   23      2.08      0.00
   -3    0   22     -0.64      0.00
   -3    0   21     -0.46      0.00
   -3    0   20      0.33      0.00
   -3    0   19      3.13      0.00
   -3    0   18      0.28      0.00
   -3    0   17     -2.12      0.00
   -3    0   16     -2.15      0.00
   -3    0   15     -1.30      0.00
   -3    0   14      2.06      0.00
   -3    0   13     -0.93      0.00
   -3    0   12      0.74      0.00
   -3    0   11     -0.45      0.00
   -3    0   10      3.24      0.00
   -3    0    9     -3.08      0.00
   -3    0    8     -5.60      0.00
   -3    0    7     -5.74      0.00
   -3    0    6      3.22      0.00
   -3    0    5     -9.10      0.00
   -3    0    4     -6.68      0.00
   -3    0    3     10.98      0.00
   -3    0    2     43.14      0.00
   -3    0    1     22.56      0.00
    3    0    1    -51.17      0.00
    3    0    2     -0.76      0.00
    3    0    3     13.51      0.00
    3    0    4      0.49      0.00
    3    0    5      0.19      0.00
    3    0    6    -10.29      0.00
    3    0    7      7.93      0.00
    3    0    8      0.85      0.00
    3    0    9     -3.15      0.00
    3    0   10     -1.20      0.00
    3    0   11      0.96      0.00
    3    0   12      0.57      0.00
    3    0   13     -1.95      0.00
    3    0   14     -1.80      0.00
    3    0   15     -0.98      0.00
    3    0   16      2.81      0.00
    3    0   17      0.29      0.00
    3    0   18      1.34      0.00
    3    0   19     -0.80      0.00
    3    0   20      2.17      0.00
    3    0   21     -0.53      0.00
    3    0   22     -0.38      0.00
    3    0   23     -2.52      0.00
    3    0   25      1.05      0.00
   -3   -1   26      1.25      0.00
   -3   -1   25     -1.19      0.00
   -3   -1   24     -0.75      0.00
   -3   -1   23      0.31      0.00
   -3   -1   22      1.66      0.00
   -3   -1   21      0.37      0.00
   -3   -1   20      0.04      0.00
   -3   -1   19     -0.62      0.00
   -3   -1   18      3.26      0.00
   -3   -1   17      1.75      0.00
   -3   -1   16      1.14      0.00
   -3   -1   15     -1.22      0.00
   -3   -1   14     -2.16      0.00
   -3   -1   13      0.08      0.00
   -3   -1   12     -3.07      0.00
   -3   -1   11      1.08      0.00
   -3   -1   10     -5.83      0.00
   -3   -1    9      4.28      0.00
   -3   -1    8     -2.75      0.00
   -3   -1    7      2.54      0.00
   -3   -1    6      4.89      0.00
   -3   -1    5      6.82      0.00
   -3   -1    4     -2.84      0.00
   -3   -1    3    -20.38      0.00
   -3   -1    2    -40.97      0.00
   -3   -1    1     31.56      0.00
    3    1    0     14.96      0.00
    3    1    1     37.29      0.00
    3    1    2     -7.21      0.00
    3    1    3    -15.36      0.00
    3    1    4      9.48      0.00
    3    1    5     -6.87      0.00
    3    1    6      1.64      0.00
    3    1    7     -6.65      0.00
    3    1    8      0.37      0.00
    3    1    9      4.34      0.00
    3    1   10     -2.37      0.00
    3    1   11     -0.91      0.00
    3    1   12      0.80      0.00
    3    1   13      3.81      0.00
    3    1   14     -1.01      0.00
    3    1   15     -1.66      0.00
    3    1   16     -1.72      0.00
    3    1   17      0.76      0.00
    3    1   18      0.68      0.00
    3    1   19      0.43      0.00
    3    1   20     -1.17      0.00
    3    1   21      1.56      0.00
    3    1   22      1.17      0.00
    3    1   23      1.06      0.00
    3    1   24     -1.24      0.00
   -3   -2   26     -0.25      0.00
   -3   -2   25      1.72      0.00
   -3   -2   24     -1.33      0.00
   -3   -2   23     -0.47      0.00
   -3   -2   22     -0.98      0.00
   -3   -2   21      1.12      0.00
   -3   -2   20     -0.30      0.00
   -3   -2   19     -0.21      0.00
   -3   -2   18     -1.29      0.00
   -3   -2   17      2.17      0.00
   -3   -2   16      0.23      0.00
   -3   -2   15      2.57      0.00
   -3   -2   14      2.17      0.00
   -3   -2   13     -1.35      0.00
   -3   -2   12      2.40      0.00
   -3   -2   11     -4.72      0.00
   -3   -2   10      5.33      0.00
   -3   -2    9     -4.83      0.00
   -3   -2    8     -0.14      0.00
   -3   -2    7     -2.79      0.00
   -3   -2    6     -9.26      0.00
   -3   -2    5      0.48      0.00
   -3   -2    4     15.52      0.00
   -3   -2    3      8.09      0.00
   -3   -2    2     16.72      0.00
   -3   -2    1    -31.04      0.00
    3    2    0     -6.38      0.00
    3    2    1     -5.09      0.00
    3    2    2      5.81      0.00
    3    2    3     10.56      0.00
    3    2    4      1.77      0.00
    3    2    5      4.01      0.00
    3    2    6      1.55      0.00
    3    2    7     -0.52      0.00
    3    2    8     -2.07      0.00
    3    2    9     -3.65      0.00
    3    2   10      1.33      0.00
    3    2   11     -3.99      0.00
    3    2   12     -1.60      0.00
    3    2   13     -2.29      0.00
    3    2   14      3.93      0.00
    3    2   15      1.76      0.00
    3    2   16     -1.62      0.00
    3    2   17     -1.02      0.00
    3    2   18     -0.63      0.00
    3    2   19      0.76      0.00
    3    2   20      0.08      0.00
    3    2   21     -2.26      0.00
    3    2   22     -0.49      0.00
    3    2   23      0.77      0.00
   -3   -3   27     -1.49      0.00
   -3   -3   26      1.35      0.00
   -3   -3   25     -1.63      0.00
   -3   -3   24      1.77      0.00
   -3   -3   23     -0.59      0.00
   -3   -3   22     -0.42      0.00
   -3   -3   21     -1.02      0.00
   -3   -3   20      0.48      0.00
   -3   -3   19      0.04      0.00
   -3   -3   18     -0.52      0.00
   -3   -3   17      0.12      0.00
   -3   -3   16      0.76      0.00
   -3   -3   15     -0.36      0.00
   -3   -3   14      0.58      0.00
   -3   -3   13      3.30      0.00
   -3   -3   12     -0.53      0.00
   -3   -3   11      3.50      0.00
   -3   -3   10     -3.05      0.00
   -3   -3    9      0.33      0.00
   -3   -3    8      0.99      0.00
   -3   -3    7     -0.73      0.00
   -3   -3    6     -1.60      0.00
   -3   -3    5     -3.93      0.00
   -3   -3    4    -12.85      0.00
   -3   -3    3     -0.01      0.00
   -3   -3    2     -2.43      0.00
   -3   -3    1      7.81      0.00
    3    3    0      4.55      0.00
    3    3    1      1.86      0.00
    3    3    2     -4.90      0.00
    3    3    3      0.43      0.00
    3    3    4     -4.04      0.00
    3    3    5      3.51      0.00
    3    3    6      1.18      0.00
    3    3    7      2.01      0.00
    3    3    8     -0.03      0.00
    3    3    9      2.92      0.00
    3    3   10      0.25      0.00
    3    3   11      2.70      0.00
    3    3   13     -1.58      0.00
    3    3   14     -3.71      0.00
    3    3   15      1.09      0.00
    3    3   16      2.10      0.00
    3    3   17     -0.26      0.00
    3    3   18     -0.31      0.00
    3    3   19     -0.17      0.00
    3    3   20      1.02      0.00
    3    3   21      2.63      0.00
    3    3   22     -0.93      0.00
    3    3   23     -1.59      0.00
   -3   -4   27      0.57      0.00
   -3   -4   26     -0.23      0.00
   -3   -4   25      0.33      0.00
   -3   -4   24     -1.47      0.00
   -3   -4   23      0.04      0.00
   -3   -4   22      0.91      0.00
   -3   -4   21     -0.30      0.00
   -3   -4   20     -0.25      0.00
   -3   -4   19     -1.19      0.00
   -3   -4   18     -0.08      0.00
   -3   -4   17     -0.76      0.00
   -3   -4   16     -0.20      0.00
   -3   -4   15      0.98      0.00
   -3   -4   14      0.09      0.00
   -3   -4   13      0.85      0.00
   -3   -4   12     -0.29      0.00
   -3   -4   11      1.94      0.00
   -3   -4   10      1.62      0.00
   -3   -4    9      1.31      0.00
   -3   -4    8      2.28      0.00
   -3   -4    7     -0.76      0.00
   -3   -4    6      4.32      0.00
   -3   -4    5     -3.32      0.00
   -3   -4    4     -0.21      0.00
   -3   -4    3      1.48      0.00
   -3   -4    2     -3.01      0.00
   -3   -4    1     -2.06      0.00
    3    4    0     -4.20      0.00
    3    4    1     -4.92      0.00
    3    4    2      5.77      0.00
    3    4    3     -2.93      0.00
    3    4    4      2.95      0.00
    3    4    5     -1.36      0.00
    3    4    6      2.71      0.00
    3    4    7      1.30      0.00
    3    4    8      0.58      0.00
    3    4    9     -2.45      0.00
    3    4   10     -0.01      0.00
    3    4   11      0.57      0.00
    3    4   12      1.74      0.00
    3    4   13      0.38      0.00
    3    4   14      1.28      0.00
    3    4   15     -2.23      0.00
    3    4   16     -1.11      0.00
    3    4   17      0.82      0.00
    3    4   18      1.12      0.00
    3    4   19     -1.95      0.00
    3    4   20     -1.29      0.00
    3    4   21     -1.26      0.00
    3    4   22      0.50      0.00
    3    4   23      1.48      0.00
   -3   -5   26     -0.24      0.00
   -3   -5   25      1.47      0.00
   -3   -5   24      0.94      0.00
   -3   -5   23     -0.60      0.00
   -3   -5   22     -2.01      0.00
   -3   -5   21      0.34      0.00
   -3   -5   20      0.60      0.00
   -3   -5   19     -0.42      0.00
   -3   -5   18     -0.01      0.00
   -3   -5   17     -0.42      0.00
   -3   -5   16      0.31      0.00
   -3   -5   15     -1.72      0.00
   -3   -5   14      0.82      0.00
   -3   -5   13     -0.83      0.00
   -3   -5   12      4.29      0.00
   -3   -5   11     -1.55      0.00
   -3   -5   10      0.58      0.00
   -3   -5    9      1.21      0.00
   -3   -5    8     -3.25      0.00
   -3   -5    7      4.16      0.00
   -3   -5    6      0.03      0.00
   -3   -5    5      3.63      0.00
   -3   -5    4      1.91      0.00
   -3   -5    3     -6.26      0.00
   -3   -5    2     -0.69      0.00
   -3   -5    1      0.04      0.00
    3    5    0     -0.64      0.00
    3    5    1      1.91      0.00
    3    5    2     -4.22      0.00
    3    5    3      2.55      0.00
    3    5    4     -2.96      0.00
    3    5    5     -0.77      0.00
    3    5    6     -2.66      0.00
    3    5    7      0.79      0.00
    3    5    8      2.43      0.00
    3    5    9      1.46      0.00
    3    5   10     -0.17      0.00
    3    5   11     -0.27      0.00
    3    5   12     -0.02      0.00
    3    5   13     -0.28      0.00
    3    5   14      0.18      0.00
    3    5   15      0.98      0.00
    3    5   16     -0.60      0.00
    3    5   17     -0.49      0.00
    3    5   18     -1.01      0.00
    3    5   19      2.01      0.00
    3    5   20      1.79      0.00
    3    5   21     -0.10      0.00
    3    5   22     -0.21      0.00
    3    5   23     -1.55      0.00
   -3   -6   26     -0.96      0.00
   -3   -6   25     -1.66      0.00
   -3   -6   24      1.05      0.00
   -3   -6   23      1.04      0.00
   -3   -6   22      0.54      0.00
   -3   -6   21      0.30      0.00
   -3   -6   20     -0.46      0.00
   -3   -6   19      0.18      0.00
   -3   -6   18     -1.48      0.00
   -3   -6   17     -0.63      0.00
   -3   -6   16     -0.12      0.00
   -3   -6   15      0.61      0.00
   -3   -6   14     -2.47      0.00
   -3   -6   13      0.25      0.00
   -3   -6   12     -3.11      0.00
   -3   -6   11      2.52      0.00
   -3   -6   10      2.58      0.00
   -3   -6    9      0.73      0.00
   -3   -6    8      3.08      0.00
   -3   -6    7     -1.88      0.00
   -3   -6    6      0.51      0.00
   -3   -6    5     -1.62      0.00
   -3   -6    4      2.61      0.00
   -3   -6    3      5.09      0.00
   -3   -6    2      2.71      0.00
   -3   -6    1     -1.09      0.00
    3    6    0     -2.37      0.00
    3    6    1     -2.45      0.00
    3    6    2     -0.96      0.00
    3    6    3     -2.98      0.00
    3    6    4      2.16      0.00
    3    6    5     -0.06      0.00
    3    6    6      0.12      0.00
    3    6    7     -0.68      0.00
    3    6    8     -2.18      0.00
    3    6    9      0.91      0.00
    3    6   10      0.43      0.00
    3    6   11      0.27      0.00
    3    6   12     -0.79      0.00
    3    6   13      0.20      0.00
    3    6   14     -0.55      0.00
    3    6   15      0.36      0.00
    3    6   16      1.05      0.00
    3    6   17      0.76      0.00
    3    6   18     -0.91      0.00
    3    6   19     -1.04      0.00
    3    6   20     -1.75      0.00
    3    6   21      1.23      0.00
    3    6   22      0.28      0.00
   -3   -7   26     -0.55      0.00
   -3   -7   25      0.24      0.00
   -3   -7   24     -1.62      0.00
   -3   -7   23     -0.12      0.00
   -3   -7   22     -0.45      0.00
   -3   -7   21     -1.69      0.00
   -3   -7   19      1.14      0.00
   -3   -7   18      0.02      0.00
   -3   -7   17     -1.65      0.00
   -3   -7   16     -1.28      0.00
   -3   -7   15     -0.42      0.00
   -3   -7   14      0.32      0.00
   -3   -7   13     -1.27      0.00
   -3   -7   12     -0.82      0.00
   -3   -7   11     -2.59      0.00
   -3   -7   10     -1.61      0.00
   -3   -7    9      0.04      0.00
   -3   -7    8     -0.17      0.00
   -3   -7    7      2.28      0.00
   -3   -7    6      1.36      0.00
   -3   -7    5      3.26      0.00
   -3   -7    4     -4.08      0.00
   -3   -7    3     -2.10      0.00
   -3   -7    2     -0.73      0.00
   -3   -7    1      2.06      0.00
    3    7    0      4.20      0.00
    3    7    1     -0.09      0.00
    3    7    2     -0.27      0.00
    3    7    3     -0.16      0.00
    3    7    4     -1.86      0.00
    3    7    5     -1.81      0.00
    3    7    6     -0.11      0.00
    3    7    7     -0.21      0.00
    3    7    8      0.89      0.00
    3    7    9     -1.63      0.00
    3    7   10      0.32      0.00
    3    7   11      1.34      0.00
    3    7   12      1.50      0.00
    3    7   13      0.08      0.00
    3    7   14     -0.26      0.00
    3    7   15     -1.34      0.00
    3    7   16     -0.08      0.00
    3    7   17     -0.34      0.00
    3    7   18      2.70      0.00
    3    7   19      0.09      0.00
    3    7   20      0.37      0.00
    3    7   21     -0.31      0.00
   -3   -8   26      1.98      0.00
   -3   -8   25     -0.98      0.00
   -3   -8   24      0.49      0.00
   -3   -8   23      0.02      0.00
   -3   -8   22      0.82      0.00
   -3   -8   21      0.57      0.00
   -3   -8   20     -1.69      0.00
   -3   -8   19      0.48      0.00
   -3   -8   18      1.30      0.00
   -3   -8   17      1.17      0.00
   -3   -8   16      0.14      0.00
   -3   -8   15     -1.88      0.00
   -3   -8   14      0.64      0.00
   -3   -8   13     -0.19      0.00
   -3   -8   12     -0.25      0.00
   -3   -8   11     -1.27      0.00
   -3   -8   10     -1.35      0.00
   -3   -8    9      0.55      0.00
   -3   -8    8     -1.37      0.00
   -3   -8    7     -2.17      0.00
   -3   -8    6     -0.85      0.00
   -3   -8    5      0.14      0.00
   -3   -8    4      4.67      0.00
   -3   -8    3      1.38      0.00
   -3   -8    2     -0.37      0.00
   -3   -8    1     -1.47      0.00
    3    8    0     -1.31      0.00
    3    8    1      1.60      0.00
    3    8    2      0.32      0.00
    3    8    3      0.51      0.00
    3    8    4      0.56      0.00
    3    8    5      0.65      0.00
    3    8    6     -0.90      0.00
    3    8    7     -0.48      0.00
    3    8    8      0.20      0.00
    3    8    9      0.55      0.00
    3    8   10     -0.87      0.00
    3    8   11     -1.49      0.00
    3    8   12     -0.15      0.00
    3    8   13      0.91      0.00
    3    8   14      0.79      0.00
    3    8   15      1.00      0.00
    3    8   16     -1.69      0.00
    3    8   17     -0.72      0.00
    3    8   18     -0.90      0.00
    3    8   19      0.37      0.00
    3    8   20     -0.48      0.00
   -3   -9   25      1.99      0.00
   -3   -9   24     -0.33      0.00
   -3   -9   23      0.65      0.00
   -3   -9   22      0.02      0.00
   -3   -9   21      0.07      0.00
   -3   -9   20      0.58      0.00
   -3   -9   19     -0.09      0.00
   -3   -9   18     -0.24      0.00
   -3   -9   17      1.38      0.00
   -3   -9   16      0.68      0.00
   -3   -9   15      1.70      0.00
   -3   -9   14     -2.48      0.00
   -3   -9   13      0.99      0.00
   -3   -9   12      0.72      0.00
   -3   -9   11     -0.56      0.00
   -3   -9   10     -1.23      0.00
   -3   -9    9     -2.93      0.00
   -3   -9    8      0.72      0.00
   -3   -9    7      0.23      0.00
   -3   -9    6     -1.27      0.00
   -3   -9    5     -1.35      0.00
   -3   -9    4     -1.14      0.00
   -3   -9    3      0.85      0.00
   -3   -9    2      1.34      0.00
   -3   -9    1      1.57      0.00
    3    9    0      0.95      0.00
    3    9    1      0.14      0.00
    3    9    2     -0.27      0.00
    3    9    3     -0.10      0.00
    3    9    4     -0.19      0.00
    3    9    5     -0.18      0.00
    3    9    6     -0.17      0.00
    3    9    7     -0.33      0.00
    3    9    8     -0.99      0.00
    3    9    9     -0.39      0.00
    3    9   10      0.42      0.00
    3    9   11      0.72      0.00
    3    9   12     -0.31      0.00
    3    9   13     -1.31      0.00
    3    9   14      0.67      0.00
    3    9   15      0.89      0.00
    3    9   16      1.45      0.00
    3    9   17     -1.38      0.00
    3    9   18     -0.42      0.00
    3    9   19      0.34      0.00
   -3  -10   24      0.33      0.00
   -3  -10   23     -0.13      0.00
   -3  -10   22      1.11      0.00
   -3  -10   21      0.65      0.00
   -3  -10   20      0.31      0.00
   -3  -10   19     -0.86      0.00
   -3  -10   18      0.82      0.00
   -3  -10   17     -1.09      0.00
   -3  -10   16      1.20      0.00
   -3  -10   15      1.09      0.00
   -3  -10   14      1.81      0.00
   -3  -10   13     -0.89      0.00
   -3  -10   12      0.14      0.00
   -3  -10   11      1.88      0.00
   -3  -10   10      0.38      0.00
   -3  -10    9      1.09      0.00
   -3  -10    8     -1.46      0.00
   -3  -10    7     -0.37      0.00
   -3  -10    6     -0.01      0.00
   -3  -10    5     -1.01      0.00
   -3  -10    4     -0.98      0.00
   -3  -10    3     -0.08      0.00
   -3  -10    2     -0.02      0.00
   -3  -10    1     -1.29      0.00
    3   10    0      0.63      0.00
    3   10    1      0.93      0.00
    3   10    2      1.00      0.00
    3   10    3      0.84      0.00
    3   10    4      0.78      0.00
    3   10    5      0.57      0.00
    3   10    6      0.65      0.00
    3   10    7     -0.05      0.00
    3   10    8      0.73      0.00
    3   10    9     -0.38      0.00
    3   10   10     -1.58      0.00
    3   10   11     -0.49      0.00
    3   10   12      0.40      0.00
    3   10   13      0.51      0.00
    3   10   14     -2.46      0.00
    3   10   15     -0.37      0.00
    3   10   16      1.05      0.00
    3   10   17      1.35      0.00
    3   10   18     -0.95      0.00
   -3  -11   24      0.60      0.00
   -3  -11   23     -1.20      0.00
   -3  -11   22     -1.27      0.00
   -3  -11   21      0.48      0.00
   -3  -11   20     -0.29      0.00
   -3  -11   19      0.63      0.00
   -3  -11   18     -0.72      0.00
   -3  -11   17      0.78      0.00
   -3  -11   16     -0.48      0.00
   -3  -11   15     -1.56      0.00
   -3  -11   14      1.51      0.00
   -3  -11   13      0.38      0.00
   -3  -11   12      0.68      0.00
   -3  -11   11     -0.62      0.00
   -3  -11   10      0.38      0.00
   -3  -11    9     -0.21      0.00
   -3  -11    8     -0.06      0.00
   -3  -11    7     -0.22      0.00
   -3  -11    6      0.93      0.00
   -3  -11    5      0.02      0.00
   -3  -11    4     -1.34      0.00
   -3  -11    3      0.11      0.00
   -3  -11    2     -0.82      0.00
   -3  -11    1      1.37      0.00
    3   11    0     -0.58      0.00
    3   11    1     -0.12      0.00
    3   11    2      0.43      0.00
    3   11    3      0.56      0.00
    3   11    5      0.89      0.00
    3   11    6     -0.02      0.00
    3   11    7      0.74      0.00
    3   11    8      0.24      0.00
    3   11    9      1.36      0.00
    3   11   10      1.57      0.00
    3   11   11     -1.31      0.00
    3   11   12     -0.77      0.00
    3   11   13      0.41      0.00
    3   11   14      0.29      0.00
    3   11   15     -0.75      0.00
   -3  -12   23      0.44      0.00
   -3  -12   22      1.03      0.00
   -3  -12   21     -0.81      0.00
   -3  -12   20      0.27      0.00
   -3  -12   19      0.05      0.00
   -3  -12   18     -1.11      0.00
   -3  -12   17     -0.02      0.00
   -3  -12   16     -0.09      0.00
   -3  -12   15      2.35      0.00
   -3  -12   14     -2.53      0.00
   -3  -12   13      0.34      0.00
   -3  -12   12      1.15      0.00
   -3  -12   11     -0.13      0.00
   -3  -12   10      0.91      0.00
   -3  -12    9      0.92      0.00
   -3  -12    8      0.52      0.00
   -3  -12    7     -0.67      0.00
   -3  -12    6     -1.19      0.00
   -3  -12    5      0.75      0.00
   -3  -12    4      0.08      0.00
   -3  -12    3     -1.55      0.00
   -3  -12    2      0.22      0.00
   -3  -12    1     -1.93      0.00
    3   12    0      0.80      0.00
    3   12    1     -0.99      0.00
    3   12    2     -0.02      0.00
    3   12    3     -0.95      0.00
    3   12    4      1.80      0.00
    3   12    5     -0.93      0.00
    3   12    6     -0.68      0.00
    3   12    7      0.20      0.00
    3   12    8     -1.05      0.00
    3   12    9     -1.12      0.00
    3   12   10      0.41      0.00
    3   12   11      2.06      0.00
    3   12   12      0.81      0.00
    3   12   13      0.56      0.00
    3   12   14      0.97      0.00
    3   12   15     -0.17      0.00
   -3  -13   21     -0.53      0.00
   -3  -13   20      0.73      0.00
   -3  -13   19     -0.24      0.00
   -3  -13   18      0.91      0.00
   -3  -13   17     -2.18      0.00
   -3  -13   16     -0.31      0.00
   -3  -13   15     -0.08      0.00
   -3  -13   14      0.25      0.00
   -3  -13   13      0.01      0.00
   -3  -13   12     -0.30      0.00
   -3  -13   11      1.48      0.00
   -3  -13   10     -0.90      0.00
   -3  -13    9     -0.31      0.00
   -3  -13    8      1.81      0.00
   -3  -13    7      0.86      0.00
   -3  -13    6      0.81      0.00
   -3  -13    5     -0.31      0.00
   -3  -13    4      0.58      0.00
   -3  -13    3      0.51      0.00
   -3  -13    2     -1.14      0.00
   -3  -13    1      0.12      0.00
    3   13    0     -2.27      0.00
    3   13    1      1.31      0.00
    3   13    2     -1.51      0.00
    3   13    3     -0.24      0.00
    3   13    4     -0.45      0.00
    3   13    5     -0.25      0.00
    3   13    6      0.80      0.00
    3   13    7      0.10      0.00
    3   13    8      0.57      0.00
    3   13    9      0.06      0.00
    3   13   10     -1.14      0.00
    3   13   11     -1.68      0.00
    3   13   12     -0.21      0.00
    3   13   13     -0.14      0.00
   -3  -14   20     -1.05      0.00
   -3  -14   19      0.81      0.00
   -3  -14   18      0.82      0.00
   -3  -14   17      0.18      0.00
   -3  -14   16      0.38      0.00
   -3  -14   15     -1.55      0.00
   -3  -14   14      1.41      0.00
   -3  -14   13     -1.77      0.00
   -3  -14   12     -1.75      0.00
   -3  -14   11      0.72      0.00
   -3  -14   10      1.16      0.00
   -3  -14    9      0.12      0.00
   -3  -14    8     -1.95      0.00
   -3  -14    7      0.27      0.00
   -3  -14    6      0.68      0.00
   -3  -14    5     -0.05      0.00
   -3  -14    4      0.05      0.00
   -3  -14    3      0.60      0.00
   -3  -14    2      1.76      0.00
   -3  -14    1     -0.41      0.00
    3   14    0      0.54      0.00
    3   14    1     -1.12      0.00
    3   14    2      0.00      0.00
    3   14    3     -0.09      0.00
    3   14    4     -0.65      0.00
    3   14    5      1.08      0.00
    3   14    6     -1.04      0.00
    3   14    7     -0.69      0.00
    3   14    8      1.47      0.00
    3   14    9      0.28      0.00
    3   14   10      1.03      0.00
    3   14   11      0.56      0.00
   -3  -15   18     -0.53      0.00
   -3  -15   17      1.53      0.00
   -3  -15   16     -2.38      0.00
   -3  -15   15      1.01      0.00
   -3  -15   14     -0.15      0.00
   -3  -15   13      1.03      0.00
   -3  -15   12     -0.02      0.00
   -3  -15   11     -2.37      0.00
   -3  -15   10     -0.06      0.00
   -3  -15    9      0.37      0.00
   -3  -15    8      2.21      0.00
   -3  -15    7     -0.31      0.00
   -3  -15    6     -0.56      0.00
   -3  -15    5      1.00      0.00
   -3  -15    4     -0.40      0.00
   -3  -15    3     -0.42      0.00
   -3  -15    2     -0.43      0.00
   -3  -15    1      1.27      0.00
    3   15    0      0.66      0.00
    3   15    1      0.65      0.00
    3   15    2      0.46      0.00
    3   15    3     -0.93      0.00
    3   15    4      0.45      0.00
    3   15    5     -0.23      0.00
    3   15    6      0.28      0.00
    3   15    7      0.04      0.00
    3   15    8     -2.03      0.00
    3   15    9      0.43      0.00
   -3  -16   16      2.05      0.00
   -3  -16   15     -0.98      0.00
   -3  -16   14     -0.28      0.00
   -3  -16   13      0.26      0.00
   -3  -16   12      0.34      0.00
   -3  -16   11      0.58      0.00
   -3  -16   10     -1.98      0.00
   -3  -16    9     -0.53      0.00
   -3  -16    8     -1.66      0.00
   -3  -16    7     -0.29      0.00
   -3  -16    6      0.88      0.00
   -3  -16    5     -0.55      0.00
   -3  -16    4      0.95      0.00
   -3  -16    3     -0.22      0.00
   -3  -16    2     -0.71      0.00
   -3  -16    1     -0.73      0.00
    3   16    0     -0.48      0.00
    3   16    1      0.03      0.00
    3   16    2      0.63      0.00
    3   16    3      0.26      0.00
    3   16    4     -1.17      0.00
    3   16    5      0.33      0.00
    3   16    6      0.38      0.00
   -3  -17   13      0.06      0.00
   -3  -17   12      0.49      0.00
   -3  -17   11      0.50      0.00
   -3  -17   10      0.46      0.00
   -3  -17    9     -0.11      0.00
   -3  -17    8      0.05      0.00
   -3  -17    7      0.55      0.00
   -3  -17    6     -2.47      0.00
   -3  -17    5     -0.09      0.00
   -3  -17    4      0.18      0.00
   -3  -17    3      0.62      0.00
   -3  -17    2      0.84      0.00
   -3  -17    1      0.39      0.00
    3   17    0     -0.20      0.00
    3   17    1     -0.20      0.00
   -4   19    2      0.56      0.00
   -4   19    1     -1.26      0.00
   -4   19    0     -1.68      0.00
    4  -19    1      0.87      0.00
    4  -19    2      0.61      0.00
    4  -19    3      0.07      0.00
    4  -19    4     -0.97      0.00
    4  -19    5      0.37      0.00
    4  -19    6     -0.67      0.00
    4  -19    7      0.96      0.00
    4  -19    8      0.75      0.00
    4  -19    9     -0.62      0.00
    4  -19   10      0.75      0.00
    4  -19   11     -0.03      0.00
    4  -19   12      0.06      0.00
    4  -19   13     -0.49      0.00
   -4   18    6      0.88      0.00
   -4   18    5     -0.55      0.00
   -4   18    4     -0.10      0.00
   -4   18    3     -0.20      0.00
   -4   18    2      1.83      0.00
   -4   18    1      1.35      0.00
   -4   18    0     -0.14      0.00
    4  -18    1     -0.13      0.00
    4  -18    2     -0.69      0.00
    4  -18    3      0.68      0.00
    4  -18    4      0.99      0.00
    4  -18    5     -0.93      0.00
    4  -18    6     -0.36      0.00
    4  -18    7     -0.54      0.00
    4  -18    8     -0.29      0.00
    4  -18    9      0.95      0.00
    4  -18   10     -0.97      0.00
    4  -18   11      0.50      0.00
    4  -18   12     -0.10      0.00
    4  -18   13      0.57      0.00
    4  -18   14      0.38      0.00
    4  -18   15     -0.14      0.00
    4  -18   16     -0.56      0.00
   -4   17    9      1.09      0.00
   -4   17    8      1.02      0.00
   -4   17    7     -0.83      0.00
   -4   17    6      0.13      0.00
   -4   17    5     -0.42      0.00
   -4   17    4     -1.36      0.00
   -4   17    3      0.89      0.00
   -4   17    2     -1.45      0.00
   -4   17    1      0.70      0.00
   -4   17    0      2.04      0.00
    4  -17    1     -0.62      0.00
    4  -17    2      0.51      0.00
    4  -17    3     -0.12      0.00
    4  -17    4     -0.43      0.00
    4  -17    5     -0.09      0.00
    4  -17    6      0.82      0.00
    4  -17    7     -0.66      0.00
    4  -17    8     -0.65      0.00
    4  -17    9     -0.38      0.00
    4  -17   10      1.25      0.00
    4  -17   11     -0.78      0.00
    4  -17   12      0.60      0.00
    4  -17   13     -0.10      0.00
    4  -17   14     -0.44      0.00
    4  -17   15      0.88      0.00
    4  -17   16      0.26      0.00
    4  -17   17      1.02      0.00
    4  -17   18     -0.32      0.00
   -4   16   11      0.66      0.00
   -4   16   10     -0.76      0.00
   -4   16    9     -0.01      0.00
   -4   16    8     -1.85      0.00
   -4   16    7      0.92      0.00
   -4   16    6      0.53      0.00
   -4   16    5      0.33      0.00
   -4   16    4      0.97      0.00
   -4   16    3     -0.88      0.00
   -4   16    2      0.22      0.00
   -4   16    1     -0.66      0.00
   -4   16    0     -0.41      0.00
    4  -16    1      0.68      0.00
    4  -16    2      0.09      0.00
    4  -16    3      0.94      0.00
    4  -16    4     -0.10      0.00
    4  -16    5      0.51      0.00
    4  -16    6     -0.70      0.00
    4  -16    7     -0.31      0.00
    4  -16    8     -0.11      0.00
    4  -16    9     -0.17      0.00
    4  -16   10     -1.52      0.00
    4  -16   11     -0.46      0.00
    4  -16   12      0.23      0.00
    4  -16   13      0.23      0.00
    4  -16   14      1.41      0.00
    4  -16   15     -0.80      0.00
    4  -16   16     -0.21      0.00
    4  -16   17     -0.42      0.00
    4  -16   18      1.43      0.00
    4  -16   19      0.41      0.00
    4  -16   20      0.07      0.00
   -4   15   13      0.97      0.00
   -4   15   12     -1.76      0.00
   -4   15   11     -1.06      0.00
   -4   15   10      0.60      0.00
   -4   15    9      0.38      0.00
   -4   15    8     -0.21      0.00
   -4   15    7     -0.25      0.00
   -4   15    6     -0.58      0.00
   -4   15    5     -1.12      0.00
   -4   15    4     -0.04      0.00
   -4   15    3     -0.98      0.00
   -4   15    2     -0.22      0.00
   -4   15    1     -0.02      0.00
   -4   15    0     -0.19      0.00
    4  -15    1      0.04      0.00
    4  -15    2      0.41      0.00
    4  -15    3     -0.20      0.00
    4  -15    4      0.79      0.00
    4  -15    5      1.01      0.00
    4  -15    6      0.68      0.00
    4  -15    7      0.85      0.00
    4  -15    8     -0.62      0.00
    4  -15    9      0.56      0.00
    4  -15   10      0.53      0.00
    4  -15   11      0.62      0.00
    4  -15   12     -2.41      0.00
    4  -15   13     -0.62      0.00
    4  -15   14     -0.85      0.00
    4  -15   15      1.49      0.00
    4  -15   16      0.26      0.00
    4  -15   17     -0.54      0.00
    4  -15   18     -1.15      0.00
    4  -15   19      0.63      0.00
    4  -15   20     -0.26      0.00
    4  -15   21     -0.93      0.00
   -4   14   15     -2.27      0.00
   -4   14   14     -0.51      0.00
   -4   14   13      1.41      0.00
   -4   14   12      1.49      0.00
   -4   14   11     -0.13      0.00
   -4   14   10      0.88      0.00
   -4   14    9     -0.30      0.00
   -4   14    8      0.30      0.00
   -4   14    7     -1.34      0.00
   -4   14    6     -1.33      0.00
   -4   14    5      1.46      0.00
   -4   14    4     -0.72      0.00
   -4   14    3     -0.17      0.00
   -4   14    2      0.32      0.00
   -4   14    1     -0.40      0.00
   -4   14    0      0.02      0.00
    4  -14    1     -0.74      0.00
    4  -14    2     -0.71      0.00
    4  -14    3      0.02      0.00
    4  -14    4     -0.23      0.00
    4  -14    5     -0.79      0.00
    4  -14    6      1.18      0.00
    4  -14    7      0.24      0.00
    4  -14    8      1.21      0.00
    4  -14    9     -1.39      0.00
    4  -14   10      1.31      0.00
    4  -14   11     -0.80      0.00
    4  -14   12      2.06      0.00
    4  -14   13     -0.82      0.00
    4  -14   14     -1.16      0.00
    4  -14   15     -0.57      0.00
    4  -14   16      0.00      0.00
    4  -14   17     -0.21      0.00
    4  -14   18      0.83      0.00
    4  -14   19     -0.13      0.00
    4  -14   20     -1.02      0.00
    4  -14   21      2.32      0.00
    4  -14   22     -0.91      0.00
   -4   13   16      1.11      0.00
   -4   13   15      0.09      0.00
   -4   13   14     -0.90      0.00
   -4   13   13     -0.69      0.00
   -4   13   12      0.54      0.00
   -4   13   11      0.65      0.00
   -4   13   10     -1.59      0.00
   -4   13    9      1.77      0.00
   -4   13    8      1.57      0.00
   -4   13    7      1.46      0.00
   -4   13    6      0.36      0.00
   -4   13    5      0.17      0.00
   -4   13    4     -0.40      0.00
   -4   13    3     -0.10      0.00
   -4   13    2     -2.73      0.00
   -4   13    1     -0.07      0.00
   -4   13    0     -0.77      0.00
    4  -13    1      0.58      0.00
    4  -13    2      0.66      0.00
    4  -13    3     -0.12      0.00
    4  -13    4     -0.11      0.00
    4  -13    5      0.17      0.00
    4  -13    6     -0.72      0.00
    4  -13    7      0.98      0.00
    4  -13    8     -1.25      0.00
    4  -13    9      2.56      0.00
    4  -13   10     -1.77      0.00
    4  -13   11      1.22      0.00
    4  -13   12     -0.09      0.00
    4  -13   13     -0.09      0.00
    4  -13   14      0.77      0.00
    4  -13   15     -0.89      0.00
    4  -13   16      0.31      0.00
    4  -13   17     -0.10      0.00
    4  -13   18      0.24      0.00
    4  -13   19      0.25      0.00
    4  -13   20      1.01      0.00
    4  -13   21     -3.46      0.00
    4  -13   22      0.57      0.00
    4  -13   23     -1.29      0.00
   -4   12   18      1.32      0.00
   -4   12   17     -1.01      0.00
   -4   12   16      0.36      0.00
   -4   12   15      0.33      0.00
   -4   12   14     -0.71      0.00
   -4   12   13     -1.14      0.00
   -4   12   12      0.56      0.00
   -4   12   11     -0.62      0.00
   -4   12   10      1.16      0.00
   -4   12    9     -0.77      0.00
   -4   12    8      0.99      0.00
   -4   12    7     -0.31      0.00
   -4   12    6      0.37      0.00
   -4   12    5     -0.57      0.00
   -4   12    4      2.42      0.00
   -4   12    3      1.18      0.00
   -4   12    2      2.24      0.00
   -4   12    1     -1.35      0.00
   -4   12    0     -0.49      0.00
    4  -12    1     -2.14      0.00
    4  -12    2     -1.17      0.00
    4  -12    3     -0.03      0.00
    4  -12    4     -0.11      0.00
    4  -12    5     -0.11      0.00
    4  -12    6      1.15      0.00
    4  -12    7     -1.10      0.00
    4  -12    8      1.64      0.00
    4  -12    9     -1.10      0.00
    4  -12   10      0.77      0.00
    4  -12   11      0.67      0.00
    4  -12   12      0.56      0.00
    4  -12   13      1.09      0.00
    4  -12   14     -0.30      0.00
    4  -12   15      1.33      0.00
    4  -12   16     -1.64      0.00
    4  -12   17     -1.18      0.00
    4  -12   18     -1.38      0.00
    4  -12   19     -0.52      0.00
    4  -12   20      0.77      0.00
    4  -12   21      1.30      0.00
    4  -12   22     -0.55      0.00
    4  -12   23     -0.03      0.00
    4  -12   24     -0.63      0.00
   -4   11   19      0.95      0.00
   -4   11   18     -1.07      0.00
   -4   11   17     -1.13      0.00
   -4   11   16     -0.26      0.00
   -4   11   15      0.97      0.00
   -4   11   14     -1.15      0.00
   -4   11   13     -0.10      0.00
   -4   11   12     -0.30      0.00
   -4   11   11      0.39      0.00
   -4   11   10     -0.94      0.00
   -4   11    9     -0.30      0.00
   -4   11    8      0.04      0.00
   -4   11    7      2.87      0.00
   -4   11    6      0.75      0.00
   -4   11    5      0.18      0.00
   -4   11    4     -1.53      0.00
   -4   11    3      0.50      0.00
   -4   11    2     -0.19      0.00
   -4   11    1      2.33      0.00
   -4   11    0      1.04      0.00
    4  -11    1      0.55      0.00
    4  -11    2     -0.68      0.00
    4  -11    3     -0.85      0.00
    4  -11    4     -1.47      0.00
    4  -11    5     -1.84      0.00
    4  -11    6     -0.68      0.00
    4  -11    7      0.54      0.00
    4  -11    8      1.18      0.00
    4  -11    9     -0.67      0.00
    4  -11   10      1.15      0.00
    4  -11   11     -0.18      0.00
    4  -11   12     -0.90      0.00
    4  -11   13      0.38      0.00
    4  -11   14     -0.31      0.00
    4  -11   15      0.52      0.00
    4  -11   16      2.56      0.00
    4  -11   17      1.80      0.00
    4  -11   18     -0.51      0.00
    4  -11   19      0.24      0.00
    4  -11   20     -1.72      0.00
    4  -11   21      1.07      0.00
    4  -11   22     -0.69      0.00
    4  -11   23      1.60      0.00
    4  -11   24     -0.94      0.00
    4  -11   25     -0.11      0.00
   -4   10   20     -1.10      0.00
   -4   10   19      1.92      0.00
   -4   10   18      0.57      0.00
   -4   10   17      1.53      0.00
   -4   10   16     -0.74      0.00
   -4   10   15     -0.22      0.00
   -4   10   14      1.90      0.00
   -4   10   13     -0.65      0.00
   -4   10   12     -1.71      0.00
   -4   10   11     -0.23      0.00
   -4   10   10      0.07      0.00
   -4   10    9     -2.04      0.00
   -4   10    8     -0.61      0.00
   -4   10    7     -1.37      0.00
   -4   10    6      1.73      0.00
   -4   10    5      1.12      0.00
   -4   10    4      2.30      0.00
   -4   10    3     -0.28      0.00
   -4   10    2     -0.76      0.00
   -4   10    1      0.10      0.00
   -4   10    0      0.03      0.00
    4  -10    1     -0.40      0.00
    4  -10    2      0.22      0.00
    4  -10    3      0.98      0.00
    4  -10    4     -0.23      0.00
    4  -10    5      1.59      0.00
    4  -10    6     -4.13      0.00
    4  -10    7      0.09      0.00
    4  -10    8     -3.64      0.00
    4  -10    9      0.59      0.00
    4  -10   10     -1.03      0.00
    4  -10   11     -0.80      0.00
    4  -10   12      3.16      0.00
    4  -10   13     -0.26      0.00
    4  -10   14      1.27      0.00
    4  -10   15     -1.96      0.00
    4  -10   16     -0.70      0.00
    4  -10   17     -0.20      0.00
    4  -10   18      1.34      0.00
    4  -10   19      0.21      0.00
    4  -10   20      1.89      0.00
    4  -10   21     -2.13      0.00
    4  -10   22      1.92      0.00
    4  -10   23     -1.04      0.00
    4  -10   24      2.42      0.00
    4  -10   25      0.27      0.00
   -4    9   21     -0.68      0.00
   -4    9   20      0.95      0.00
   -4    9   19     -2.40      0.00
   -4    9   18      1.40      0.00
   -4    9   17      0.15      0.00
   -4    9   16      1.27      0.00
   -4    9   15     -0.04      0.00
   -4    9   14     -1.50      0.00
   -4    9   13      1.17      0.00
   -4    9   12      0.66      0.00
   -4    9   11      0.32      0.00
   -4    9   10     -0.22      0.00
   -4    9    9      0.52      0.00
   -4    9    8     -1.99      0.00
   -4    9    7     -0.67      0.00
   -4    9    6     -2.60      0.00
   -4    9    5     -0.40      0.00
   -4    9    4      1.05      0.00
   -4    9    3      1.19      0.00
   -4    9    2      1.75      0.00
   -4    9    1     -0.11      0.00
   -4    9    0      1.97      0.00
    4   -9    1      1.64      0.00
    4   -9    2      1.10      0.00
    4   -9    3     -3.08      0.00
    4   -9    4      1.90      0.00
    4   -9    5     -2.12      0.00
    4   -9    6      3.07      0.00
    4   -9    7     -1.61      0.00
    4   -9    8      1.09      0.00
    4   -9    9     -0.05      0.00
    4   -9   10     -1.46      0.00
    4   -9   11     -0.13      0.00
    4   -9   12     -3.67      0.00
    4   -9   13      0.22      0.00
    4   -9   14     -0.26      0.00
    4   -9   15      2.33      0.00
    4   -9   16      0.09      0.00
    4   -9   17      0.08      0.00
    4   -9   18     -0.94      0.00
    4   -9   19      0.02      0.00
    4   -9   20     -1.32      0.00
    4   -9   21      1.71      0.00
    4   -9   22     -1.75      0.00
    4   -9   23     -0.12      0.00
    4   -9   24     -0.36      0.00
    4   -9   25      0.54      0.00
    4   -9   26      0.37      0.00
   -4    8   22     -0.23      0.00
   -4    8   21      1.22      0.00
   -4    8   20      0.90      0.00
   -4    8   19      0.33      0.00
   -4    8   18     -0.52      0.00
   -4    8   17      0.00      0.00
   -4    8   16      0.50      0.00
   -4    8   15      1.34      0.00
   -4    8   14      2.10      0.00
   -4    8   13     -0.82      0.00
   -4    8   12     -1.62      0.00
   -4    8   11      0.21      0.00
   -4    8   10     -0.31      0.00
   -4    8    9     -0.45      0.00
   -4    8    8      0.20      0.00
   -4    8    7     -0.49      0.00
   -4    8    6     -0.01      0.00
   -4    8    5     -2.36      0.00
   -4    8    4     -2.74      0.00
   -4    8    3      0.74      0.00
   -4    8    2      0.79      0.00
   -4    8    1      1.53      0.00
   -4    8    0     -2.59      0.00
    4   -8    1      3.15      0.00
    4   -8    2      0.58      0.00
    4   -8    3      4.84      0.00
    4   -8    4      0.19      0.00
    4   -8    5     -1.92      0.00
    4   -8    6      1.96      0.00
    4   -8    7     -1.92      0.00
    4   -8    8      0.79      0.00
    4   -8    9     -1.77      0.00
    4   -8   10      0.02      0.00
    4   -8   11      0.39      0.00
    4   -8   12      0.77      0.00
    4   -8   13     -1.19      0.00
    4   -8   14     -0.71      0.00
    4   -8   15     -2.33      0.00
    4   -8   16      0.76      0.00
    4   -8   17     -0.64      0.00
    4   -8   18      1.50      0.00
    4   -8   19     -0.12      0.00
    4   -8   20      0.92      0.00
    4   -8   21     -0.73      0.00
    4   -8   22      0.21      0.00
    4   -8   23     -0.43      0.00
    4   -8   24     -0.05      0.00
    4   -8   25     -0.46      0.00
    4   -8   26      0.66      0.00
   -4    7   23     -0.27      0.00
   -4    7   22     -0.90      0.00
   -4    7   21     -0.46      0.00
   -4    7   20     -1.21      0.00
   -4    7   19      1.21      0.00
   -4    7   18     -0.47      0.00
   -4    7   17      1.23      0.00
   -4    7   16     -0.99      0.00
   -4    7   15     -0.71      0.00
   -4    7   14      1.54      0.00
   -4    7   13      1.05      0.00
   -4    7   12      2.10      0.00
   -4    7   11     -1.02      0.00
   -4    7   10     -0.08      0.00
   -4    7    9     -0.57      0.00
   -4    7    8     -1.33      0.00
   -4    7    7     -1.02      0.00
   -4    7    6     -0.89      0.00
   -4    7    5      2.06      0.00
   -4    7    4     -1.38      0.00
   -4    7    3     -2.50      0.00
   -4    7    2     -1.77      0.00
   -4    7    1     -1.17      0.00
   -4    7    0      5.02      0.00
    4   -7    1     -4.15      0.00
    4   -7    2     -1.42      0.00
    4   -7    3      3.02      0.00
    4   -7    4     -0.06      0.00
    4   -7    5      9.32      0.00
    4   -7    6     -6.67      0.00
    4   -7    7      4.15      0.00
    4   -7    8     -0.76      0.00
    4   -7    9     -0.37      0.00
    4   -7   10      1.09      0.00
    4   -7   11     -1.42      0.00
    4   -7   12     -0.08      0.00
    4   -7   13      0.16      0.00
    4   -7   14     -0.36      0.00
    4   -7   15      1.29      0.00
    4   -7   16     -1.78      0.00
    4   -7   17      0.48      0.00
    4   -7   18     -1.29      0.00
    4   -7   19      0.09      0.00
    4   -7   20      0.27      0.00
    4   -7   21      1.92      0.00
    4   -7   22      0.21      0.00
    4   -7   23      0.43      0.00
    4   -7   24     -0.40      0.00
    4   -7   25      0.29      0.00
    4   -7   26     -0.45      0.00
   -4    6   23     -0.09      0.00
   -4    6   22      0.24      0.00
   -4    6   21     -0.63      0.00
   -4    6   20      0.20      0.00
   -4    6   19     -2.33      0.00
   -4    6   18      0.27      0.00
   -4    6   17     -1.95      0.00
   -4    6   16      0.99      0.00
   -4    6   15      0.13      0.00
   -4    6   14     -1.63      0.00
   -4    6   13      0.15      0.00
   -4    6   12      1.03      0.00
   -4    6   11      2.06      0.00
   -4    6   10      0.84      0.00
   -4    6    9      2.12      0.00
   -4    6    8      1.15      0.00
   -4    6    7     -1.66      0.00
   -4    6    6      0.10      0.00
   -4    6    5     -5.78      0.00
   -4    6    4      2.25      0.00
   -4    6    3     -1.08      0.00
   -4    6    2     -0.44      0.00
   -4    6    1     -3.22      0.00
   -4    6    0     -0.88      0.00
    4   -6    1      2.49      0.00
    4   -6    2      3.56      0.00
    4   -6    3     -9.33      0.00
    4   -6    4      1.37      0.00
    4   -6    5     -4.52      0.00
    4   -6    6      9.07      0.00
    4   -6    7      0.19      0.00
    4   -6    8      0.85      0.00
    4   -6    9      1.57      0.00
    4   -6   10     -2.02      0.00
    4   -6   11      0.80      0.00
    4   -6   12     -0.97      0.00
    4   -6   13      0.94      0.00
    4   -6   14     -1.60      0.00
    4   -6   15     -0.09      0.00
    4   -6   16      1.22      0.00
    4   -6   17      0.14      0.00
    4   -6   18      0.17      0.00
    4   -6   19     -0.83      0.00
    4   -6   20     -0.67      0.00
    4   -6   21     -1.12      0.00
    4   -6   22     -0.23      0.00
    4   -6   23      0.16      0.00
    4   -6   24      0.00      0.00
    4   -6   25     -1.51      0.00
    4   -6   26      1.51      0.00
   -4    5   24      0.03      0.00
   -4    5   23      0.07      0.00
   -4    5   22     -0.08      0.00
   -4    5   21     -0.64      0.00
   -4    5   20     -0.53      0.00
   -4    5   19      1.66      0.00
   -4    5   18     -1.61      0.00
   -4    5   17     -0.72      0.00
   -4    5   16     -1.41      0.00
   -4    5   15      0.29      0.00
   -4    5   14     -0.46      0.00
   -4    5   13      0.78      0.00
   -4    5   12     -0.18      0.00
   -4    5   11     -0.42      0.00
   -4    5   10      1.58      0.00
   -4    5    9      0.74      0.00
   -4    5    8      0.51      0.00
   -4    5    7      4.74      0.00
   -4    5    6     -1.45      0.00
   -4    5    5      4.91      0.00
   -4    5    4     -6.61      0.00
   -4    5    3      3.80      0.00
   -4    5    2     -5.58      0.00
   -4    5    1      2.90      0.00
   -4    5    0    -11.14      0.00
    4   -5    1      1.26      0.00
    4   -5    2     -0.66      0.00
    4   -5    3      8.51      0.00
    4   -5    4      1.95      0.00
    4   -5    5     -5.48      0.00
    4   -5    6     -4.42      0.00
    4   -5    7     -0.12      0.00
    4   -5    8      1.09      0.00
    4   -5    9      2.58      0.00
    4   -5   10      2.16      0.00
    4   -5   11     -1.78      0.00
    4   -5   12      3.10      0.00
    4   -5   13     -2.13      0.00
    4   -5   14      2.02      0.00
    4   -5   15     -2.28      0.00
    4   -5   16     -0.53      0.00
    4   -5   17     -0.33      0.00
    4   -5   18      0.27      0.00
    4   -5   19      0.98      0.00
    4   -5   20      0.15      0.00
    4   -5   21     -0.29      0.00
    4   -5   22      1.15      0.00
    4   -5   23      1.10      0.00
    4   -5   24     -1.68      0.00
    4   -5   25      1.82      0.00
    4   -5   26     -2.39      0.00
   -4    4   25      1.21      0.00
   -4    4   24     -0.39      0.00
   -4    4   23      0.48      0.00
   -4    4   22      1.18      0.00
   -4    4   21      0.11      0.00
   -4    4   20     -1.15      0.00
   -4    4   19      0.17      0.00
   -4    4   18      0.44      0.00
   -4    4   17     -0.06      0.00
   -4    4   16      0.37      0.00
   -4    4   15     -1.16      0.00
   -4    4   14      0.07      0.00
   -4    4   13     -1.58      0.00
   -4    4   12     -0.36      0.00
   -4    4   11     -0.51      0.00
   -4    4   10      0.71      0.00
   -4    4    9      0.12      0.00
   -4    4    8      1.70      0.00
   -4    4    7      0.15      0.00
   -4    4    6      6.93      0.00
   -4    4    5     -4.31      0.00
   -4    4    4      6.79      0.00
   -4    4    3     -8.50      0.00
   -4    4    2     12.50      0.00
   -4    4    1     -7.37      0.00
   -4    4    0      9.66      0.00
    4   -4    1     -9.29      0.00
    4   -4    2    -12.40      0.00
    4   -4    3     -0.23      0.00
    4   -4    4     -5.01      0.00
    4   -4    5      9.48      0.00
    4   -4    6      1.43      0.00
    4   -4    7     -2.11      0.00
    4   -4    8     -0.26      0.00
    4   -4    9     -1.19      0.00
    4   -4   10     -0.09      0.00
    4   -4   11      3.18      0.00
    4   -4   12     -2.87      0.00
    4   -4   13      3.76      0.00
    4   -4   14     -0.98      0.00
    4   -4   15      1.94      0.00
    4   -4   16     -0.47      0.00
    4   -4   17     -0.66      0.00
    4   -4   18     -1.53      0.00
    4   -4   19     -0.72      0.00
    4   -4   20     -0.39      0.00
    4   -4   21     -1.37      0.00
    4   -4   22     -0.62      0.00
    4   -4   23     -1.37      0.00
    4   -4   24      1.34      0.00
    4   -4   25      0.85      0.00
    4   -4   26     -0.32      0.00
   -4    3   25     -0.80      0.00
   -4    3   24      1.11      0.00
   -4    3   23     -0.28      0.00
   -4    3   22      0.20      0.00
   -4    3   21      0.52      0.00
   -4    3   20      1.63      0.00
   -4    3   19     -1.28      0.00
   -4    3   18      0.59      0.00
   -4    3   17     -0.25      0.00
   -4    3   16     -2.26      0.00
   -4    3   15     -1.18      0.00
   -4    3   14     -0.12      0.00
   -4    3   13      1.36      0.00
   -4    3   12     -0.90      0.00
   -4    3   11      0.21      0.00
   -4    3   10     -0.52      0.00
   -4    3    9      1.38      0.00
   -4    3    8     -2.93      0.00
   -4    3    7     -2.67      0.00
   -4    3    6     -1.09      0.00
   -4    3    5     10.67      0.00
   -4    3    4     -4.91      0.00
   -4    3    3      9.19      0.00
   -4    3    2    -14.30      0.00
   -4    3    1     10.04      0.00
   -4    3    0      0.97      0.00
    4   -3    1      2.78      0.00
    4   -3    2      6.75      0.00
    4   -3    3     -8.59      0.00
    4   -3    4      0.27      0.00
    4   -3    5     -7.72      0.00
    4   -3    6     -3.06      0.00
    4   -3    7      0.92      0.00
    4   -3    9      0.53      0.00
    4   -3   10      2.43      0.00
    4   -3   11     -1.73      0.00
    4   -3   12      2.39      0.00
    4   -3   13     -1.15      0.00
    4   -3   14      0.49      0.00
    4   -3   15     -0.63      0.00
    4   -3   16      1.93      0.00
    4   -3   17      0.45      0.00
    4   -3   18      1.73      0.00
    4   -3   19      0.14      0.00
    4   -3   20     -0.18      0.00
    4   -3   21      0.87      0.00
    4   -3   22      0.04      0.00
    4   -3   23     -1.00      0.00
    4   -3   24     -0.17      0.00
    4   -3   25     -1.67      0.00
    4   -3   26      1.72      0.00
   -4    2   25      0.03      0.00
   -4    2   23     -0.12      0.00
   -4    2   22     -0.44      0.00
   -4    2   21      1.35      0.00
   -4    2   20     -0.54      0.00
   -4    2   19      0.51      0.00
   -4    2   18      0.08      0.00
   -4    2   17      2.61      0.00
   -4    2   16      1.52      0.00
   -4    2   15      0.36      0.00
   -4    2   14     -2.78      0.00
   -4    2   13     -3.50      0.00
   -4    2   12      0.23      0.00
   -4    2   11     -2.89      0.00
   -4    2   10     -2.63      0.00
   -4    2    9      0.07      0.00
   -4    2    8      6.49      0.00
   -4    2    7      1.88      0.00
   -4    2    6     -3.83      0.00
   -4    2    5     -6.17      0.00
   -4    2    4      9.78      0.00
   -4    2    3     -1.12      0.00
   -4    2    2      2.83      0.00
   -4    2    1    -12.57      0.00
   -4    2    0      8.10      0.00
    4   -2    1      6.04      0.00
    4   -2    2      6.26      0.00
    4   -2    3     -5.76      0.00
    4   -2    4      1.50      0.00
    4   -2    5      6.99      0.00
    4   -2    6     -1.99      0.00
    4   -2    7     -1.44      0.00
    4   -2    8     -8.93      0.00
    4   -2    9     -0.05      0.00
    4   -2   10     -0.55      0.00
    4   -2   11      0.08      0.00
    4   -2   12     -0.25      0.00
    4   -2   13      1.58      0.00
    4   -2   14      1.64      0.00
    4   -2   15      1.11      0.00
    4   -2   17      0.79      0.00
    4   -2   18     -0.97      0.00
    4   -2   19      0.47      0.00
    4   -2   20      0.21      0.00
    4   -2   21      0.54      0.00
    4   -2   22      0.82      0.00
    4   -2   23      1.07      0.00
    4   -2   24      0.75      0.00
    4   -2   25     -1.10      0.00
    4   -2   26     -0.87      0.00
   -4    1   26     -0.70      0.00
   -4    1   25      0.30      0.00
   -4    1   24      0.20      0.00
   -4    1   23      0.81      0.00
   -4    1   22     -0.81      0.00
   -4    1   21     -0.79      0.00
   -4    1   20      2.55      0.00
   -4    1   19      0.30      0.00
   -4    1   18      0.04      0.00
   -4    1   17     -2.49      0.00
   -4    1   16      1.06      0.00
   -4    1   15      2.08      0.00
   -4    1   14      2.95      0.00
   -4    1   13      0.77      0.00
   -4    1   12     -1.02      0.00
   -4    1   11      2.31      0.00
   -4    1   10     -2.69      0.00
   -4    1    9     -5.85      0.00
   -4    1    8     -7.39      0.00
   -4    1    7      0.78      0.00
   -4    1    6      3.34      0.00
   -4    1    5     -2.13      0.00
   -4    1    4     -2.96      0.00
   -4    1    3     10.47      0.00
   -4    1    2     12.39      0.00
   -4    1    1      9.32      0.00
   -4    1    0    -36.65      0.00
    4   -1    1      7.67      0.00
    4   -1    2     -0.33      0.00
    4   -1    4     -3.53      0.00
    4   -1    5    -10.99      0.00
    4   -1    6      9.01      0.00
    4   -1    7      2.23      0.00
    4   -1    8      3.95      0.00
    4   -1    9     -3.45      0.00
    4   -1   10     -2.11      0.00
    4   -1   11      1.50      0.00
    4   -1   12     -2.57      0.00
    4   -1   13     -3.12      0.00
    4   -1   14     -0.04      0.00
    4   -1   15     -0.02      0.00
    4   -1   16      3.17      0.00
    4   -1   17     -0.24      0.00
    4   -1   18      0.98      0.00
    4   -1   19     -0.26      0.00
    4   -1   20      0.32      0.00
    4   -1   21     -0.91      0.00
    4   -1   22     -2.00      0.00
    4   -1   23      1.09      0.00
    4   -1   24      0.16      0.00
    4   -1   25      2.05      0.00
    4   -1   26      0.04      0.00
   -4    0   26      1.13      0.00
   -4    0   25     -1.47      0.00
   -4    0   24     -0.27      0.00
   -4    0   23      0.50      0.00
   -4    0   22      0.87      0.00
   -4    0   21     -0.44      0.00
   -4    0   20     -2.01      0.00
   -4    0   19      1.82      0.00
   -4    0   18      2.16      0.00
   -4    0   17      1.91      0.00
   -4    0   16     -1.96      0.00
   -4    0   15     -0.35      0.00
   -4    0   14     -1.03      0.00
   -4    0   13      1.36      0.00
   -4    0   12     -0.38      0.00
   -4    0   11     -1.14      0.00
   -4    0   10      3.71      0.00
   -4    0    9      1.62      0.00
   -4    0    8      0.81      0.00
   -4    0    7     -3.82      0.00
   -4    0    6     -2.34      0.00
   -4    0    5      2.32      0.00
   -4    0    4    -12.70      0.00
   -4    0    3    -20.41      0.00
   -4    0    2      7.18      0.00
   -4    0    1     10.99      0.00
    4    0    0     39.58      0.00
    4    0    1    -17.62      0.00
    4    0    2     -7.80      0.00
    4    0    3     -0.89      0.00
    4    0    4      6.87      0.00
    4    0    5      4.09      0.00
    4    0    6     -8.42      0.00
    4    0    7     -1.71      0.00
    4    0    8      3.68      0.00
    4    0    9      0.04      0.00
    4    0   10     -1.31      0.00
    4    0   11     -0.74      0.00
    4    0   12      2.73      0.00
    4    0   13      0.87      0.00
    4    0   14     -2.36      0.00
    4    0   15     -1.25      0.00
    4    0   16     -2.90      0.00
    4    0   17      1.50      0.00
    4    0   18     -0.69      0.00
    4    0   19      0.47      0.00
    4    0   20      0.14      0.00
    4    0   21      1.60      0.00
    4    0   22      0.50      0.00
    4    0   23     -1.52      0.00
    4    0   24     -1.21      0.00
    4    0   25     -0.43      0.00
   -4   -1   26      0.90      0.00
   -4   -1   25     -0.14      0.00
   -4   -1   24     -0.42      0.00
   -4   -1   23     -1.27      0.00
   -4   -1   22      0.22      0.00
   -4   -1   21      0.74      0.00
   -4   -1   20     -0.62      0.00
   -4   -1   19     -1.83      0.00
   -4   -1   18     -0.30      0.00
   -4   -1   17      0.93      0.00
   -4   -1   16      3.14      0.00
   -4   -1   15      0.14      0.00
   -4   -1   14      2.24      0.00
   -4   -1   13     -0.65      0.00
   -4   -1   12      1.76      0.00
   -4   -1   11      0.81      0.00
   -4   -1   10     -1.12      0.00
   -4   -1    9      0.08      0.00
   -4   -1    8      0.17      0.00
   -4   -1    7     -2.31      0.00
   -4   -1    6     -0.42      0.00
   -4   -1    5      5.89      0.00
   -4   -1    4     12.36      0.00
   -4   -1    3      5.94      0.00
   -4   -1    2    -24.61      0.00
   -4   -1    1    -17.92      0.00
    4    1    0     -8.19      0.00
    4    1    1     16.33      0.00
    4    1    2      8.52      0.00
    4    1    3      1.61      0.00
    4    1    4     -6.10      0.00
    4    1    5      7.63      0.00
    4    1    6      0.67      0.00
    4    1    7      0.00      0.00
    4    1    8     -2.73      0.00
    4    1    9      1.51      0.00
    4    1   10      0.71      0.00
    4    1   11     -2.38      0.00
    4    1   12     -2.22      0.00
    4    1   13      0.71      0.00
    4    1   14      3.21      0.00
    4    1   15     -0.22      0.00
    4    1   16     -0.30      0.00
    4    1   17     -2.24      0.00
    4    1   18      1.04      0.00
    4    1   19     -0.74      0.00
    4    1   20     -0.12      0.00
    4    1   21     -1.13      0.00
    4    1   22      1.44      0.00
    4    1   23      1.46      0.00
    4    1   24      0.84      0.00
   -4   -2   26     -0.44      0.00
   -4   -2   25      1.24      0.00
   -4   -2   24      0.17      0.00
   -4   -2   23     -0.64      0.00
   -4   -2   22     -0.46      0.00
   -4   -2   21     -0.86      0.00
   -4   -2   20      0.12      0.00
   -4   -2   19     -0.83      0.00
   -4   -2   18     -1.26      0.00
   -4   -2   17     -1.71      0.00
   -4   -2   16     -0.34      0.00
   -4   -2   15      0.38      0.00
   -4   -2   14     -0.23      0.00
   -4   -2   13      3.24      0.00
   -4   -2   12     -1.12      0.00
   -4   -2   11      2.08      0.00
   -4   -2   10      0.19      0.00
   -4   -2    9      3.24      0.00
   -4   -2    8      1.80      0.00
   -4   -2    7      0.96      0.00
   -4   -2    6     -2.26      0.00
   -4   -2    5    -12.90      0.00
   -4   -2    3      6.45      0.00
   -4   -2    2     10.78      0.00
   -4   -2    1      8.97      0.00
    4    2    0     -9.56      0.00
    4    2    1    -11.46      0.00
    4    2    2      0.00      0.00
    4    2    3     -5.60      0.00
    4    2    4      7.63      0.00
    4    2    6      3.84      0.00
    4    2    7      1.17      0.00
    4    2    8      1.41      0.00
    4    2    9      0.80      0.00
    4    2   10     -0.02      0.00
    4    2   11      2.86      0.00
    4    2   12     -1.89      0.00
    4    2   13     -2.46      0.00
    4    2   14     -1.70      0.00
    4    2   15      1.59      0.00
    4    2   16      1.72      0.00
    4    2   17     -0.61      0.00
    4    2   18     -0.84      0.00
    4    2   19      0.35      0.00
    4    2   20      0.60      0.00
    4    2   21     -0.53      0.00
    4    2   22     -2.55      0.00
    4    2   23     -1.14      0.00
   -4   -3   26     -1.24      0.00
   -4   -3   25      0.60      0.00
   -4   -3   24     -0.83      0.00
   -4   -3   23      0.43      0.00
   -4   -3   22      0.22      0.00
   -4   -3   21      0.38      0.00
   -4   -3   20     -0.91      0.00
   -4   -3   19      0.84      0.00
   -4   -3   18     -1.15      0.00
   -4   -3   17     -0.43      0.00
   -4   -3   16     -0.72      0.00
   -4   -3   15     -0.64      0.00
   -4   -3   14      0.30      0.00
   -4   -3   13     -1.91      0.00
   -4   -3   12      3.76      0.00
   -4   -3   11     -1.40      0.00
   -4   -3   10      2.53      0.00
   -4   -3    9     -1.04      0.00
   -4   -3    8     -0.80      0.00
   -4   -3    7      6.82      0.00
   -4   -3    6     -0.39      0.00
   -4   -3    5      6.77      0.00
   -4   -3    4     -2.79      0.00
   -4   -3    3     -8.76      0.00
   -4   -3    2     -0.79      0.00
   -4   -3    1     -5.15      0.00
    4    3    0      1.80      0.00
    4    3    1      5.61      0.00
    4    3    2     -4.14      0.00
    4    3    3      1.47      0.00
    4    3    4     -5.10      0.00
    4    3    5      0.45      0.00
    4    3    6     -0.01      0.00
    4    3    7      0.16      0.00
    4    3    8      0.26      0.00
    4    3    9     -0.70      0.00
    4    3   10      2.26      0.00
    4    3   11     -0.52      0.00
    4    3   12      3.55      0.00
    4    3   13      1.47      0.00
    4    3   14     -1.74      0.00
    4    3   15     -1.05      0.00
    4    3   16     -0.48      0.00
    4    3   17      1.92      0.00
    4    3   18     -1.70      0.00
    4    3   19      0.17      0.00
    4    3   20     -0.70      0.00
    4    3   21      1.59      0.00
    4    3   22      2.30      0.00
    4    3   23     -0.04      0.00
   -4   -4   26      1.14      0.00
   -4   -4   25      0.15      0.00
   -4   -4   24      0.71      0.00
   -4   -4   23     -1.11      0.00
   -4   -4   22     -0.29      0.00
   -4   -4   21      0.11      0.00
   -4   -4   20      0.44      0.00
   -4   -4   19     -0.43      0.00
   -4   -4   18     -0.08      0.00
   -4   -4   17      0.07      0.00
   -4   -4   16     -1.59      0.00
   -4   -4   15     -1.27      0.00
   -4   -4   14     -0.76      0.00
   -4   -4   13     -0.18      0.00
   -4   -4   12     -3.04      0.00
   -4   -4   11      1.00      0.00
   -4   -4   10     -0.21      0.00
   -4   -4    9     -0.60      0.00
   -4   -4    8      3.41      0.00
   -4   -4    7     -3.66      0.00
   -4   -4    6      5.97      0.00
   -4   -4    5     -0.87      0.00
   -4   -4    4      1.38      0.00
   -4   -4    3      3.47      0.00
   -4   -4    2      0.37      0.00
   -4   -4    1      1.51      0.00
    4    4    0      0.53      0.00
    4    4    1     -4.37      0.00
    4    4    2     -0.35      0.00
    4    4    3     -0.23      0.00
    4    4    4     -1.20      0.00
    4    4    5     -2.73      0.00
    4    4    6     -0.72      0.00
    4    4    7      0.89      0.00
    4    4    8     -0.37      0.00
    4    4    9      0.99      0.00
    4    4   10     -1.85      0.00
    4    4   11     -0.19      0.00
    4    4   12      0.08      0.00
    4    4   13      0.22      0.00
    4    4   14      1.21      0.00
    4    4   15      0.74      0.00
    4    4   16      0.21      0.00
    4    4   17     -1.14      0.00
    4    4   18      2.59      0.00
    4    4   19     -0.09      0.00
    4    4   20     -0.20      0.00
    4    4   21     -1.38      0.00
   -4   -5   26     -1.12      0.00
   -4   -5   25     -0.35      0.00
   -4   -5   24      1.14      0.00
   -4   -5   23      1.22      0.00
   -4   -5   22      0.04      0.00
   -4   -5   21      0.12      0.00
   -4   -5   20      0.52      0.00
   -4   -5   19     -0.30      0.00
   -4   -5   18     -0.04      0.00
   -4   -5   17      0.43      0.00
   -4   -5   16     -0.71      0.00
   -4   -5   15      1.03      0.00
   -4   -5   14     -2.01      0.00
   -4   -5   13     -0.48      0.00
   -4   -5   12      0.02      0.00
   -4   -5   11      0.87      0.00
   -4   -5   10     -1.65      0.00
   -4   -5    9      1.62      0.00
   -4   -5    8     -3.16      0.00
   -4   -5    7      1.20      0.00
   -4   -5    6     -2.08      0.00
   -4   -5    5      3.92      0.00
   -4   -5    4      1.35      0.00
   -4   -5    3      3.40      0.00
   -4   -5    2     -1.76      0.00
   -4   -5    1     -0.68      0.00
    4    5    0      0.60      0.00
    4    5    1     -0.69      0.00
    4    5    2      0.82      0.00
    4    5    3     -0.81      0.00
    4    5    4      0.07      0.00
    4    5    5      0.17      0.00
    4    5    6     -1.63      0.00
    4    5    7     -3.24      0.00
    4    5    8      0.25      0.00
    4    5    9      0.47      0.00
    4    5   10      0.17      0.00
    4    5   11     -0.24      0.00
    4    5   12     -0.40      0.00
    4    5   13      0.31      0.00
    4    5   14     -0.34      0.00
    4    5   15     -0.78      0.00
    4    5   16      0.51      0.00
    4    5   17     -0.25      0.00
    4    5   18     -1.21      0.00
    4    5   19     -0.48      0.00
    4    5   20      1.03      0.00
    4    5   21      1.37      0.00
   -4   -6   26      0.17      0.00
   -4   -6   25     -1.01      0.00
   -4   -6   24     -0.85      0.00
   -4   -6   23     -0.35      0.00
   -4   -6   22     -0.50      0.00
   -4   -6   21     -0.19      0.00
   -4   -6   20      1.39      0.00
   -4   -6   19      0.31      0.00
   -4   -6   18      0.81      0.00
   -4   -6   17     -1.01      0.00
   -4   -6   16      0.95      0.00
   -4   -6   15     -1.04      0.00
   -4   -6   14      1.65      0.00
   -4   -6   13     -2.83      0.00
   -4   -6   12     -0.20      0.00
   -4   -6   11     -4.39      0.00
   -4   -6   10      1.13      0.00
   -4   -6    9     -0.60      0.00
   -4   -6    8      0.21      0.00
   -4   -6    7      0.07      0.00
   -4   -6    6      0.06      0.00
   -4   -6    5     -3.44      0.00
   -4   -6    4     -0.54      0.00
   -4   -6    3     -1.62      0.00
   -4   -6    2      4.55      0.00
   -4   -6    1      3.59      0.00
    4    6    0      0.41      0.00
    4    6    1      2.19      0.00
    4    6    2     -0.54      0.00
    4    6    3      0.64      0.00
    4    6    4     -0.67      0.00
    4    6    5      0.38      0.00
    4    6    6      0.93      0.00
    4    6    7      0.94      0.00
    4    6    8     -1.53      0.00
    4    6    9     -1.36      0.00
    4    6   10      1.03      0.00
    4    6   11      0.25      0.00
    4    6   12     -0.21      0.00
    4    6   13      0.04      0.00
    4    6   14      0.06      0.00
    4    6   15     -0.44      0.00
    4    6   16     -0.17      0.00
    4    6   17      2.09      0.00
    4    6   18      0.18      0.00
    4    6   19     -0.18      0.00
    4    6   20     -0.86      0.00
    4    6   21     -1.23      0.00
   -4   -7   25      0.57      0.00
   -4   -7   24      0.18      0.00
   -4   -7   23      0.91      0.00
   -4   -7   22     -0.20      0.00
   -4   -7   21     -0.13      0.00
   -4   -7   20     -1.73      0.00
   -4   -7   19      0.87      0.00
   -4   -7   18      1.71      0.00
   -4   -7   17      0.92      0.00
   -4   -7   16     -1.04      0.00
   -4   -7   15      1.24      0.00
   -4   -7   14     -1.27      0.00
   -4   -7   13      3.69      0.00
   -4   -7   12     -2.21      0.00
   -4   -7   11      1.35      0.00
   -4   -7   10     -2.15      0.00
   -4   -7    9     -2.52      0.00
   -4   -7    8      0.20      0.00
   -4   -7    7     -3.01      0.00
   -4   -7    6      0.23      0.00
   -4   -7    5      2.36      0.00
   -4   -7    4      0.35      0.00
   -4   -7    3     -1.12      0.00
   -4   -7    2     -2.98      0.00
   -4   -7    1     -0.83      0.00
    4    7    0      0.83      0.00
    4    7    1      1.71      0.00
    4    7    2      1.17      0.00
    4    7    3      0.56      0.00
    4    7    4      1.73      0.00
    4    7    5     -0.39      0.00
    4    7    6     -0.55      0.00
    4    7    7      0.69      0.00
    4    7    8      0.35      0.00
    4    7    9      0.29      0.00
    4    7   10     -1.30      0.00
    4    7   11     -0.59      0.00
    4    7   12      0.53      0.00
    4    7   13      1.25      0.00
    4    7   14      0.60      0.00
    4    7   15      0.06      0.00
    4    7   16     -2.23      0.00
    4    7   17     -1.25      0.00
    4    7   18      0.35      0.00
    4    7   19      0.48      0.00
    4    7   20      0.53      0.00
   -4   -8   25      0.44      0.00
   -4   -8   24      0.36      0.00
   -4   -8   23     -0.93      0.00
   -4   -8   22      1.67      0.00
   -4   -8   21      0.12      0.00
   -4   -8   20      0.52      0.00
   -4   -8   19     -1.37      0.00
   -4   -8   18     -0.64      0.00
   -4   -8   17      1.41      0.00
   -4   -8   16      2.36      0.00
   -4   -8   15     -1.45      0.00
   -4   -8   14      1.66      0.00
   -4   -8   13     -0.99      0.00
   -4   -8   12      2.33      0.00
   -4   -8   11     -0.12      0.00
   -4   -8   10     -0.97      0.00
   -4   -8    9      1.26      0.00
   -4   -8    8     -0.63      0.00
   -4   -8    7      0.43      0.00
   -4   -8    6     -2.38      0.00
   -4   -8    5     -1.99      0.00
   -4   -8    4      0.17      0.00
   -4   -8    3      1.40      0.00
   -4   -8    1     -0.73      0.00
    4    8    0     -0.02      0.00
    4    8    1     -1.46      0.00
    4    8    2      0.34      0.00
    4    8    3      0.62      0.00
    4    8    4     -0.45      0.00
    4    8    5      0.90      0.00
    4    8    6      0.55      0.00
    4    8    7     -0.37      0.00
    4    8    8     -0.10      0.00
    4    8    9      0.24      0.00
    4    8   10      1.28      0.00
    4    8   11     -0.18      0.00
    4    8   12     -1.41      0.00
    4    8   13     -1.00      0.00
    4    8   14      1.33      0.00
    4    8   15      1.09      0.00
    4    8   16      1.73      0.00
    4    8   17     -0.38      0.00
    4    8   18     -1.04      0.00
    4    8   19      0.25      0.00
   -4   -9   24      0.05      0.00
   -4   -9   23      0.62      0.00
   -4   -9   22     -0.60      0.00
   -4   -9   21      0.87      0.00
   -4   -9   20     -0.25      0.00
   -4   -9   19      1.03      0.00
   -4   -9   18     -0.56      0.00
   -4   -9   17     -0.13      0.00
   -4   -9   16      0.24      0.00
   -4   -9   15      1.81      0.00
   -4   -9   14      0.23      0.00
   -4   -9   13     -0.28      0.00
   -4   -9   12      1.37      0.00
   -4   -9   11      1.72      0.00
   -4   -9   10      1.89      0.00
   -4   -9    9     -1.49      0.00
   -4   -9    8     -0.17      0.00
   -4   -9    7      0.46      0.00
   -4   -9    6     -0.02      0.00
   -4   -9    5     -1.19      0.00
   -4   -9    4     -1.05      0.00
   -4   -9    3     -1.46      0.00
   -4   -9    2     -1.02      0.00
   -4   -9    1      0.70      0.00
    4    9    0     -0.25      0.00
    4    9    1      0.49      0.00
    4    9    2      0.73      0.00
    4    9    3     -0.52      0.00
    4    9    4      0.84      0.00
    4    9    5      0.01      0.00
    4    9    6      0.15      0.00
    4    9    7      0.89      0.00
    4    9    8     -0.40      0.00
    4    9    9     -0.57      0.00
    4    9   10     -1.00      0.00
    4    9   11      0.32      0.00
    4    9   12      0.35      0.00
    4    9   13     -1.49      0.00
    4    9   14     -1.90      0.00
    4    9   15      0.10      0.00
    4    9   16      0.17      0.00
    4    9   17      0.09      0.00
    4    9   18      0.56      0.00
   -4  -10   24     -1.10      0.00
   -4  -10   23     -0.34      0.00
   -4  -10   22     -0.51      0.00
   -4  -10   21      0.32      0.00
   -4  -10   20      0.59      0.00
   -4  -10   19     -1.40      0.00
   -4  -10   18     -0.54      0.00
   -4  -10   17     -0.38      0.00
   -4  -10   16     -1.48      0.00
   -4  -10   15      0.42      0.00
   -4  -10   14     -0.13      0.00
   -4  -10   13      1.90      0.00
   -4  -10   12     -2.35      0.00
   -4  -10   11      0.59      0.00
   -4  -10   10      1.43      0.00
   -4  -10    9      1.60      0.00
   -4  -10    8      0.62      0.00
   -4  -10    7      1.31      0.00
   -4  -10    6      0.79      0.00
   -4  -10    5      0.73      0.00
   -4  -10    4     -0.36      0.00
   -4  -10    3     -0.55      0.00
   -4  -10    2      0.56      0.00
   -4  -10    1     -0.96      0.00
    4   10    0     -0.44      0.00
    4   10    1     -0.39      0.00
    4   10    2     -0.56      0.00
    4   10    3      0.37      0.00
    4   10    4      0.16      0.00
    4   10    5     -0.56      0.00
    4   10    6      1.14      0.00
    4   10    7     -0.49      0.00
    4   10    8      1.10      0.00
    4   10    9      0.94      0.00
    4   10   10     -0.07      0.00
    4   10   11     -0.03      0.00
    4   10   12      0.31      0.00
    4   10   13      1.00      0.00
    4   10   14      0.39      0.00
    4   10   15     -1.88      0.00
    4   10   16      0.46      0.00
    4   10   17      1.02      0.00
   -4  -11   23      0.11      0.00
   -4  -11   22     -1.08      0.00
   -4  -11   21     -1.45      0.00
   -4  -11   20      1.13      0.00
   -4  -11   19      0.09      0.00
   -4  -11   18     -0.53      0.00
   -4  -11   17     -0.81      0.00
   -4  -11   16      1.37      0.00
   -4  -11   15     -2.60      0.00
   -4  -11   14     -0.33      0.00
   -4  -11   13     -0.20      0.00
   -4  -11   12      0.89      0.00
   -4  -11   11     -0.63      0.00
   -4  -11   10     -0.35      0.00
   -4  -11    9      1.02      0.00
   -4  -11    8     -0.22      0.00
   -4  -11    7     -0.91      0.00
   -4  -11    6      0.73      0.00
   -4  -11    5      1.05      0.00
   -4  -11    4      0.50      0.00
   -4  -11    3     -0.26      0.00
   -4  -11    2     -1.08      0.00
   -4  -11    1      0.36      0.00
    4   11    0     -0.28      0.00
    4   11    1     -0.14      0.00
    4   11    2     -1.42      0.00
    4   11    3      1.20      0.00
    4   11    4     -1.10      0.00
    4   11    5     -0.51      0.00
    4   11    6     -0.56      0.00
    4   11    7     -0.27      0.00
    4   11    8     -0.40      0.00
    4   11    9     -0.15      0.00
    4   11   10      1.46      0.00
    4   11   11      0.91      0.00
    4   11   12     -0.03      0.00
    4   11   13      0.57      0.00
    4   11   15      1.06      0.00
   -4  -12   22      0.49      0.00
   -4  -12   21      0.23      0.00
   -4  -12   20     -1.58      0.00
   -4  -12   19      2.20      0.00
   -4  -12   18     -0.43      0.00
   -4  -12   17     -0.61      0.00
   -4  -12   16     -0.50      0.00
   -4  -12   15      0.63      0.00
   -4  -12   14      0.45      0.00
   -4  -12   13     -1.63      0.00
   -4  -12   12      0.70      0.00
   -4  -12   11     -0.38      0.00
   -4  -12   10     -0.83      0.00
   -4  -12    9     -0.46      0.00
   -4  -12    8      1.32      0.00
   -4  -12    7      0.76      0.00
   -4  -12    6     -0.50      0.00
   -4  -12    5     -0.42      0.00
   -4  -12    4      1.34      0.00
   -4  -12    3      0.93      0.00
   -4  -12    2     -0.85      0.00
   -4  -12    1     -0.36      0.00
    4   12    0      0.18      0.00
    4   12    1     -1.19      0.00
    4   12    2      0.25      0.00
    4   12    3     -1.75      0.00
    4   12    4     -0.02      0.00
    4   12    5      1.73      0.00
    4   12    6     -1.11      0.00
    4   12    7      0.30      0.00
    4   12    8     -0.12      0.00
    4   12    9     -1.29      0.00
    4   12   10     -1.92      0.00
    4   12   11     -0.16      0.00
    4   12   12      0.00      0.00
    4   12   13     -0.15      0.00
    4   12   14     -0.17      0.00
   -4  -13   20     -0.08      0.00
   -4  -13   19     -0.79      0.00
   -4  -13   18      1.44      0.00
   -4  -13   17      1.25      0.00
   -4  -13   16     -1.87      0.00
   -4  -13   15      0.90      0.00
   -4  -13   14     -1.68      0.00
   -4  -13   13     -0.91      0.00
   -4  -13   12     -1.19      0.00
   -4  -13   11      0.36      0.00
   -4  -13   10      1.02      0.00
   -4  -13    9     -1.33      0.00
   -4  -13    8     -1.28      0.00
   -4  -13    7      0.56      0.00
   -4  -13    6      0.06      0.00
   -4  -13    5     -0.22      0.00
   -4  -13    4     -0.53      0.00
   -4  -13    3      0.80      0.00
   -4  -13    2      1.61      0.00
   -4  -13    1     -0.65      0.00
    4   13    0      0.50      0.00
    4   13    1      0.26      0.00
    4   13    2      0.42      0.00
    4   13    3     -0.17      0.00
    4   13    4      0.25      0.00
    4   13    5     -1.70      0.00
    4   13    6      0.36      0.00
    4   13    7      0.20      0.00
    4   13    8      1.21      0.00
    4   13    9      0.49      0.00
    4   13   10      0.72      0.00
    4   13   11     -0.81      0.00
    4   13   12     -0.80      0.00
   -4  -14   19     -1.01      0.00
   -4  -14   18      0.01      0.00
   -4  -14   17     -0.44      0.00
   -4  -14   16      1.47      0.00
   -4  -14   15      0.42      0.00
   -4  -14   14      1.56      0.00
   -4  -14   13      1.94      0.00
   -4  -14   12     -1.63      0.00
   -4  -14   11     -1.89      0.00
   -4  -14   10     -0.69      0.00
   -4  -14    9      2.55      0.00
   -4  -14    8     -0.93      0.00
   -4  -14    7     -0.86      0.00
   -4  -14    6      0.50      0.00
   -4  -14    5      0.22      0.00
   -4  -14    4     -0.33      0.00
   -4  -14    3     -0.33      0.00
   -4  -14    2     -0.29      0.00
   -4  -14    1      2.18      0.00
    4   14    0     -0.26      0.00
    4   14    1      0.57      0.00
    4   14    2     -0.07      0.00
    4   14    3     -0.25      0.00
    4   14    4      0.25      0.00
    4   14    5      1.04      0.00
    4   14    6     -0.38      0.00
    4   14    7     -0.68      0.00
    4   14    8     -1.32      0.00
    4   14    9      0.95      0.00
    4   14   10      0.47      0.00
   -4  -15   17      0.03      0.00
   -4  -15   16      0.14      0.00
   -4  -15   15     -2.54      0.00
   -4  -15   14      0.26      0.00
   -4  -15   13      0.63      0.00
   -4  -15   12      2.68      0.00
   -4  -15   11     -0.28      0.00
   -4  -15   10     -0.77      0.00
   -4  -15    9     -2.26      0.00
   -4  -15    8      1.47      0.00
   -4  -15    7      0.09      0.00
   -4  -15    6     -0.63      0.00
   -4  -15    5      0.19      0.00
   -4  -15    4      0.33      0.00
   -4  -15    3     -0.38      0.00
   -4  -15    2      0.08      0.00
   -4  -15    1     -1.75      0.00
    4   15    0      0.40      0.00
    4   15    1      1.73      0.00
    4   15    2     -0.32      0.00
    4   15    3      1.10      0.00
    4   15    4     -0.24      0.00
    4   15    5     -0.35      0.00
    4   15    6      0.75      0.00
    4   15    7      0.50      0.00
   -4  -16   14     -1.56      0.00
   -4  -16   13     -0.96      0.00
   -4  -16   12      0.21      0.00
   -4  -16   11      1.32      0.00
   -4  -16   10      0.14      0.00
   -4  -16    9      0.00      0.00
   -4  -16    8     -0.35      0.00
   -4  -16    7     -1.31      0.00
   -4  -16    6     -0.29      0.00
   -4  -16    5     -0.12      0.00
   -4  -16    4     -0.37      0.00
   -4  -16    3      0.52      0.00
   -4  -16    2      0.57      0.00
   -4  -16    1     -0.38      0.00
    4   16    0     -0.01      0.00
    4   16    1     -1.75      0.00
    4   16    2      0.54      0.00
    4   16    3     -0.60      0.00
    4   16    4      0.23      0.00
   -4  -17    9      0.55      0.00
   -4  -17    8      0.14      0.00
   -4  -17    7      1.39      0.00
   -4  -17    6      0.54      0.00
   -4  -17    5     -1.16      0.00
   -4  -17    4     -0.87      0.00
   -4  -17    3      0.76      0.00
   -4  -17    2     -1.36      0.00
   -5   19    2      0.84      0.00
   -5   19    1      0.82      0.00
   -5   19    0     -0.16      0.00
    5  -19    1     -0.93      0.00
    5  -19    2      0.17      0.00
    5  -19    3      0.66      0.00
    5  -19    4     -0.45      0.00
    5  -19    5      0.46      0.00
    5  -19    6      0.18      0.00
    5  -19    7     -0.75      0.00
    5  -19    8     -0.14      0.00
    5  -19    9      0.14      0.00
    5  -19   10      0.67      0.00
    5  -19   11     -0.05      0.00
    5  -19   12      0.87      0.00
    5  -19   13      0.59      0.00
   -5   18    6     -0.85      0.00
   -5   18    5      0.33      0.00
   -5   18    4     -0.66      0.00
   -5   18    3     -1.14      0.00
   -5   18    2      0.41      0.00
   -5   18    1     -0.07      0.00
   -5   18    0      1.00      0.00
    5  -18    1      0.07      0.00
    5  -18    2      0.30      0.00
    5  -18    3     -0.60      0.00
    5  -18    4      0.03      0.00
    5  -18    5      0.59      0.00
    5  -18    6     -0.84      0.00
    5  -18    7      0.22      0.00
    5  -18    8     -0.29      0.00
    5  -18    9     -0.92      0.00
    5  -18   10     -0.54      0.00
    5  -18   11      0.27      0.00
    5  -18   12     -1.64      0.00
    5  -18   13      0.09      0.00
    5  -18   14      1.12      0.00
    5  -18   15      1.22      0.00
    5  -18   16      0.78      0.00
   -5   17    9      0.26      0.00
   -5   17    8      2.13      0.00
   -5   17    7     -0.32      0.00
   -5   17    6      0.74      0.00
   -5   17    5     -0.39      0.00
   -5   17    4     -0.21      0.00
   -5   17    3     -1.18      0.00
   -5   17    2     -1.47      0.00
   -5   17    1     -0.07      0.00
   -5   17    0     -1.40      0.00
    5  -17    1      1.63      0.00
    5  -17    2     -0.58      0.00
    5  -17    3      0.23      0.00
    5  -17    4      1.18      0.00
    5  -17    5     -0.72      0.00
    5  -17    6      0.69      0.00
    5  -17    7      0.61      0.00
    5  -17    8      0.13      0.00
    5  -17    9     -0.50      0.00
    5  -17   10      0.25      0.00
    5  -17   11     -0.12      0.00
    5  -17   12      0.63      0.00
    5  -17   13     -0.08      0.00
    5  -17   14     -0.33      0.00
    5  -17   15     -1.65      0.00
    5  -17   16      0.26      0.00
    5  -17   17      1.13      0.00
    5  -17   18      0.40      0.00
   -5   16   11      0.05      0.00
   -5   16   10     -0.65      0.00
   -5   16    9     -0.43      0.00
   -5   16    8     -0.78      0.00
   -5   16    7     -0.29      0.00
   -5   16    6     -0.41      0.00
   -5   16    5      1.15      0.00
   -5   16    4      0.12      0.00
   -5   16    3      1.51      0.00
   -5   16    2      0.80      0.00
   -5   16    1     -1.23      0.00
   -5   16    0      0.20      0.00
    5  -16    1     -1.65      0.00
    5  -16    2      0.39      0.00
    5  -16    3     -0.38      0.00
    5  -16    4     -0.11      0.00
    5  -16    5      1.06      0.00
    5  -16    6      0.05      0.00
    5  -16    7      0.05      0.00
    5  -16    8      0.60      0.00
    5  -16    9      0.61      0.00
    5  -16   10      0.62      0.00
    5  -16   11     -1.09      0.00
    5  -16   12     -1.23      0.00
    5  -16   13     -0.73      0.00
    5  -16   14      0.51      0.00
    5  -16   15      1.49      0.00
    5  -16   16     -2.07      0.00
    5  -16   17     -0.73      0.00
    5  -16   18     -0.16      0.00
    5  -16   19      0.43      0.00
    5  -16   20     -0.35      0.00
   -5   15   13      0.60      0.00
   -5   15   12      0.81      0.00
   -5   15   11     -0.44      0.00
   -5   15   10      0.81      0.00
   -5   15    9     -0.06      0.00
   -5   15    8     -0.08      0.00
   -5   15    7      0.60      0.00
   -5   15    6      0.76      0.00
   -5   15    5     -0.74      0.00
   -5   15    4     -0.47      0.00
   -5   15    3     -0.57      0.00
   -5   15    2     -1.23      0.00
   -5   15    1      1.08      0.00
   -5   15    0     -0.67      0.00
    5  -15    1      0.17      0.00
    5  -15    2     -0.60      0.00
    5  -15    3     -0.22      0.00
    5  -15    4     -0.85      0.00
    5  -15    5     -0.44      0.00
    5  -15    6      0.75      0.00
    5  -15    7      0.15      0.00
    5  -15    8     -0.21      0.00
    5  -15    9      0.05      0.00
    5  -15   10     -0.07      0.00
    5  -15   11      2.78      0.00
    5  -15   12      0.48      0.00
    5  -15   13     -0.75      0.00
    5  -15   14     -1.19      0.00
    5  -15   15     -1.19      0.00
    5  -15   16      1.87      0.00
    5  -15   17     -1.07      0.00
    5  -15   18      0.55      0.00
    5  -15   19     -1.01      0.00
    5  -15   20      0.93      0.00
    5  -15   21     -1.38      0.00
   -5   14   15     -0.07      0.00
   -5   14   14     -2.38      0.00
   -5   14   13      0.44      0.00
   -5   14   12     -0.66      0.00
   -5   14   11      0.67      0.00
   -5   14   10      0.04      0.00
   -5   14    9      1.67      0.00
   -5   14    8      0.25      0.00
   -5   14    7     -0.27      0.00
   -5   14    6      0.04      0.00
   -5   14    5     -0.38      0.00
   -5   14    4      1.81      0.00
   -5   14    3     -0.33      0.00
   -5   14    2      0.59      0.00
   -5   14    1     -0.61      0.00
   -5   14    0      0.36      0.00
    5  -14    1     -0.05      0.00
    5  -14    2     -0.25      0.00
    5  -14    3     -0.35      0.00
    5  -14    4     -0.92      0.00
    5  -14    5      0.22      0.00
    5  -14    6     -2.12      0.00
    5  -14    7      0.62      0.00
    5  -14    8      0.52      0.00
    5  -14    9     -0.45      0.00
    5  -14   10     -0.49      0.00
    5  -14   11     -1.39      0.00
    5  -14   12      1.46      0.00
    5  -14   13      1.44      0.00
    5  -14   14      0.06      0.00
    5  -14   15      1.30      0.00
    5  -14   16     -1.35      0.00
    5  -14   17      0.63      0.00
    5  -14   18     -1.41      0.00
    5  -14   19      0.48      0.00
    5  -14   20     -0.70      0.00
    5  -14   21     -0.35      0.00
    5  -14   22      0.50      0.00
   -5   13   16      0.48      0.00
   -5   13   15     -0.13      0.00
   -5   13   14      0.86      0.00
   -5   13   13     -1.35      0.00
   -5   13   12     -0.33      0.00
   -5   13   11     -0.49      0.00
   -5   13   10     -0.19      0.00
   -5   13    9     -1.02      0.00
   -5   13    8      0.92      0.00
   -5   13    7      1.11      0.00
   -5   13    6      0.47      0.00
   -5   13    5      1.36      0.00
   -5   13    4      0.59      0.00
   -5   13    3      1.36      0.00
   -5   13    2      0.55      0.00
   -5   13    1     -0.32      0.00
   -5   13    0     -0.63      0.00
    5  -13    1     -0.94      0.00
    5  -13    2      0.90      0.00
    5  -13    3     -0.10      0.00
    5  -13    4      0.53      0.00
    5  -13    5     -1.33      0.00
    5  -13    6      1.70      0.00
    5  -13    7     -1.86      0.00
    5  -13    8     -0.14      0.00
    5  -13    9      0.78      0.00
    5  -13   10      1.10      0.00
    5  -13   11     -0.31      0.00
    5  -13   12     -0.07      0.00
    5  -13   13     -0.07      0.00
    5  -13   14      0.50      0.00
    5  -13   15     -0.95      0.00
    5  -13   16      0.69      0.00
    5  -13   17      0.53      0.00
    5  -13   18      0.49      0.00
    5  -13   19      0.85      0.00
    5  -13   20     -0.06      0.00
    5  -13   21      1.50      0.00
    5  -13   22     -1.87      0.00
    5  -13   23     -0.18      0.00
   -5   12   18     -0.82      0.00
   -5   12   17      1.26      0.00
   -5   12   16     -0.48      0.00
   -5   12   15      1.16      0.00
   -5   12   14      0.73      0.00
   -5   12   13     -0.27      0.00
   -5   12   12      0.13      0.00
   -5   12   11     -0.63      0.00
   -5   12   10     -2.34      0.00
   -5   12    9      0.27      0.00
   -5   12    8     -0.42      0.00
   -5   12    7     -0.27      0.00
   -5   12    6     -0.08      0.00
   -5   12    5     -1.13      0.00
   -5   12    4     -0.83      0.00
   -5   12    3      0.66      0.00
   -5   12    2      1.89      0.00
   -5   12    1      2.56      0.00
   -5   12    0      0.61      0.00
    5  -12    1      1.21      0.00
    5  -12    2     -1.66      0.00
    5  -12    3      0.18      0.00
    5  -12    4     -0.80      0.00
    5  -12    5      0.20      0.00
    5  -12    6     -1.31      0.00
    5  -12    7      1.92      0.00
    5  -12    8     -2.14      0.00
    5  -12    9      0.50      0.00
    5  -12   10     -1.48      0.00
    5  -12   11      0.42      0.00
    5  -12   12     -0.20      0.00
    5  -12   13      0.20      0.00
    5  -12   14      1.31      0.00
    5  -12   15      0.65      0.00
    5  -12   16      1.29      0.00
    5  -12   17     -1.15      0.00
    5  -12   18     -0.43      0.00
    5  -12   19     -0.93      0.00
    5  -12   20     -0.10      0.00
    5  -12   21     -0.31      0.00
    5  -12   22      2.11      0.00
    5  -12   23      0.14      0.00
    5  -12   24     -0.41      0.00
   -5   11   19     -0.18      0.00
   -5   11   18      2.69      0.00
   -5   11   17     -1.47      0.00
   -5   11   16      0.25      0.00
   -5   11   15      0.02      0.00
   -5   11   14     -0.01      0.00
   -5   11   13      0.41      0.00
   -5   11   12     -0.03      0.00
   -5   11   11      0.79      0.00
   -5   11   10      0.97      0.00
   -5   11    9     -1.97      0.00
   -5   11    8     -2.45      0.00
   -5   11    7      0.26      0.00
   -5   11    6     -0.14      0.00
   -5   11    5      1.86      0.00
   -5   11    4     -1.04      0.00
   -5   11    3     -1.87      0.00
   -5   11    2     -0.41      0.00
   -5   11    1     -1.53      0.00
   -5   11    0      2.28      0.00
    5  -11    1      0.44      0.00
    5  -11    2      2.10      0.00
    5  -11    3      0.25      0.00
    5  -11    4      1.48      0.00
    5  -11    5     -1.67      0.00
    5  -11    6     -0.23      0.00
    5  -11    7     -2.74      0.00
    5  -11    8      1.79      0.00
    5  -11    9     -2.22      0.00
    5  -11   10      1.24      0.00
    5  -11   11     -0.35      0.00
    5  -11   12     -0.75      0.00
    5  -11   13     -0.09      0.00
    5  -11   14     -2.01      0.00
    5  -11   15     -0.45      0.00
    5  -11   16     -0.41      0.00
    5  -11   17      1.95      0.00
    5  -11   18      1.73      0.00
    5  -11   19     -0.43      0.00
    5  -11   20      1.09      0.00
    5  -11   21     -1.19      0.00
    5  -11   22     -0.36      0.00
    5  -11   23      1.68      0.00
    5  -11   24      0.91      0.00
   -5   10   20     -0.97      0.00
   -5   10   19     -0.10      0.00
   -5   10   18     -1.18      0.00
   -5   10   17      1.69      0.00
   -5   10   16      0.38      0.00
   -5   10   15     -0.31      0.00
   -5   10   14      0.94      0.00
   -5   10   13      0.99      0.00
   -5   10   12      1.28      0.00
   -5   10   11     -1.18      0.00
   -5   10   10      0.83      0.00
   -5   10    9      0.96      0.00
   -5   10    8     -0.27      0.00
   -5   10    7     -3.01      0.00
   -5   10    6     -1.49      0.00
   -5   10    5     -0.95      0.00
   -5   10    4      0.51      0.00
   -5   10    3      1.81      0.00
   -5   10    2     -1.43      0.00
   -5   10    1      0.68      0.00
   -5   10    0     -0.93      0.00
    5  -10    1      1.37      0.00
    5  -10    2     -1.22      0.00
    5  -10    3      0.99      0.00
    5  -10    4      0.40      0.00
    5  -10    5      2.66      0.00
    5  -10    6      0.81      0.00
    5  -10    7      1.25      0.00
    5  -10    8     -1.50      0.00
    5  -10    9     -0.25      0.00
    5  -10   10     -2.30      0.00
    5  -10   11     -0.50      0.00
    5  -10   12     -1.49      0.00
    5  -10   13      0.51      0.00
    5  -10   14      1.49      0.00
    5  -10   15      0.03      0.00
    5  -10   16     -1.55      0.00
    5  -10   17     -0.81      0.00
    5  -10   18     -1.43      0.00
    5  -10   19      1.14      0.00
    5  -10   20     -0.37      0.00
    5  -10   21      0.52      0.00
    5  -10   22     -1.89      0.00
    5  -10   23     -0.32      0.00
    5  -10   24     -0.18      0.00
    5  -10   25      1.64      0.00
   -5    9   21      1.11      0.00
   -5    9   20     -0.57      0.00
   -5    9   19      0.25      0.00
   -5    9   18     -1.37      0.00
   -5    9   17      0.11      0.00
   -5    9   16      0.37      0.00
   -5    9   15      0.58      0.00
   -5    9   14     -1.06      0.00
   -5    9   13     -0.59      0.00
   -5    9   12     -0.41      0.00
   -5    9   11      1.13      0.00
   -5    9   10      0.57      0.00
   -5    9    9     -0.69      0.00
   -5    9    8      2.20      0.00
   -5    9    7     -0.02      0.00
   -5    9    6     -0.37      0.00
   -5    9    5     -2.51      0.00
   -5    9    4     -1.13      0.00
   -5    9    3     -1.08      0.00
   -5    9    2      0.42      0.00
   -5    9    1     -1.06      0.00
   -5    9    0     -0.77      0.00
    5   -9    1     -0.46      0.00
    5   -9    2      2.80      0.00
    5   -9    3      1.00      0.00
    5   -9    4     -1.25      0.00
    5   -9    5      1.83      0.00
    5   -9    6     -1.59      0.00
    5   -9    7      2.15      0.00
    5   -9    8      0.59      0.00
    5   -9    9      1.03      0.00
    5   -9   10      2.69      0.00
    5   -9   11     -0.39      0.00
    5   -9   12      0.88      0.00
    5   -9   13     -2.82      0.00
    5   -9   14     -1.04      0.00
    5   -9   15     -0.63      0.00
    5   -9   16      1.00      0.00
    5   -9   17      0.54      0.00
    5   -9   18     -0.18      0.00
    5   -9   19     -0.43      0.00
    5   -9   20      0.78      0.00
    5   -9   21     -0.59      0.00
    5   -9   22      1.84      0.00
    5   -9   23     -2.26      0.00
    5   -9   24      0.03      0.00
    5   -9   25     -1.13      0.00
   -5    8   22     -0.65      0.00
   -5    8   21     -0.98      0.00
   -5    8   20      1.34      0.00
   -5    8   19     -0.57      0.00
   -5    8   18      0.97      0.00
   -5    8   17     -1.85      0.00
   -5    8   16     -0.18      0.00
   -5    8   15      0.18      0.00
   -5    8   14      0.95      0.00
   -5    8   13      1.62      0.00
   -5    8   12     -0.08      0.00
   -5    8   11      0.22      0.00
   -5    8   10     -0.22      0.00
   -5    8    9      1.90      0.00
   -5    8    8     -1.25      0.00
   -5    8    7      1.53      0.00
   -5    8    6      0.16      0.00
   -5    8    5      0.62      0.00
   -5    8    4     -0.99      0.00
   -5    8    3     -4.10      0.00
   -5    8    2      0.62      0.00
   -5    8    1      0.45      0.00
   -5    8    0      0.18      0.00
    5   -8    1     -3.06      0.00
    5   -8    2     -0.12      0.00
    5   -8    3     -2.40      0.00
    5   -8    4      4.68      0.00
    5   -8    5     -2.80      0.00
    5   -8    6      4.37      0.00
    5   -8    7     -1.47      0.00
    5   -8    8      1.48      0.00
    5   -8    9      0.07      0.00
    5   -8   10     -2.29      0.00
    5   -8   11      2.01      0.00
    5   -8   12     -0.43      0.00
    5   -8   13      2.25      0.00
    5   -8   14      0.04      0.00
    5   -8   15      0.09      0.00
    5   -8   16     -1.67      0.00
    5   -8   17     -0.45      0.00
    5   -8   18     -0.22      0.00
    5   -8   19      0.22      0.00
    5   -8   20     -0.47      0.00
    5   -8   21      2.12      0.00
    5   -8   22     -1.63      0.00
    5   -8   23      1.53      0.00
    5   -8   24     -0.05      0.00
    5   -8   25     -0.03      0.00
    5   -8   26      0.39      0.00
   -5    7   23      0.00      0.00
   -5    7   22      0.78      0.00
   -5    7   21     -0.29      0.00
   -5    7   20     -0.72      0.00
   -5    7   19     -1.29      0.00
   -5    7   18     -1.71      0.00
   -5    7   17      0.89      0.00
   -5    7   16     -1.30      0.00
   -5    7   15     -1.52      0.00
   -5    7   14     -1.17      0.00
   -5    7   13      0.07      0.00
   -5    7   12      0.21      0.00
   -5    7   11      1.09      0.00
   -5    7   10      0.79      0.00
   -5    7    9     -0.65      0.00
   -5    7    8      2.30      0.00
   -5    7    7     -0.59      0.00
   -5    7    6     -0.34      0.00
   -5    7    5      2.37      0.00
   -5    7    4      0.60      0.00
   -5    7    3      3.51      0.00
   -5    7    2     -6.48      0.00
   -5    7    1      0.39      0.00
   -5    7    0     -4.49      0.00
    5   -7    1      5.08      0.00
    5   -7    2     -5.30      0.00
    5   -7    3      0.51      0.00
    5   -7    4     -4.06      0.00
    5   -7    5      2.26      0.00
    5   -7    6     -0.65      0.00
    5   -7    7     -0.14      0.00
    5   -7    8      1.03      0.00
    5   -7    9      0.57      0.00
    5   -7   10      1.65      0.00
    5   -7   11     -1.02      0.00
    5   -7   12      2.01      0.00
    5   -7   13     -2.48      0.00
    5   -7   14      1.55      0.00
    5   -7   15      0.41      0.00
    5   -7   16      1.75      0.00
    5   -7   17     -0.73      0.00
    5   -7   18      0.62      0.00
    5   -7   19     -1.70      0.00
    5   -7   20     -0.68      0.00
    5   -7   21     -0.55      0.00
    5   -7   22      2.07      0.00
    5   -7   23     -1.41      0.00
    5   -7   24     -0.18      0.00
    5   -7   25      1.19      0.00
    5   -7   26     -1.42      0.00
   -5    6   23     -0.28      0.00
   -5    6   22     -2.09      0.00
   -5    6   21      1.48      0.00
   -5    6   20      0.36      0.00
   -5    6   19      1.72      0.00
   -5    6   18     -0.08      0.00
   -5    6   17     -1.56      0.00
   -5    6   16      0.00      0.00
   -5    6   15     -0.25      0.00
   -5    6   14     -0.09      0.00
   -5    6   13     -2.75      0.00
   -5    6   12     -0.22      0.00
   -5    6   11     -0.30      0.00
   -5    6   10      0.09      0.00
   -5    6    9      1.81      0.00
   -5    6    8      1.23      0.00
   -5    6    7      3.22      0.00
   -5    6    6      1.32      0.00
   -5    6    5     -2.50      0.00
   -5    6    4      2.74      0.00
   -5    6    3     -3.54      0.00
   -5    6    2      8.61      0.00
   -5    6    1     -6.98      0.00
   -5    6    0      4.66      0.00
    5   -6    1     -7.48      0.00
    5   -6    2      5.82      0.00
    5   -6    3      0.74      0.00
    5   -6    4     -5.66      0.00
    5   -6    5     -0.65      0.00
    5   -6    6     -4.13      0.00
    5   -6    7      3.11      0.00
    5   -6    8     -0.91      0.00
    5   -6    9      0.34      0.00
    5   -6   10     -0.14      0.00
    5   -6   11      1.37      0.00
    5   -6   12     -0.87      0.00
    5   -6   13      2.32      0.00
    5   -6   14     -1.96      0.00
    5   -6   15      0.01      0.00
    5   -6   16     -0.89      0.00
    5   -6   17      0.77      0.00
    5   -6   18      1.20      0.00
    5   -6   19      0.68      0.00
    5   -6   20     -1.04      0.00
    5   -6   21     -0.04      0.00
    5   -6   22     -1.17      0.00
    5   -6   23     -0.14      0.00
    5   -6   24      0.44      0.00
    5   -6   25     -2.25      0.00
    5   -6   26      0.83      0.00
   -5    5   24      2.19      0.00
   -5    5   23      1.04      0.00
   -5    5   22      1.64      0.00
   -5    5   21     -1.21      0.00
   -5    5   20     -0.39      0.00
   -5    5   19     -0.29      0.00
   -5    5   18      2.25      0.00
   -5    5   17      0.38      0.00
   -5    5   16     -0.12      0.00
   -5    5   15     -0.23      0.00
   -5    5   14     -0.44      0.00
   -5    5   13      1.01      0.00
   -5    5   12     -1.22      0.00
   -5    5   11     -0.36      0.00
   -5    5   10     -1.30      0.00
   -5    5    9     -1.46      0.00
   -5    5    8     -0.48      0.00
   -5    5    7     -0.23      0.00
   -5    5    6      2.59      0.00
   -5    5    5      3.92      0.00
   -5    5    4     -1.81      0.00
   -5    5    3      6.64      0.00
   -5    5    2     -4.94      0.00
   -5    5    1      9.80      0.00
   -5    5    0     -6.44      0.00
    5   -5    1     -1.62      0.00
    5   -5    2     -3.92      0.00
    5   -5    3     -2.23      0.00
    5   -5    4      9.82      0.00
    5   -5    5     -3.73      0.00
    5   -5    6      1.63      0.00
    5   -5    7     -5.40      0.00
    5   -5    8      0.57      0.00
    5   -5    9      0.48      0.00
    5   -5   10     -0.14      0.00
    5   -5   11     -0.03      0.00
    5   -5   12      0.76      0.00
    5   -5   13      0.43      0.00
    5   -5   14      1.09      0.00
    5   -5   15      0.50      0.00
    5   -5   16     -0.54      0.00
    5   -5   17     -1.45      0.00
    5   -5   18     -0.71      0.00
    5   -5   19     -0.46      0.00
    5   -5   20      0.92      0.00
    5   -5   21     -0.08      0.00
    5   -5   22     -0.28      0.00
    5   -5   23      1.73      0.00
    5   -5   24      0.69      0.00
    5   -5   25      0.07      0.00
    5   -5   26      1.44      0.00
   -5    4   24     -1.47      0.00
   -5    4   23     -0.60      0.00
   -5    4   22      1.69      0.00
   -5    4   21      0.97      0.00
   -5    4   20      0.57      0.00
   -5    4   19      0.27      0.00
   -5    4   18     -1.05      0.00
   -5    4   17      0.99      0.00
   -5    4   16      0.59      0.00
   -5    4   15      0.83      0.00
   -5    4   14     -0.13      0.00
   -5    4   13     -1.09      0.00
   -5    4   12     -0.24      0.00
   -5    4   11     -2.37      0.00
   -5    4   10      0.12      0.00
   -5    4    9     -0.83      0.00
   -5    4    8     -3.15      0.00
   -5    4    7     -0.10      0.00
   -5    4    6     -0.78      0.00
   -5    4    5      1.27      0.00
   -5    4    4      1.65      0.00
   -5    4    3     -3.41      0.00
   -5    4    2      1.86      0.00
   -5    4    1      2.24      0.00
   -5    4    0      8.81      0.00
    5   -4    1      5.83      0.00
    5   -4    2     -2.44      0.00
    5   -4    3     -2.96      0.00
    5   -4    4     -6.71      0.00
    5   -4    5      1.63      0.00
    5   -4    6      0.44      0.00
    5   -4    7      2.38      0.00
    5   -4    8     -2.42      0.00
    5   -4    9     -0.35      0.00
    5   -4   10     -0.53      0.00
    5   -4   11     -0.98      0.00
    5   -4   12      0.70      0.00
    5   -4   13     -0.78      0.00
    5   -4   14      0.90      0.00
    5   -4   15      1.03      0.00
    5   -4   16      0.97      0.00
    5   -4   17      2.44      0.00
    5   -4   18     -0.74      0.00
    5   -4   19      0.88      0.00
    5   -4   20     -0.76      0.00
    5   -4   21     -0.78      0.00
    5   -4   22      0.31      0.00
    5   -4   23     -1.20      0.00
    5   -4   24     -1.34      0.00
    5   -4   25      1.49      0.00
    5   -4   26     -0.73      0.00
   -5    3   25      0.22      0.00
   -5    3   24     -1.21      0.00
   -5    3   23      0.09      0.00
   -5    3   22     -2.40      0.00
   -5    3   21      0.78      0.00
   -5    3   20      0.83      0.00
   -5    3   19      0.59      0.00
   -5    3   18      0.76      0.00
   -5    3   17      0.58      0.00
   -5    3   16      0.50      0.00
   -5    3   15     -1.48      0.00
   -5    3   14     -0.20      0.00
   -5    3   13      1.32      0.00
   -5    3   12      0.66      0.00
   -5    3   11     -0.73      0.00
   -5    3   10     -1.02      0.00
   -5    3    9      1.13      0.00
   -5    3    8      1.42      0.00
   -5    3    7     -5.14      0.00
   -5    3    6     -2.37      0.00
   -5    3    5     -3.71      0.00
   -5    3    4      6.62      0.00
   -5    3    3     -1.13      0.00
   -5    3    2      1.58      0.00
   -5    3    1     -6.78      0.00
   -5    3    0     -0.69      0.00
    5   -3    1      7.63      0.00
    5   -3    2      0.37      0.00
    5   -3    3      9.50      0.00
    5   -3    4     -0.38      0.00
    5   -3    5      0.96      0.00
    5   -3    6     -3.03      0.00
    5   -3    7     -4.60      0.00
    5   -3    8      0.80      0.00
    5   -3    9     -0.82      0.00
    5   -3   10      0.34      0.00
    5   -3   11     -0.22      0.00
    5   -3   12     -1.78      0.00
    5   -3   13      0.76      0.00
    5   -3   14     -0.99      0.00
    5   -3   15     -1.72      0.00
    5   -3   16      0.65      0.00
    5   -3   17     -1.09      0.00
    5   -3   18      1.67      0.00
    5   -3   19      0.99      0.00
    5   -3   20      0.92      0.00
    5   -3   21      0.91      0.00
    5   -3   22     -0.06      0.00
    5   -3   23      1.56      0.00
    5   -3   24     -1.48      0.00
    5   -3   25      0.43      0.00
    5   -3   26     -1.02      0.00
   -5    2   25     -1.09      0.00
   -5    2   23     -0.07      0.00
   -5    2   22     -0.27      0.00
   -5    2   21     -1.96      0.00
   -5    2   20      0.27      0.00
   -5    2   19      0.19      0.00
   -5    2   18     -0.90      0.00
   -5    2   17      0.21      0.00
   -5    2   16      2.52      0.00
   -5    2   15      3.35      0.00
   -5    2   14      0.44      0.00
   -5    2   13     -0.20      0.00
   -5    2   12     -0.43      0.00
   -5    2   11      2.35      0.00
   -5    2   10     -2.57      0.00
   -5    2    9     -4.75      0.00
   -5    2    8     -0.19      0.00
   -5    2    7      5.77      0.00
   -5    2    6     -2.80      0.00
   -5    2    5     -0.92      0.00
   -5    2    4     -9.79      0.00
   -5    2    3      9.17      0.00
   -5    2    2     -0.75      0.00
   -5    2    1     -4.13      0.00
   -5    2    0      0.50      0.00
    5   -2    1    -10.22      0.00
    5   -2    2     13.64      0.00
    5   -2    3     -7.72      0.00
    5   -2    4      2.88      0.00
    5   -2    5      2.43      0.00
    5   -2    6      7.63      0.00
    5   -2    7      4.33      0.00
    5   -2    8     -2.76      0.00
    5   -2    9     -2.85      0.00
    5   -2   10     -0.29      0.00
    5   -2   11     -0.91      0.00
    5   -2   12     -1.24      0.00
    5   -2   13     -0.73      0.00
    5   -2   14      0.00      0.00
    5   -2   15      1.20      0.00
    5   -2   16     -0.51      0.00
    5   -2   17     -1.34      0.00
    5   -2   18     -0.48      0.00
    5   -2   19     -1.06      0.00
    5   -2   20     -0.23      0.00
    5   -2   21     -1.24      0.00
    5   -2   22      1.25      0.00
    5   -2   23     -0.68      0.00
    5   -2   24      2.44      0.00
    5   -2   25     -0.99      0.00
   -5    1   25     -0.23      0.00
   -5    1   24     -1.54      0.00
   -5    1   23      1.00      0.00
   -5    1   22      0.98      0.00
   -5    1   21     -0.32      0.00
   -5    1   20     -1.58      0.00
   -5    1   19      1.49      0.00
   -5    1   18      1.03      0.00
   -5    1   17     -1.25      0.00
   -5    1   16     -2.74      0.00
   -5    1   15     -0.68      0.00
   -5    1   14      2.98      0.00
   -5    1   13      0.03      0.00
   -5    1   12      2.12      0.00
   -5    1   11      0.48      0.00
   -5    1   10      4.92      0.00
   -5    1    9      2.31      0.00
   -5    1    8     -4.24      0.00
   -5    1    7     -4.94      0.00
   -5    1    6      3.63      0.00
   -5    1    5     -2.83      0.00
   -5    1    4     -2.63      0.00
   -5    1    3     -8.79      0.00
   -5    1    2      4.92      0.00
   -5    1    1     15.48      0.00
   -5    1    0     -5.76      0.00
    5   -1    1     -3.64      0.00
    5   -1    2     -9.78      0.00
    5   -1    3      9.44      0.00
    5   -1    4     -1.10      0.00
    5   -1    5     -3.49      0.00
    5   -1    6     -8.59      0.00
    5   -1    7      5.16      0.00
    5   -1    8      4.26      0.00
    5   -1    9      1.59      0.00
    5   -1   10      0.31      0.00
    5   -1   11      0.49      0.00
    5   -1   12      1.91      0.00
    5   -1   13     -1.55      0.00
    5   -1   14     -1.51      0.00
    5   -1   15     -1.24      0.00
    5   -1   16     -0.42      0.00
    5   -1   17      1.95      0.00
    5   -1   18     -0.99      0.00
    5   -1   19      0.94      0.00
    5   -1   20      0.64      0.00
    5   -1   21     -0.07      0.00
    5   -1   22     -0.71      0.00
    5   -1   23     -1.64      0.00
    5   -1   24      0.55      0.00
    5   -1   25      0.59      0.00
   -5    0   26      0.60      0.00
   -5    0   25      0.69      0.00
   -5    0   23     -1.26      0.00
   -5    0   22      0.67      0.00
   -5    0   21      0.15      0.00
   -5    0   20     -0.85      0.00
   -5    0   19     -3.13      0.00
   -5    0   18      0.50      0.00
   -5    0   17      1.85      0.00
   -5    0   16      0.51      0.00
   -5    0   15     -0.72      0.00
   -5    0   14     -1.41      0.00
   -5    0   13      1.25      0.00
   -5    0   12     -0.83      0.00
   -5    0   11      0.90      0.00
   -5    0   10     -0.80      0.00
   -5    0    9      3.09      0.00
   -5    0    8      4.16      0.00
   -5    0    7      1.45      0.00
   -5    0    6     -0.04      0.00
   -5    0    5      4.44      0.00
   -5    0    4      5.99      0.00
   -5    0    3     -9.12      0.00
   -5    0    2    -16.87      0.00
   -5    0    1     -6.76      0.00
    5    0    0      8.34      0.00
    5    0    1     12.60      0.00
    5    0    2     -2.56      0.00
    5    0    3    -10.02      0.00
    5    0    4      8.20      0.00
    5    0    5      1.21      0.00
    5    0    6      5.96      0.00
    5    0    7     -6.74      0.00
    5    0    8     -1.83      0.00
    5    0    9      3.86      0.00
    5    0   10     -1.78      0.00
    5    0   11     -0.40      0.00
    5    0   12     -0.63      0.00
    5    0   13      2.90      0.00
    5    0   14      1.77      0.00
    5    0   15     -0.65      0.00
    5    0   16     -0.52      0.00
    5    0   17     -1.97      0.00
    5    0   18      0.71      0.00
    5    0   19     -0.72      0.00
    5    0   20     -0.65      0.00
    5    0   21      1.45      0.00
    5    0   22     -0.48      0.00
    5    0   23      1.89      0.00
    5    0   24     -2.39      0.00
    5    0   25     -0.47      0.00
   -5   -1   26     -0.22      0.00
   -5   -1   25      1.02      0.00
   -5   -1   24     -0.56      0.00
   -5   -1   23      0.13      0.00
   -5   -1   22     -1.37      0.00
   -5   -1   21      0.52      0.00
   -5   -1   20      0.62      0.00
   -5   -1   19     -0.79      0.00
   -5   -1   18     -2.78      0.00
   -5   -1   17     -0.49      0.00
   -5   -1   16     -1.29      0.00
   -5   -1   15      0.74      0.00
   -5   -1   14     -0.23      0.00
   -5   -1   13      0.19      0.00
   -5   -1   12      0.66      0.00
   -5   -1   11     -0.71      0.00
   -5   -1   10      2.45      0.00
   -5   -1    9     -0.45      0.00
   -5   -1    8      0.74      0.00
   -5   -1    7      1.80      0.00
   -5   -1    6     -5.58      0.00
   -5   -1    5      0.75      0.00
   -5   -1    4      1.10      0.00
   -5   -1    3     15.59      0.00
   -5   -1    2     11.64      0.00
   -5   -1    1    -14.36      0.00
    5    1    0     -9.71      0.00
    5    1    1     -6.77      0.00
    5    1    2      2.14      0.00
    5    1    3      6.29      0.00
    5    1    4     -8.45      0.00
    5    1    5      0.17      0.00
    5    1    6      1.08      0.00
    5    1    7      2.04      0.00
    5    1    8      1.39      0.00
    5    1    9     -2.65      0.00
    5    1   10      3.26      0.00
    5    1   11      0.57      0.00
    5    1   12     -1.30      0.00
    5    1   13     -3.26      0.00
    5    1   14      0.41      0.00
    5    1   15      2.82      0.00
    5    1   16     -0.32      0.00
    5    1   17      0.78      0.00
    5    1   18     -1.14      0.00
    5    1   19      0.28      0.00
    5    1   20     -0.19      0.00
    5    1   21     -1.32      0.00
    5    1   22     -0.27      0.00
    5    1   23     -0.24      0.00
    5    1   24      1.65      0.00
   -5   -2   26      0.81      0.00
   -5   -2   25     -1.35      0.00
   -5   -2   24      1.47      0.00
   -5   -2   23      0.44      0.00
   -5   -2   22      0.49      0.00
   -5   -2   21     -0.04      0.00
   -5   -2   20      0.91      0.00
   -5   -2   19      0.09      0.00
   -5   -2   18      0.21      0.00
   -5   -2   17     -1.68      0.00
   -5   -2   16      0.41      0.00
   -5   -2   15     -1.99      0.00
   -5   -2   14     -0.88      0.00
   -5   -2   13     -1.11      0.00
   -5   -2   12     -0.36      0.00
   -5   -2   11     -0.56      0.00
   -5   -2   10     -2.63      0.00
   -5   -2    9      0.28      0.00
   -5   -2    8      3.11      0.00
   -5   -2    7      0.28      0.00
   -5   -2    6      8.88      0.00
   -5   -2    5     -5.32      0.00
   -5   -2    4     -5.07      0.00
   -5   -2    3     -5.72      0.00
   -5   -2    2     -0.43      0.00
   -5   -2    1     12.95      0.00
    5    2    0      4.45      0.00
    5    2    1     -3.72      0.00
    5    2    2     -2.42      0.00
    5    2    3     -2.55      0.00
    5    2    4     -1.19      0.00
    5    2    5      1.29      0.00
    5    2    6     -3.12      0.00
    5    2    7      0.32      0.00
    5    2    8     -0.08      0.00
    5    2    9      0.23      0.00
    5    2   10     -0.69      0.00
    5    2   11      1.95      0.00
    5    2   12      2.60      0.00
    5    2   13      0.37      0.00
    5    2   14     -1.74      0.00
    5    2   15     -1.07      0.00
    5    2   16      1.39      0.00
    5    2   17      0.24      0.00
    5    2   18      0.65      0.00
    5    2   19     -0.69      0.00
    5    2   20      1.35      0.00
    5    2   21      0.85      0.00
    5    2   22      0.68      0.00
    5    2   23     -1.52      0.00
    5    2   24     -0.51      0.00
   -5   -3   26     -0.81      0.00
   -5   -3   25      0.98      0.00
   -5   -3   24     -0.86      0.00
   -5   -3   23     -0.73      0.00
   -5   -3   22     -0.44      0.00
   -5   -3   21      0.64      0.00
   -5   -3   20     -0.11      0.00
   -5   -3   19      1.31      0.00
   -5   -3   18      0.93      0.00
   -5   -3   17     -1.55      0.00
   -5   -3   16     -0.17      0.00
   -5   -3   15      0.46      0.00
   -5   -3   14     -2.41      0.00
   -5   -3   13      0.83      0.00
   -5   -3   12     -1.48      0.00
   -5   -3   11      0.53      0.00
   -5   -3   10     -0.07      0.00
   -5   -3    9     -0.26      0.00
   -5   -3    8     -4.75      0.00
   -5   -3    7      1.45      0.00
   -5   -3    6     -1.84      0.00
   -5   -3    5      5.56      0.00
   -5   -3    4      4.40      0.00
   -5   -3    3      1.33      0.00
   -5   -3    2     -1.39      0.00
   -5   -3    1     -1.30      0.00
    5    3    0     -1.49      0.00
    5    3    1      1.57      0.00
    5    3    2      2.81      0.00
    5    3    3     -2.76      0.00
    5    3    4      1.11      0.00
    5    3    5     -3.22      0.00
    5    3    6     -0.79      0.00
    5    3    7      0.45      0.00
    5    3    8     -1.19      0.00
    5    3    9     -0.26      0.00
    5    3   10     -1.40      0.00
    5    3   11      0.22      0.00
    5    3   12     -0.44      0.00
    5    3   13      1.55      0.00
    5    3   14      1.92      0.00
    5    3   15     -1.15      0.00
    5    3   16      0.04      0.00
    5    3   17      0.04      0.00
    5    3   18      1.02      0.00
    5    3   19     -0.58      0.00
    5    3   20     -1.62      0.00
    5    3   21      0.71      0.00
    5    3   22     -0.13      0.00
    5    3   23      1.66      0.00
   -5   -4   26     -0.48      0.00
   -5   -4   25     -0.26      0.00
   -5   -4   24      1.84      0.00
   -5   -4   23      0.58      0.00
   -5   -4   22      0.62      0.00
   -5   -4   21     -0.71      0.00
   -5   -4   20     -0.31      0.00
   -5   -4   19      1.24      0.00
   -5   -4   18      0.43      0.00
   -5   -4   17      1.39      0.00
   -5   -4   16      1.73      0.00
   -5   -4   15     -1.32      0.00
   -5   -4   14      1.55      0.00
   -5   -4   13     -2.13      0.00
   -5   -4   12      0.54      0.00
   -5   -4   11     -3.25      0.00
   -5   -4   10      0.20      0.00
   -5   -4    9     -1.39      0.00
   -5   -4    8      0.44      0.00
   -5   -4    7     -0.64      0.00
   -5   -4    6     -1.64      0.00
   -5   -4    5      0.65      0.00
   -5   -4    4     -0.60      0.00
   -5   -4    3     -1.39      0.00
   -5   -4    2      1.77      0.00
   -5   -4    1     -0.19      0.00
    5    4    0      2.52      0.00
    5    4    1      2.35      0.00
    5    4    2     -2.43      0.00
    5    4    3      3.23      0.00
    5    4    4      1.12      0.00
    5    4    5     -0.76      0.00
    5    4    6     -0.18      0.00
    5    4    7     -1.77      0.00
    5    4    8      1.12      0.00
    5    4    9     -0.55      0.00
    5    4   10     -0.19      0.00
    5    4   11     -2.03      0.00
    5    4   12     -0.04      0.00
    5    4   13     -0.25      0.00
    5    4   14     -2.08      0.00
    5    4   15      2.00      0.00
    5    4   16     -0.92      0.00
    5    4   17      0.37      0.00
    5    4   18     -1.01      0.00
    5    4   19      2.58      0.00
    5    4   20      0.02      0.00
   -5   -5   25      0.16      0.00
   -5   -5   24     -2.04      0.00
   -5   -5   23      0.18      0.00
   -5   -5   22      0.71      0.00
   -5   -5   21      0.53      0.00
   -5   -5   20      0.25      0.00
   -5   -5   19      0.56      0.00
   -5   -5   18     -0.54      0.00
   -5   -5   17      0.84      0.00
   -5   -5   16     -0.46      0.00
   -5   -5   15      1.45      0.00
   -5   -5   14     -0.18      0.00
   -5   -5   13      1.09      0.00
   -5   -5   12     -1.29      0.00
   -5   -5   11      2.42      0.00
   -5   -5   10     -1.39      0.00
   -5   -5    9     -0.88      0.00
   -5   -5    8      1.05      0.00
   -5   -5    7     -4.76      0.00
   -5   -5    6      1.27      0.00
   -5   -5    5     -3.55      0.00
   -5   -5    4      0.83      0.00
   -5   -5    3      3.30      0.00
   -5   -5    2      0.37      0.00
   -5   -5    1      0.44      0.00
    5    5    0      0.22      0.00
    5    5    1      0.27      0.00
    5    5    2      1.56      0.00
    5    5    3     -0.67      0.00
    5    5    4      0.74      0.00
    5    5    5      1.91      0.00
    5    5    6      0.37      0.00
    5    5    7      0.17      0.00
    5    5    8     -1.89      0.00
    5    5    9      0.72      0.00
    5    5   10      0.71      0.00
    5    5   11     -0.22      0.00
    5    5   12      0.63      0.00
    5    5   13     -0.43      0.00
    5    5   14      0.85      0.00
    5    5   15     -1.37      0.00
    5    5   16      0.85      0.00
    5    5   17     -1.25      0.00
    5    5   18      0.34      0.00
    5    5   19     -2.18      0.00
   -5   -6   25     -0.13      0.00
   -5   -6   24      0.42      0.00
   -5   -6   23     -0.01      0.00
   -5   -6   22     -0.93      0.00
   -5   -6   21     -1.56      0.00
   -5   -6   20      0.18      0.00
   -5   -6   19     -0.51      0.00
   -5   -6   18      0.96      0.00
   -5   -6   17      0.39      0.00
   -5   -6   16     -0.29      0.00
   -5   -6   15      1.14      0.00
   -5   -6   14      1.51      0.00
   -5   -6   13     -0.61      0.00
   -5   -6   12      1.70      0.00
   -5   -6   11     -1.03      0.00
   -5   -6   10     -1.65      0.00
   -5   -6    9      1.83      0.00
   -5   -6    8     -2.47      0.00
   -5   -6    7      3.03      0.00
   -5   -6    6     -2.56      0.00
   -5   -6    5      0.86      0.00
   -5   -6    4     -3.05      0.00
   -5   -6    3     -3.04      0.00
   -5   -6    2     -1.62      0.00
   -5   -6    1      0.55      0.00
    5    6    0      1.01      0.00
    5    6    1      0.46      0.00
    5    6    2      0.90      0.00
    5    6    3      1.30      0.00
    5    6    4      0.36      0.00
    5    6    5      0.24      0.00
    5    6    6      0.47      0.00
    5    6    7      1.28      0.00
    5    6    8      1.69      0.00
    5    6    9     -0.32      0.00
    5    6   10     -1.27      0.00
    5    6   11      0.85      0.00
    5    6   12     -0.43      0.00
    5    6   13      1.05      0.00
    5    6   14     -0.44      0.00
    5    6   15     -0.19      0.00
    5    6   16     -0.34      0.00
    5    6   17      0.31      0.00
    5    6   18      0.20      0.00
    5    6   19      1.34      0.00
    5    6   20     -1.46      0.00
    5    6   21      1.09      0.00
   -5   -7   25     -0.05      0.00
   -5   -7   24      0.44      0.00
   -5   -7   23     -0.02      0.00
   -5   -7   22      0.78      0.00
   -5   -7   21      1.73      0.00
   -5   -7   20     -1.84      0.00
   -5   -7   19     -0.77      0.00
   -5   -7   18      0.38      0.00
   -5   -7   17      0.54      0.00
   -5   -7   16      0.37      0.00
   -5   -7   15     -0.18      0.00
   -5   -7   14     -0.16      0.00
   -5   -7   13      1.13      0.00
   -5   -7   12      1.87      0.00
   -5   -7   11      0.66      0.00
   -5   -7   10      2.39      0.00
   -5   -7    9     -1.09      0.00
   -5   -7    8      1.13      0.00
   -5   -7    7     -0.74      0.00
   -5   -7    6     -0.34      0.00
   -5   -7    5     -0.29      0.00
   -5   -7    4      2.05      0.00
   -5   -7    3     -0.23      0.00
   -5   -7    2      0.49      0.00
   -5   -7    1     -2.94      0.00
    5    7    0     -1.76      0.00
    5    7    1     -0.05      0.00
    5    7    2     -0.47      0.00
    5    7    3     -1.09      0.00
    5    7    4      0.73      0.00
    5    7    5      1.21      0.00
    5    7    6      0.37      0.00
    5    7    7     -1.52      0.00
    5    7    8      0.27      0.00
    5    7    9      0.93      0.00
    5    7   10      0.96      0.00
    5    7   11     -1.26      0.00
    5    7   12     -0.49      0.00
    5    7   13     -0.14      0.00
    5    7   14      1.52      0.00
    5    7   15      0.91      0.00
    5    7   16      0.43      0.00
    5    7   17     -1.22      0.00
    5    7   18     -0.41      0.00
    5    7   19     -0.85      0.00
    5    7   20      1.24      0.00
   -5   -8   24     -0.17      0.00
   -5   -8   23      0.06      0.00
   -5   -8   22     -0.51      0.00
   -5   -8   21      0.23      0.00
   -5   -8   20      2.08      0.00
   -5   -8   19     -0.44      0.00
   -5   -8   18     -1.48      0.00
   -5   -8   17     -0.82      0.00
   -5   -8   16      0.33      0.00
   -5   -8   15      1.05      0.00
   -5   -8   14     -1.07      0.00
   -5   -8   13      0.54      0.00
   -5   -8   12     -0.88      0.00
   -5   -8   11      1.72      0.00
   -5   -8   10      0.15      0.00
   -5   -8    9     -0.18      0.00
   -5   -8    8      1.52      0.00
   -5   -8    7      0.77      0.00
   -5   -8    6      0.61      0.00
   -5   -8    5     -0.70      0.00
   -5   -8    4     -2.44      0.00
   -5   -8    3      1.02      0.00
   -5   -8    2     -0.69      0.00
   -5   -8    1      1.38      0.00
    5    8    0     -0.82      0.00
    5    8    1     -0.09      0.00
    5    8    2     -0.52      0.00
    5    8    3     -0.15      0.00
    5    8    4     -1.41      0.00
    5    8    5     -0.66      0.00
    5    8    6      0.17      0.00
    5    8    7      0.90      0.00
    5    8    8     -0.61      0.00
    5    8    9     -1.07      0.00
    5    8   10      0.09      0.00
    5    8   11      0.78      0.00
    5    8   12     -1.08      0.00
    5    8   13     -0.94      0.00
    5    8   14     -2.51      0.00
    5    8   15      0.35      0.00
    5    8   16      0.77      0.00
    5    8   17      1.93      0.00
    5    8   18     -0.31      0.00
   -5   -9   24      0.41      0.00
   -5   -9   23     -1.07      0.00
   -5   -9   22      0.55      0.00
   -5   -9   21     -1.33      0.00
   -5   -9   20     -0.56      0.00
   -5   -9   19     -0.30      0.00
   -5   -9   18      1.07      0.00
   -5   -9   17     -1.30      0.00
   -5   -9   16     -0.68      0.00
   -5   -9   15     -0.52      0.00
   -5   -9   14      1.20      0.00
   -5   -9   13     -1.53      0.00
   -5   -9   12     -0.05      0.00
   -5   -9   11      0.90      0.00
   -5   -9   10      1.02      0.00
   -5   -9    9      1.79      0.00
   -5   -9    8     -0.83      0.00
   -5   -9    7      0.34      0.00
   -5   -9    6      1.80      0.00
   -5   -9    5      0.70      0.00
   -5   -9    4      0.84      0.00
   -5   -9    3     -0.72      0.00
   -5   -9    2      0.30      0.00
   -5   -9    1     -0.85      0.00
    5    9    0      0.04      0.00
    5    9    1     -1.06      0.00
    5    9    2     -0.08      0.00
    5    9    3      0.29      0.00
    5    9    4     -0.40      0.00
    5    9    5      0.40      0.00
    5    9    6     -0.69      0.00
    5    9    7      0.26      0.00
    5    9    8      0.30      0.00
    5    9    9      0.60      0.00
    5    9   10      0.55      0.00
    5    9   11     -0.55      0.00
    5    9   12      1.71      0.00
    5    9   13      0.99      0.00
    5    9   14      0.04      0.00
    5    9   15     -1.75      0.00
    5    9   16     -0.66      0.00
    5    9   17      0.20      0.00
   -5  -10   23      0.64      0.00
   -5  -10   22     -1.94      0.00
   -5  -10   21      1.22      0.00
   -5  -10   20     -0.04      0.00
   -5  -10   19      0.69      0.00
   -5  -10   18     -2.02      0.00
   -5  -10   17      0.50      0.00
   -5  -10   16     -1.04      0.00
   -5  -10   15     -1.70      0.00
   -5  -10   14      0.02      0.00
   -5  -10   13     -0.40      0.00
   -5  -10   12     -0.44      0.00
   -5  -10   11     -2.82      0.00
   -5  -10   10     -0.17      0.00
   -5  -10    9     -0.22      0.00
   -5  -10    8      0.97      0.00
   -5  -10    7     -0.13      0.00
   -5  -10    6      0.89      0.00
   -5  -10    5      0.75      0.00
   -5  -10    4      0.82      0.00
   -5  -10    3     -0.14      0.00
   -5  -10    2      0.18      0.00
   -5  -10    1      0.81      0.00
    5   10    0      0.34      0.00
    5   10    1     -0.11      0.00
    5   10    2      0.54      0.00
    5   10    3     -1.43      0.00
    5   10    4      0.79      0.00
    5   10    5     -1.08      0.00
    5   10    6     -0.17      0.00
    5   10    7      0.23      0.00
    5   10    8     -0.89      0.00
    5   10    9      0.16      0.00
    5   10   10      0.49      0.00
    5   10   11      0.12      0.00
    5   10   12     -0.32      0.00
    5   10   13      0.38      0.00
    5   10   14      1.79      0.00
    5   10   15     -0.31      0.00
    5   10   16     -0.30      0.00
   -5  -11   22      1.71      0.00
   -5  -11   21     -2.04      0.00
   -5  -11   20      0.07      0.00
   -5  -11   19      1.42      0.00
   -5  -11   18      1.71      0.00
   -5  -11   17     -1.08      0.00
   -5  -11   16      0.30      0.00
   -5  -11   15      1.93      0.00
   -5  -11   14     -2.62      0.00
   -5  -11   13      0.21      0.00
   -5  -11   12     -0.11      0.00
   -5  -11   11      0.67      0.00
   -5  -11   10     -1.80      0.00
   -5  -11    9     -0.38      0.00
   -5  -11    8     -0.60      0.00
   -5  -11    7      0.14      0.00
   -5  -11    6     -2.48      0.00
   -5  -11    5      2.11      0.00
   -5  -11    4      0.11      0.00
   -5  -11    3      0.68      0.00
   -5  -11    2      0.15      0.00
   -5  -11    1     -0.77      0.00
    5   11    0     -0.25      0.00
    5   11    1      0.80      0.00
    5   11    2     -1.16      0.00
    5   11    3      0.46      0.00
    5   11    4      0.35      0.00
    5   11    5     -0.22      0.00
    5   11    6     -0.34      0.00
    5   11    7     -0.42      0.00
    5   11    8     -0.02      0.00
    5   11    9     -1.10      0.00
    5   11   10     -0.92      0.00
    5   11   11      0.60      0.00
    5   11   12     -0.82      0.00
    5   11   13     -0.01      0.00
    5   11   14      0.26      0.00
   -5  -12   21      0.70      0.00
   -5  -12   20     -0.71      0.00
   -5  -12   19     -1.46      0.00
   -5  -12   18      1.74      0.00
   -5  -12   17      0.95      0.00
   -5  -12   16     -0.81      0.00
   -5  -12   15     -0.39      0.00
   -5  -12   14      1.45      0.00
   -5  -12   13     -0.45      0.00
   -5  -12   12     -1.54      0.00
   -5  -12   11      1.15      0.00
   -5  -12   10      0.43      0.00
   -5  -12    9     -1.75      0.00
   -5  -12    8      0.00      0.00
   -5  -12    7     -0.76      0.00
   -5  -12    6      0.64      0.00
   -5  -12    5     -3.22      0.00
   -5  -12    4      0.93      0.00
   -5  -12    3      0.46      0.00
   -5  -12    2      0.79      0.00
   -5  -12    1      0.35      0.00
    5   12    0     -0.12      0.00
    5   12    1      0.47      0.00
    5   12    2     -0.07      0.00
    5   12    3     -0.29      0.00
    5   12    4     -0.75      0.00
    5   12    5      0.10      0.00
    5   12    6      1.62      0.00
    5   12    7     -0.32      0.00
    5   12    8      0.46      0.00
    5   12    9      1.17      0.00
    5   12   10     -0.73      0.00
    5   12   11     -1.17      0.00
    5   12   12      0.52      0.00
   -5  -13   19     -0.20      0.00
   -5  -13   18     -0.77      0.00
   -5  -13   17      0.53      0.00
   -5  -13   16      2.10      0.00
   -5  -13   15     -1.19      0.00
   -5  -13   14      3.08      0.00
   -5  -13   13     -0.82      0.00
   -5  -13   12     -0.33      0.00
   -5  -13   11     -1.76      0.00
   -5  -13   10      1.25      0.00
   -5  -13    9      0.78      0.00
   -5  -13    8     -0.56      0.00
   -5  -13    7      0.10      0.00
   -5  -13    6      0.24      0.00
   -5  -13    5      0.85      0.00
   -5  -13    4     -2.49      0.00
   -5  -13    3      0.04      0.00
   -5  -13    2     -0.08      0.00
   -5  -13    1      0.58      0.00
    5   13    0      0.44      0.00
    5   13    1     -0.26      0.00
    5   13    2      1.50      0.00
    5   13    3      1.21      0.00
    5   13    4     -0.77      0.00
    5   13    5      1.29      0.00
    5   13    6     -1.79      0.00
    5   13    7     -0.38      0.00
    5   13    8      0.68      0.00
    5   13    9      0.39      0.00
    5   13   10      0.54      0.00
   -5  -14   17      1.08      0.00
   -5  -14   16     -2.95      0.00
   -5  -14   15      1.36      0.00
   -5  -14   14     -1.63      0.00
   -5  -14   13      4.24      0.00
   -5  -14   12      1.26      0.00
   -5  -14   11      0.22      0.00
   -5  -14   10     -1.61      0.00
   -5  -14    9      0.50      0.00
   -5  -14    8      0.93      0.00
   -5  -14    7     -0.40      0.00
   -5  -14    6      0.17      0.00
   -5  -14    5      0.02      0.00
   -5  -14    4      1.97      0.00
   -5  -14    3     -1.10      0.00
   -5  -14    2     -0.35      0.00
   -5  -14    1      0.48      0.00
    5   14    0      0.74      0.00
    5   14    1     -0.39      0.00
    5   14    2      0.48      0.00
    5   14    3     -0.75      0.00
    5   14    4      0.80      0.00
    5   14    5     -0.69      0.00
    5   14    6      2.07      0.00
    5   14    7     -0.43      0.00
    5   14    8     -0.83      0.00
   -5  -15   15     -2.26      0.00
   -5  -15   14     -1.12      0.00
   -5  -15   13     -2.12      0.00
   -5  -15   12      0.98      0.00
   -5  -15   11      1.74      0.00
   -5  -15   10      0.08      0.00
   -5  -15    9      0.21      0.00
   -5  -15    8     -1.74      0.00
   -5  -15    7      1.30      0.00
   -5  -15    6     -0.90      0.00
   -5  -15    5     -0.15      0.00
   -5  -15    4     -0.67      0.00
   -5  -15    3      0.54      0.00
   -5  -15    2     -0.75      0.00
   -5  -15    1     -0.35      0.00
    5   15    0     -1.84      0.00
    5   15    1     -0.14      0.00
    5   15    2     -0.06      0.00
    5   15    3      0.55      0.00
    5   15    4     -0.47      0.00
    5   15    5      0.44      0.00
   -5  -16   11     -1.02      0.00
   -5  -16   10      1.48      0.00
   -5  -16    9     -0.64      0.00
   -5  -16    8      1.38      0.00
   -5  -16    7     -0.39      0.00
   -5  -16    6     -0.22      0.00
   -5  -16    5     -0.16      0.00
   -5  -16    4      0.34      0.00
   -5  -16    3     -1.11      0.00
   -5  -16    2      0.97      0.00
   -5  -16    1      0.01      0.00
    5   16    0      0.64      0.00
    5   16    1      0.19      0.00
   -6   19    2     -0.20      0.00
   -6   19    1      0.23      0.00
   -6   19    0      0.18      0.00
    6  -19    1      0.01      0.00
    6  -19    2     -1.11      0.00
    6  -19    3     -0.10      0.00
    6  -19    4     -0.54      0.00
    6  -19    5     -0.65      0.00
    6  -19    6      1.07      0.00
    6  -19    7      0.36      0.00
    6  -19    8     -1.51      0.00
    6  -19    9     -0.43      0.00
    6  -19   10     -0.85      0.00
    6  -19   11     -0.36      0.00
    6  -19   12      1.35      0.00
   -6   18    6     -0.21      0.00
   -6   18    5      0.95      0.00
   -6   18    4     -1.00      0.00
   -6   18    3     -0.32      0.00
   -6   18    2     -1.11      0.00
   -6   18    1     -0.68      0.00
   -6   18    0      0.71      0.00
    6  -18    1     -0.81      0.00
    6  -18    2      0.76      0.00
    6  -18    3      0.32      0.00
    6  -18    4      0.02      0.00
    6  -18    5     -0.12      0.00
    6  -18    6     -0.53      0.00
    6  -18    7      0.36      0.00
    6  -18    8      1.44      0.00
    6  -18    9      0.33      0.00
    6  -18   10     -0.46      0.00
    6  -18   11      0.01      0.00
    6  -18   12     -1.37      0.00
    6  -18   13     -0.42      0.00
    6  -18   14     -2.27      0.00
    6  -18   15      1.28      0.00
   -6   17    9     -0.75      0.00
   -6   17    8      2.17      0.00
   -6   17    7     -0.08      0.00
   -6   17    6      0.54      0.00
   -6   17    5      0.90      0.00
   -6   17    4      2.16      0.00
   -6   17    3      0.39      0.00
   -6   17    2     -0.08      0.00
   -6   17    1     -0.48      0.00
   -6   17    0     -1.32      0.00
    6  -17    1      0.14      0.00
    6  -17    2     -0.91      0.00
    6  -17    3     -0.08      0.00
    6  -17    4     -0.29      0.00
    6  -17    5      0.76      0.00
    6  -17    6      0.02      0.00
    6  -17    7     -0.31      0.00
    6  -17    8     -0.04      0.00
    6  -17    9      1.39      0.00
    6  -17   10     -0.24      0.00
    6  -17   11      0.07      0.00
    6  -17   12      0.82      0.00
    6  -17   13      0.36      0.00
    6  -17   14      0.72      0.00
    6  -17   15     -1.06      0.00
    6  -17   16     -0.71      0.00
    6  -17   17     -1.63      0.00
    6  -17   18      0.95      0.00
   -6   16   11      2.01      0.00
   -6   16   10     -1.72      0.00
   -6   16    9      0.21      0.00
   -6   16    8     -1.48      0.00
   -6   16    7      0.55      0.00
   -6   16    6     -1.04      0.00
   -6   16    5     -1.35      0.00
   -6   16    4     -0.04      0.00
   -6   16    3     -0.08      0.00
   -6   16    2      1.63      0.00
   -6   16    1      1.38      0.00
   -6   16    0      1.04      0.00
    6  -16    1     -0.41      0.00
    6  -16    2     -0.36      0.00
    6  -16    3     -0.87      0.00
    6  -16    4      0.21      0.00
    6  -16    5     -1.02      0.00
    6  -16    6      0.04      0.00
    6  -16    7     -0.16      0.00
    6  -16    8     -0.26      0.00
    6  -16    9     -0.66      0.00
    6  -16   10      1.12      0.00
    6  -16   11      1.01      0.00
    6  -16   12     -0.52      0.00
    6  -16   13     -1.23      0.00
    6  -16   14      0.09      0.00
    6  -16   15      0.50      0.00
    6  -16   16      0.42      0.00
    6  -16   17      0.50      0.00
    6  -16   18     -2.66      0.00
    6  -16   19      1.07      0.00
   -6   15   13     -1.15      0.00
   -6   15   12      1.19      0.00
   -6   15   11     -1.39      0.00
   -6   15   10      2.15      0.00
   -6   15    9     -0.90      0.00
   -6   15    8      0.61      0.00
   -6   15    7     -0.63      0.00
   -6   15    6      0.38      0.00
   -6   15    5      2.18      0.00
   -6   15    4     -0.19      0.00
   -6   15    3      0.39      0.00
   -6   15    2     -1.21      0.00
   -6   15    1     -1.64      0.00
   -6   15    0      0.65      0.00
    6  -15    1      0.78      0.00
    6  -15    2      0.38      0.00
    6  -15    3     -0.51      0.00
    6  -15    4     -0.36      0.00
    6  -15    5     -0.56      0.00
    6  -15    6     -0.42      0.00
    6  -15    7     -1.02      0.00
    6  -15    8      0.84      0.00
    6  -15    9     -1.78      0.00
    6  -15   10     -0.23      0.00
    6  -15   11     -0.59      0.00
    6  -15   12      2.19      0.00
    6  -15   13      1.84      0.00
    6  -15   14     -0.55      0.00
    6  -15   15     -0.37      0.00
    6  -15   16      0.97      0.00
    6  -15   17     -0.79      0.00
    6  -15   18      0.56      0.00
    6  -15   19      0.38      0.00
    6  -15   20      0.34      0.00
    6  -15   21      1.05      0.00
   -6   14   15      1.02      0.00
   -6   14   14     -0.19      0.00
   -6   14   13      0.47      0.00
   -6   14   12     -1.26      0.00
   -6   14   11      0.45      0.00
   -6   14   10     -1.07      0.00
   -6   14    9      0.70      0.00
   -6   14    8      0.90      0.00
   -6   14    7      0.57      0.00
   -6   14    6     -0.69      0.00
   -6   14    5     -1.63      0.00
   -6   14    4     -0.25      0.00
   -6   14    3      2.25      0.00
   -6   14    2      0.16      0.00
   -6   14    1      1.43      0.00
   -6   14    0     -1.08      0.00
    6  -14    1      1.08      0.00
    6  -14    2      0.03      0.00
    6  -14    3      0.81      0.00
    6  -14    4      0.03      0.00
    6  -14    5      0.97      0.00
    6  -14    6     -1.04      0.00
    6  -14    7      1.09      0.00
    6  -14    8     -1.51      0.00
    6  -14    9      2.76      0.00
    6  -14   10     -1.58      0.00
    6  -14   11     -0.47      0.00
    6  -14   12     -2.00      0.00
    6  -14   13      0.70      0.00
    6  -14   14      0.36      0.00
    6  -14   15      0.45      0.00
    6  -14   16      1.41      0.00
    6  -14   17      1.19      0.00
    6  -14   18      0.53      0.00
    6  -14   19     -2.36      0.00
    6  -14   20      1.56      0.00
    6  -14   21     -0.84      0.00
    6  -14   22      0.38      0.00
   -6   13   16      0.22      0.00
   -6   13   15     -0.15      0.00
   -6   13   14      1.04      0.00
   -6   13   13     -0.34      0.00
   -6   13   12     -0.13      0.00
   -6   13   11     -0.43      0.00
   -6   13   10     -0.92      0.00
   -6   13    9     -1.66      0.00
   -6   13    8     -1.09      0.00
   -6   13    7     -0.11      0.00
   -6   13    6      0.68      0.00
   -6   13    5     -0.89      0.00
   -6   13    4      0.64      0.00
   -6   13    3     -0.92      0.00
   -6   13    2      2.09      0.00
   -6   13    1     -0.51      0.00
   -6   13    0      1.72      0.00
    6  -13    1     -1.04      0.00
    6  -13    2      0.75      0.00
    6  -13    3      0.62      0.00
    6  -13    4      0.38      0.00
    6  -13    5     -0.17      0.00
    6  -13    6      1.67      0.00
    6  -13    7     -1.53      0.00
    6  -13    8      0.33      0.00
    6  -13    9     -1.97      0.00
    6  -13   10      2.12      0.00
    6  -13   11     -0.60      0.00
    6  -13   12      0.91      0.00
    6  -13   13     -0.72      0.00
    6  -13   14      0.04      0.00
    6  -13   15     -0.20      0.00
    6  -13   16     -2.27      0.00
    6  -13   17      0.67      0.00
    6  -13   18      0.09      0.00
    6  -13   19      1.14      0.00
    6  -13   20     -0.41      0.00
    6  -13   21      0.73      0.00
    6  -13   22      1.04      0.00
    6  -13   23     -0.76      0.00
   -6   12   17      0.59      0.00
   -6   12   16     -1.70      0.00
   -6   12   15      1.24      0.00
   -6   12   14      0.54      0.00
   -6   12   13      1.13      0.00
   -6   12   12      1.09      0.00
   -6   12   11      1.55      0.00
   -6   12   10      0.45      0.00
   -6   12    9     -1.23      0.00
   -6   12    8     -1.35      0.00
   -6   12    7      0.28      0.00
   -6   12    6     -0.21      0.00
   -6   12    5     -0.84      0.00
   -6   12    4     -2.60      0.00
   -6   12    3     -0.67      0.00
   -6   12    2     -2.31      0.00
   -6   12    1      1.57      0.00
   -6   12    0      0.17      0.00
    6  -12    1      1.48      0.00
    6  -12    2      0.31      0.00
    6  -12    3      0.28      0.00
    6  -12    4     -0.12      0.00
    6  -12    5      0.17      0.00
    6  -12    6     -0.62      0.00
    6  -12    7      1.36      0.00
    6  -12    8     -0.07      0.00
    6  -12    9     -0.21      0.00
    6  -12   10     -1.33      0.00
    6  -12   11      0.20      0.00
    6  -12   12     -1.91      0.00
    6  -12   13     -0.23      0.00
    6  -12   14     -0.63      0.00
    6  -12   15      0.00      0.00
    6  -12   16      1.39      0.00
    6  -12   17      0.00      0.00
    6  -12   18     -0.43      0.00
    6  -12   19      0.31      0.00
    6  -12   20     -1.62      0.00
    6  -12   21      0.38      0.00
    6  -12   22     -0.34      0.00
    6  -12   23      0.48      0.00
   -6   11   19     -1.52      0.00
   -6   11   18      1.25      0.00
   -6   11   17      0.11      0.00
   -6   11   16      0.40      0.00
   -6   11   15     -1.55      0.00
   -6   11   14      0.62      0.00
   -6   11   13     -0.64      0.00
   -6   11   12     -0.81      0.00
   -6   11   11      0.56      0.00
   -6   11   10      2.63      0.00
   -6   11    9      1.28      0.00
   -6   11    8      0.36      0.00
   -6   11    7     -3.38      0.00
   -6   11    6      1.38      0.00
   -6   11    5     -0.17      0.00
   -6   11    4      1.60      0.00
   -6   11    3     -1.51      0.00
   -6   11    2     -0.61      0.00
   -6   11    1     -2.33      0.00
   -6   11    0     -1.97      0.00
    6  -11    1     -0.27      0.00
    6  -11    2      0.30      0.00
    6  -11    3      0.26      0.00
    6  -11    4      1.38      0.00
    6  -11    5      1.47      0.00
    6  -11    6     -0.36      0.00
    6  -11    7      0.14      0.00
    6  -11    8     -0.58      0.00
    6  -11    9      0.58      0.00
    6  -11   10     -0.22      0.00
    6  -11   11     -0.74      0.00
    6  -11   12      2.22      0.00
    6  -11   13     -1.04      0.00
    6  -11   14      0.56      0.00
    6  -11   15     -1.76      0.00
    6  -11   16     -1.25      0.00
    6  -11   17     -0.85      0.00
    6  -11   18      0.89      0.00
    6  -11   19      0.04      0.00
    6  -11   20      0.45      0.00
    6  -11   21     -0.55      0.00
    6  -11   22     -0.43      0.00
    6  -11   23     -0.27      0.00
    6  -11   24      1.01      0.00
   -6   10   20     -0.04      0.00
   -6   10   19     -0.52      0.00
   -6   10   18     -1.24      0.00
   -6   10   17     -0.60      0.00
   -6   10   16     -0.63      0.00
   -6   10   15      0.41      0.00
   -6   10   14     -1.61      0.00
   -6   10   13      0.90      0.00
   -6   10   12      0.13      0.00
   -6   10   11      0.54      0.00
   -6   10   10     -2.45      0.00
   -6   10    9      4.30      0.00
   -6   10    8     -0.88      0.00
   -6   10    7      3.76      0.00
   -6   10    6     -2.99      0.00
   -6   10    5      0.30      0.00
   -6   10    4     -1.52      0.00
   -6   10    3      0.06      0.00
   -6   10    2      1.35      0.00
   -6   10    1     -1.42      0.00
   -6   10    0      0.25      0.00
    6  -10    1     -1.08      0.00
    6  -10    2     -0.13      0.00
    6  -10    3     -1.57      0.00
    6  -10    4      0.48      0.00
    6  -10    5     -1.16      0.00
    6  -10    6      3.08      0.00
    6  -10    7      0.34      0.00
    6  -10    8      2.48      0.00
    6  -10    9      0.96      0.00
    6  -10   10      0.69      0.00
    6  -10   11      0.65      0.00
    6  -10   12     -2.26      0.00
    6  -10   13      0.60      0.00
    6  -10   14     -0.77      0.00
    6  -10   15      2.12      0.00
    6  -10   16     -0.16      0.00
    6  -10   17     -0.45      0.00
    6  -10   18     -0.29      0.00
    6  -10   19     -0.69      0.00
    6  -10   20      0.63      0.00
    6  -10   21      0.67      0.00
    6  -10   22     -1.18      0.00
    6  -10   23     -0.15      0.00
    6  -10   24     -2.67      0.00
   -6    9   21     -0.61      0.00
   -6    9   20      1.74      0.00
   -6    9   19     -0.22      0.00
   -6    9   18      0.46      0.00
   -6    9   17     -0.22      0.00
   -6    9   16      0.14      0.00
   -6    9   15     -0.99      0.00
   -6    9   14      2.10      0.00
   -6    9   13     -2.76      0.00
   -6    9   12      0.69      0.00
   -6    9   11     -2.29      0.00
   -6    9   10      2.57      0.00
   -6    9    9     -2.86      0.00
   -6    9    8      2.42      0.00
   -6    9    7     -0.56      0.00
   -6    9    6      2.99      0.00
   -6    9    5      1.22      0.00
   -6    9    4     -0.93      0.00
   -6    9    3      0.62      0.00
   -6    9    2     -0.69      0.00
   -6    9    1      1.31      0.00
   -6    9    0     -2.03      0.00
    6   -9    1     -0.17      0.00
    6   -9    2     -2.82      0.00
    6   -9    3      1.68      0.00
    6   -9    4     -1.98      0.00
    6   -9    5      0.93      0.00
    6   -9    6     -2.28      0.00
    6   -9    7      0.31      0.00
    6   -9    8     -1.09      0.00
    6   -9    9      0.09      0.00
    6   -9   10      0.39      0.00
    6   -9   11      1.80      0.00
    6   -9   12      2.33      0.00
    6   -9   13      0.54      0.00
    6   -9   14      0.39      0.00
    6   -9   15     -1.81      0.00
    6   -9   16      0.65      0.00
    6   -9   17     -0.11      0.00
    6   -9   18     -0.12      0.00
    6   -9   19     -0.02      0.00
    6   -9   20      0.33      0.00
    6   -9   21     -0.69      0.00
    6   -9   22      2.26      0.00
    6   -9   23      0.32      0.00
    6   -9   24      0.59      0.00
    6   -9   25     -0.95      0.00
   -6    8   21      0.58      0.00
   -6    8   20     -2.30      0.00
   -6    8   19      1.50      0.00
   -6    8   18     -1.78      0.00
   -6    8   17      0.91      0.00
   -6    8   16     -1.09      0.00
   -6    8   15     -0.46      0.00
   -6    8   14     -2.37      0.00
   -6    8   13      2.64      0.00
   -6    8   12     -1.22      0.00
   -6    8   11      0.41      0.00
   -6    8   10     -0.76      0.00
   -6    8    9      1.15      0.00
   -6    8    8      0.56      0.00
   -6    8    7      0.16      0.00
   -6    8    6      0.63      0.00
   -6    8    5      1.95      0.00
   -6    8    4      2.36      0.00
   -6    8    3     -1.00      0.00
   -6    8    2     -1.37      0.00
   -6    8    1     -0.85      0.00
   -6    8    0      3.32      0.00
    6   -8    1     -1.66      0.00
    6   -8    2      1.49      0.00
    6   -8    3     -3.09      0.00
    6   -8    4     -1.35      0.00
    6   -8    5     -0.31      0.00
    6   -8    6     -1.16      0.00
    6   -8    7      0.62      0.00
    6   -8    8      0.43      0.00
    6   -8    9      0.06      0.00
    6   -8   10      0.73      0.00
    6   -8   11     -2.06      0.00
    6   -8   12     -0.57      0.00
    6   -8   13      0.76      0.00
    6   -8   14      0.96      0.00
    6   -8   15      1.72      0.00
    6   -8   16     -0.12      0.00
    6   -8   17      0.85      0.00
    6   -8   18     -0.82      0.00
    6   -8   19     -0.50      0.00
    6   -8   20     -0.45      0.00
    6   -8   21      0.17      0.00
    6   -8   22     -0.69      0.00
    6   -8   23      0.05      0.00
    6   -8   24      0.05      0.00
    6   -8   25      0.15      0.00
   -6    7   22      2.11      0.00
   -6    7   21     -0.67      0.00
   -6    7   20      3.41      0.00
   -6    7   19     -0.73      0.00
   -6    7   18      0.86      0.00
   -6    7   17     -1.61      0.00
   -6    7   16      1.46      0.00
   -6    7   15     -0.52      0.00
   -6    7   14     -0.17      0.00
   -6    7   13     -1.99      0.00
   -6    7   12     -0.04      0.00
   -6    7   11     -0.39      0.00
   -6    7   10     -1.35      0.00
   -6    7    9      0.20      0.00
   -6    7    8     -0.61      0.00
   -6    7    7      0.28      0.00
   -6    7    6     -0.72      0.00
   -6    7    5     -1.59      0.00
   -6    7    4      2.90      0.00
   -6    7    3      3.51      0.00
   -6    7    2      2.65      0.00
   -6    7    1      0.38      0.00
   -6    7    0     -4.39      0.00
    6   -7    1      2.12      0.00
    6   -7    2      0.74      0.00
    6   -7    3     -1.10      0.00
    6   -7    4      1.48      0.00
    6   -7    5     -3.73      0.00
    6   -7    6      1.66      0.00
    6   -7    7     -3.05      0.00
    6   -7    8     -1.06      0.00
    6   -7    9     -0.05      0.00
    6   -7   10     -1.15      0.00
    6   -7   11      2.16      0.00
    6   -7   12     -0.84      0.00
    6   -7   13      0.35      0.00
    6   -7   14     -1.39      0.00
    6   -7   15     -0.47      0.00
    6   -7   16      0.41      0.00
    6   -7   17      0.69      0.00
    6   -7   18      0.26      0.00
    6   -7   19      0.90      0.00
    6   -7   20     -0.97      0.00
    6   -7   21     -1.27      0.00
    6   -7   22      0.37      0.00
    6   -7   23      0.64      0.00
    6   -7   24     -0.66      0.00
    6   -7   25     -0.28      0.00
   -6    6   23      1.49      0.00
   -6    6   22     -1.80      0.00
   -6    6   21     -1.76      0.00
   -6    6   20     -0.76      0.00
   -6    6   19      1.84      0.00
   -6    6   18      1.37      0.00
   -6    6   17      2.44      0.00
   -6    6   16     -0.90      0.00
   -6    6   15      1.49      0.00
   -6    6   14      0.17      0.00
   -6    6   13      0.67      0.00
   -6    6   12     -0.70      0.00
   -6    6   11     -1.86      0.00
   -6    6   10     -0.03      0.00
   -6    6    9     -3.04      0.00
   -6    6    8      0.29      0.00
   -6    6    7      1.30      0.00
   -6    6    6      0.13      0.00
   -6    6    5      2.51      0.00
   -6    6    4     -3.73      0.00
   -6    6    3      0.14      0.00
   -6    6    2      1.59      0.00
   -6    6    1      3.77      0.00
   -6    6    0      1.26      0.00
    6   -6    1      0.19      0.00
    6   -6    2     -1.49      0.00
    6   -6    3      4.87      0.00
    6   -6    4     -0.66      0.00
    6   -6    5      0.90      0.00
    6   -6    6     -2.35      0.00
    6   -6    7      0.72      0.00
    6   -6    8      0.16      0.00
    6   -6    9     -1.29      0.00
    6   -6   10      0.77      0.00
    6   -6   11     -2.91      0.00
    6   -6   12      1.91      0.00
    6   -6   13     -0.93      0.00
    6   -6   14      1.28      0.00
    6   -6   15     -0.65      0.00
    6   -6   16     -0.62      0.00
    6   -6   17     -0.57      0.00
    6   -6   18     -0.27      0.00
    6   -6   19      1.40      0.00
    6   -6   20      0.58      0.00
    6   -6   21      0.21      0.00
    6   -6   22      0.07      0.00
    6   -6   23     -0.23      0.00
    6   -6   24      0.70      0.00
    6   -6   25      0.98      0.00
   -6    5   23      0.53      0.00
   -6    5   22      1.55      0.00
   -6    5   21      3.70      0.00
   -6    5   20     -2.67      0.00
   -6    5   19     -1.04      0.00
   -6    5   18      0.67      0.00
   -6    5   17     -0.51      0.00
   -6    5   16      1.90      0.00
   -6    5   15      0.18      0.00
   -6    5   14      0.64      0.00
   -6    5   13      0.09      0.00
   -6    5   12      0.53      0.00
   -6    5   11      2.18      0.00
   -6    5   10     -1.28      0.00
   -6    5    9     -0.24      0.00
   -6    5    8     -2.37      0.00
   -6    5    7     -4.03      0.00
   -6    5    6      0.14      0.00
   -6    5    5     -2.89      0.00
   -6    5    4      3.40      0.00
   -6    5    3     -3.77      0.00
   -6    5    2      3.29      0.00
   -6    5    1     -1.56      0.00
   -6    5    0      7.64      0.00
    6   -5    1     -1.64      0.00
    6   -5    2     -0.96      0.00
    6   -5    3     -1.34      0.00
    6   -5    4     -0.74      0.00
    6   -5    5      5.32      0.00
    6   -5    6     -0.63      0.00
    6   -5    7     -0.31      0.00
    6   -5    8     -1.39      0.00
    6   -5    9      0.20      0.00
    6   -5   10     -0.39      0.00
    6   -5   11      0.71      0.00
    6   -5   12     -1.77      0.00
    6   -5   13      0.57      0.00
    6   -5   14      0.61      0.00
    6   -5   15      0.32      0.00
    6   -5   16      1.28      0.00
    6   -5   17     -0.57      0.00
    6   -5   18      0.95      0.00
    6   -5   19     -2.07      0.00
    6   -5   20      0.65      0.00
    6   -5   21      0.84      0.00
    6   -5   22     -1.10      0.00
    6   -5   23      0.12      0.00
    6   -5   24      0.78      0.00
    6   -5   25     -0.42      0.00
   -6    4   24     -0.25      0.00
   -6    4   23     -3.43      0.00
   -6    4   22     -0.68      0.00
   -6    4   21     -0.95      0.00
   -6    4   20      2.39      0.00
   -6    4   19     -0.75      0.00
   -6    4   18     -0.65      0.00
   -6    4   17      0.12      0.00
   -6    4   16     -0.76      0.00
   -6    4   15      0.61      0.00
   -6    4   14      1.31      0.00
   -6    4   13      1.18      0.00
   -6    4   12     -0.17      0.00
   -6    4   11     -0.21      0.00
   -6    4   10      0.06      0.00
   -6    4    9      1.39      0.00
   -6    4    8     -0.21      0.00
   -6    4    7     -1.25      0.00
   -6    4    6     -3.30      0.00
   -6    4    5      1.81      0.00
   -6    4    4     -4.87      0.00
   -6    4    3      3.79      0.00
   -6    4    2    -10.24      0.00
   -6    4    1      1.42      0.00
   -6    4    0     -2.65      0.00
    6   -4    1      5.18      0.00
    6   -4    2      8.16      0.00
    6   -4    3     -3.59      0.00
    6   -4    4      4.14      0.00
    6   -4    5     -6.21      0.00
    6   -4    6      3.70      0.00
    6   -4    7      0.60      0.00
    6   -4    8     -0.02      0.00
    6   -4    9      0.39      0.00
    6   -4   10     -1.23      0.00
    6   -4   11     -0.19      0.00
    6   -4   12     -1.23      0.00
    6   -4   13     -1.01      0.00
    6   -4   14     -0.91      0.00
    6   -4   15      0.24      0.00
    6   -4   16     -0.24      0.00
    6   -4   17      0.76      0.00
    6   -4   18      0.99      0.00
    6   -4   19      0.67      0.00
    6   -4   20      0.30      0.00
    6   -4   21     -0.36      0.00
    6   -4   22      0.33      0.00
    6   -4   23     -0.95      0.00
    6   -4   24      0.71      0.00
    6   -4   25     -1.52      0.00
   -6    3   24      1.27      0.00
   -6    3   22     -1.78      0.00
   -6    3   21     -1.35      0.00
   -6    3   20     -0.69      0.00
   -6    3   19      0.76      0.00
   -6    3   18     -0.53      0.00
   -6    3   17      0.64      0.00
   -6    3   16      1.19      0.00
   -6    3   15     -0.25      0.00
   -6    3   14     -1.12      0.00
   -6    3   13     -0.56      0.00
   -6    3   12      3.29      0.00
   -6    3   11      0.21      0.00
   -6    3   10      0.22      0.00
   -6    3    9     -0.45      0.00
   -6    3    8      2.38      0.00
   -6    3    7      3.22      0.00
   -6    3    6     -1.83      0.00
   -6    3    5     -5.46      0.00
   -6    3    4      2.58      0.00
   -6    3    3     -2.76      0.00
   -6    3    2      5.60      0.00
   -6    3    1     -4.97      0.00
   -6    3    0     -5.77      0.00
    6   -3    1     -0.68      0.00
    6   -3    2     -5.23      0.00
    6   -3    3      6.63      0.00
    6   -3    4     -0.92      0.00
    6   -3    5      6.55      0.00
    6   -3    6     -0.59      0.00
    6   -3    7      0.66      0.00
    6   -3    8     -1.26      0.00
    6   -3    9     -0.63      0.00
    6   -3   10      1.23      0.00
    6   -3   11      0.82      0.00
    6   -3   12      0.19      0.00
    6   -3   13     -0.66      0.00
    6   -3   14     -0.84      0.00
    6   -3   15     -0.49      0.00
    6   -3   16     -2.68      0.00
    6   -3   17      0.46      0.00
    6   -3   18     -2.53      0.00
    6   -3   19      0.72      0.00
    6   -3   20     -0.49      0.00
    6   -3   21      0.77      0.00
    6   -3   22      0.19      0.00
    6   -3   23      0.53      0.00
    6   -3   24     -0.44      0.00
    6   -3   25      0.70      0.00
   -6    2   25     -1.52      0.00
   -6    2   24      0.02      0.00
   -6    2   23      3.06      0.00
   -6    2   22      1.19      0.00
   -6    2   21     -1.35      0.00
   -6    2   20     -0.43      0.00
   -6    2   19     -0.49      0.00
   -6    2   18     -0.81      0.00
   -6    2   17     -2.72      0.00
   -6    2   16     -1.12      0.00
   -6    2   15      1.41      0.00
   -6    2   14      1.53      0.00
   -6    2   13      0.26      0.00
   -6    2   12     -1.82      0.00
   -6    2   11      3.05      0.00
   -6    2   10      2.99      0.00
   -6    2    9     -0.91      0.00
   -6    2    8     -2.57      0.00
   -6    2    7     -0.09      0.00
   -6    2    6      6.30      0.00
   -6    2    5      0.83      0.00
   -6    2    4     -4.26      0.00
   -6    2    3     -1.67      0.00
   -6    2    2      1.25      0.00
   -6    2    1      2.69      0.00
   -6    2    0     -2.71      0.00
    6   -2    1     -3.65      0.00
    6   -2    2     -1.96      0.00
    6   -2    3     -1.13      0.00
    6   -2    4     -3.50      0.00
    6   -2    5     -5.97      0.00
    6   -2    6      4.17      0.00
    6   -2    7      2.48      0.00
    6   -2    8      6.09      0.00
    6   -2    9     -0.83      0.00
    6   -2   10     -0.80      0.00
    6   -2   11      0.78      0.00
    6   -2   12      1.27      0.00
    6   -2   13     -0.26      0.00
    6   -2   14      0.89      0.00
    6   -2   15     -0.22      0.00
    6   -2   16      2.67      0.00
    6   -2   17     -1.79      0.00
    6   -2   18      1.13      0.00
    6   -2   19     -1.13      0.00
    6   -2   20      0.26      0.00
    6   -2   21     -0.51      0.00
    6   -2   22     -1.57      0.00
    6   -2   23      1.35      0.00
    6   -2   24     -1.40      0.00
    6   -2   25      1.40      0.00
   -6    1   25      1.36      0.00
   -6    1   24     -2.34      0.00
   -6    1   23     -1.02      0.00
   -6    1   22      0.89      0.00
   -6    1   21      1.54      0.00
   -6    1   20     -1.67      0.00
   -6    1   19     -0.47      0.00
   -6    1   18      1.94      0.00
   -6    1   17      0.98      0.00
   -6    1   16     -2.11      0.00
   -6    1   15     -2.31      0.00
   -6    1   14     -1.72      0.00
   -6    1   13      0.79      0.00
   -6    1   12     -0.80      0.00
   -6    1   11     -1.97      0.00
   -6    1   10      1.43      0.00
   -6    1    9      4.11      0.00
   -6    1    8      2.75      0.00
   -6    1    7     -0.61      0.00
   -6    1    6     -2.60      0.00
   -6    1    5      6.48      0.00
   -6    1    4      1.07      0.00
   -6    1    3     -2.87      0.00
   -6    1    2     -5.13      0.00
   -6    1    1      0.15      0.00
   -6    1    0     13.07      0.00
    6   -1    1     -5.72      0.00
    6   -1    2     -0.26      0.00
    6   -1    3     -2.14      0.00
    6   -1    4      4.14      0.00
    6   -1    5      4.48      0.00
    6   -1    6    -10.41      0.00
    6   -1    7     -2.77      0.00
    6   -1    8     -1.13      0.00
    6   -1    9      3.21      0.00
    6   -1   10     -0.19      0.00
    6   -1   11      0.12      0.00
    6   -1   12      0.13      0.00
    6   -1   13      2.45      0.00
    6   -1   14     -1.06      0.00
    6   -1   15      0.01      0.00
    6   -1   16     -1.44      0.00
    6   -1   17      1.33      0.00
    6   -1   18     -0.16      0.00
    6   -1   19      0.12      0.00
    6   -1   20     -0.09      0.00
    6   -1   21      0.73      0.00
    6   -1   23     -2.11      0.00
    6   -1   24      0.99      0.00
   -6    0   25     -1.16      0.00
   -6    0   24      2.54      0.00
   -6    0   23     -1.31      0.00
   -6    0   22     -0.56      0.00
   -6    0   21      1.12      0.00
   -6    0   20      0.71      0.00
   -6    0   19     -0.98      0.00
   -6    0   18     -2.48      0.00
   -6    0   17     -0.38      0.00
   -6    0   16      2.08      0.00
   -6    0   15     -1.49      0.00
   -6    0   14      0.62      0.00
   -6    0   13     -2.24      0.00
   -6    0   12     -0.29      0.00
   -6    0   11     -0.66      0.00
   -6    0   10     -2.73      0.00
   -6    0    9     -0.25      0.00
   -6    0    8      0.80      0.00
   -6    0    7      1.43      0.00
   -6    0    6      1.34      0.00
   -6    0    5     -2.94      0.00
   -6    0    4      9.07      0.00
   -6    0    3      7.77      0.00
   -6    0    2     -3.09      0.00
   -6    0    1     -5.67      0.00
    6    0    0    -11.47      0.00
    6    0    1     10.40      0.00
    6    0    2      2.16      0.00
    6    0    3     -5.40      0.00
    6    0    4     -3.88      0.00
    6    0    5      0.67      0.00
    6    0    6      7.07      0.00
    6    0    7     -0.63      0.00
    6    0    8     -2.23      0.00
    6    0    9     -2.15      0.00
    6    0   10      3.47      0.00
    6    0   11     -2.58      0.00
    6    0   12     -0.37      0.00
    6    0   13     -0.98      0.00
    6    0   14      2.35      0.00
    6    0   15      1.10      0.00
    6    0   16      0.79      0.00
    6    0   17     -1.04      0.00
    6    0   18      0.18      0.00
    6    0   19     -0.22      0.00
    6    0   20     -0.08      0.00
    6    0   21     -0.94      0.00
    6    0   22      0.86      0.00
    6    0   23      0.38      0.00
    6    0   24      0.18      0.00
   -6   -1   25      1.92      0.00
   -6   -1   24     -0.92      0.00
   -6   -1   23      0.86      0.00
   -6   -1   22      0.88      0.00
   -6   -1   21     -0.98      0.00
   -6   -1   20      1.21      0.00
   -6   -1   19      1.20      0.00
   -6   -1   18      0.17      0.00
   -6   -1   17      0.27      0.00
   -6   -1   16     -1.42      0.00
   -6   -1   15     -0.17      0.00
   -6   -1   14     -1.07      0.00
   -6   -1   13      0.99      0.00
   -6   -1   12     -1.25      0.00
   -6   -1   11     -0.75      0.00
   -6   -1   10     -0.69      0.00
   -6   -1    9     -1.45      0.00
   -6   -1    8     -0.34      0.00
   -6   -1    7      1.63      0.00
   -6   -1    6     -1.24      0.00
   -6   -1    5     -2.44      0.00
   -6   -1    4     -6.84      0.00
   -6   -1    3      0.45      0.00
   -6   -1    2     12.41      0.00
   -6   -1    1      7.15      0.00
    6    1    0     -1.25      0.00
    6    1    1     -6.20      0.00
    6    1    2     -0.39      0.00
    6    1    3      3.91      0.00
    6    1    4      0.47      0.00
    6    1    5     -5.20      0.00
    6    1    6     -2.65      0.00
    6    1    7      1.81      0.00
    6    1    8     -1.79      0.00
    6    1    9      1.91      0.00
    6    1   10     -3.10      0.00
    6    1   11      3.30      0.00
    6    1   12      0.31      0.00
    6    1   13     -1.12      0.00
    6    1   14     -2.38      0.00
    6    1   15     -0.19      0.00
    6    1   16      1.04      0.00
    6    1   17      0.98      0.00
    6    1   18     -0.27      0.00
    6    1   19      0.18      0.00
    6    1   20      0.11      0.00
    6    1   21      0.65      0.00
    6    1   22     -1.80      0.00
    6    1   23      0.45      0.00
   -6   -2   25     -1.02      0.00
   -6   -2   24     -0.83      0.00
   -6   -2   23      0.00      0.00
   -6   -2   22     -0.78      0.00
   -6   -2   21      1.27      0.00
   -6   -2   20      1.04      0.00
   -6   -2   19      0.60      0.00
   -6   -2   18     -0.06      0.00
   -6   -2   17      1.68      0.00
   -6   -2   16      0.32      0.00
   -6   -2   15      1.36      0.00
   -6   -2   14      0.65      0.00
   -6   -2   13     -1.76      0.00
   -6   -2   12      1.64      0.00
   -6   -2   11     -1.32      0.00
   -6   -2   10     -0.65      0.00
   -6   -2    9     -3.14      0.00
   -6   -2    8     -1.99      0.00
   -6   -2    7     -1.01      0.00
   -6   -2    6      1.46      0.00
   -6   -2    5      5.67      0.00
   -6   -2    4     -0.71      0.00
   -6   -2    3     -4.36      0.00
   -6   -2    2     -4.78      0.00
   -6   -2    1     -1.35      0.00
    6    2    0      7.16      0.00
    6    2    1      1.97      0.00
    6    2    2     -0.65      0.00
    6    2    3      0.49      0.00
    6    2    4     -0.13      0.00
    6    2    5      1.19      0.00
    6    2    6      1.85      0.00
    6    2    7     -2.86      0.00
    6    2    8      1.31      0.00
    6    2    9     -1.49      0.00
    6    2   10      0.37      0.00
    6    2   11     -1.64      0.00
    6    2   12      1.07      0.00
    6    2   13      2.08      0.00
    6    2   14      0.40      0.00
    6    2   15     -1.17      0.00
    6    2   16     -0.81      0.00
    6    2   17      0.90      0.00
    6    2   18     -0.02      0.00
    6    2   19      0.21      0.00
    6    2   20     -0.37      0.00
    6    2   21      0.58      0.00
    6    2   22      1.51      0.00
    6    2   23      0.31      0.00
   -6   -3   25      0.27      0.00
   -6   -3   24      2.13      0.00
   -6   -3   23     -0.28      0.00
   -6   -3   22     -0.96      0.00
   -6   -3   21     -1.19      0.00
   -6   -3   20      0.62      0.00
   -6   -3   19     -0.10      0.00
   -6   -3   18      2.58      0.00
   -6   -3   17      0.00      0.00
   -6   -3   16     -0.53      0.00
   -6   -3   15      0.75      0.00
   -6   -3   14     -0.10      0.00
   -6   -3   13      0.78      0.00
   -6   -3   12     -1.17      0.00
   -6   -3   11      1.92      0.00
   -6   -3   10      0.13      0.00
   -6   -3    9      2.01      0.00
   -6   -3    8     -0.38      0.00
   -6   -3    7     -4.08      0.00
   -6   -3    6      0.20      0.00
   -6   -3    5     -5.96      0.00
   -6   -3    4      2.66      0.00
   -6   -3    3      2.04      0.00
   -6   -3    2     -1.30      0.00
   -6   -3    1      2.69      0.00
    6    3    0     -1.81      0.00
    6    3    1      0.62      0.00
    6    3    2      1.62      0.00
    6    3    3      1.94      0.00
    6    3    4      0.40      0.00
    6    3    5      0.25      0.00
    6    3    6     -0.50      0.00
    6    3    7      0.52      0.00
    6    3    8      0.25      0.00
    6    3    9     -1.37      0.00
    6    3   10      0.03      0.00
    6    3   11     -0.94      0.00
    6    3   12     -1.42      0.00
    6    3   13     -0.34      0.00
    6    3   14      0.96      0.00
    6    3   15      0.81      0.00
    6    3   16     -0.90      0.00
    6    3   17     -0.86      0.00
    6    3   18      1.33      0.00
    6    3   19     -0.54      0.00
    6    3   20      0.36      0.00
    6    3   21     -1.80      0.00
    6    3   22      0.35      0.00
   -6   -4   25     -1.35      0.00
   -6   -4   24     -0.77      0.00
   -6   -4   23      1.57      0.00
   -6   -4   22      0.17      0.00
   -6   -4   21      0.93      0.00
   -6   -4   20     -1.89      0.00
   -6   -4   19     -0.80      0.00
   -6   -4   18     -0.20      0.00
   -6   -4   17     -0.11      0.00
   -6   -4   16      2.13      0.00
   -6   -4   15      0.92      0.00
   -6   -4   14      0.08      0.00
   -6   -4   13      2.14      0.00
   -6   -4   12      1.09      0.00
   -6   -4   11     -1.45      0.00
   -6   -4   10      0.05      0.00
   -6   -4    9      0.07      0.00
   -6   -4    8     -1.42      0.00
   -6   -4    7      2.83      0.00
   -6   -4    6     -3.11      0.00
   -6   -4    5      3.54      0.00
   -6   -4    4     -1.89      0.00
   -6   -4    3     -1.52      0.00
   -6   -4    2      0.05      0.00
   -6   -4    1     -3.34      0.00
    6    4    0      0.29      0.00
    6    4    1      0.43      0.00
    6    4    2     -0.30      0.00
    6    4    3      0.10      0.00
    6    4    4      0.33      0.00
    6    4    5      2.83      0.00
    6    4    6     -1.16      0.00
    6    4    7      2.28      0.00
    6    4    8     -1.03      0.00
    6    4    9      2.11      0.00
    6    4   10      0.29      0.00
    6    4   11      0.47      0.00
    6    4   12     -0.63      0.00
    6    4   13     -0.94      0.00
    6    4   14      0.19      0.00
    6    4   15     -1.24      0.00
    6    4   16      0.78      0.00
    6    4   17     -0.41      0.00
    6    4   18     -1.20      0.00
    6    4   19      0.43      0.00
    6    4   20      0.12      0.00
   -6   -5   25      0.52      0.00
   -6   -5   24      0.06      0.00
   -6   -5   23     -2.46      0.00
   -6   -5   22      0.66      0.00
   -6   -5   21     -1.24      0.00
   -6   -5   20      0.49      0.00
   -6   -5   19      0.69      0.00
   -6   -5   18     -1.20      0.00
   -6   -5   17     -0.62      0.00
   -6   -5   16      0.44      0.00
   -6   -5   15     -1.15      0.00
   -6   -5   14      0.71      0.00
   -6   -5   13     -0.72      0.00
   -6   -5   12      0.90      0.00
   -6   -5   11      0.79      0.00
   -6   -5   10      1.75      0.00
   -6   -5    9     -0.39      0.00
   -6   -5    8      2.04      0.00
   -6   -5    7     -1.65      0.00
   -6   -5    6      0.05      0.00
   -6   -5    5     -2.12      0.00
   -6   -5    4     -0.86      0.00
   -6   -5    3     -0.43      0.00
   -6   -5    2      1.19      0.00
   -6   -5    1      0.17      0.00
    6    5    0      0.00      0.00
    6    5    1     -1.12      0.00
    6    5    2      0.49      0.00
    6    5    3     -0.53      0.00
    6    5    4      1.57      0.00
    6    5    5     -2.61      0.00
    6    5    6      2.69      0.00
    6    5    7     -0.24      0.00
    6    5    8      1.09      0.00
    6    5    9     -1.84      0.00
    6    5   10      0.21      0.00
    6    5   11      0.99      0.00
    6    5   12     -0.06      0.00
    6    5   13      0.68      0.00
    6    5   14     -0.23      0.00
    6    5   15      0.74      0.00
    6    5   16     -1.24      0.00
    6    5   17      1.27      0.00
    6    5   18     -1.00      0.00
    6    5   19     -0.38      0.00
   -6   -6   24     -0.90      0.00
   -6   -6   23      2.01      0.00
   -6   -6   22     -0.01      0.00
   -6   -6   21     -0.01      0.00
   -6   -6   20     -0.73      0.00
   -6   -6   19     -0.52      0.00
   -6   -6   18     -0.36      0.00
   -6   -6   17      0.03      0.00
   -6   -6   16     -1.16      0.00
   -6   -6   15      0.45      0.00
   -6   -6   14     -0.33      0.00
   -6   -6   13      1.86      0.00
   -6   -6   12     -1.19      0.00
   -6   -6   11      2.08      0.00
   -6   -6   10     -0.60      0.00
   -6   -6    9      0.57      0.00
   -6   -6    8      1.69      0.00
   -6   -6    7      0.44      0.00
   -6   -6    6      1.74      0.00
   -6   -6    5      0.75      0.00
   -6   -6    4      0.38      0.00
   -6   -6    3      0.08      0.00
   -6   -6    2     -3.78      0.00
   -6   -6    1      0.02      0.00
    6    6    0     -1.47      0.00
    6    6    1      0.19      0.00
    6    6    2     -1.66      0.00
    6    6    3     -0.14      0.00
    6    6    4     -0.04      0.00
    6    6    5      0.85      0.00
    6    6    6     -2.49      0.00
    6    6    7     -0.01      0.00
    6    6    8      0.52      0.00
    6    6    9      1.53      0.00
    6    6   10      0.14      0.00
    6    6   11     -0.94      0.00
    6    6   12      0.21      0.00
    6    6   13     -0.27      0.00
    6    6   14      0.85      0.00
    6    6   15      0.73      0.00
    6    6   16     -0.16      0.00
    6    6   17     -0.77      0.00
    6    6   18      1.98      0.00
    6    6   19     -0.30      0.00
   -6   -7   24      0.58      0.00
   -6   -7   23     -1.09      0.00
   -6   -7   22      0.38      0.00
   -6   -7   21      0.73      0.00
   -6   -7   20      1.09      0.00
   -6   -7   19     -0.85      0.00
   -6   -7   18     -0.09      0.00
   -6   -7   17     -0.54      0.00
   -6   -7   16      1.09      0.00
   -6   -7   15     -1.69      0.00
   -6   -7   14      0.60      0.00
   -6   -7   13     -2.64      0.00
   -6   -7   12      1.24      0.00
   -6   -7   11     -0.28      0.00
   -6   -7   10      0.18      0.00
   -6   -7    9      1.27      0.00
   -6   -7    8     -1.00      0.00
   -6   -7    7      1.71      0.00
   -6   -7    6     -0.28      0.00
   -6   -7    5     -0.98      0.00
   -6   -7    4      1.58      0.00
   -6   -7    3      0.61      0.00
   -6   -7    2      2.46      0.00
   -6   -7    1     -0.62      0.00
    6    7    0      0.26      0.00
    6    7    1     -1.40      0.00
    6    7    2     -0.07      0.00
    6    7    3     -1.28      0.00
    6    7    4     -1.65      0.00
    6    7    5      0.32      0.00
    6    7    6      1.49      0.00
    6    7    7     -0.24      0.00
    6    7    8     -1.57      0.00
    6    7    9     -1.01      0.00
    6    7   10      0.00      0.00
    6    7   11      0.75      0.00
    6    7   12     -0.28      0.00
    6    7   13     -2.45      0.00
    6    7   14     -0.09      0.00
    6    7   15      0.19      0.00
    6    7   16      1.82      0.00
    6    7   17     -0.36      0.00
    6    7   18     -0.71      0.00
    6    7   19      1.24      0.00
   -6   -8   23      0.55      0.00
   -6   -8   22     -1.47      0.00
   -6   -8   21      0.02      0.00
   -6   -8   20     -0.65      0.00
   -6   -8   19      2.37      0.00
   -6   -8   18     -1.34      0.00
   -6   -8   17      0.42      0.00
   -6   -8   16     -1.97      0.00
   -6   -8   15      0.97      0.00
   -6   -8   14     -0.75      0.00
   -6   -8   13      0.02      0.00
   -6   -8   12     -0.86      0.00
   -6   -8   11     -1.44      0.00
   -6   -8   10      0.78      0.00
   -6   -8    9     -1.20      0.00
   -6   -8    8     -0.38      0.00
   -6   -8    7      0.79      0.00
   -6   -8    6      0.90      0.00
   -6   -8    5      1.97      0.00
   -6   -8    4     -1.36      0.00
   -6   -8    3     -0.52      0.00
   -6   -8    2     -0.42      0.00
   -6   -8    1      0.68      0.00
    6    8    0      0.15      0.00
    6    8    1      0.50      0.00
    6    8    2      0.38      0.00
    6    8    3      0.55      0.00
    6    8    4      0.34      0.00
    6    8    5     -1.64      0.00
    6    8    6     -0.55      0.00
    6    8    7     -0.47      0.00
    6    8    8      1.95      0.00
    6    8    9      0.13      0.00
    6    8   10     -1.19      0.00
    6    8   11      1.07      0.00
    6    8   12      1.01      0.00
    6    8   13      1.39      0.00
    6    8   14     -2.27      0.00
    6    8   15     -1.03      0.00
    6    8   16     -1.06      0.00
    6    8   17     -0.09      0.00
   -6   -9   23     -0.13      0.00
   -6   -9   22      0.86      0.00
   -6   -9   21     -0.87      0.00
   -6   -9   20      0.20      0.00
   -6   -9   19     -2.11      0.00
   -6   -9   18      1.12      0.00
   -6   -9   17     -0.70      0.00
   -6   -9   16      0.09      0.00
   -6   -9   15     -0.47      0.00
   -6   -9   14     -1.46      0.00
   -6   -9   13      1.15      0.00
   -6   -9   12     -1.97      0.00
   -6   -9   11     -0.30      0.00
   -6   -9   10     -0.49      0.00
   -6   -9    9      1.00      0.00
   -6   -9    8      0.16      0.00
   -6   -9    7     -1.66      0.00
   -6   -9    6      0.04      0.00
   -6   -9    5      0.04      0.00
   -6   -9    4      1.41      0.00
   -6   -9    3      1.46      0.00
   -6   -9    2      0.15      0.00
   -6   -9    1      0.53      0.00
    6    9    0      1.04      0.00
    6    9    1      0.60      0.00
    6    9    2     -1.10      0.00
    6    9    3      0.24      0.00
    6    9    4     -0.34      0.00
    6    9    5      0.77      0.00
    6    9    6     -1.02      0.00
    6    9    7      0.18      0.00
    6    9    8     -0.94      0.00
    6    9    9      0.37      0.00
    6    9   10      0.54      0.00
    6    9   11     -0.68      0.00
    6    9   12      0.27      0.00
    6    9   13      0.88      0.00
    6    9   14      1.89      0.00
    6    9   15      0.55      0.00
    6    9   16     -0.23      0.00
   -6  -10   22     -0.16      0.00
   -6  -10   21     -0.06      0.00
   -6  -10   20      0.95      0.00
   -6  -10   19      1.69      0.00
   -6  -10   18      0.21      0.00
   -6  -10   17     -0.08      0.00
   -6  -10   16      1.48      0.00
   -6  -10   15     -0.92      0.00
   -6  -10   14      0.53      0.00
   -6  -10   13     -0.91      0.00
   -6  -10   12      1.76      0.00
   -6  -10   11     -1.12      0.00
   -6  -10   10     -2.10      0.00
   -6  -10    9     -1.04      0.00
   -6  -10    8     -0.44      0.00
   -6  -10    7     -0.19      0.00
   -6  -10    6      0.08      0.00
   -6  -10    5     -0.32      0.00
   -6  -10    4      0.46      0.00
   -6  -10    3     -0.73      0.00
   -6  -10    2     -0.08      0.00
   -6  -10    1     -0.38      0.00
    6   10    0     -0.60      0.00
    6   10    1      0.40      0.00
    6   10    2      1.00      0.00
    6   10    3     -0.18      0.00
    6   10    4      0.62      0.00
    6   10    5      0.37      0.00
    6   10    6      0.50      0.00
    6   10    7     -0.68      0.00
    6   10    8      0.59      0.00
    6   10    9     -1.10      0.00
    6   10   10     -0.81      0.00
    6   10   11      0.12      0.00
    6   10   12     -0.41      0.00
    6   10   13     -0.07      0.00
    6   10   14     -0.32      0.00
   -6  -11   21      0.08      0.00
   -6  -11   20     -2.04      0.00
   -6  -11   19      0.65      0.00
   -6  -11   18      0.71      0.00
   -6  -11   17      1.18      0.00
   -6  -11   16     -0.71      0.00
   -6  -11   15      2.08      0.00
   -6  -11   14      0.96      0.00
   -6  -11   13     -1.11      0.00
   -6  -11   12      0.19      0.00
   -6  -11   11      1.37      0.00
   -6  -11   10      0.88      0.00
   -6  -11    9     -0.34      0.00
   -6  -11    8     -0.48      0.00
   -6  -11    7     -0.76      0.00
   -6  -11    6     -2.08      0.00
   -6  -11    5     -1.14      0.00
   -6  -11    4     -0.08      0.00
   -6  -11    3      0.77      0.00
   -6  -11    2     -0.12      0.00
   -6  -11    1     -0.02      0.00
    6   11    0      0.18      0.00
    6   11    1     -0.63      0.00
    6   11    2      0.97      0.00
    6   11    3     -1.02      0.00
    6   11    4      0.26      0.00
    6   11    5      1.11      0.00
    6   11    6     -1.04      0.00
    6   11    7      0.57      0.00
    6   11    8      0.74      0.00
    6   11    9      0.72      0.00
    6   11   10      0.42      0.00
    6   11   11     -1.30      0.00
    6   11   12     -0.40      0.00
    6   11   13     -0.60      0.00
   -6  -12   19     -2.57      0.00
   -6  -12   18      0.01      0.00
   -6  -12   17      0.34      0.00
   -6  -12   16      0.02      0.00
   -6  -12   15     -0.04      0.00
   -6  -12   14      0.35      0.00
   -6  -12   13      1.59      0.00
   -6  -12   12     -0.55      0.00
   -6  -12   11     -0.52      0.00
   -6  -12   10      0.35      0.00
   -6  -12    9      0.80      0.00
   -6  -12    8      0.56      0.00
   -6  -12    7      1.08      0.00
   -6  -12    6      0.24      0.00
   -6  -12    5     -0.56      0.00
   -6  -12    4     -1.84      0.00
   -6  -12    3     -0.71      0.00
   -6  -12    2      1.38      0.00
   -6  -12    1      0.20      0.00
    6   12    0     -0.56      0.00
    6   12    1      1.98      0.00
    6   12    2     -1.00      0.00
    6   12    3      0.63      0.00
    6   12    4     -0.52      0.00
    6   12    5     -0.89      0.00
    6   12    6      1.56      0.00
    6   12    7     -0.29      0.00
    6   12    8     -0.76      0.00
    6   12    9      0.52      0.00
    6   12   10      1.05      0.00
    6   12   11      0.37      0.00
   -6  -13   18     -0.90      0.00
   -6  -13   17     -0.85      0.00
   -6  -13   16      0.00      0.00
   -6  -13   15      0.04      0.00
   -6  -13   14     -0.17      0.00
   -6  -13   13      1.62      0.00
   -6  -13   12      1.46      0.00
   -6  -13   11     -0.01      0.00
   -6  -13   10     -0.13      0.00
   -6  -13    9      0.74      0.00
   -6  -13    8     -0.29      0.00
   -6  -13    7      0.86      0.00
   -6  -13    6      0.94      0.00
   -6  -13    5      1.79      0.00
   -6  -13    4      0.51      0.00
   -6  -13    3     -0.74      0.00
   -6  -13    2     -0.58      0.00
   -6  -13    1     -0.29      0.00
    6   13    0      0.45      0.00
    6   13    1     -1.95      0.00
    6   13    2      1.49      0.00
    6   13    3      0.93      0.00
    6   13    4      0.22      0.00
    6   13    5      0.60      0.00
    6   13    6     -0.56      0.00
    6   13    7      0.22      0.00
    6   13    8     -1.35      0.00
    6   13    9      1.11      0.00
   -6  -14   15     -1.86      0.00
   -6  -14   14     -0.88      0.00
   -6  -14   13     -1.64      0.00
   -6  -14   12      0.90      0.00
   -6  -14   11      0.51      0.00
   -6  -14   10      0.85      0.00
   -6  -14    9     -2.36      0.00
   -6  -14    8      2.05      0.00
   -6  -14    7     -1.48      0.00
   -6  -14    6     -0.02      0.00
   -6  -14    5     -0.44      0.00
   -6  -14    4     -0.02      0.00
   -6  -14    3      0.83      0.00
   -6  -14    2     -0.84      0.00
   -6  -14    1     -0.09      0.00
    6   14    0     -0.09      0.00
    6   14    1      0.84      0.00
    6   14    2     -1.49      0.00
    6   14    3     -0.61      0.00
    6   14    4      0.10      0.00
    6   14    5     -1.01      0.00
    6   14    6      1.22      0.00
   -6  -15   12     -2.26      0.00
   -6  -15   11      1.09      0.00
   -6  -15   10     -0.81      0.00
   -6  -15    9      1.47      0.00
   -6  -15    8     -1.38      0.00
   -6  -15    7      0.02      0.00
   -6  -15    6      0.45      0.00
   -6  -15    5     -0.71      0.00
   -6  -15    4      0.15      0.00
   -6  -15    3     -0.12      0.00
   -6  -15    2      0.14      0.00
   -6  -15    1     -0.13      0.00
    6   15    0     -0.28      0.00
    6   15    1     -1.25      0.00
    6   15    2      0.11      0.00
   -7   19    1      0.36      0.00
   -7   19    0     -0.22      0.00
    7  -19    1      0.97      0.00
    7  -19    2     -0.23      0.00
    7  -19    3     -0.61      0.00
    7  -19    4     -0.67      0.00
    7  -19    5     -0.75      0.00
    7  -19    6     -0.30      0.00
    7  -19    7      1.34      0.00
    7  -19    8      1.32      0.00
    7  -19    9     -0.56      0.00
    7  -19   10     -1.08      0.00
    7  -19   11     -0.17      0.00
   -7   18    5      1.33      0.00
   -7   18    4      1.61      0.00
   -7   18    3     -0.18      0.00
   -7   18    2      0.08      0.00
   -7   18    1     -0.36      0.00
   -7   18    0     -0.05      0.00
    7  -18    1     -0.57      0.00
    7  -18    2      0.87      0.00
    7  -18    3      0.35      0.00
    7  -18    4      1.03      0.00
    7  -18    5     -0.53      0.00
    7  -18    6      0.05      0.00
    7  -18    7     -1.47      0.00
    7  -18    8      0.45      0.00
    7  -18    9      0.17      0.00
    7  -18   10      2.50      0.00
    7  -18   11     -0.61      0.00
    7  -18   12      1.18      0.00
    7  -18   13     -0.54      0.00
    7  -18   14     -0.62      0.00
    7  -18   15     -0.89      0.00
   -7   17    8     -0.20      0.00
   -7   17    7      0.05      0.00
   -7   17    6     -0.23      0.00
   -7   17    5     -1.44      0.00
   -7   17    4     -0.12      0.00
   -7   17    3      2.35      0.00
   -7   17    2      0.99      0.00
   -7   17    1      1.03      0.00
   -7   17    0      0.26      0.00
    7  -17    1      0.05      0.00
    7  -17    2     -0.84      0.00
    7  -17    3      0.59      0.00
    7  -17    4     -1.13      0.00
    7  -17    5      0.63      0.00
    7  -17    6     -1.31      0.00
    7  -17    7      1.61      0.00
    7  -17    8     -2.04      0.00
    7  -17    9      0.16      0.00
    7  -17   10     -0.91      0.00
    7  -17   11      0.60      0.00
    7  -17   12      0.22      0.00
    7  -17   13      0.86      0.00
    7  -17   14      0.10      0.00
    7  -17   15      1.77      0.00
    7  -17   16     -0.18      0.00
    7  -17   17     -0.98      0.00
   -7   16   10      1.32      0.00
   -7   16    9      0.15      0.00
   -7   16    8     -1.00      0.00
   -7   16    7      0.19      0.00
   -7   16    6      0.33      0.00
   -7   16    5      0.06      0.00
   -7   16    4     -1.34      0.00
   -7   16    3     -2.17      0.00
   -7   16    2     -1.34      0.00
   -7   16    1      0.65      0.00
   -7   16    0      1.10      0.00
    7  -16    1      0.69      0.00
    7  -16    2      0.14      0.00
    7  -16    3     -0.30      0.00
    7  -16    4      0.83      0.00
    7  -16    5     -0.79      0.00
    7  -16    6      0.88      0.00
    7  -16    7     -1.26      0.00
    7  -16    8      0.51      0.00
    7  -16    9      0.69      0.00
    7  -16   10     -1.93      0.00
    7  -16   11      1.14      0.00
    7  -16   12     -0.09      0.00
    7  -16   13     -0.30      0.00
    7  -16   14      0.13      0.00
    7  -16   15     -0.49      0.00
    7  -16   16      0.97      0.00
    7  -16   17      1.25      0.00
    7  -16   18      0.06      0.00
    7  -16   19      0.11      0.00
   -7   15   12     -0.10      0.00
   -7   15   11     -0.62      0.00
   -7   15   10     -0.65      0.00
   -7   15    9      1.98      0.00
   -7   15    8     -0.25      0.00
   -7   15    7     -1.28      0.00
   -7   15    6     -0.71      0.00
   -7   15    5     -0.63      0.00
   -7   15    4      2.28      0.00
   -7   15    3      0.38      0.00
   -7   15    2      1.27      0.00
   -7   15    1     -1.64      0.00
   -7   15    0     -0.64      0.00
    7  -15    1     -0.06      0.00
    7  -15    2      1.36      0.00
    7  -15    3      0.54      0.00
    7  -15    4      0.07      0.00
    7  -15    5      1.32      0.00
    7  -15    6     -0.12      0.00
    7  -15    7     -0.28      0.00
    7  -15    8      1.07      0.00
    7  -15    9     -1.60      0.00
    7  -15   10      0.58      0.00
    7  -15   11     -1.69      0.00
    7  -15   12      0.25      0.00
    7  -15   13      0.45      0.00
    7  -15   14      0.46      0.00
    7  -15   15      0.36      0.00
    7  -15   16     -0.31      0.00
    7  -15   17      0.78      0.00
    7  -15   18     -1.28      0.00
    7  -15   19      0.59      0.00
    7  -15   20      0.49      0.00
   -7   14   14     -0.07      0.00
   -7   14   13      0.55      0.00
   -7   14   12      0.73      0.00
   -7   14   11     -1.17      0.00
   -7   14   10     -0.28      0.00
   -7   14    9     -1.36      0.00
   -7   14    8      1.46      0.00
   -7   14    7      1.51      0.00
   -7   14    6     -0.32      0.00
   -7   14    5      0.64      0.00
   -7   14    4     -2.40      0.00
   -7   14    3     -0.61      0.00
   -7   14    2     -0.04      0.00
   -7   14    1      1.58      0.00
   -7   14    0      0.07      0.00
    7  -14    1      0.22      0.00
    7  -14    2      0.18      0.00
    7  -14    3      0.15      0.00
    7  -14    4      0.53      0.00
    7  -14    5     -0.06      0.00
    7  -14    6      0.70      0.00
    7  -14    7      0.07      0.00
    7  -14    8     -0.19      0.00
    7  -14    9      1.41      0.00
    7  -14   10      1.16      0.00
    7  -14   11     -0.51      0.00
    7  -14   12     -1.15      0.00
    7  -14   13     -0.86      0.00
    7  -14   14     -0.17      0.00
    7  -14   15     -1.66      0.00
    7  -14   16      0.22      0.00
    7  -14   17      0.54      0.00
    7  -14   18      1.66      0.00
    7  -14   19     -0.54      0.00
    7  -14   20     -1.67      0.00
    7  -14   21      0.58      0.00
   -7   13   16      0.29      0.00
   -7   13   15     -0.07      0.00
   -7   13   14     -0.22      0.00
   -7   13   13      0.62      0.00
   -7   13   12      0.66      0.00
   -7   13   11      1.70      0.00
   -7   13   10     -0.12      0.00
   -7   13    9     -0.58      0.00
   -7   13    8     -0.98      0.00
   -7   13    7     -1.03      0.00
   -7   13    6     -0.51      0.00
   -7   13    5     -0.20      0.00
   -7   13    4     -0.46      0.00
   -7   13    3      0.00      0.00
   -7   13    2     -0.74      0.00
   -7   13    1     -1.17      0.00
   -7   13    0     -0.35      0.00
    7  -13    1      0.21      0.00
    7  -13    2     -1.58      0.00
    7  -13    3      0.13      0.00
    7  -13    4      0.69      0.00
    7  -13    5      0.21      0.00
    7  -13    6      0.04      0.00
    7  -13    7      1.72      0.00
    7  -13    8     -1.69      0.00
    7  -13    9     -0.42      0.00
    7  -13   10     -1.36      0.00
    7  -13   11      1.87      0.00
    7  -13   12     -0.66      0.00
    7  -13   13     -0.10      0.00
    7  -13   14      0.02      0.00
    7  -13   15      0.52      0.00
    7  -13   16     -1.18      0.00
    7  -13   17     -1.91      0.00
    7  -13   18     -0.11      0.00
    7  -13   19      0.11      0.00
    7  -13   20      0.89      0.00
    7  -13   21     -1.32      0.00
    7  -13   22      0.40      0.00
   -7   12   17     -0.70      0.00
   -7   12   16      0.38      0.00
   -7   12   15     -2.08      0.00
   -7   12   14     -0.26      0.00
   -7   12   13     -0.44      0.00
   -7   12   12     -0.11      0.00
   -7   12   11      0.43      0.00
   -7   12   10      2.60      0.00
   -7   12    9      1.07      0.00
   -7   12    8     -0.14      0.00
   -7   12    7      0.93      0.00
   -7   12    6      0.90      0.00
   -7   12    5      0.75      0.00
   -7   12    4     -0.43      0.00
   -7   12    3     -1.37      0.00
   -7   12    2     -1.10      0.00
   -7   12    1     -2.08      0.00
   -7   12    0      0.53      0.00
    7  -12    1     -1.31      0.00
    7  -12    2      1.06      0.00
    7  -12    3     -0.97      0.00
    7  -12    4     -0.71      0.00
    7  -12    5     -0.56      0.00
    7  -12    6      0.38      0.00
    7  -12    7     -1.12      0.00
    7  -12    8      3.20      0.00
    7  -12    9     -0.99      0.00
    7  -12   10      1.31      0.00
    7  -12   11     -0.52      0.00
    7  -12   12      0.58      0.00
    7  -12   13      0.01      0.00
    7  -12   14     -0.97      0.00
    7  -12   15     -0.20      0.00
    7  -12   16      0.02      0.00
    7  -12   17      0.77      0.00
    7  -12   18     -0.74      0.00
    7  -12   19     -0.37      0.00
    7  -12   20      1.23      0.00
    7  -12   21     -0.65      0.00
    7  -12   22      0.16      0.00
    7  -12   23     -0.18      0.00
   -7   11   18     -2.07      0.00
   -7   11   17      1.57      0.00
   -7   11   16     -0.50      0.00
   -7   11   15      1.13      0.00
   -7   11   14     -1.37      0.00
   -7   11   13     -0.64      0.00
   -7   11   12     -0.93      0.00
   -7   11   11     -1.45      0.00
   -7   11   10     -1.25      0.00
   -7   11    9      1.48      0.00
   -7   11    8      2.33      0.00
   -7   11    7     -1.20      0.00
   -7   11    6      0.07      0.00
   -7   11    5      0.03      0.00
   -7   11    4      1.56      0.00
   -7   11    3      2.57      0.00
   -7   11    2     -0.45      0.00
   -7   11    1      1.84      0.00
   -7   11    0     -3.15      0.00
    7  -11    1      0.23      0.00
    7  -11    2     -1.96      0.00
    7  -11    3      0.55      0.00
    7  -11    4     -0.97      0.00
    7  -11    5      1.27      0.00
    7  -11    6     -0.55      0.00
    7  -11    7      0.84      0.00
    7  -11    8     -0.95      0.00
    7  -11    9      1.44      0.00
    7  -11   10     -0.44      0.00
    7  -11   11      0.19      0.00
    7  -11   12      0.28      0.00
    7  -11   13      0.86      0.00
    7  -11   14      1.09      0.00
    7  -11   15      0.70      0.00
    7  -11   16     -0.13      0.00
    7  -11   17     -0.47      0.00
    7  -11   18     -0.05      0.00
    7  -11   19      0.48      0.00
    7  -11   20     -1.69      0.00
    7  -11   21      1.78      0.00
    7  -11   22     -1.07      0.00
    7  -11   23     -1.24      0.00
   -7   10   19      0.14      0.00
   -7   10   18      1.45      0.00
   -7   10   17     -1.76      0.00
   -7   10   16      0.13      0.00
   -7   10   15      0.03      0.00
   -7   10   14     -0.04      0.00
   -7   10   13     -0.74      0.00
   -7   10   12     -0.36      0.00
   -7   10   11      0.22      0.00
   -7   10   10     -0.57      0.00
   -7   10    9     -2.64      0.00
   -7   10    8      1.37      0.00
   -7   10    7      1.60      0.00
   -7   10    6      1.79      0.00
   -7   10    5     -0.09      0.00
   -7   10    4      0.86      0.00
   -7   10    3     -1.45      0.00
   -7   10    2      2.20      0.00
   -7   10    1      0.29      0.00
   -7   10    0      1.58      0.00
    7  -10    1     -1.22      0.00
    7  -10    2      1.24      0.00
    7  -10    3     -1.76      0.00
    7  -10    4     -0.86      0.00
    7  -10    5     -1.74      0.00
    7  -10    6     -0.47      0.00
    7  -10    7     -0.41      0.00
    7  -10    8     -0.36      0.00
    7  -10    9      0.18      0.00
    7  -10   10      1.67      0.00
    7  -10   11      0.45      0.00
    7  -10   12      1.58      0.00
    7  -10   13     -1.50      0.00
    7  -10   14      0.29      0.00
    7  -10   15     -0.28      0.00
    7  -10   16      0.79      0.00
    7  -10   17      0.72      0.00
    7  -10   18     -0.22      0.00
    7  -10   19     -0.49      0.00
    7  -10   20      0.82      0.00
    7  -10   21     -0.24      0.00
    7  -10   22      1.65      0.00
    7  -10   23     -0.62      0.00
    7  -10   24     -0.99      0.00
   -7    9   20     -0.56      0.00
   -7    9   19      0.55      0.00
   -7    9   18      1.10      0.00
   -7    9   17      0.42      0.00
   -7    9   16      0.12      0.00
   -7    9   15      0.65      0.00
   -7    9   14      0.24      0.00
   -7    9   13      0.85      0.00
   -7    9   12     -0.82      0.00
   -7    9   11      0.52      0.00
   -7    9   10     -1.89      0.00
   -7    9    9      2.18      0.00
   -7    9    8     -3.78      0.00
   -7    9    7      0.51      0.00
   -7    9    6     -0.97      0.00
   -7    9    5      1.97      0.00
   -7    9    4      0.96      0.00
   -7    9    3      0.18      0.00
   -7    9    2      0.72      0.00
   -7    9    1      0.76      0.00
   -7    9    0      1.53      0.00
    7   -9    1      0.63      0.00
    7   -9    2     -0.43      0.00
    7   -9    3      0.35      0.00
    7   -9    4      0.42      0.00
    7   -9    5     -1.17      0.00
    7   -9    6      0.20      0.00
    7   -9    7     -1.29      0.00
    7   -9    8     -0.26      0.00
    7   -9    9     -1.05      0.00
    7   -9   10     -3.11      0.00
    7   -9   11     -0.05      0.00
    7   -9   12     -0.74      0.00
    7   -9   13      2.38      0.00
    7   -9   14     -0.45      0.00
    7   -9   15      1.45      0.00
    7   -9   16     -0.77      0.00
    7   -9   17     -0.50      0.00
    7   -9   18      1.00      0.00
    7   -9   19     -0.32      0.00
    7   -9   20     -1.87      0.00
    7   -9   21      1.61      0.00
    7   -9   22     -1.48      0.00
    7   -9   23      1.53      0.00
    7   -9   24      0.14      0.00
   -7    8   21      0.33      0.00
   -7    8   20     -0.38      0.00
   -7    8   19      0.02      0.00
   -7    8   18     -0.96      0.00
   -7    8   17      0.42      0.00
   -7    8   16      1.08      0.00
   -7    8   15     -0.66      0.00
   -7    8   14      0.64      0.00
   -7    8   13     -1.24      0.00
   -7    8   12      0.94      0.00
   -7    8   11     -1.70      0.00
   -7    8   10      1.05      0.00
   -7    8    9     -2.43      0.00
   -7    8    8      1.35      0.00
   -7    8    7     -1.94      0.00
   -7    8    6     -0.90      0.00
   -7    8    5     -0.83      0.00
   -7    8    4      0.46      0.00
   -7    8    3      3.32      0.00
   -7    8    2     -2.27      0.00
   -7    8    1      0.02      0.00
   -7    8    0     -0.09      0.00
    7   -8    1      1.72      0.00
    7   -8    2      0.69      0.00
    7   -8    3      2.03      0.00
    7   -8    4     -0.94      0.00
    7   -8    5      0.50      0.00
    7   -8    6     -1.71      0.00
    7   -8    7     -0.18      0.00
    7   -8    8     -0.61      0.00
    7   -8    9      0.36      0.00
    7   -8   10      1.49      0.00
    7   -8   11     -0.98      0.00
    7   -8   12      0.02      0.00
    7   -8   13     -2.90      0.00
    7   -8   14      0.70      0.00
    7   -8   15     -0.66      0.00
    7   -8   16      0.85      0.00
    7   -8   17      0.34      0.00
    7   -8   18      1.28      0.00
    7   -8   19     -0.46      0.00
    7   -8   20      0.57      0.00
    7   -8   21     -2.03      0.00
    7   -8   22      2.10      0.00
    7   -8   23     -0.93      0.00
    7   -8   24     -0.40      0.00
   -7    7   22     -1.15      0.00
   -7    7   21     -0.32      0.00
   -7    7   20     -0.04      0.00
   -7    7   19      1.81      0.00
   -7    7   18      1.42      0.00
   -7    7   17     -0.80      0.00
   -7    7   16     -0.25      0.00
   -7    7   15      1.64      0.00
   -7    7   14      0.29      0.00
   -7    7   13      1.22      0.00
   -7    7   12      0.31      0.00
   -7    7   11      0.46      0.00
   -7    7   10     -1.07      0.00
   -7    7    9      0.46      0.00
   -7    7    8     -1.31      0.00
   -7    7    7      1.13      0.00
   -7    7    6     -0.81      0.00
   -7    7    5     -3.62      0.00
   -7    7    4     -1.42      0.00
   -7    7    3     -1.47      0.00
   -7    7    2      4.00      0.00
   -7    7    1      1.10      0.00
   -7    7    0      1.27      0.00
    7   -7    1     -2.81      0.00
    7   -7    2      1.52      0.00
    7   -7    3      0.69      0.00
    7   -7    4      1.30      0.00
    7   -7    5      1.69      0.00
    7   -7    6      0.41      0.00
    7   -7    7      0.64      0.00
    7   -7    8     -0.30      0.00
    7   -7    9     -1.27      0.00
    7   -7   10     -1.76      0.00
    7   -7   11      0.19      0.00
    7   -7   12     -0.04      0.00
    7   -7   13      0.76      0.00
    7   -7   14     -0.77      0.00
    7   -7   15     -0.52      0.00
    7   -7   16     -0.80      0.00
    7   -7   17     -0.79      0.00
    7   -7   18     -0.24      0.00
    7   -7   19      1.47      0.00
    7   -7   20      0.07      0.00
    7   -7   21      0.07      0.00
    7   -7   22     -1.29      0.00
    7   -7   23      1.50      0.00
    7   -7   24      0.07      0.00
   -7    6   22      1.71      0.00
   -7    6   21     -1.31      0.00
   -7    6   20     -1.08      0.00
   -7    6   19     -1.97      0.00
   -7    6   18     -0.24      0.00
   -7    6   17      2.20      0.00
   -7    6   16      0.20      0.00
   -7    6   15     -0.29      0.00
   -7    6   14      1.05      0.00
   -7    6   13      0.58      0.00
   -7    6   12      0.85      0.00
   -7    6   11      1.34      0.00
   -7    6   10      0.55      0.00
   -7    6    9     -1.10      0.00
   -7    6    8     -1.51      0.00
   -7    6    7     -1.63      0.00
   -7    6    6      1.11      0.00
   -7    6    5      1.31      0.00
   -7    6    4     -1.48      0.00
   -7    6    3     -2.09      0.00
   -7    6    2     -4.74      0.00
   -7    6    1      2.06      0.00
   -7    6    0     -0.19      0.00
    7   -6    1      3.02      0.00
    7   -6    2     -1.34      0.00
    7   -6    3     -1.22      0.00
    7   -6    4      4.16      0.00
    7   -6    5     -1.57      0.00
    7   -6    6      1.88      0.00
    7   -6    7     -0.87      0.00
    7   -6    8      1.05      0.00
    7   -6    9      2.33      0.00
    7   -6   10     -0.26      0.00
    7   -6   11     -0.12      0.00
    7   -6   12     -1.59      0.00
    7   -6   13      1.71      0.00
    7   -6   14     -0.80      0.00
    7   -6   15      0.57      0.00
    7   -6   16      0.80      0.00
    7   -6   17     -0.26      0.00
    7   -6   18     -0.70      0.00
    7   -6   19      0.47      0.00
    7   -6   20      0.84      0.00
    7   -6   21     -0.40      0.00
    7   -6   22      0.20      0.00
    7   -6   23     -0.40      0.00
    7   -6   24      0.20      0.00
    7   -6   25      0.71      0.00
   -7    5   23     -1.55      0.00
   -7    5   22     -0.55      0.00
   -7    5   21      1.09      0.00
   -7    5   20      1.39      0.00
   -7    5   19     -1.13      0.00
   -7    5   18     -1.20      0.00
   -7    5   17     -0.85      0.00
   -7    5   16     -0.96      0.00
   -7    5   15      0.69      0.00
   -7    5   14     -0.16      0.00
   -7    5   13     -0.19      0.00
   -7    5   12      0.38      0.00
   -7    5   11     -0.29      0.00
   -7    5   10      3.04      0.00
   -7    5    9      1.85      0.00
   -7    5    8      0.82      0.00
   -7    5    7      0.54      0.00
   -7    5    6     -3.57      0.00
   -7    5    5     -0.37      0.00
   -7    5    4     -0.40      0.00
   -7    5    3     -1.08      0.00
   -7    5    2     -0.27      0.00
   -7    5    1     -5.32      0.00
   -7    5    0      1.26      0.00
    7   -5    1      1.32      0.00
    7   -5    2     -0.70      0.00
    7   -5    3      0.29      0.00
    7   -5    4     -3.60      0.00
    7   -5    5      3.45      0.00
    7   -5    6      0.86      0.00
    7   -5    7      0.82      0.00
    7   -5    8     -0.73      0.00
    7   -5    9     -1.42      0.00
    7   -5   10      2.65      0.00
    7   -5   11     -1.23      0.00
    7   -5   12      0.93      0.00
    7   -5   13     -1.61      0.00
    7   -5   14      0.24      0.00
    7   -5   15      1.07      0.00
    7   -5   16     -1.33      0.00
    7   -5   17      1.35      0.00
    7   -5   18     -1.20      0.00
    7   -5   19      0.42      0.00
    7   -5   20     -0.64      0.00
    7   -5   21     -0.05      0.00
    7   -5   22      0.83      0.00
    7   -5   23     -0.52      0.00
    7   -5   24     -0.06      0.00
    7   -5   25      0.47      0.00
   -7    4   23      0.60      0.00
   -7    4   22     -2.59      0.00
   -7    4   21      0.37      0.00
   -7    4   20     -0.49      0.00
   -7    4   19     -0.25      0.00
   -7    4   18      0.32      0.00
   -7    4   17     -1.48      0.00
   -7    4   16     -0.09      0.00
   -7    4   15     -2.11      0.00
   -7    4   14     -0.52      0.00
   -7    4   13      1.11      0.00
   -7    4   12      0.17      0.00
   -7    4   11      0.44      0.00
   -7    4   10     -1.56      0.00
   -7    4    9      0.88      0.00
   -7    4    8      3.48      0.00
   -7    4    7     -0.14      0.00
   -7    4    6      3.45      0.00
   -7    4    5     -1.68      0.00
   -7    4    4      0.99      0.00
   -7    4    3      0.84      0.00
   -7    4    2     -0.18      0.00
   -7    4    1     -2.34      0.00
   -7    4    0     -6.08      0.00
    7   -4    1     -1.21      0.00
    7   -4    2      0.43      0.00
    7   -4    3      2.28      0.00
    7   -4    4     -0.93      0.00
    7   -4    5     -0.96      0.00
    7   -4    6     -0.58      0.00
    7   -4    7      1.36      0.00
    7   -4    8      1.39      0.00
    7   -4    9     -0.02      0.00
    7   -4   10      0.62      0.00
    7   -4   11      1.01      0.00
    7   -4   12     -0.04      0.00
    7   -4   13     -0.82      0.00
    7   -4   14     -0.26      0.00
    7   -4   15     -2.29      0.00
    7   -4   16      1.66      0.00
    7   -4   17     -2.20      0.00
    7   -4   18      1.06      0.00
    7   -4   19     -0.65      0.00
    7   -4   20      0.53      0.00
    7   -4   21      0.53      0.00
    7   -4   22     -1.59      0.00
    7   -4   23      0.67      0.00
    7   -4   24     -1.04      0.00
   -7    3   24      1.49      0.00
   -7    3   23      1.68      0.00
   -7    3   22      0.85      0.00
   -7    3   21     -1.64      0.00
   -7    3   20     -0.78      0.00
   -7    3   19      1.49      0.00
   -7    3   18     -1.48      0.00
   -7    3   17      0.10      0.00
   -7    3   16      0.39      0.00
   -7    3   15      1.33      0.00
   -7    3   14     -1.56      0.00
   -7    3   13     -2.09      0.00
   -7    3   12     -0.72      0.00
   -7    3   11      2.10      0.00
   -7    3   10      0.28      0.00
   -7    3    9     -1.88      0.00
   -7    3    8     -1.03      0.00
   -7    3    7      3.54      0.00
   -7    3    6      1.19      0.00
   -7    3    5      2.84      0.00
   -7    3    4     -2.58      0.00
   -7    3    3      0.86      0.00
   -7    3    2      2.82      0.00
   -7    3    1      1.76      0.00
   -7    3    0      3.26      0.00
    7   -3    1     -7.38      0.00
    7   -3    2      1.80      0.00
    7   -3    3     -6.91      0.00
    7   -3    4      2.27      0.00
    7   -3    5     -1.65      0.00
    7   -3    6      0.71      0.00
    7   -3    7      2.60      0.00
    7   -3    8     -1.90      0.00
    7   -3    9      0.89      0.00
    7   -3   10     -1.74      0.00
    7   -3   11      2.20      0.00
    7   -3   12      1.19      0.00
    7   -3   13      1.17      0.00
    7   -3   14      0.52      0.00
    7   -3   15      0.85      0.00
    7   -3   16     -0.59      0.00
    7   -3   17      0.23      0.00
    7   -3   18     -0.74      0.00
    7   -3   19     -0.46      0.00
    7   -3   20     -0.33      0.00
    7   -3   21     -0.55      0.00
    7   -3   22      1.17      0.00
    7   -3   23     -1.07      0.00
    7   -3   24      1.77      0.00
   -7    2   24     -1.28      0.00
   -7    2   23     -0.90      0.00
   -7    2   22      3.93      0.00
   -7    2   21      0.72      0.00
   -7    2   20      0.15      0.00
   -7    2   19     -0.09      0.00
   -7    2   18      1.52      0.00
   -7    2   17     -0.81      0.00
   -7    2   16     -2.71      0.00
   -7    2   15     -1.79      0.00
   -7    2   14      1.73      0.00
   -7    2   13     -0.96      0.00
   -7    2   12     -1.60      0.00
   -7    2   11     -2.80      0.00
   -7    2   10      1.30      0.00
   -7    2    9      4.10      0.00
   -7    2    8     -2.14      0.00
   -7    2    7     -2.66      0.00
   -7    2    6      1.19      0.00
   -7    2    5      4.14      0.00
   -7    2    4      3.10      0.00
   -7    2    3     -1.41      0.00
   -7    2    2     -1.60      0.00
   -7    2    1      5.35      0.00
   -7    2    0     -2.38      0.00
    7   -2    1      6.70      0.00
    7   -2    2     -6.21      0.00
    7   -2    3      5.95      0.00
    7   -2    4     -2.28      0.00
    7   -2    5     -4.09      0.00
    7   -2    6     -3.69      0.00
    7   -2    7     -3.47      0.00
    7   -2    8      4.19      0.00
    7   -2    9     -0.07      0.00
    7   -2   10      0.14      0.00
    7   -2   11     -2.07      0.00
    7   -2   12      0.69      0.00
    7   -2   13      0.36      0.00
    7   -2   14      0.05      0.00
    7   -2   15      0.45      0.00
    7   -2   16      0.49      0.00
    7   -2   17      1.96      0.00
    7   -2   18     -0.42      0.00
    7   -2   19      0.15      0.00
    7   -2   20      1.25      0.00
    7   -2   21      0.39      0.00
    7   -2   22      0.06      0.00
    7   -2   23     -0.14      0.00
    7   -2   24     -0.38      0.00
   -7    1   24     -0.96      0.00
   -7    1   23     -0.38      0.00
   -7    1   22     -2.53      0.00
   -7    1   21      1.57      0.00
   -7    1   20      0.73      0.00
   -7    1   19     -1.83      0.00
   -7    1   18      0.38      0.00
   -7    1   17      2.32      0.00
   -7    1   16      1.69      0.00
   -7    1   15      0.00      0.00
   -7    1   14     -2.14      0.00
   -7    1   13      0.75      0.00
   -7    1   12      0.00      0.00
   -7    1   11     -1.50      0.00
   -7    1   10     -2.87      0.00
   -7    1    9     -2.63      0.00
   -7    1    8      4.09      0.00
   -7    1    7     -0.72      0.00
   -7    1    6     -2.35      0.00
   -7    1    5     -2.41      0.00
   -7    1    4      4.80      0.00
   -7    1    3      2.70      0.00
   -7    1    2     -1.42      0.00
   -7    1    1     -4.65      0.00
   -7    1    0      5.72      0.00
    7   -1    1      1.65      0.00
    7   -1    2      1.11      0.00
    7   -1    3     -4.11      0.00
    7   -1    4      2.17      0.00
    7   -1    5      6.27      0.00
    7   -1    6      1.75      0.00
    7   -1    7     -3.55      0.00
    7   -1    8     -4.30      0.00
    7   -1    9      1.34      0.00
    7   -1   10     -0.46      0.00
    7   -1   11      0.81      0.00
    7   -1   12     -1.63      0.00
    7   -1   13      0.64      0.00
    7   -1   14      0.96      0.00
    7   -1   15     -0.56      0.00
    7   -1   16     -0.59      0.00
    7   -1   17     -0.78      0.00
    7   -1   18      0.69      0.00
    7   -1   19     -0.23      0.00
    7   -1   20     -1.46      0.00
    7   -1   21      0.28      0.00
    7   -1   22     -0.73      0.00
    7   -1   23      1.87      0.00
   -7    0   24      1.23      0.00
   -7    0   23      0.35      0.00
   -7    0   22     -0.37      0.00
   -7    0   21     -0.04      0.00
   -7    0   20      0.47      0.00
   -7    0   19      2.31      0.00
   -7    0   18     -0.41      0.00
   -7    0   17     -1.22      0.00
   -7    0   16      0.43      0.00
   -7    0   15      1.89      0.00
   -7    0   14      0.41      0.00
   -7    0   13      0.68      0.00
   -7    0   12      0.36      0.00
   -7    0   11     -0.73      0.00
   -7    0   10     -0.20      0.00
   -7    0    9     -1.95      0.00
   -7    0    8     -2.70      0.00
   -7    0    7      1.38      0.00
   -7    0    6     -1.75      0.00
   -7    0    5     -2.23      0.00
   -7    0    4     -5.06      0.00
   -7    0    3      4.41      0.00
   -7    0    2      6.39      0.00
   -7    0    1     -1.52      0.00
    7    0    0     -3.65      0.00
    7    0    1     -2.70      0.00
    7    0    2      6.42      0.00
    7    0    3      1.72      0.00
    7    0    4     -5.80      0.00
    7    0    5     -2.45      0.00
    7    0    6      0.34      0.00
    7    0    7      3.96      0.00
    7    0    8      0.32      0.00
    7    0    9     -2.99      0.00
    7    0   10      0.20      0.00
    7    0   11      0.29      0.00
    7    0   12     -0.67      0.00
    7    0   13     -1.74      0.00
    7    0   14     -1.35      0.00
    7    0   15      1.77      0.00
    7    0   16      0.71      0.00
    7    0   17     -0.05      0.00
    7    0   18     -0.23      0.00
    7    0   19      0.33      0.00
    7    0   20     -0.03      0.00
    7    0   21     -0.43      0.00
    7    0   22     -0.11      0.00
    7    0   23     -1.05      0.00
   -7   -1   24      0.08      0.00
   -7   -1   23     -1.11      0.00
   -7   -1   22      1.73      0.00
   -7   -1   21     -0.46      0.00
   -7   -1   20     -0.24      0.00
   -7   -1   19      0.22      0.00
   -7   -1   18      1.39      0.00
   -7   -1   17      0.21      0.00
   -7   -1   16      2.60      0.00
   -7   -1   15     -1.39      0.00
   -7   -1   14      0.48      0.00
   -7   -1   13      0.28      0.00
   -7   -1   12      0.55      0.00
   -7   -1   11      2.15      0.00
   -7   -1   10     -1.80      0.00
   -7   -1    9      0.49      0.00
   -7   -1    8     -1.31      0.00
   -7   -1    7     -0.77      0.00
   -7   -1    6      3.50      0.00
   -7   -1    5     -1.83      0.00
   -7   -1    4     -0.99      0.00
   -7   -1    3     -7.63      0.00
   -7   -1    2     -3.28      0.00
   -7   -1    1      8.06      0.00
    7    1    0      1.29      0.00
    7    1    1      0.04      0.00
    7    1    2     -2.56      0.00
    7    1    3      2.07      0.00
    7    1    4      6.11      0.00
    7    1    5     -0.91      0.00
    7    1    6     -0.48      0.00
    7    1    7     -2.18      0.00
    7    1    8      2.22      0.00
    7    1    9     -0.28      0.00
    7    1   10      0.43      0.00
    7    1   11     -1.44      0.00
    7    1   12      2.64      0.00
    7    1   13      0.59      0.00
    7    1   14     -0.93      0.00
    7    1   15     -2.24      0.00
    7    1   16     -0.08      0.00
    7    1   17      0.39      0.00
    7    1   18      0.71      0.00
    7    1   19     -0.25      0.00
    7    1   20      1.00      0.00
    7    1   21      0.01      0.00
    7    1   22      1.11      0.00
    7    1   23     -0.81      0.00
   -7   -2   25      2.43      0.00
   -7   -2   24     -1.24      0.00
   -7   -2   23     -0.36      0.00
   -7   -2   22     -1.59      0.00
   -7   -2   21     -0.37      0.00
   -7   -2   20     -0.41      0.00
   -7   -2   19      1.10      0.00
   -7   -2   18     -1.21      0.00
   -7   -2   17     -0.27      0.00
   -7   -2   16     -0.72      0.00
   -7   -2   15      2.19      0.00
   -7   -2   14      0.90      0.00
   -7   -2   13      0.67      0.00
   -7   -2   12      1.10      0.00
   -7   -2   11      0.58      0.00
   -7   -2   10      3.19      0.00
   -7   -2    9     -0.69      0.00
   -7   -2    8     -0.76      0.00
   -7   -2    7     -1.34      0.00
   -7   -2    6     -4.04      0.00
   -7   -2    5      3.54      0.00
   -7   -2    4      0.75      0.00
   -7   -2    3      2.36      0.00
   -7   -2    2     -2.03      0.00
   -7   -2    1     -5.78      0.00
    7    2    0      0.74      0.00
    7    2    1      1.50      0.00
    7    2    2     -0.63      0.00
    7    2    3     -0.19      0.00
    7    2    4     -1.33      0.00
    7    2    5      3.06      0.00
    7    2    6     -0.67      0.00
    7    2    7      3.28      0.00
    7    2    8     -3.50      0.00
    7    2    9      2.88      0.00
    7    2   10     -1.45      0.00
    7    2   11     -0.23      0.00
    7    2   12     -1.20      0.00
    7    2   13      0.82      0.00
    7    2   14      1.94      0.00
    7    2   15     -0.04      0.00
    7    2   16     -0.68      0.00
    7    2   17     -0.74      0.00
    7    2   18     -0.11      0.00
    7    2   19      0.40      0.00
    7    2   20     -1.41      0.00
    7    2   21      0.89      0.00
    7    2   22     -1.36      0.00
   -7   -3   24      1.28      0.00
   -7   -3   23      1.64      0.00
   -7   -3   22      0.40      0.00
   -7   -3   21     -1.53      0.00
   -7   -3   20     -0.52      0.00
   -7   -3   19     -1.76      0.00
   -7   -3   18      0.51      0.00
   -7   -3   17      1.61      0.00
   -7   -3   16     -1.32      0.00
   -7   -3   15     -1.01      0.00
   -7   -3   14      1.04      0.00
   -7   -3   13     -1.20      0.00
   -7   -3   12     -0.04      0.00
   -7   -3   11      0.14      0.00
   -7   -3   10      0.04      0.00
   -7   -3    9      1.77      0.00
   -7   -3    8      2.58      0.00
   -7   -3    7      1.05      0.00
   -7   -3    6      1.74      0.00
   -7   -3    5     -3.09      0.00
   -7   -3    4     -1.19      0.00
   -7   -3    3     -0.82      0.00
   -7   -3    2      0.11      0.00
   -7   -3    1     -0.61      0.00
    7    3    0      0.23      0.00
    7    3    1     -1.12      0.00
    7    3    2      0.19      0.00
    7    3    3     -1.31      0.00
    7    3    4      2.15      0.00
    7    3    5     -2.47      0.00
    7    3    6      3.31      0.00
    7    3    7     -2.15      0.00
    7    3    8      2.99      0.00
    7    3    9     -0.97      0.00
    7    3   10      0.79      0.00
    7    3   11      0.25      0.00
    7    3   12     -1.14      0.00
    7    3   13     -0.26      0.00
    7    3   14     -1.57      0.00
    7    3   15      1.70      0.00
    7    3   16      0.52      0.00
    7    3   17     -0.70      0.00
    7    3   18     -1.10      0.00
    7    3   19      0.55      0.00
    7    3   20      0.52      0.00
    7    3   21     -1.59      0.00
   -7   -4   24     -1.17      0.00
   -7   -4   23     -0.66      0.00
   -7   -4   22     -0.18      0.00
   -7   -4   21      2.14      0.00
   -7   -4   20     -0.01      0.00
   -7   -4   19     -1.29      0.00
   -7   -4   18     -0.92      0.00
   -7   -4   17     -1.45      0.00
   -7   -4   16     -0.63      0.00
   -7   -4   15      0.18      0.00
   -7   -4   14     -1.28      0.00
   -7   -4   13      0.50      0.00
   -7   -4   12      0.12      0.00
   -7   -4   11      1.51      0.00
   -7   -4   10     -1.07      0.00
   -7   -4    9      0.59      0.00
   -7   -4    8     -0.44      0.00
   -7   -4    7     -0.43      0.00
   -7   -4    6      1.30      0.00
   -7   -4    5      0.97      0.00
   -7   -4    4      1.50      0.00
   -7   -4    3      0.90      0.00
   -7   -4    2     -0.46      0.00
   -7   -4    1      0.53      0.00
    7    4    0     -3.50      0.00
    7    4    1      0.78      0.00
    7    4    2     -0.64      0.00
    7    4    3      0.01      0.00
    7    4    4     -2.42      0.00
    7    4    5      0.97      0.00
    7    4    6     -1.72      0.00
    7    4    7      0.61      0.00
    7    4    8     -0.44      0.00
    7    4    9     -0.19      0.00
    7    4   10      1.01      0.00
    7    4   11      0.14      0.00
    7    4   12      0.85      0.00
    7    4   13     -0.13      0.00
    7    4   14     -0.25      0.00
    7    4   15     -1.44      0.00
    7    4   16      0.55      0.00
    7    4   17      0.59      0.00
    7    4   18      0.21      0.00
    7    4   19     -1.28      0.00
    7    4   20      0.64      0.00
   -7   -5   24      1.19      0.00
   -7   -5   23      0.09      0.00
   -7   -5   22     -0.85      0.00
   -7   -5   21     -0.60      0.00
   -7   -5   20      0.14      0.00
   -7   -5   19      0.26      0.00
   -7   -5   18      0.15      0.00
   -7   -5   17     -0.27      0.00
   -7   -5   16     -0.30      0.00
   -7   -5   15      0.18      0.00
   -7   -5   14      0.74      0.00
   -7   -5   13     -1.94      0.00
   -7   -5   12      0.26      0.00
   -7   -5   11     -1.28      0.00
   -7   -5   10      1.26      0.00
   -7   -5    9      0.01      0.00
   -7   -5    8      0.34      0.00
   -7   -5    7      2.03      0.00
   -7   -5    6     -1.55      0.00
   -7   -5    5      1.11      0.00
   -7   -5    4     -0.49      0.00
   -7   -5    3     -1.19      0.00
   -7   -5    2      1.37      0.00
   -7   -5    1      0.02      0.00
    7    5    0      1.29      0.00
    7    5    1     -1.38      0.00
    7    5    2     -0.48      0.00
    7    5    3     -0.39      0.00
    7    5    4      0.04      0.00
    7    5    5      0.39      0.00
    7    5    6     -1.70      0.00
    7    5    7      0.60      0.00
    7    5    8      0.41      0.00
    7    5    9      0.36      0.00
    7    5   10     -0.35      0.00
    7    5   11     -0.71      0.00
    7    5   12      0.44      0.00
    7    5   13      0.49      0.00
    7    5   14      1.16      0.00
    7    5   15     -0.35      0.00
    7    5   16     -0.02      0.00
    7    5   17      0.20      0.00
    7    5   18      1.22      0.00
    7    5   19     -0.45      0.00
   -7   -6   24      0.28      0.00
   -7   -6   23     -0.59      0.00
   -7   -6   22      1.34      0.00
   -7   -6   21      0.81      0.00
   -7   -6   20      0.43      0.00
   -7   -6   19      1.02      0.00
   -7   -6   18      0.20      0.00
   -7   -6   17      0.30      0.00
   -7   -6   16     -0.65      0.00
   -7   -6   15     -0.41      0.00
   -7   -6   14     -1.71      0.00
   -7   -6   13      1.62      0.00
   -7   -6   12     -1.45      0.00
   -7   -6   11     -0.40      0.00
   -7   -6   10      0.14      0.00
   -7   -6    9     -1.03      0.00
   -7   -6    8      0.33      0.00
   -7   -6    7      0.11      0.00
   -7   -6    6      1.14      0.00
   -7   -6    5      0.29      0.00
   -7   -6    4      1.01      0.00
   -7   -6    3      1.35      0.00
   -7   -6    2      0.48      0.00
   -7   -6    1     -0.73      0.00
    7    6    0     -0.34      0.00
    7    6    1      0.94      0.00
    7    6    2      0.22      0.00
    7    6    3     -0.93      0.00
    7    6    4     -0.06      0.00
    7    6    5      0.18      0.00
    7    6    6      1.34      0.00
    7    6    7     -2.66      0.00
    7    6    8     -1.54      0.00
    7    6    9      0.17      0.00
    7    6   10      0.23      0.00
    7    6   11      1.00      0.00
    7    6   12     -2.05      0.00
    7    6   13     -0.20      0.00
    7    6   14     -0.01      0.00
    7    6   15      1.41      0.00
    7    6   16     -1.33      0.00
    7    6   17      1.61      0.00
    7    6   18     -1.50      0.00
   -7   -7   23      0.78      0.00
   -7   -7   22     -0.93      0.00
   -7   -7   21     -1.33      0.00
   -7   -7   20      0.84      0.00
   -7   -7   19     -0.64      0.00
   -7   -7   18      0.07      0.00
   -7   -7   17     -0.72      0.00
   -7   -7   16      0.89      0.00
   -7   -7   15     -0.61      0.00
   -7   -7   14      0.61      0.00
   -7   -7   13     -0.75      0.00
   -7   -7   12     -1.33      0.00
   -7   -7   11     -0.05      0.00
   -7   -7   10     -0.48      0.00
   -7   -7    9     -0.58      0.00
   -7   -7    8     -1.02      0.00
   -7   -7    7     -0.58      0.00
   -7   -7    6      0.81      0.00
   -7   -7    5     -1.03      0.00
   -7   -7    4     -1.06      0.00
   -7   -7    3      0.05      0.00
   -7   -7    2      0.30      0.00
   -7   -7    1      2.44      0.00
    7    7    0      0.58      0.00
    7    7    1     -0.16      0.00
    7    7    2      0.78      0.00
    7    7    3      0.48      0.00
    7    7    4     -1.00      0.00
    7    7    5     -1.15      0.00
    7    7    6      0.24      0.00
    7    7    7      3.00      0.00
    7    7    8     -0.19      0.00
    7    7    9     -0.94      0.00
    7    7   10     -0.24      0.00
    7    7   11      0.49      0.00
    7    7   12      1.38      0.00
    7    7   13     -0.78      0.00
    7    7   14     -0.85      0.00
    7    7   15     -1.93      0.00
    7    7   16      1.38      0.00
    7    7   17     -1.49      0.00
   -7   -8   22      0.56      0.00
   -7   -8   21     -0.43      0.00
   -7   -8   20     -1.33      0.00
   -7   -8   19      0.77      0.00
   -7   -8   18      0.49      0.00
   -7   -8   17      0.63      0.00
   -7   -8   16     -0.14      0.00
   -7   -8   15     -0.33      0.00
   -7   -8   14      0.41      0.00
   -7   -8   13     -0.02      0.00
   -7   -8   12      0.57      0.00
   -7   -8   11     -0.86      0.00
   -7   -8   10     -0.67      0.00
   -7   -8    9      0.75      0.00
   -7   -8    8     -0.89      0.00
   -7   -8    7     -1.10      0.00
   -7   -8    6     -0.54      0.00
   -7   -8    5      2.33      0.00
   -7   -8    4      1.47      0.00
   -7   -8    3     -1.10      0.00
   -7   -8    2     -0.03      0.00
   -7   -8    1     -1.28      0.00
    7    8    0      0.84      0.00
    7    8    1     -0.24      0.00
    7    8    2     -0.22      0.00
    7    8    3      0.63      0.00
    7    8    4      0.76      0.00
    7    8    5     -0.45      0.00
    7    8    6     -0.21      0.00
    7    8    7     -1.27      0.00
    7    8    8      0.85      0.00
    7    8    9      0.13      0.00
    7    8   10      0.84      0.00
    7    8   11     -1.21      0.00
    7    8   12      0.38      0.00
    7    8   13      1.99      0.00
    7    8   14      1.06      0.00
    7    8   15      0.63      0.00
    7    8   16     -1.10      0.00
   -7   -9   21      1.21      0.00
   -7   -9   20      0.55      0.00
   -7   -9   19     -0.49      0.00
   -7   -9   18     -0.04      0.00
   -7   -9   17      0.23      0.00
   -7   -9   16      0.06      0.00
   -7   -9   15      0.65      0.00
   -7   -9   14      0.12      0.00
   -7   -9   13     -0.02      0.00
   -7   -9   12      1.23      0.00
   -7   -9   11     -0.34      0.00
   -7   -9   10     -0.25      0.00
   -7   -9    9     -0.49      0.00
   -7   -9    8      1.33      0.00
   -7   -9    7     -0.32      0.00
   -7   -9    6     -1.44      0.00
   -7   -9    5     -1.40      0.00
   -7   -9    4     -1.46      0.00
   -7   -9    3      1.83      0.00
   -7   -9    2     -0.76      0.00
   -7   -9    1      0.04      0.00
    7    9    0     -0.05      0.00
    7    9    1      1.03      0.00
    7    9    2      0.55      0.00
    7    9    3      0.66      0.00
    7    9    4      0.80      0.00
    7    9    5      0.03      0.00
    7    9    6     -0.33      0.00
    7    9    7     -0.05      0.00
    7    9    8     -0.49      0.00
    7    9    9     -0.45      0.00
    7    9   10     -0.68      0.00
    7    9   11      0.91      0.00
    7    9   12     -0.39      0.00
    7    9   13     -1.75      0.00
    7    9   14      0.30      0.00
    7    9   15      0.73      0.00
   -7  -10   20     -1.33      0.00
   -7  -10   19      1.12      0.00
   -7  -10   18      1.04      0.00
   -7  -10   17      0.10      0.00
   -7  -10   16      0.87      0.00
   -7  -10   15      1.33      0.00
   -7  -10   14     -0.28      0.00
   -7  -10   13      0.78      0.00
   -7  -10   12     -0.77      0.00
   -7  -10   11      2.24      0.00
   -7  -10   10      0.31      0.00
   -7  -10    9     -0.46      0.00
   -7  -10    8     -1.17      0.00
   -7  -10    7     -0.27      0.00
   -7  -10    6     -0.08      0.00
   -7  -10    5     -0.55      0.00
   -7  -10    4      0.40      0.00
   -7  -10    3     -1.35      0.00
   -7  -10    2      0.54      0.00
   -7  -10    1     -0.20      0.00
    7   10    0     -0.42      0.00
    7   10    1     -0.76      0.00
    7   10    2     -1.04      0.00
    7   10    3      0.09      0.00
    7   10    4     -0.66      0.00
    7   10    5      1.57      0.00
    7   10    6      0.35      0.00
    7   10    7      1.36      0.00
    7   10    8      0.66      0.00
    7   10    9      0.93      0.00
    7   10   10     -1.22      0.00
    7   10   11     -0.99      0.00
    7   10   12     -0.13      0.00
    7   10   13      0.30      0.00
   -7  -11   19     -2.19      0.00
   -7  -11   18     -0.98      0.00
   -7  -11   17      0.85      0.00
   -7  -11   16     -1.15      0.00
   -7  -11   15     -1.08      0.00
   -7  -11   14      2.16      0.00
   -7  -11   13      0.55      0.00
   -7  -11   12     -0.39      0.00
   -7  -11   11     -1.41      0.00
   -7  -11   10      1.80      0.00
   -7  -11    9      0.90      0.00
   -7  -11    8      1.50      0.00
   -7  -11    7      0.66      0.00
   -7  -11    6     -0.07      0.00
   -7  -11    5     -1.14      0.00
   -7  -11    4     -0.49      0.00
   -7  -11    3      0.75      0.00
   -7  -11    2     -0.72      0.00
   -7  -11    1      0.18      0.00
    7   11    0     -0.02      0.00
    7   11    1     -0.29      0.00
    7   11    2      1.08      0.00
    7   11    3     -0.86      0.00
    7   11    4      0.76      0.00
    7   11    5     -0.84      0.00
    7   11    6      0.13      0.00
    7   11    7     -1.77      0.00
    7   11    8     -0.52      0.00
    7   11    9      1.58      0.00
    7   11   10      1.16      0.00
    7   11   11      1.66      0.00
   -7  -12   18     -1.20      0.00
   -7  -12   17     -0.42      0.00
   -7  -12   16      0.67      0.00
   -7  -12   15     -1.30      0.00
   -7  -12   14     -0.79      0.00
   -7  -12   13      0.96      0.00
   -7  -12   12      0.73      0.00
   -7  -12   11      1.25      0.00
   -7  -12   10     -1.93      0.00
   -7  -12    9      0.20      0.00
   -7  -12    8      0.24      0.00
   -7  -12    7      0.89      0.00
   -7  -12    6      2.24      0.00
   -7  -12    5      0.82      0.00
   -7  -12    4     -0.43      0.00
   -7  -12    3     -0.83      0.00
   -7  -12    2      0.12      0.00
   -7  -12    1      0.76      0.00
    7   12    0     -0.16      0.00
    7   12    1      0.61      0.00
    7   12    2      0.46      0.00
    7   12    3      0.28      0.00
    7   12    4     -0.87      0.00
    7   12    5     -0.31      0.00
    7   12    6      0.82      0.00
    7   12    7      0.15      0.00
    7   12    8      1.18      0.00
    7   12    9     -3.07      0.00
   -7  -13   16     -0.46      0.00
   -7  -13   15     -0.29      0.00
   -7  -13   14     -1.42      0.00
   -7  -13   13     -1.58      0.00
   -7  -13   12      0.60      0.00
   -7  -13   11     -0.69      0.00
   -7  -13   10      0.81      0.00
   -7  -13    9      0.71      0.00
   -7  -13    8     -1.48      0.00
   -7  -13    7     -0.27      0.00
   -7  -13    6     -0.35      0.00
   -7  -13    5      0.42      0.00
   -7  -13    4      2.14      0.00
   -7  -13    3     -0.50      0.00
   -7  -13    2     -0.01      0.00
   -7  -13    1     -0.33      0.00
    7   13    0     -0.31      0.00
    7   13    1     -0.99      0.00
    7   13    2     -2.11      0.00
    7   13    3      1.08      0.00
    7   13    4      0.28      0.00
    7   13    5      0.80      0.00
    7   13    6     -1.37      0.00
   -7  -14   13     -0.43      0.00
   -7  -14   12     -0.58      0.00
   -7  -14   11     -0.96      0.00
   -7  -14   10     -0.31      0.00
   -7  -14    9     -0.90      0.00
   -7  -14    8     -0.65      0.00
   -7  -14    7      0.83      0.00
   -7  -14    6     -2.30      0.00
   -7  -14    5      0.80      0.00
   -7  -14    4     -1.44      0.00
   -7  -14    3      0.56      0.00
   -7  -14    2     -0.15      0.00
   -7  -14    1     -1.08      0.00
    7   14    0      0.64      0.00
    7   14    1      0.46      0.00
    7   14    2      1.31      0.00
    7   14    3     -2.01      0.00
   -7  -15    6      1.68      0.00
   -7  -15    5     -1.08      0.00
   -8   19    0      0.65      0.00
    8  -19    1      0.83      0.00
    8  -19    2      1.75      0.00
    8  -19    3     -0.11      0.00
    8  -19    4     -0.32      0.00
    8  -19    5     -0.64      0.00
    8  -19    6     -1.14      0.00
    8  -19    7     -0.96      0.00
    8  -19    8      0.26      0.00
    8  -19    9      1.64      0.00
    8  -19   10     -0.28      0.00
   -8   18    5     -0.02      0.00
   -8   18    4      0.53      0.00
   -8   18    3      1.40      0.00
   -8   18    2     -0.02      0.00
   -8   18    1      0.24      0.00
   -8   18    0     -0.54      0.00
    8  -18    1      0.00      0.00
    8  -18    2     -0.77      0.00
    8  -18    3      0.85      0.00
    8  -18    4      1.07      0.00
    8  -18    5      0.43      0.00
    8  -18    6      1.65      0.00
    8  -18    7     -1.02      0.00
    8  -18    8     -0.35      0.00
    8  -18    9     -1.43      0.00
    8  -18   10      0.39      0.00
    8  -18   11      0.49      0.00
    8  -18   12      0.51      0.00
    8  -18   13      0.81      0.00
    8  -18   14      0.26      0.00
   -8   17    8     -1.20      0.00
   -8   17    7      0.54      0.00
   -8   17    6      0.44      0.00
   -8   17    5     -1.58      0.00
   -8   17    4     -1.74      0.00
   -8   17    3     -1.55      0.00
   -8   17    2      1.31      0.00
   -8   17    1     -0.90      0.00
   -8   17    0      0.59      0.00
    8  -17    1      0.14      0.00
    8  -17    2      0.69      0.00
    8  -17    3     -0.90      0.00
    8  -17    4      0.41      0.00
    8  -17    5      0.65      0.00
    8  -17    6     -1.10      0.00
    8  -17    7      1.11      0.00
    8  -17    8      0.61      0.00
    8  -17    9     -1.07      0.00
    8  -17   10      0.55      0.00
    8  -17   11     -2.20      0.00
    8  -17   12     -0.09      0.00
    8  -17   13     -0.03      0.00
    8  -17   14      0.32      0.00
    8  -17   15      0.46      0.00
    8  -17   16      0.01      0.00
   -8   16   10      1.49      0.00
   -8   16    9     -0.35      0.00
   -8   16    8      1.18      0.00
   -8   16    7     -1.21      0.00
   -8   16    6      0.79      0.00
   -8   16    5      1.55      0.00
   -8   16    4     -0.62      0.00
   -8   16    3      0.98      0.00
   -8   16    2     -2.22      0.00
   -8   16    1      0.08      0.00
   -8   16    0     -0.92      0.00
    8  -16    1      0.94      0.00
    8  -16    2     -0.06      0.00
    8  -16    3      0.31      0.00
    8  -16    4     -0.66      0.00
    8  -16    5      0.57      0.00
    8  -16    6      0.98      0.00
    8  -16    7     -0.02      0.00
    8  -16    8     -1.22      0.00
    8  -16    9      1.73      0.00
    8  -16   10      0.10      0.00
    8  -16   11      0.63      0.00
    8  -16   12     -0.75      0.00
    8  -16   13     -0.32      0.00
    8  -16   14     -0.70      0.00
    8  -16   15     -0.91      0.00
    8  -16   16      0.54      0.00
    8  -16   17     -1.21      0.00
    8  -16   18      1.96      0.00
   -8   15   12     -0.49      0.00
   -8   15   11      0.86      0.00
   -8   15   10     -1.35      0.00
   -8   15    9      1.41      0.00
   -8   15    8      0.19      0.00
   -8   15    7      1.01      0.00
   -8   15    6      0.05      0.00
   -8   15    5     -1.63      0.00
   -8   15    4      0.51      0.00
   -8   15    3     -0.02      0.00
   -8   15    2      1.22      0.00
   -8   15    1      0.30      0.00
   -8   15    0     -0.59      0.00
    8  -15    1     -1.23      0.00
    8  -15    2      0.22      0.00
    8  -15    3      0.52      0.00
    8  -15    4     -0.27      0.00
    8  -15    5     -0.76      0.00
    8  -15    6      0.83      0.00
    8  -15    7      1.01      0.00
    8  -15    8      0.43      0.00
    8  -15    9     -0.43      0.00
    8  -15   10     -0.42      0.00
    8  -15   11     -0.28      0.00
    8  -15   12     -0.01      0.00
    8  -15   13      0.00      0.00
    8  -15   14     -0.20      0.00
    8  -15   15      0.23      0.00
    8  -15   16     -1.17      0.00
    8  -15   17      0.66      0.00
    8  -15   18     -0.75      0.00
    8  -15   19     -1.85      0.00
   -8   14   14      0.18      0.00
   -8   14   13     -1.02      0.00
   -8   14   12      0.98      0.00
   -8   14   11     -0.01      0.00
   -8   14   10     -0.47      0.00
   -8   14    9     -1.19      0.00
   -8   14    8     -1.14      0.00
   -8   14    7      0.53      0.00
   -8   14    6      0.97      0.00
   -8   14    5      0.66      0.00
   -8   14    4      0.69      0.00
   -8   14    3     -1.72      0.00
   -8   14    2     -0.84      0.00
   -8   14    1     -0.46      0.00
   -8   14    0     -0.16      0.00
    8  -14    1     -1.03      0.00
    8  -14    2      0.08      0.00
    8  -14    3      0.08      0.00
    8  -14    4      0.12      0.00
    8  -14    5     -0.06      0.00
    8  -14    6     -0.83      0.00
    8  -14    7     -0.48      0.00
    8  -14    8     -0.38      0.00
    8  -14    9      0.22      0.00
    8  -14   10      1.34      0.00
    8  -14   11      0.55      0.00
    8  -14   12      0.06      0.00
    8  -14   13     -1.00      0.00
    8  -14   14      0.48      0.00
    8  -14   15     -0.75      0.00
    8  -14   16     -1.02      0.00
    8  -14   17     -0.43      0.00
    8  -14   18      0.64      0.00
    8  -14   19      1.61      0.00
    8  -14   20     -1.14      0.00
   -8   13   15      0.77      0.00
   -8   13   14     -0.85      0.00
   -8   13   13     -0.13      0.00
   -8   13   12     -0.76      0.00
   -8   13   11      0.25      0.00
   -8   13   10      2.26      0.00
   -8   13    9      1.37      0.00
   -8   13    8     -0.32      0.00
   -8   13    7     -0.07      0.00
   -8   13    6     -0.23      0.00
   -8   13    5      0.03      0.00
   -8   13    4     -0.29      0.00
   -8   13    3     -0.02      0.00
   -8   13    2      0.65      0.00
   -8   13    1      0.55      0.00
   -8   13    0     -0.99      0.00
    8  -13    1      0.33      0.00
    8  -13    2     -2.19      0.00
    8  -13    3     -1.43      0.00
    8  -13    4     -0.66      0.00
    8  -13    5     -0.42      0.00
    8  -13    6      0.29      0.00
    8  -13    7      0.74      0.00
    8  -13    8      1.05      0.00
    8  -13    9     -0.88      0.00
    8  -13   10     -1.38      0.00
    8  -13   11      1.04      0.00
    8  -13   12      0.46      0.00
    8  -13   13      0.73      0.00
    8  -13   14     -0.16      0.00
    8  -13   15      0.99      0.00
    8  -13   16      0.35      0.00
    8  -13   17     -1.00      0.00
    8  -13   18     -0.74      0.00
    8  -13   19      0.63      0.00
    8  -13   20      0.35      0.00
    8  -13   21      1.11      0.00
   -8   12   16      1.34      0.00
   -8   12   15     -0.92      0.00
   -8   12   14     -0.60      0.00
   -8   12   13      0.02      0.00
   -8   12   12     -1.05      0.00
   -8   12   11     -2.26      0.00
   -8   12   10     -1.02      0.00
   -8   12    9      0.00      0.00
   -8   12    8      1.25      0.00
   -8   12    7     -0.89      0.00
   -8   12    6     -0.05      0.00
   -8   12    5      3.19      0.00
   -8   12    4      0.86      0.00
   -8   12    3      0.69      0.00
   -8   12    2      0.63      0.00
   -8   12    1     -1.13      0.00
   -8   12    0      1.19      0.00
    8  -12    1     -0.44      0.00
    8  -12    2      1.84      0.00
    8  -12    3     -0.23      0.00
    8  -12    4      0.03      0.00
    8  -12    5     -0.67      0.00
    8  -12    6     -1.55      0.00
    8  -12    7     -0.96      0.00
    8  -12    8      0.01      0.00
    8  -12    9      1.55      0.00
    8  -12   10     -0.08      0.00
    8  -12   11     -0.42      0.00
    8  -12   12      0.98      0.00
    8  -12   13     -0.03      0.00
    8  -12   14      1.23      0.00
    8  -12   15     -0.08      0.00
    8  -12   16      1.06      0.00
    8  -12   17      0.83      0.00
    8  -12   18     -0.55      0.00
    8  -12   19     -0.95      0.00
    8  -12   20      0.59      0.00
    8  -12   21     -0.27      0.00
    8  -12   22      0.54      0.00
   -8   11   18     -1.08      0.00
   -8   11   17      0.67      0.00
   -8   11   16      0.76      0.00
   -8   11   15      0.49      0.00
   -8   11   14      1.20      0.00
   -8   11   13     -0.41      0.00
   -8   11   12      0.66      0.00
   -8   11   11      0.21      0.00
   -8   11   10     -2.38      0.00
   -8   11    9     -0.20      0.00
   -8   11    8     -0.25      0.00
   -8   11    7      1.32      0.00
   -8   11    6     -1.32      0.00
   -8   11    5     -1.37      0.00
   -8   11    4      0.05      0.00
   -8   11    3      1.48      0.00
   -8   11    2      0.82      0.00
   -8   11    1      2.30      0.00
   -8   11    0      0.66      0.00
    8  -11    1      0.25      0.00
    8  -11    2     -0.50      0.00
    8  -11    3      0.29      0.00
    8  -11    4      0.00      0.00
    8  -11    5     -0.02      0.00
    8  -11    6      0.67      0.00
    8  -11    7     -1.17      0.00
    8  -11    8     -0.47      0.00
    8  -11    9     -0.91      0.00
    8  -11   10      0.88      0.00
    8  -11   11     -0.07      0.00
    8  -11   12     -1.41      0.00
    8  -11   13      0.88      0.00
    8  -11   14     -1.15      0.00
    8  -11   15      0.83      0.00
    8  -11   16      0.04      0.00
    8  -11   17     -0.11      0.00
    8  -11   18      1.39      0.00
    8  -11   19     -0.54      0.00
    8  -11   20      0.53      0.00
    8  -11   21     -1.07      0.00
    8  -11   22      0.18      0.00
    8  -11   23     -0.36      0.00
   -8   10   19      0.21      0.00
   -8   10   18      0.28      0.00
   -8   10   17      0.89      0.00
   -8   10   16     -0.89      0.00
   -8   10   15      0.18      0.00
   -8   10   14      0.74      0.00
   -8   10   13      0.60      0.00
   -8   10   12     -0.20      0.00
   -8   10   11      0.62      0.00
   -8   10   10      1.38      0.00
   -8   10    9     -2.85      0.00
   -8   10    8     -0.39      0.00
   -8   10    7     -1.48      0.00
   -8   10    6      1.14      0.00
   -8   10    5      0.02      0.00
   -8   10    4      0.61      0.00
   -8   10    3     -0.58      0.00
   -8   10    2     -1.13      0.00
   -8   10    1      1.38      0.00
   -8   10    0     -0.29      0.00
    8  -10    1      2.01      0.00
    8  -10    2     -0.06      0.00
    8  -10    3      1.20      0.00
    8  -10    4     -0.41      0.00
    8  -10    5      0.43      0.00
    8  -10    6     -0.92      0.00
    8  -10    7      0.52      0.00
    8  -10    8     -1.32      0.00
    8  -10    9     -1.19      0.00
    8  -10   10     -1.48      0.00
    8  -10   11      0.55      0.00
    8  -10   12      0.32      0.00
    8  -10   13     -0.06      0.00
    8  -10   14      0.54      0.00
    8  -10   15     -1.35      0.00
    8  -10   16      0.26      0.00
    8  -10   17      1.02      0.00
    8  -10   18     -1.57      0.00
    8  -10   19      1.38      0.00
    8  -10   20     -0.74      0.00
    8  -10   21      0.61      0.00
    8  -10   22      0.17      0.00
    8  -10   23      0.22      0.00
   -8    9   20     -0.81      0.00
   -8    9   19     -0.97      0.00
   -8    9   18      0.24      0.00
   -8    9   17      0.14      0.00
   -8    9   16      1.30      0.00
   -8    9   15      0.22      0.00
   -8    9   14     -0.39      0.00
   -8    9   13      1.49      0.00
   -8    9   12      0.33      0.00
   -8    9   11     -0.10      0.00
   -8    9   10      0.83      0.00
   -8    9    9      0.77      0.00
   -8    9    8     -0.28      0.00
   -8    9    7     -0.94      0.00
   -8    9    6     -2.75      0.00
   -8    9    5     -0.97      0.00
   -8    9    4     -0.08      0.00
   -8    9    3     -0.85      0.00
   -8    9    2      0.54      0.00
   -8    9    1     -2.05      0.00
   -8    9    0      2.00      0.00
    8   -9    1     -0.98      0.00
    8   -9    2      1.96      0.00
    8   -9    3     -0.36      0.00
    8   -9    4      1.38      0.00
    8   -9    5     -0.20      0.00
    8   -9    6      1.15      0.00
    8   -9    7      0.09      0.00
    8   -9    8      1.53      0.00
    8   -9    9      0.22      0.00
    8   -9   10      1.33      0.00
    8   -9   11     -3.04      0.00
    8   -9   12     -0.55      0.00
    8   -9   13     -0.75      0.00
    8   -9   14      0.24      0.00
    8   -9   15      0.29      0.00
    8   -9   16     -0.06      0.00
    8   -9   17     -0.25      0.00
    8   -9   18      0.64      0.00
    8   -9   19     -0.68      0.00
    8   -9   20      0.28      0.00
    8   -9   21     -0.02      0.00
    8   -9   22     -0.03      0.00
    8   -9   23      0.24      0.00
   -8    8   20     -0.07      0.00
   -8    8   19      0.53      0.00
   -8    8   18     -1.29      0.00
   -8    8   17     -1.28      0.00
   -8    8   16     -0.37      0.00
   -8    8   15      1.05      0.00
   -8    8   14      0.15      0.00
   -8    8   13      0.05      0.00
   -8    8   12      0.74      0.00
   -8    8   11      0.82      0.00
   -8    8   10     -1.43      0.00
   -8    8    9      1.21      0.00
   -8    8    8      0.21      0.00
   -8    8    7      0.41      0.00
   -8    8    6      0.12      0.00
   -8    8    5     -2.88      0.00
   -8    8    4     -1.59      0.00
   -8    8    3      0.38      0.00
   -8    8    2     -0.31      0.00
   -8    8    1     -0.36      0.00
   -8    8    0     -2.92      0.00
    8   -8    1      1.22      0.00
    8   -8    2     -0.98      0.00
    8   -8    3      1.77      0.00
    8   -8    4      0.82      0.00
    8   -8    5      1.05      0.00
    8   -8    6      0.10      0.00
    8   -8    7      0.08      0.00
    8   -8    8     -1.26      0.00
    8   -8    9      0.40      0.00
    8   -8   10     -1.20      0.00
    8   -8   11      2.81      0.00
    8   -8   12     -0.43      0.00
    8   -8   13     -0.01      0.00
    8   -8   14     -1.60      0.00
    8   -8   15     -0.04      0.00
    8   -8   16     -0.54      0.00
    8   -8   17     -0.37      0.00
    8   -8   18      0.98      0.00
    8   -8   19      0.60      0.00
    8   -8   20      0.00      0.00
    8   -8   22     -0.58      0.00
    8   -8   23      0.09      0.00
    8   -8   24      0.49      0.00
   -8    7   21      0.26      0.00
   -8    7   20     -0.94      0.00
   -8    7   19     -0.04      0.00
   -8    7   18      1.57      0.00
   -8    7   17     -0.41      0.00
   -8    7   16     -0.57      0.00
   -8    7   15     -1.17      0.00
   -8    7   14     -0.42      0.00
   -8    7   13      0.11      0.00
   -8    7   12      0.80      0.00
   -8    7   11      0.80      0.00
   -8    7   10      1.63      0.00
   -8    7    9     -0.90      0.00
   -8    7    8      0.16      0.00
   -8    7    7      1.64      0.00
   -8    7    6      1.57      0.00
   -8    7    5      2.04      0.00
   -8    7    4     -3.15      0.00
   -8    7    3     -1.81      0.00
   -8    7    2     -0.88      0.00
   -8    7    1      0.27      0.00
   -8    7    0      2.45      0.00
    8   -7    1     -2.71      0.00
    8   -7    2     -1.12      0.00
    8   -7    3     -0.31      0.00
    8   -7    4     -0.69      0.00
    8   -7    5      0.61      0.00
    8   -7    6      0.92      0.00
    8   -7    7      1.31      0.00
    8   -7    8      1.74      0.00
    8   -7    9      0.74      0.00
    8   -7   10      0.48      0.00
    8   -7   11     -1.87      0.00
    8   -7   12      1.36      0.00
    8   -7   13      0.06      0.00
    8   -7   14      0.86      0.00
    8   -7   15      0.44      0.00
    8   -7   16     -1.15      0.00
    8   -7   17      0.63      0.00
    8   -7   18     -1.78      0.00
    8   -7   19     -0.03      0.00
    8   -7   20      0.21      0.00
    8   -7   21      0.25      0.00
    8   -7   22     -0.04      0.00
    8   -7   23     -0.66      0.00
    8   -7   24      0.66      0.00
   -8    6   22      1.14      0.00
   -8    6   21      1.00      0.00
   -8    6   20     -0.74      0.00
   -8    6   19     -0.42      0.00
   -8    6   18     -0.65      0.00
   -8    6   17     -0.93      0.00
   -8    6   16      0.85      0.00
   -8    6   15     -0.24      0.00
   -8    6   14     -0.17      0.00
   -8    6   13     -0.86      0.00
   -8    6   12     -0.87      0.00
   -8    6   11      0.83      0.00
   -8    6   10      1.04      0.00
   -8    6    9      2.13      0.00
   -8    6    8     -0.06      0.00
   -8    6    7     -1.68      0.00
   -8    6    6      0.79      0.00
   -8    6    5     -0.14      0.00
   -8    6    4      4.35      0.00
   -8    6    3     -0.15      0.00
   -8    6    2     -3.11      0.00
   -8    6    1     -2.39      0.00
   -8    6    0     -1.08      0.00
    8   -6    1      0.67      0.00
    8   -6    2     -0.13      0.00
    8   -6    3     -1.43      0.00
    8   -6    4     -0.32      0.00
    8   -6    5      1.18      0.00
    8   -6    6     -0.99      0.00
    8   -6    7     -0.64      0.00
    8   -6    8     -0.14      0.00
    8   -6    9      0.45      0.00
    8   -6   10      2.15      0.00
    8   -6   11      0.72      0.00
    8   -6   12     -0.74      0.00
    8   -6   13     -0.74      0.00
    8   -6   14      1.80      0.00
    8   -6   15     -1.47      0.00
    8   -6   16      1.92      0.00
    8   -6   17     -1.50      0.00
    8   -6   18      1.72      0.00
    8   -6   19     -1.22      0.00
    8   -6   20      0.56      0.00
    8   -6   21      1.45      0.00
    8   -6   22     -1.28      0.00
    8   -6   23      0.47      0.00
    8   -6   24     -1.14      0.00
   -8    5   22     -0.86      0.00
   -8    5   21     -1.08      0.00
   -8    5   20      1.25      0.00
   -8    5   19     -0.33      0.00
   -8    5   18     -1.97      0.00
   -8    5   17      1.16      0.00
   -8    5   16     -1.93      0.00
   -8    5   15     -1.09      0.00
   -8    5   14      0.24      0.00
   -8    5   13     -0.46      0.00
   -8    5   12     -0.80      0.00
   -8    5   11     -2.05      0.00
   -8    5   10     -1.09      0.00
   -8    5    9      0.94      0.00
   -8    5    8      1.68      0.00
   -8    5    7      2.43      0.00
   -8    5    6      0.34      0.00
   -8    5    5     -0.11      0.00
   -8    5    4     -1.21      0.00
   -8    5    3      3.08      0.00
   -8    5    2      1.96      0.00
   -8    5    1      0.05      0.00
   -8    5    0     -2.43      0.00
    8   -5    1     -0.40      0.00
    8   -5    2      1.64      0.00
    8   -5    3     -2.93      0.00
    8   -5    4      0.25      0.00
    8   -5    5     -3.34      0.00
    8   -5    6      2.36      0.00
    8   -5    7      1.17      0.00
    8   -5    8     -1.89      0.00
    8   -5    9      0.49      0.00
    8   -5   10     -2.17      0.00
    8   -5   11      2.58      0.00
    8   -5   12     -0.43      0.00
    8   -5   13      0.80      0.00
    8   -5   14     -1.91      0.00
    8   -5   15      0.86      0.00
    8   -5   16     -0.50      0.00
    8   -5   17      0.50      0.00
    8   -5   18     -0.87      0.00
    8   -5   19      0.04      0.00
    8   -5   20     -0.81      0.00
    8   -5   21     -1.43      0.00
    8   -5   22      1.68      0.00
    8   -5   23     -0.95      0.00
    8   -5   24      1.25      0.00
   -8    4   23      0.56      0.00
   -8    4   22      0.23      0.00
   -8    4   21      0.47      0.00
   -8    4   20      1.06      0.00
   -8    4   19      1.15      0.00
   -8    4   18      1.33      0.00
   -8    4   17     -0.28      0.00
   -8    4   16     -0.10      0.00
   -8    4   15      0.42      0.00
   -8    4   14     -2.57      0.00
   -8    4   13     -0.82      0.00
   -8    4   12      0.86      0.00
   -8    4   11     -0.45      0.00
   -8    4   10     -0.79      0.00
   -8    4    9     -2.30      0.00
   -8    4    8     -1.87      0.00
   -8    4    7      2.16      0.00
   -8    4    6      0.65      0.00
   -8    4    5      2.55      0.00
   -8    4    4      1.08      0.00
   -8    4    3     -0.61      0.00
   -8    4    2      3.49      0.00
   -8    4    1      2.07      0.00
   -8    4    0     -0.03      0.00
    8   -4    1     -0.30      0.00
    8   -4    2     -3.67      0.00
    8   -4    3      3.90      0.00
    8   -4    4     -2.34      0.00
    8   -4    5      0.11      0.00
    8   -4    6     -2.94      0.00
    8   -4    7     -1.25      0.00
    8   -4    8      2.56      0.00
    8   -4    9     -2.41      0.00
    8   -4   10      1.62      0.00
    8   -4   11     -1.35      0.00
    8   -4   12      0.79      0.00
    8   -4   13      0.90      0.00
    8   -4   14     -0.27      0.00
    8   -4   15      0.99      0.00
    8   -4   16     -1.41      0.00
    8   -4   17      1.21      0.00
    8   -4   18     -0.96      0.00
    8   -4   19      0.64      0.00
    8   -4   20      0.24      0.00
    8   -4   21      0.35      0.00
    8   -4   22      0.30      0.00
    8   -4   23      0.10      0.00
    8   -4   24     -1.35      0.00
   -8    3   23      1.93      0.00
   -8    3   22      0.61      0.00
   -8    3   21     -0.23      0.00
   -8    3   20     -0.88      0.00
   -8    3   19     -0.55      0.00
   -8    3   18      1.56      0.00
   -8    3   17     -0.99      0.00
   -8    3   16      1.32      0.00
   -8    3   15      0.53      0.00
   -8    3   14      2.23      0.00
   -8    3   13     -0.98      0.00
   -8    3   12     -2.59      0.00
   -8    3   11      0.49      0.00
   -8    3   10      1.79      0.00
   -8    3    9     -0.28      0.00
   -8    3    8     -0.66      0.00
   -8    3    7     -5.13      0.00
   -8    3    6      2.39      0.00
   -8    3    5     -0.15      0.00
   -8    3    4      0.57      0.00
   -8    3    3      0.23      0.00
   -8    3    2     -1.65      0.00
   -8    3    1      2.41      0.00
   -8    3    0      2.56      0.00
    8   -3    1      1.79      0.00
    8   -3    2      1.49      0.00
    8   -3    3     -1.85      0.00
    8   -3    4      0.47      0.00
    8   -3    5     -0.70      0.00
    8   -3    6     -0.60      0.00
    8   -3    7     -0.34      0.00
    8   -3    8     -0.61      0.00
    8   -3    9      0.56      0.00
    8   -3   10     -1.91      0.00
    8   -3   11     -0.74      0.00
    8   -3   12      0.93      0.00
    8   -3   13     -0.18      0.00
    8   -3   14      0.78      0.00
    8   -3   15     -0.58      0.00
    8   -3   16      2.20      0.00
    8   -3   17     -0.95      0.00
    8   -3   18      1.62      0.00
    8   -3   19     -0.08      0.00
    8   -3   20     -0.28      0.00
    8   -3   21      0.51      0.00
    8   -3   22     -1.34      0.00
    8   -3   23      1.30      0.00
   -8    2   23     -2.45      0.00
   -8    2   22      0.60      0.00
   -8    2   21      1.60      0.00
   -8    2   20     -0.17      0.00
   -8    2   19      0.96      0.00
   -8    2   18      0.07      0.00
   -8    2   17      3.14      0.00
   -8    2   16     -0.83      0.00
   -8    2   15     -0.18      0.00
   -8    2   14      0.17      0.00
   -8    2   13      2.56      0.00
   -8    2   12      0.55      0.00
   -8    2   11     -2.89      0.00
   -8    2   10     -2.90      0.00
   -8    2    9      1.56      0.00
   -8    2    8      1.10      0.00
   -8    2    7      0.31      0.00
   -8    2    6     -5.76      0.00
   -8    2    5      0.47      0.00
   -8    2    4      1.64      0.00
   -8    2    3     -0.19      0.00
   -8    2    2      1.40      0.00
   -8    2    1     -2.81      0.00
   -8    2    0      3.75      0.00
    8   -2    1     -1.62      0.00
    8   -2    2      2.44      0.00
    8   -2    3      0.00      0.00
    8   -2    4      3.04      0.00
    8   -2    5      2.79      0.00
    8   -2    6     -2.45      0.00
    8   -2    7     -0.94      0.00
    8   -2    8     -2.09      0.00
    8   -2    9      1.82      0.00
    8   -2   10      0.73      0.00
    8   -2   11     -1.17      0.00
    8   -2   12     -1.39      0.00
    8   -2   13     -0.14      0.00
    8   -2   14      0.30      0.00
    8   -2   15     -0.65      0.00
    8   -2   16     -1.54      0.00
    8   -2   17      0.84      0.00
    8   -2   18     -0.61      0.00
    8   -2   19     -0.75      0.00
    8   -2   20     -0.34      0.00
    8   -2   21      0.16      0.00
    8   -2   22      1.42      0.00
    8   -2   23     -1.00      0.00
   -8    1   24      2.18      0.00
   -8    1   23     -0.28      0.00
   -8    1   22     -1.71      0.00
   -8    1   21     -0.84      0.00
   -8    1   20      1.52      0.00
   -8    1   19     -1.23      0.00
   -8    1   18     -1.40      0.00
   -8    1   17     -0.28      0.00
   -8    1   16      2.43      0.00
   -8    1   15      0.23      0.00
   -8    1   14      0.92      0.00
   -8    1   13     -0.45      0.00
   -8    1   12      2.28      0.00
   -8    1   11      2.60      0.00
   -8    1   10     -0.57      0.00
   -8    1    9     -2.18      0.00
   -8    1    8     -1.30      0.00
   -8    1    7      1.16      0.00
   -8    1    6      0.01      0.00
   -8    1    5     -4.44      0.00
   -8    1    4     -2.92      0.00
   -8    1    3      1.52      0.00
   -8    1    2     -1.29      0.00
   -8    1    1      0.09      0.00
   -8    1    0     -5.97      0.00
    8   -1    1      6.09      0.00
    8   -1    2      0.00      0.00
    8   -1    3     -1.29      0.00
    8   -1    4     -2.23      0.00
    8   -1    5     -0.79      0.00
    8   -1    6      7.49      0.00
    8   -1    7     -0.86      0.00
    8   -1    8      0.09      0.00
    8   -1    9     -3.13      0.00
    8   -1   10      1.19      0.00
    8   -1   11      0.57      0.00
    8   -1   12     -0.53      0.00
    8   -1   13     -1.31      0.00
    8   -1   14      1.23      0.00
    8   -1   15      0.36      0.00
    8   -1   16      0.32      0.00
    8   -1   17     -0.95      0.00
    8   -1   18      0.62      0.00
    8   -1   19      0.30      0.00
    8   -1   20      0.02      0.00
    8   -1   21     -1.60      0.00
    8   -1   22     -0.56      0.00
    8   -1   23     -0.39      0.00
   -8    0   24     -1.55      0.00
   -8    0   23      1.11      0.00
   -8    0   22      0.07      0.00
   -8    0   21     -0.88      0.00
   -8    0   20     -0.39      0.00
   -8    0   19      0.31      0.00
   -8    0   18      0.95      0.00
   -8    0   17      0.05      0.00
   -8    0   16     -1.94      0.00
   -8    0   15      1.13      0.00
   -8    0   14     -0.32      0.00
   -8    0   13      1.42      0.00
   -8    0   12     -0.22      0.00
   -8    0   11      0.86      0.00
   -8    0   10      2.11      0.00
   -8    0    9     -0.16      0.00
   -8    0    8      1.30      0.00
   -8    0    7     -0.47      0.00
   -8    0    6      1.65      0.00
   -8    0    5      0.87      0.00
   -8    0    4     -3.85      0.00
   -8    0    3     -3.10      0.00
   -8    0    2      1.56      0.00
   -8    0    1      2.11      0.00
    8    0    0     -0.39      0.00
    8    0    1     -6.20      0.00
    8    0    2      1.19      0.00
    8    0    3      5.65      0.00
    8    0    4     -0.81      0.00
    8    0    5     -1.31      0.00
    8    0    6     -4.27      0.00
    8    0    7      4.43      0.00
    8    0    8      0.39      0.00
    8    0    9      2.06      0.00
    8    0   10     -2.66      0.00
    8    0   11      1.72      0.00
    8    0   12      0.17      0.00
    8    0   13     -0.40      0.00
    8    0   14     -2.55      0.00
    8    0   15     -0.15      0.00
    8    0   16      0.25      0.00
    8    0   17      0.84      0.00
    8    0   18     -0.14      0.00
    8    0   19      0.21      0.00
    8    0   20      0.77      0.00
    8    0   21      1.11      0.00
    8    0   22     -1.02      0.00
   -8   -1   24      0.63      0.00
   -8   -1   23     -0.70      0.00
   -8   -1   22     -1.13      0.00
   -8   -1   21      0.96      0.00
   -8   -1   20     -0.73      0.00
   -8   -1   19     -0.49      0.00
   -8   -1   18     -1.18      0.00
   -8   -1   17     -0.50      0.00
   -8   -1   16      1.35      0.00
   -8   -1   15     -0.05      0.00
   -8   -1   14     -0.33      0.00
   -8   -1   13     -0.97      0.00
   -8   -1   12      0.95      0.00
   -8   -1   11      0.06      0.00
   -8   -1   10      0.62      0.00
   -8   -1    9      1.10      0.00
   -8   -1    8     -1.46      0.00
   -8   -1    7      0.01      0.00
   -8   -1    6      0.66      0.00
   -8   -1    5      2.65      0.00
   -8   -1    4      3.62      0.00
   -8   -1    3     -2.73      0.00
   -8   -1    2     -3.57      0.00
   -8   -1    1     -2.00      0.00
    8    1    0      3.21      0.00
    8    1    1     -0.29      0.00
    8    1    2     -2.56      0.00
    8    1    3     -2.29      0.00
    8    1    4      3.09      0.00
    8    1    5      1.90      0.00
    8    1    6      0.87      0.00
    8    1    7     -2.81      0.00
    8    1    8      1.89      0.00
    8    1    9     -0.68      0.00
    8    1   10      1.77      0.00
    8    1   11     -0.86      0.00
    8    1   12      0.08      0.00
    8    1   13      2.92      0.00
    8    1   14      0.82      0.00
    8    1   15      0.11      0.00
    8    1   16     -1.78      0.00
    8    1   17     -0.29      0.00
    8    1   18      0.00      0.00
    8    1   19      0.22      0.00
    8    1   20     -0.53      0.00
    8    1   21      0.22      0.00
    8    1   22      1.55      0.00
   -8   -2   24      2.00      0.00
   -8   -2   23     -0.25      0.00
   -8   -2   22      1.01      0.00
   -8   -2   21     -1.46      0.00
   -8   -2   20     -0.45      0.00
   -8   -2   19      0.03      0.00
   -8   -2   18      0.68      0.00
   -8   -2   17     -2.64      0.00
   -8   -2   16     -1.13      0.00
   -8   -2   15     -1.08      0.00
   -8   -2   14     -0.30      0.00
   -8   -2   13      0.19      0.00
   -8   -2   12     -0.88      0.00
   -8   -2   11      0.72      0.00
   -8   -2   10      0.40      0.00
   -8   -2    9      2.17      0.00
   -8   -2    8      2.14      0.00
   -8   -2    7      0.25      0.00
   -8   -2    6     -1.05      0.00
   -8   -2    5     -2.17      0.00
   -8   -2    4      1.24      0.00
   -8   -2    3      3.08      0.00
   -8   -2    2      0.88      0.00
   -8   -2    1      0.01      0.00
    8    2    0     -2.46      0.00
    8    2    1      0.84      0.00
    8    2    2     -1.06      0.00
    8    2    3     -1.40      0.00
    8    2    4     -1.37      0.00
    8    2    5     -1.15      0.00
    8    2    6      0.60      0.00
    8    2    7      1.40      0.00
    8    2    8     -0.68      0.00
    8    2    9     -0.52      0.00
    8    2   10      0.83      0.00
    8    2   11     -0.41      0.00
    8    2   12      0.03      0.00
    8    2   13     -3.21      0.00
    8    2   14      2.08      0.00
    8    2   15      0.53      0.00
    8    2   16      0.97      0.00
    8    2   17     -1.15      0.00
    8    2   18     -0.25      0.00
    8    2   19     -0.54      0.00
    8    2   20      0.00      0.00
    8    2   21     -0.88      0.00
   -8   -3   24     -2.09      0.00
   -8   -3   23      1.23      0.00
   -8   -3   22      1.01      0.00
   -8   -3   21      0.79      0.00
   -8   -3   20     -0.69      0.00
   -8   -3   19      0.73      0.00
   -8   -3   18     -1.81      0.00
   -8   -3   17      1.42      0.00
   -8   -3   16      0.07      0.00
   -8   -3   15     -0.81      0.00
   -8   -3   14     -1.25      0.00
   -8   -3   13      0.10      0.00
   -8   -3   12     -0.70      0.00
   -8   -3   11     -1.87      0.00
   -8   -3   10     -0.32      0.00
   -8   -3    9     -1.55      0.00
   -8   -3    8     -0.29      0.00
   -8   -3    7      1.39      0.00
   -8   -3    6      1.39      0.00
   -8   -3    5      2.97      0.00
   -8   -3    4     -2.38      0.00
   -8   -3    3      0.50      0.00
   -8   -3    2      0.35      0.00
   -8   -3    1     -1.28      0.00
    8    3    0      1.74      0.00
    8    3    1      0.01      0.00
    8    3    2      0.21      0.00
    8    3    3     -0.07      0.00
    8    3    4     -1.19      0.00
    8    3    5      0.28      0.00
    8    3    6     -2.47      0.00
    8    3    7      1.00      0.00
    8    3    8     -0.56      0.00
    8    3    9      1.10      0.00
    8    3   10     -1.41      0.00
    8    3   11      1.27      0.00
    8    3   12      0.35      0.00
    8    3   13      0.14      0.00
    8    3   14     -2.03      0.00
    8    3   15      0.25      0.00
    8    3   16      0.48      0.00
    8    3   17      1.68      0.00
    8    3   18     -0.68      0.00
    8    3   19      0.28      0.00
    8    3   20      0.37      0.00
   -8   -4   23     -1.46      0.00
   -8   -4   22      0.44      0.00
   -8   -4   21     -1.19      0.00
   -8   -4   20      2.22      0.00
   -8   -4   19     -0.23      0.00
   -8   -4   18      1.27      0.00
   -8   -4   17     -0.23      0.00
   -8   -4   16      0.66      0.00
   -8   -4   15      0.06      0.00
   -8   -4   14      0.21      0.00
   -8   -4   13     -1.84      0.00
   -8   -4   12     -0.20      0.00
   -8   -4   11     -0.01      0.00
   -8   -4   10     -0.69      0.00
   -8   -4    9     -0.01      0.00
   -8   -4    8      0.15      0.00
   -8   -4    7     -1.45      0.00
   -8   -4    6     -0.02      0.00
   -8   -4    5     -1.34      0.00
   -8   -4    4      2.66      0.00
   -8   -4    3      0.24      0.00
   -8   -4    2      0.89      0.00
   -8   -4    1      1.35      0.00
    8    4    0     -0.67      0.00
    8    4    1     -0.50      0.00
    8    4    2      0.52      0.00
    8    4    3     -0.13      0.00
    8    4    4      1.74      0.00
    8    4    5     -1.70      0.00
    8    4    6      1.48      0.00
    8    4    7     -2.78      0.00
    8    4    8      1.75      0.00
    8    4    9     -0.92      0.00
    8    4   10     -0.26      0.00
    8    4   11      0.21      0.00
    8    4   12      0.01      0.00
    8    4   13      0.86      0.00
    8    4   14      0.48      0.00
    8    4   15     -1.45      0.00
    8    4   16      0.11      0.00
    8    4   17     -0.36      0.00
    8    4   18      0.41      0.00
    8    4   19      0.64      0.00
   -8   -5   23      2.17      0.00
   -8   -5   22     -1.32      0.00
   -8   -5   21      2.08      0.00
   -8   -5   20     -0.94      0.00
   -8   -5   19      0.45      0.00
   -8   -5   18     -0.22      0.00
   -8   -5   17     -0.06      0.00
   -8   -5   16     -0.97      0.00
   -8   -5   15      0.75      0.00
   -8   -5   14      0.80      0.00
   -8   -5   13      1.32      0.00
   -8   -5   12     -0.66      0.00
   -8   -5   11      0.40      0.00
   -8   -5   10     -0.95      0.00
   -8   -5    9     -0.33      0.00
   -8   -5    8     -0.28      0.00
   -8   -5    7      0.55      0.00
   -8   -5    6     -0.64      0.00
   -8   -5    5     -0.12      0.00
   -8   -5    4     -0.64      0.00
   -8   -5    3      0.44      0.00
   -8   -5    2     -0.90      0.00
   -8   -5    1      1.24      0.00
    8    5    0      0.66      0.00
    8    5    1      1.40      0.00
    8    5    2     -0.21      0.00
    8    5    3     -0.31      0.00
    8    5    4     -0.90      0.00
    8    5    5      2.14      0.00
    8    5    6     -1.82      0.00
    8    5    7      0.45      0.00
    8    5    8     -1.74      0.00
    8    5    9      1.31      0.00
    8    5   10      0.02      0.00
    8    5   11     -0.65      0.00
    8    5   12     -0.09      0.00
    8    5   13      0.76      0.00
    8    5   14     -0.30      0.00
    8    5   15      1.95      0.00
    8    5   16     -0.18      0.00
    8    5   17     -1.33      0.00
    8    5   18      2.40      0.00
   -8   -6   22     -0.08      0.00
   -8   -6   21     -0.97      0.00
   -8   -6   20     -0.43      0.00
   -8   -6   19      0.39      0.00
   -8   -6   18      1.01      0.00
   -8   -6   17      0.62      0.00
   -8   -6   16      0.53      0.00
   -8   -6   15     -0.14      0.00
   -8   -6   14     -0.29      0.00
   -8   -6   13     -1.18      0.00
   -8   -6   12      1.23      0.00
   -8   -6   11     -0.75      0.00
   -8   -6   10     -0.02      0.00
   -8   -6    9     -0.74      0.00
   -8   -6    8     -0.92      0.00
   -8   -6    7     -0.20      0.00
   -8   -6    6      0.53      0.00
   -8   -6    5     -0.47      0.00
   -8   -6    4     -0.35      0.00
   -8   -6    3      0.15      0.00
   -8   -6    2      1.39      0.00
   -8   -6    1     -0.91      0.00
    8    6    0      0.29      0.00
    8    6    1     -0.64      0.00
    8    6    2      1.24      0.00
    8    6    3      0.42      0.00
    8    6    4     -0.27      0.00
    8    6    5     -0.05      0.00
    8    6    6      2.77      0.00
    8    6    7     -0.54      0.00
    8    6    8      0.32      0.00
    8    6    9     -1.85      0.00
    8    6   10      0.92      0.00
    8    6   11     -0.93      0.00
    8    6   12      1.75      0.00
    8    6   13     -2.32      0.00
    8    6   14     -0.46      0.00
    8    6   15      0.06      0.00
    8    6   16     -0.26      0.00
    8    6   17      0.28      0.00
   -8   -7   22      0.65      0.00
   -8   -7   21     -0.33      0.00
   -8   -7   20      0.06      0.00
   -8   -7   19     -0.60      0.00
   -8   -7   18     -0.35      0.00
   -8   -7   17     -0.39      0.00
   -8   -7   16      0.20      0.00
   -8   -7   15     -0.39      0.00
   -8   -7   14     -0.04      0.00
   -8   -7   13      1.19      0.00
   -8   -7   12     -0.61      0.00
   -8   -7   11      0.17      0.00
   -8   -7   10      0.51      0.00
   -8   -7    9      1.40      0.00
   -8   -7    8     -0.81      0.00
   -8   -7    7     -0.72      0.00
   -8   -7    6      0.09      0.00
   -8   -7    5      0.83      0.00
   -8   -7    4     -0.93      0.00
   -8   -7    3     -1.42      0.00
   -8   -7    2     -1.83      0.00
   -8   -7    1      0.99      0.00
    8    7    0     -0.57      0.00
    8    7    1      0.93      0.00
    8    7    2     -0.75      0.00
    8    7    3      0.42      0.00
    8    7    4     -0.39      0.00
    8    7    5     -0.41      0.00
    8    7    6     -1.46      0.00
    8    7    7      1.10      0.00
    8    7    8      0.92      0.00
    8    7    9      1.66      0.00
    8    7   10     -1.99      0.00
    8    7   11      1.39      0.00
    8    7   12     -0.65      0.00
    8    7   13      2.24      0.00
    8    7   14      0.20      0.00
    8    7   15     -1.28      0.00
    8    7   16      0.46      0.00
   -8   -8   21      0.24      0.00
   -8   -8   20     -0.70      0.00
   -8   -8   19      0.50      0.00
   -8   -8   18     -0.97      0.00
   -8   -8   17      1.30      0.00
   -8   -8   16      0.20      0.00
   -8   -8   15      1.85      0.00
   -8   -8   14      0.07      0.00
   -8   -8   13      0.20      0.00
   -8   -8   12      1.77      0.00
   -8   -8   11     -0.21      0.00
   -8   -8   10     -0.09      0.00
   -8   -8    9     -0.72      0.00
   -8   -8    8      1.54      0.00
   -8   -8    7     -0.77      0.00
   -8   -8    6     -1.40      0.00
   -8   -8    5     -0.93      0.00
   -8   -8    4      2.79      0.00
   -8   -8    3      0.51      0.00
   -8   -8    2      0.68      0.00
   -8   -8    1     -1.56      0.00
    8    8    0      0.18      0.00
    8    8    1     -0.13      0.00
    8    8    2      0.81      0.00
    8    8    3     -0.36      0.00
    8    8    4      0.83      0.00
    8    8    5     -0.07      0.00
    8    8    6     -0.92      0.00
    8    8    7      0.34      0.00
    8    8    8     -1.45      0.00
    8    8    9      0.43      0.00
    8    8   11     -0.74      0.00
    8    8   12     -0.91      0.00
    8    8   13     -0.13      0.00
    8    8   14      0.50      0.00
    8    8   15      0.83      0.00
   -8   -9   20      2.02      0.00
   -8   -9   19     -1.30      0.00
   -8   -9   18      1.98      0.00
   -8   -9   17     -1.26      0.00
   -8   -9   16     -0.24      0.00
   -8   -9   15     -0.32      0.00
   -8   -9   14      0.12      0.00
   -8   -9   13     -0.49      0.00
   -8   -9   12     -0.61      0.00
   -8   -9   11      2.50      0.00
   -8   -9   10     -0.29      0.00
   -8   -9    9      0.23      0.00
   -8   -9    8      0.01      0.00
   -8   -9    7      1.45      0.00
   -8   -9    6     -0.63      0.00
   -8   -9    5     -0.64      0.00
   -8   -9    4     -2.56      0.00
   -8   -9    3     -0.50      0.00
   -8   -9    2      0.59      0.00
   -8   -9    1      0.58      0.00
    8    9    0     -1.54      0.00
    8    9    1     -0.35      0.00
    8    9    2     -0.05      0.00
    8    9    3      0.07      0.00
    8    9    4      1.54      0.00
    8    9    5      1.04      0.00
    8    9    6      2.30      0.00
    8    9    7     -2.21      0.00
    8    9    8      2.01      0.00
    8    9    9     -1.52      0.00
    8    9   10      0.56      0.00
    8    9   11     -0.69      0.00
    8    9   12      0.60      0.00
    8    9   13      0.23      0.00
   -8  -10   19      0.40      0.00
   -8  -10   18     -1.25      0.00
   -8  -10   17      0.15      0.00
   -8  -10   16     -0.08      0.00
   -8  -10   15     -0.05      0.00
   -8  -10   14      1.54      0.00
   -8  -10   13     -0.64      0.00
   -8  -10   12     -0.33      0.00
   -8  -10   11     -1.69      0.00
   -8  -10   10      1.34      0.00
   -8  -10    9      0.55      0.00
   -8  -10    8     -0.18      0.00
   -8  -10    7      0.51      0.00
   -8  -10    6      0.57      0.00
   -8  -10    5      0.78      0.00
   -8  -10    4      0.34      0.00
   -8  -10    3     -0.09      0.00
   -8  -10    2     -0.83      0.00
   -8  -10    1     -0.33      0.00
    8   10    0      1.40      0.00
    8   10    1     -0.18      0.00
    8   10    2     -0.33      0.00
    8   10    3     -0.13      0.00
    8   10    4     -3.04      0.00
    8   10    5     -0.06      0.00
    8   10    6     -0.99      0.00
    8   10    7      1.68      0.00
    8   10    8     -0.46      0.00
    8   10    9      1.88      0.00
    8   10   10      1.14      0.00
    8   10   11     -0.70      0.00
   -8  -11   17     -0.46      0.00
   -8  -11   16     -0.61      0.00
   -8  -11   15     -1.20      0.00
   -8  -11   14     -1.83      0.00
   -8  -11   13      1.75      0.00
   -8  -11   12      0.20      0.00
   -8  -11   11     -0.22      0.00
   -8  -11   10     -0.86      0.00
   -8  -11    9     -0.86      0.00
   -8  -11    8      1.56      0.00
   -8  -11    7      0.44      0.00
   -8  -11    6      0.73      0.00
   -8  -11    5     -0.01      0.00
   -8  -11    4      0.38      0.00
   -8  -11    3      0.27      0.00
   -8  -11    2      1.39      0.00
   -8  -11    1      0.38      0.00
    8   11    0     -0.81      0.00
    8   11    1     -0.13      0.00
    8   11    2     -0.31      0.00
    8   11    3      0.49      0.00
    8   11    4      0.63      0.00
    8   11    5     -0.12      0.00
    8   11    6      0.36      0.00
    8   11    7     -0.51      0.00
    8   11    8     -3.08      0.00
    8   11    9     -0.64      0.00
   -8  -12   15      0.24      0.00
   -8  -12   14     -0.68      0.00
   -8  -12   13     -1.55      0.00
   -8  -12   12     -0.06      0.00
   -8  -12   11      0.80      0.00
   -8  -12   10      0.71      0.00
   -8  -12    9     -0.87      0.00
   -8  -12    8     -1.87      0.00
   -8  -12    7      0.30      0.00
   -8  -12    6      0.33      0.00
   -8  -12    5      1.54      0.00
   -8  -12    4     -0.78      0.00
   -8  -12    3      0.33      0.00
   -8  -12    2     -1.93      0.00
   -8  -12    1     -0.28      0.00
    8   12    0      1.20      0.00
    8   12    1     -1.49      0.00
    8   12    2      1.20      0.00
    8   12    3      0.07      0.00
    8   12    4      0.19      0.00
    8   12    5     -1.77      0.00
    8   12    6      0.18      0.00
    8   12    7      0.66      0.00
   -8  -13   13     -0.28      0.00
   -8  -13   12     -1.90      0.00
   -8  -13   11     -0.45      0.00
   -8  -13   10     -1.17      0.00
   -8  -13    9      0.44      0.00
   -8  -13    8      0.89      0.00
   -8  -13    7     -2.95      0.00
   -8  -13    6      0.52      0.00
   -8  -13    5     -2.06      0.00
   -8  -13    4      1.34      0.00
   -8  -13    3      0.19      0.00
   -8  -13    2      0.17      0.00
   -8  -13    1      0.61      0.00
    8   13    0     -0.57      0.00
    8   13    1      1.59      0.00
    8   13    2     -2.51      0.00
    8   13    3     -0.67      0.00
   -8  -14    7      1.77      0.00
   -8  -14    6     -1.23      0.00
   -8  -14    5      0.31      0.00
   -8  -14    4     -0.56      0.00
   -8  -14    3      0.50      0.00
    9  -19    3      2.07      0.00
    9  -19    4      0.91      0.00
    9  -19    5      0.14      0.00
    9  -19    6     -0.13      0.00
    9  -19    7      0.14      0.00
   -9   18    3     -0.02      0.00
   -9   18    2     -0.29      0.00
   -9   18    1     -0.30      0.00
   -9   18    0     -0.20      0.00
    9  -18    1      0.48      0.00
    9  -18    2     -2.16      0.00
    9  -18    3     -0.81      0.00
    9  -18    4      0.15      0.00
    9  -18    5      0.90      0.00
    9  -18    6      0.04      0.00
    9  -18    7      1.08      0.00
    9  -18    8      1.31      0.00
    9  -18    9      0.34      0.00
    9  -18   10     -1.73      0.00
    9  -18   11      0.34      0.00
    9  -18   12     -0.56      0.00
   -9   17    7      1.60      0.00
   -9   17    6     -1.47      0.00
   -9   17    5      2.51      0.00
   -9   17    4     -0.41      0.00
   -9   17    3     -1.56      0.00
   -9   17    2      1.05      0.00
   -9   17    1     -0.31      0.00
   -9   17    0     -0.20      0.00
    9  -17    1     -1.19      0.00
    9  -17    2      1.24      0.00
    9  -17    3     -0.92      0.00
    9  -17    4     -0.20      0.00
    9  -17    5     -0.15      0.00
    9  -17    6      0.85      0.00
    9  -17    7     -1.87      0.00
    9  -17    8      0.86      0.00
    9  -17    9      0.74      0.00
    9  -17   10      0.95      0.00
    9  -17   11     -0.71      0.00
    9  -17   12     -0.51      0.00
    9  -17   13     -1.67      0.00
    9  -17   14      0.84      0.00
    9  -17   15     -1.31      0.00
   -9   16    9     -0.83      0.00
   -9   16    8      1.52      0.00
   -9   16    7     -0.77      0.00
   -9   16    6      0.39      0.00
   -9   16    5      0.36      0.00
   -9   16    4      0.31      0.00
   -9   16    3      1.10      0.00
   -9   16    2     -0.93      0.00
   -9   16    1     -0.41      0.00
   -9   16    0      0.54      0.00
    9  -16    1      0.22      0.00
    9  -16    2     -0.34      0.00
    9  -16    3     -0.31      0.00
    9  -16    4     -0.92      0.00
    9  -16    5     -0.09      0.00
    9  -16    6     -0.41      0.00
    9  -16    7      1.37      0.00
    9  -16    8     -1.33      0.00
    9  -16    9     -0.65      0.00
    9  -16   10      0.06      0.00
    9  -16   11      1.87      0.00
    9  -16   12      0.00      0.00
    9  -16   13      1.05      0.00
    9  -16   14     -1.27      0.00
    9  -16   15      0.43      0.00
    9  -16   16     -1.03      0.00
    9  -16   17     -0.98      0.00
   -9   15   11      0.24      0.00
   -9   15   10     -0.22      0.00
   -9   15    9     -1.09      0.00
   -9   15    8      0.63      0.00
   -9   15    7     -0.02      0.00
   -9   15    6      0.51      0.00
   -9   15    5     -0.20      0.00
   -9   15    4     -0.42      0.00
   -9   15    3      0.76      0.00
   -9   15    2     -0.15      0.00
   -9   15    1      0.41      0.00
   -9   15    0     -0.97      0.00
    9  -15    1      0.18      0.00
    9  -15    2     -0.44      0.00
    9  -15    3      0.63      0.00
    9  -15    4     -0.13      0.00
    9  -15    5     -1.41      0.00
    9  -15    6     -0.18      0.00
    9  -15    7     -1.10      0.00
    9  -15    8      1.83      0.00
    9  -15    9     -0.13      0.00
    9  -15   10      0.30      0.00
    9  -15   11     -1.48      0.00
    9  -15   12      0.26      0.00
    9  -15   13      0.38      0.00
    9  -15   14      0.43      0.00
    9  -15   15      0.06      0.00
    9  -15   16      0.23      0.00
    9  -15   17      0.39      0.00
    9  -15   18     -0.12      0.00
   -9   14   13     -0.42      0.00
   -9   14   12     -0.12      0.00
   -9   14   11      0.88      0.00
   -9   14   10      0.32      0.00
   -9   14    9     -0.26      0.00
   -9   14    8     -1.62      0.00
   -9   14    7     -0.57      0.00
   -9   14    6      0.45      0.00
   -9   14    5     -0.66      0.00
   -9   14    4      0.65      0.00
   -9   14    3      0.56      0.00
   -9   14    2      0.43      0.00
   -9   14    1     -0.67      0.00
   -9   14    0      0.67      0.00
    9  -14    1     -1.15      0.00
    9  -14    2     -0.94      0.00
    9  -14    3     -0.65      0.00
    9  -14    4      0.59      0.00
    9  -14    5      1.04      0.00
    9  -14    6     -0.80      0.00
    9  -14    7      0.69      0.00
    9  -14    8     -1.74      0.00
    9  -14    9     -0.51      0.00
    9  -14   10      0.85      0.00
    9  -14   11      0.74      0.00
    9  -14   12      0.84      0.00
    9  -14   13     -0.58      0.00
    9  -14   14      0.70      0.00
    9  -14   15      0.55      0.00
    9  -14   16      0.11      0.00
    9  -14   17     -0.75      0.00
    9  -14   18      1.05      0.00
    9  -14   19      0.52      0.00
   -9   13   14      0.18      0.00
   -9   13   13      0.38      0.00
   -9   13   12     -1.33      0.00
   -9   13   11     -1.43      0.00
   -9   13   10     -0.78      0.00
   -9   13    9      1.75      0.00
   -9   13    8      0.01      0.00
   -9   13    7      0.39      0.00
   -9   13    6      0.04      0.00
   -9   13    5      0.57      0.00
   -9   13    4     -0.02      0.00
   -9   13    3      0.12      0.00
   -9   13    2      0.01      0.00
   -9   13    1      2.31      0.00
   -9   13    0      0.60      0.00
    9  -13    1      1.99      0.00
    9  -13    2      1.44      0.00
    9  -13    3     -0.16      0.00
    9  -13    4     -1.56      0.00
    9  -13    5     -0.74      0.00
    9  -13    6     -0.17      0.00
    9  -13    7     -0.20      0.00
    9  -13    8      0.37      0.00
    9  -13    9      0.76      0.00
    9  -13   10     -1.47      0.00
    9  -13   11     -0.74      0.00
    9  -13   12      0.42      0.00
    9  -13   13      0.66      0.00
    9  -13   14      0.19      0.00
    9  -13   15      0.64      0.00
    9  -13   16      1.05      0.00
    9  -13   17      0.05      0.00
    9  -13   18     -1.23      0.00
    9  -13   19     -0.21      0.00
    9  -13   20      0.74      0.00
   -9   12   16     -0.08      0.00
   -9   12   15      1.14      0.00
   -9   12   14      0.36      0.00
   -9   12   13     -0.35      0.00
   -9   12   12      2.13      0.00
   -9   12   11      0.64      0.00
   -9   12   10     -1.46      0.00
   -9   12    9     -1.37      0.00
   -9   12    8      0.15      0.00
   -9   12    7     -1.33      0.00
   -9   12    6     -0.53      0.00
   -9   12    5     -1.62      0.00
   -9   12    4      1.60      0.00
   -9   12    3     -0.32      0.00
   -9   12    2      1.29      0.00
   -9   12    1     -0.52      0.00
   -9   12    0     -0.11      0.00
    9  -12    1     -0.04      0.00
    9  -12    2      0.43      0.00
    9  -12    3      1.73      0.00
    9  -12    4      1.55      0.00
    9  -12    5     -0.06      0.00
    9  -12    6      0.25      0.00
    9  -12    7     -0.82      0.00
    9  -12    8     -1.19      0.00
    9  -12    9      0.47      0.00
    9  -12   10     -0.07      0.00
    9  -12   11      0.42      0.00
    9  -12   12     -1.41      0.00
    9  -12   13      0.00      0.00
    9  -12   14     -1.23      0.00
    9  -12   15      0.31      0.00
    9  -12   16      0.03      0.00
    9  -12   17      1.46      0.00
    9  -12   18      0.84      0.00
    9  -12   19      0.09      0.00
    9  -12   20     -2.89      0.00
    9  -12   21      1.92      0.00
   -9   11   17     -0.90      0.00
   -9   11   16     -0.41      0.00
   -9   11   15      0.82      0.00
   -9   11   14      0.47      0.00
   -9   11   13      0.73      0.00
   -9   11   12      0.02      0.00
   -9   11   11      0.57      0.00
   -9   11   10      2.09      0.00
   -9   11    9     -0.97      0.00
   -9   11    8     -0.61      0.00
   -9   11    7      1.87      0.00
   -9   11    6     -0.96      0.00
   -9   11    5      0.88      0.00
   -9   11    4     -2.51      0.00
   -9   11    3     -1.29      0.00
   -9   11    2     -0.52      0.00
   -9   11    1     -0.38      0.00
   -9   11    0      1.10      0.00
    9  -11    1     -0.73      0.00
    9  -11    2      0.44      0.00
    9  -11    3     -0.23      0.00
    9  -11    4      0.72      0.00
    9  -11    5      0.40      0.00
    9  -11    6      1.25      0.00
    9  -11    7      0.07      0.00
    9  -11    8      0.57      0.00
    9  -11    9     -1.93      0.00
    9  -11   10      0.83      0.00
    9  -11   11     -1.27      0.00
    9  -11   12      1.79      0.00
    9  -11   13     -1.76      0.00
    9  -11   14      1.13      0.00
    9  -11   15     -1.46      0.00
    9  -11   16     -0.55      0.00
    9  -11   17     -0.92      0.00
    9  -11   18      0.13      0.00
    9  -11   19     -0.20      0.00
    9  -11   20      2.29      0.00
    9  -11   21     -2.64      0.00
    9  -11   22      1.97      0.00
   -9   10   18      0.06      0.00
   -9   10   17      0.37      0.00
   -9   10   16      0.20      0.00
   -9   10   15     -1.30      0.00
   -9   10   14      0.55      0.00
   -9   10   13      0.31      0.00
   -9   10   12     -0.05      0.00
   -9   10   11      0.84      0.00
   -9   10   10      0.41      0.00
   -9   10    9      2.26      0.00
   -9   10    8     -1.27      0.00
   -9   10    7     -1.60      0.00
   -9   10    6     -0.47      0.00
   -9   10    5     -0.80      0.00
   -9   10    4      0.33      0.00
   -9   10    3      0.43      0.00
   -9   10    2     -1.85      0.00
   -9   10    1     -0.53      0.00
   -9   10    0     -0.40      0.00
    9  -10    1      0.52      0.00
    9  -10    2     -1.21      0.00
    9  -10    3      0.89      0.00
    9  -10    4     -0.49      0.00
    9  -10    5      1.37      0.00
    9  -10    6     -0.88      0.00
    9  -10    7      2.27      0.00
    9  -10    8      0.67      0.00
    9  -10    9      1.44      0.00
    9  -10   10     -2.23      0.00
    9  -10   11      1.03      0.00
    9  -10   12     -2.12      0.00
    9  -10   13      1.62      0.00
    9  -10   14     -1.47      0.00
    9  -10   15      1.08      0.00
    9  -10   16     -0.41      0.00
    9  -10   17     -0.43      0.00
    9  -10   18      1.02      0.00
    9  -10   19      0.38      0.00
    9  -10   20     -1.37      0.00
    9  -10   21      1.94      0.00
    9  -10   22     -0.90      0.00
   -9    9   19     -1.31      0.00
   -9    9   18     -1.53      0.00
   -9    9   17      0.01      0.00
   -9    9   16     -0.47      0.00
   -9    9   15     -0.40      0.00
   -9    9   14     -0.33      0.00
   -9    9   13      0.10      0.00
   -9    9   12     -0.02      0.00
   -9    9   11     -0.99      0.00
   -9    9   10      0.61      0.00
   -9    9    9     -0.33      0.00
   -9    9    8      2.92      0.00
   -9    9    7      0.64      0.00
   -9    9    6      0.31      0.00
   -9    9    5     -1.40      0.00
   -9    9    4     -0.67      0.00
   -9    9    3      0.54      0.00
   -9    9    2     -1.40      0.00
   -9    9    1     -0.20      0.00
   -9    9    0     -1.18      0.00
    9   -9    1     -0.62      0.00
    9   -9    2      1.33      0.00
    9   -9    3     -1.85      0.00
    9   -9    4      1.62      0.00
    9   -9    5     -1.17      0.00
    9   -9    6      0.35      0.00
    9   -9    7     -1.41      0.00
    9   -9    8      0.51      0.00
    9   -9    9      0.89      0.00
    9   -9   10      1.79      0.00
    9   -9   11      0.82      0.00
    9   -9   12      0.38      0.00
    9   -9   13     -1.18      0.00
    9   -9   14      0.86      0.00
    9   -9   15     -0.38      0.00
    9   -9   16      0.15      0.00
    9   -9   17      0.25      0.00
    9   -9   18     -1.35      0.00
    9   -9   19      0.50      0.00
    9   -9   20      0.23      0.00
    9   -9   21     -1.87      0.00
    9   -9   22      0.64      0.00
   -9    8   20      1.09      0.00
   -9    8   19     -0.21      0.00
   -9    8   18      1.61      0.00
   -9    8   17     -1.53      0.00
   -9    8   16     -1.42      0.00
   -9    8   15     -0.03      0.00
   -9    8   14     -1.08      0.00
   -9    8   13     -1.01      0.00
   -9    8   12      0.63      0.00
   -9    8   11      0.71      0.00
   -9    8   10     -0.94      0.00
   -9    8    9      0.37      0.00
   -9    8    8     -0.49      0.00
   -9    8    7      2.64      0.00
   -9    8    6      1.63      0.00
   -9    8    5      0.87      0.00
   -9    8    4      0.45      0.00
   -9    8    3     -2.06      0.00
   -9    8    2      2.57      0.00
   -9    8    1     -1.23      0.00
   -9    8    0     -1.31      0.00
    9   -8    1     -0.52      0.00
    9   -8    2     -2.42      0.00
    9   -8    3      0.54      0.00
    9   -8    4     -1.32      0.00
    9   -8    5      1.14      0.00
    9   -8    6      0.92      0.00
    9   -8    7     -0.06      0.00
    9   -8    8      1.02      0.00
    9   -8    9     -1.44      0.00
    9   -8   10      0.47      0.00
    9   -8   11     -1.67      0.00
    9   -8   12      2.14      0.00
    9   -8   13      0.13      0.00
    9   -8   14     -0.56      0.00
    9   -8   15     -0.66      0.00
    9   -8   16      0.39      0.00
    9   -8   17     -1.41      0.00
    9   -8   18      0.10      0.00
    9   -8   19      0.15      0.00
    9   -8   20      0.90      0.00
    9   -8   21      0.23      0.00
    9   -8   22     -1.13      0.00
    9   -8   23     -0.10      0.00
   -9    7   20     -0.66      0.00
   -9    7   19      1.22      0.00
   -9    7   18     -0.82      0.00
   -9    7   17      2.91      0.00
   -9    7   16     -0.43      0.00
   -9    7   15     -0.11      0.00
   -9    7   14      0.06      0.00
   -9    7   13     -1.27      0.00
   -9    7   12     -1.22      0.00
   -9    7   11     -0.18      0.00
   -9    7   10      1.15      0.00
   -9    7    9     -0.85      0.00
   -9    7    8     -0.07      0.00
   -9    7    7     -1.84      0.00
   -9    7    6      1.12      0.00
   -9    7    5      3.52      0.00
   -9    7    4      0.38      0.00
   -9    7    3      1.18      0.00
   -9    7    2     -1.21      0.00
   -9    7    1      0.66      0.00
   -9    7    0      1.24      0.00
    9   -7    1      0.91      0.00
    9   -7    2     -0.53      0.00
    9   -7    3     -1.25      0.00
    9   -7    4     -0.10      0.00
    9   -7    5     -1.40      0.00
    9   -7    6     -0.93      0.00
    9   -7    7      0.40      0.00
    9   -7    8     -1.63      0.00
    9   -7    9      3.05      0.00
    9   -7   10     -0.66      0.00
    9   -7   11      1.58      0.00
    9   -7   12     -2.29      0.00
    9   -7   13      2.43      0.00
    9   -7   14     -0.13      0.00
    9   -7   15      0.98      0.00
    9   -7   16      0.76      0.00
    9   -7   17      0.63      0.00
    9   -7   18     -1.06      0.00
    9   -7   19     -0.04      0.00
    9   -7   20     -0.25      0.00
    9   -7   21     -0.33      0.00
    9   -7   22      0.45      0.00
    9   -7   23     -1.22      0.00
   -9    6   21     -1.11      0.00
   -9    6   20      0.83      0.00
   -9    6   19     -1.90      0.00
   -9    6   18      1.53      0.00
   -9    6   17     -1.89      0.00
   -9    6   16      1.05      0.00
   -9    6   15      0.06      0.00
   -9    6   14     -0.38      0.00
   -9    6   13      0.88      0.00
   -9    6   12     -1.64      0.00
   -9    6   11     -1.44      0.00
   -9    6   10     -1.29      0.00
   -9    6    9      0.84      0.00
   -9    6    8      0.65      0.00
   -9    6    7      0.02      0.00
   -9    6    6     -1.64      0.00
   -9    6    5     -0.91      0.00
   -9    6    4      1.40      0.00
   -9    6    3      3.20      0.00
   -9    6    2      2.31      0.00
   -9    6    1     -1.26      0.00
   -9    6    0      0.11      0.00
    9   -6    1     -0.14      0.00
    9   -6    2      0.64      0.00
    9   -6    3     -0.09      0.00
    9   -6    4     -1.97      0.00
    9   -6    5      0.66      0.00
    9   -6    6      0.19      0.00
    9   -6    7     -1.36      0.00
    9   -6    8      0.07      0.00
    9   -6    9     -3.25      0.00
    9   -6   10      1.97      0.00
    9   -6   11     -0.48      0.00
    9   -6   12      1.55      0.00
    9   -6   13     -2.26      0.00
    9   -6   14     -0.60      0.00
    9   -6   15      0.77      0.00
    9   -6   16     -1.30      0.00
    9   -6   17      1.41      0.00
    9   -6   18     -0.35      0.00
    9   -6   19     -0.51      0.00
    9   -6   20      0.23      0.00
    9   -6   21      1.30      0.00
    9   -6   22      0.31      0.00
    9   -6   23      0.77      0.00
   -9    5   21      1.66      0.00
   -9    5   20     -0.21      0.00
   -9    5   19      1.91      0.00
   -9    5   18     -1.44      0.00
   -9    5   17      0.17      0.00
   -9    5   16      0.46      0.00
   -9    5   15     -0.80      0.00
   -9    5   14     -0.02      0.00
   -9    5   13      0.15      0.00
   -9    5   12      1.11      0.00
   -9    5   11     -0.13      0.00
   -9    5   10     -2.15      0.00
   -9    5    9     -1.50      0.00
   -9    5    8     -1.02      0.00
   -9    5    7     -0.05      0.00
   -9    5    6      2.34      0.00
   -9    5    5     -0.92      0.00
   -9    5    4     -1.02      0.00
   -9    5    3     -1.67      0.00
   -9    5    2      1.07      0.00
   -9    5    1      3.87      0.00
   -9    5    0     -0.21      0.00
    9   -5    1     -0.12      0.00
    9   -5    2      1.57      0.00
    9   -5    3      1.32      0.00
    9   -5    4     -0.35      0.00
    9   -5    5     -1.77      0.00
    9   -5    6     -1.14      0.00
    9   -5    7      1.30      0.00
    9   -5    8     -0.25      0.00
    9   -5    9     -0.43      0.00
    9   -5   10     -2.42      0.00
    9   -5   11     -0.79      0.00
    9   -5   12      0.46      0.00
    9   -5   13      0.99      0.00
    9   -5   14      1.53      0.00
    9   -5   15     -2.64      0.00
    9   -5   16      1.82      0.00
    9   -5   17     -1.19      0.00
    9   -5   18      1.44      0.00
    9   -5   19     -0.61      0.00
    9   -5   20     -0.19      0.00
    9   -5   21     -0.40      0.00
    9   -5   22     -1.19      0.00
    9   -5   23      0.15      0.00
   -9    4   22      0.19      0.00
   -9    4   21     -2.51      0.00
   -9    4   20      0.82      0.00
   -9    4   19      0.89      0.00
   -9    4   18      1.74      0.00
   -9    4   17      1.23      0.00
   -9    4   16      1.50      0.00
   -9    4   15      1.40      0.00
   -9    4   14      0.73      0.00
   -9    4   13     -0.71      0.00
   -9    4   12      0.13      0.00
   -9    4   11      1.47      0.00
   -9    4   10      1.95      0.00
   -9    4    9     -1.17      0.00
   -9    4    8     -1.49      0.00
   -9    4    7     -1.88      0.00
   -9    4    6     -2.89      0.00
   -9    4    5      1.84      0.00
   -9    4    4      0.36      0.00
   -9    4    3     -0.95      0.00
   -9    4    2     -1.11      0.00
   -9    4    1     -0.34      0.00
   -9    4    0      3.12      0.00
    9   -4    1     -0.53      0.00
    9   -4    2      0.50      0.00
    9   -4    3     -0.97      0.00
    9   -4    4      3.25      0.00
    9   -4    5      0.83      0.00
    9   -4    6     -1.74      0.00
    9   -4    7     -0.48      0.00
    9   -4    8     -0.44      0.00
    9   -4    9      1.41      0.00
    9   -4   10     -0.69      0.00
    9   -4   11      0.66      0.00
    9   -4   12     -1.33      0.00
    9   -4   13     -0.86      0.00
    9   -4   14      0.11      0.00
    9   -4   15      0.95      0.00
    9   -4   16     -0.61      0.00
    9   -4   17      1.30      0.00
    9   -4   18     -0.88      0.00
    9   -4   19      0.39      0.00
    9   -4   20     -0.22      0.00
    9   -4   21     -0.07      0.00
    9   -4   22      1.32      0.00
   -9    3   22      0.74      0.00
   -9    3   21      1.82      0.00
   -9    3   20     -2.33      0.00
   -9    3   19     -0.03      0.00
   -9    3   18     -1.21      0.00
   -9    3   17      0.69      0.00
   -9    3   16     -1.64      0.00
   -9    3   15      1.27      0.00
   -9    3   14      1.90      0.00
   -9    3   13      1.53      0.00
   -9    3   12     -0.67      0.00
   -9    3   11     -1.29      0.00
   -9    3   10      0.08      0.00
   -9    3    9      3.26      0.00
   -9    3    8      0.96      0.00
   -9    3    7     -0.39      0.00
   -9    3    6     -1.97      0.00
   -9    3    5     -2.25      0.00
   -9    3    4      0.40      0.00
   -9    3    3      0.12      0.00
   -9    3    2     -1.69      0.00
   -9    3    1     -0.95      0.00
   -9    3    0     -2.16      0.00
    9   -3    1      3.12      0.00
    9   -3    2     -1.49      0.00
    9   -3    3      1.70      0.00
    9   -3    4     -0.15      0.00
    9   -3    5      0.72      0.00
    9   -3    6      2.59      0.00
    9   -3    7     -1.98      0.00
    9   -3    8      1.66      0.00
    9   -3    9     -0.29      0.00
    9   -3   10      0.72      0.00
    9   -3   11     -1.48      0.00
    9   -3   12     -0.14      0.00
    9   -3   13      1.90      0.00
    9   -3   14     -1.47      0.00
    9   -3   15     -0.15      0.00
    9   -3   16     -0.84      0.00
    9   -3   17     -0.43      0.00
    9   -3   18      0.78      0.00
    9   -3   19     -0.49      0.00
    9   -3   20      0.86      0.00
    9   -3   21     -0.56      0.00
    9   -3   22     -0.32      0.00
   -9    2   23     -1.56      0.00
   -9    2   22     -0.80      0.00
   -9    2   21     -1.36      0.00
   -9    2   20      1.46      0.00
   -9    2   19     -2.75      0.00
   -9    2   18      1.43      0.00
   -9    2   17     -1.26      0.00
   -9    2   16      1.48      0.00
   -9    2   15     -1.17      0.00
   -9    2   14     -0.76      0.00
   -9    2   13      1.80      0.00
   -9    2   12      3.02      0.00
   -9    2   11      1.46      0.00
   -9    2   10     -1.74      0.00
   -9    2    9     -2.94      0.00
   -9    2    8      1.87      0.00
   -9    2    7      1.54      0.00
   -9    2    6      0.31      0.00
   -9    2    5     -3.09      0.00
   -9    2    4     -1.74      0.00
   -9    2    3      0.82      0.00
   -9    2    2     -1.38      0.00
   -9    2    1     -0.91      0.00
   -9    2    0      0.03      0.00
    9   -2    1     -0.37      0.00
    9   -2    2      1.12      0.00
    9   -2    3     -1.91      0.00
    9   -2    4     -0.30      0.00
    9   -2    5      2.81      0.00
    9   -2    6      0.63      0.00
    9   -2    7      1.35      0.00
    9   -2    8     -2.56      0.00
    9   -2    9      0.87      0.00
    9   -2   10      1.02      0.00
    9   -2   11      0.89      0.00
    9   -2   12     -0.90      0.00
    9   -2   13     -1.13      0.00
    9   -2   14      1.29      0.00
    9   -2   15      0.47      0.00
    9   -2   16     -0.58      0.00
    9   -2   17      0.17      0.00
    9   -2   18     -0.65      0.00
    9   -2   19      0.70      0.00
    9   -2   20     -1.57      0.00
    9   -2   21     -0.19      0.00
    9   -2   22     -0.39      0.00
   -9    1   23      0.67      0.00
   -9    1   22     -0.47      0.00
   -9    1   21      0.81      0.00
   -9    1   20     -1.47      0.00
   -9    1   19      2.06      0.00
   -9    1   18     -2.24      0.00
   -9    1   17     -0.60      0.00
   -9    1   16     -1.07      0.00
   -9    1   15      0.11      0.00
   -9    1   14     -0.72      0.00
   -9    1   13     -2.43      0.00
   -9    1   12     -0.63      0.00
   -9    1   11      1.32      0.00
   -9    1   10      3.47      0.00
   -9    1    9      1.49      0.00
   -9    1    8     -1.91      0.00
   -9    1    7      1.46      0.00
   -9    1    6      2.00      0.00
   -9    1    5      1.10      0.00
   -9    1    4     -1.46      0.00
   -9    1    3     -2.07      0.00
   -9    1    2      3.05      0.00
   -9    1    1     -2.95      0.00
   -9    1    0     -2.64      0.00
    9   -1    1     -2.58      0.00
    9   -1    2      1.79      0.00
    9   -1    3      1.67      0.00
    9   -1    4     -3.21      0.00
    9   -1    5     -2.51      0.00
    9   -1    6      0.78      0.00
    9   -1    7      2.69      0.00
    9   -1    8      1.00      0.00
    9   -1    9     -1.29      0.00
    9   -1   10     -0.28      0.00
    9   -1   11      0.25      0.00
    9   -1   12      0.75      0.00
    9   -1   13     -1.03      0.00
    9   -1   14     -1.03      0.00
    9   -1   15      0.78      0.00
    9   -1   16      1.12      0.00
    9   -1   17     -0.92      0.00
    9   -1   18      0.72      0.00
    9   -1   19      0.73      0.00
    9   -1   20      0.81      0.00
    9   -1   21      0.90      0.00
   -9    0   23     -0.10      0.00
   -9    0   22      0.75      0.00
   -9    0   21     -0.77      0.00
   -9    0   20      0.68      0.00
   -9    0   19     -1.35      0.00
   -9    0   18      0.34      0.00
   -9    0   17      0.31      0.00
   -9    0   16     -0.47      0.00
   -9    0   15     -1.66      0.00
   -9    0   14      0.01      0.00
   -9    0   13      0.14      0.00
   -9    0   12     -1.33      0.00
   -9    0   11     -1.40      0.00
   -9    0   10     -0.91      0.00
   -9    0    9      0.80      0.00
   -9    0    8      0.71      0.00
   -9    0    7      0.00      0.00
   -9    0    6      2.25      0.00
   -9    0    5      2.21      0.00
   -9    0    4      1.82      0.00
   -9    0    3     -0.79      0.00
   -9    0    2     -1.67      0.00
   -9    0    1      3.88      0.00
    9    0    0      1.51      0.00
    9    0    1     -2.07      0.00
    9    0    2     -3.20      0.00
    9    0    3      0.07      0.00
    9    0    4      4.40      0.00
    9    0    5     -2.43      0.00
    9    0    6     -0.61      0.00
    9    0    7     -2.51      0.00
    9    0    8      2.19      0.00
    9    0    9      1.16      0.00
    9    0   10      0.28      0.00
    9    0   11     -0.35      0.00
    9    0   12      1.98      0.00
    9    0   13      0.83      0.00
    9    0   14      0.66      0.00
    9    0   15     -2.31      0.00
    9    0   16      0.29      0.00
    9    0   17      0.42      0.00
    9    0   18     -0.62      0.00
    9    0   19     -0.60      0.00
    9    0   20      0.77      0.00
    9    0   21      0.21      0.00
   -9   -1   23      0.71      0.00
   -9   -1   22     -0.67      0.00
   -9   -1   21      0.38      0.00
   -9   -1   20      0.59      0.00
   -9   -1   19     -0.48      0.00
   -9   -1   18     -0.52      0.00
   -9   -1   17     -0.23      0.00
   -9   -1   16     -0.91      0.00
   -9   -1   15      1.66      0.00
   -9   -1   14     -0.87      0.00
   -9   -1   13     -0.15      0.00
   -9   -1   12     -0.05      0.00
   -9   -1   11      0.10      0.00
   -9   -1   10     -0.04      0.00
   -9   -1    9     -0.08      0.00
   -9   -1    8     -0.03      0.00
   -9   -1    7     -1.11      0.00
   -9   -1    6     -2.35      0.00
   -9   -1    5      1.55      0.00
   -9   -1    4      0.41      0.00
   -9   -1    3      4.38      0.00
   -9   -1    2     -1.76      0.00
   -9   -1    1     -1.00      0.00
    9    1    0      0.06      0.00
    9    1    1      2.11      0.00
    9    1    2     -0.66      0.00
    9    1    3     -1.39      0.00
    9    1    5      3.40      0.00
    9    1    6     -0.84      0.00
    9    1    7      0.81      0.00
    9    1    8     -2.95      0.00
    9    1    9      0.67      0.00
    9    1   10      0.05      0.00
    9    1   11      0.37      0.00
    9    1   12     -2.50      0.00
    9    1   13      0.94      0.00
    9    1   14      0.37      0.00
    9    1   15      1.87      0.00
    9    1   16     -0.80      0.00
    9    1   17     -0.47      0.00
    9    1   18     -0.04      0.00
    9    1   19     -0.41      0.00
    9    1   20     -1.13      0.00
   -9   -2   23      1.06      0.00
   -9   -2   22     -0.44      0.00
   -9   -2   21      1.26      0.00
   -9   -2   20      0.64      0.00
   -9   -2   19      0.53      0.00
   -9   -2   18      1.43      0.00
   -9   -2   17      0.08      0.00
   -9   -2   16     -0.31      0.00
   -9   -2   15     -1.80      0.00
   -9   -2   14      0.75      0.00
   -9   -2   13     -1.82      0.00
   -9   -2   12     -0.53      0.00
   -9   -2   11     -1.21      0.00
   -9   -2   10     -0.50      0.00
   -9   -2    9     -1.22      0.00
   -9   -2    8      0.57      0.00
   -9   -2    7      1.51      0.00
   -9   -2    6      1.33      0.00
   -9   -2    5     -2.94      0.00
   -9   -2    4      1.68      0.00
   -9   -2    3     -2.86      0.00
   -9   -2    2      4.22      0.00
   -9   -2    1      0.65      0.00
    9    2    0      0.76      0.00
    9    2    1      0.36      0.00
    9    2    2      1.24      0.00
    9    2    3     -0.24      0.00
    9    2    4      0.37      0.00
    9    2    5     -2.56      0.00
    9    2    6      0.24      0.00
    9    2    7     -0.27      0.00
    9    2    8      2.12      0.00
    9    2    9     -2.66      0.00
    9    2   10      0.22      0.00
    9    2   11      0.40      0.00
    9    2   12      0.66      0.00
    9    2   13     -0.69      0.00
    9    2   14     -1.53      0.00
    9    2   15      0.29      0.00
    9    2   16      1.47      0.00
    9    2   17      0.09      0.00
    9    2   18      0.40      0.00
    9    2   19     -0.36      0.00
    9    2   20      0.52      0.00
   -9   -3   22      0.20      0.00
   -9   -3   21      0.02      0.00
   -9   -3   20     -0.74      0.00
   -9   -3   19      1.01      0.00
   -9   -3   18      0.10      0.00
   -9   -3   17      0.95      0.00
   -9   -3   16      0.97      0.00
   -9   -3   15      1.32      0.00
   -9   -3   14     -1.28      0.00
   -9   -3   13      2.03      0.00
   -9   -3   12     -1.13      0.00
   -9   -3   11      0.70      0.00
   -9   -3   10     -0.94      0.00
   -9   -3    9      0.14      0.00
   -9   -3    8     -1.42      0.00
   -9   -3    7     -2.10      0.00
   -9   -3    6     -0.92      0.00
   -9   -3    5      2.55      0.00
   -9   -3    4     -1.79      0.00
   -9   -3    3      1.16      0.00
   -9   -3    2     -1.64      0.00
   -9   -3    1      0.51      0.00
    9    3    0     -1.01      0.00
    9    3    1      1.33      0.00
    9    3    2      0.31      0.00
    9    3    3      0.66      0.00
    9    3    4      0.62      0.00
    9    3    5      1.13      0.00
    9    3    6     -1.47      0.00
    9    3    7      0.32      0.00
    9    3    8     -1.57      0.00
    9    3    9      2.31      0.00
    9    3   10     -1.08      0.00
    9    3   11     -0.66      0.00
    9    3   12      0.72      0.00
    9    3   13     -0.20      0.00
    9    3   14      0.83      0.00
    9    3   15     -1.59      0.00
    9    3   16     -1.53      0.00
    9    3   17      1.66      0.00
    9    3   18      0.34      0.00
    9    3   19      0.20      0.00
   -9   -4   22      0.55      0.00
   -9   -4   21     -1.48      0.00
   -9   -4   20      0.20      0.00
   -9   -4   19     -0.44      0.00
   -9   -4   18     -0.79      0.00
   -9   -4   17     -0.32      0.00
   -9   -4   16      1.61      0.00
   -9   -4   15      0.04      0.00
   -9   -4   14      2.56      0.00
   -9   -4   13     -0.74      0.00
   -9   -4   12      1.13      0.00
   -9   -4   11     -0.94      0.00
   -9   -4   10      0.30      0.00
   -9   -4    9     -0.43      0.00
   -9   -4    8      0.50      0.00
   -9   -4    7      0.78      0.00
   -9   -4    6     -0.83      0.00
   -9   -4    5     -1.58      0.00
   -9   -4    4      0.63      0.00
   -9   -4    3     -0.94      0.00
   -9   -4    2      1.04      0.00
   -9   -4    1     -0.54      0.00
    9    4    0      1.65      0.00
    9    4    1     -1.37      0.00
    9    4    2      0.39      0.00
    9    4    3      0.11      0.00
    9    4    4     -0.30      0.00
    9    4    5      0.42      0.00
    9    4    6      0.94      0.00
    9    4    7     -1.46      0.00
    9    4    8      1.29      0.00
    9    4    9     -1.47      0.00
    9    4   10      1.13      0.00
    9    4   11     -0.08      0.00
    9    4   12     -0.15      0.00
    9    4   13      0.59      0.00
    9    4   14      1.29      0.00
    9    4   15      0.91      0.00
    9    4   16     -0.60      0.00
    9    4   17     -0.05      0.00
    9    4   18     -0.59      0.00
   -9   -5   22      0.17      0.00
   -9   -5   21     -0.28      0.00
   -9   -5   20      0.87      0.00
   -9   -5   19      0.68      0.00
   -9   -5   18      0.36      0.00
   -9   -5   17     -0.08      0.00
   -9   -5   16     -1.77      0.00
   -9   -5   15     -0.50      0.00
   -9   -5   14     -1.03      0.00
   -9   -5   13      1.75      0.00
   -9   -5   12      0.47      0.00
   -9   -5   11      1.08      0.00
   -9   -5   10      0.63      0.00
   -9   -5    9      0.15      0.00
   -9   -5    8     -0.89      0.00
   -9   -5    7      0.63      0.00
   -9   -5    6      0.42      0.00
   -9   -5    5     -0.17      0.00
   -9   -5    4     -0.73      0.00
   -9   -5    3      0.55      0.00
   -9   -5    2     -1.36      0.00
   -9   -5    1     -0.17      0.00
    9    5    0     -0.71      0.00
    9    5    1      0.81      0.00
    9    5    2      0.03      0.00
    9    5    3      0.36      0.00
    9    5    4      0.11      0.00
    9    5    5      0.21      0.00
    9    5    6      0.62      0.00
    9    5    7      0.54      0.00
    9    5    8     -1.83      0.00
    9    5    9      0.75      0.00
    9    5   10     -0.81      0.00
    9    5   11      0.98      0.00
    9    5   12     -1.65      0.00
    9    5   13     -0.68      0.00
    9    5   14      0.10      0.00
    9    5   15     -0.84      0.00
    9    5   16      1.23      0.00
    9    5   17     -1.57      0.00
   -9   -6   21      0.00      0.00
   -9   -6   20     -1.69      0.00
   -9   -6   19     -1.47      0.00
   -9   -6   18      0.12      0.00
   -9   -6   17      0.47      0.00
   -9   -6   16      0.16      0.00
   -9   -6   15      0.64      0.00
   -9   -6   14     -0.18      0.00
   -9   -6   13     -0.79      0.00
   -9   -6   12      0.28      0.00
   -9   -6   11     -0.46      0.00
   -9   -6   10      1.60      0.00
   -9   -6    9     -0.24      0.00
   -9   -6    8      0.54      0.00
   -9   -6    7     -1.68      0.00
   -9   -6    6      0.90      0.00
   -9   -6    5      0.00      0.00
   -9   -6    4     -0.66      0.00
   -9   -6    3     -0.64      0.00
   -9   -6    2      0.15      0.00
   -9   -6    1     -0.02      0.00
    9    6    0      0.10      0.00
    9    6    1     -1.26      0.00
    9    6    2     -0.37      0.00
    9    6    3     -0.30      0.00
    9    6    4      0.27      0.00
    9    6    5     -1.33      0.00
    9    6    6      0.84      0.00
    9    6    7      2.20      0.00
    9    6    8      0.59      0.00
    9    6    9     -0.62      0.00
    9    6   10      0.29      0.00
    9    6   11     -0.17      0.00
    9    6   12      0.96      0.00
    9    6   13      0.73      0.00
    9    6   14     -1.73      0.00
    9    6   15      1.29      0.00
    9    6   16     -0.10      0.00
   -9   -7   20      0.11      0.00
   -9   -7   19      0.88      0.00
   -9   -7   18      0.47      0.00
   -9   -7   17     -0.68      0.00
   -9   -7   16      2.14      0.00
   -9   -7   15     -0.50      0.00
   -9   -7   14     -0.29      0.00
   -9   -7   13      0.93      0.00
   -9   -7   12     -0.77      0.00
   -9   -7   11      0.92      0.00
   -9   -7   10     -2.30      0.00
   -9   -7    9      2.48      0.00
   -9   -7    8      0.39      0.00
   -9   -7    7      0.25      0.00
   -9   -7    6     -1.08      0.00
   -9   -7    5      1.64      0.00
   -9   -7    4      0.71      0.00
   -9   -7    3     -0.07      0.00
   -9   -7    2     -0.98      0.00
   -9   -7    1     -0.92      0.00
    9    7    0      0.01      0.00
    9    7    1      0.89      0.00
    9    7    2     -0.43      0.00
    9    7    3      0.66      0.00
    9    7    4     -0.15      0.00
    9    7    5     -0.42      0.00
    9    7    6     -1.26      0.00
    9    7    7     -1.71      0.00
    9    7    8      1.59      0.00
    9    7    9     -0.69      0.00
    9    7   10      1.24      0.00
    9    7   11     -1.49      0.00
    9    7   12      0.98      0.00
    9    7   13     -0.71      0.00
    9    7   14      0.99      0.00
   -9   -8   19     -0.09      0.00
   -9   -8   18     -1.28      0.00
   -9   -8   17     -0.29      0.00
   -9   -8   16     -1.82      0.00
   -9   -8   15      0.67      0.00
   -9   -8   14      1.28      0.00
   -9   -8   13     -1.62      0.00
   -9   -8   12      1.98      0.00
   -9   -8   11     -0.46      0.00
   -9   -8   10      1.11      0.00
   -9   -8    9     -1.72      0.00
   -9   -8    8      0.69      0.00
   -9   -8    7     -0.13      0.00
   -9   -8    6     -0.52      0.00
   -9   -8    5     -2.26      0.00
   -9   -8    4     -0.36      0.00
   -9   -8    3      1.94      0.00
   -9   -8    2      1.01      0.00
   -9   -8    1      0.18      0.00
    9    8    0     -0.15      0.00
    9    8    1     -0.06      0.00
    9    8    2     -0.04      0.00
    9    8    3      0.79      0.00
    9    8    4      1.04      0.00
    9    8    5      1.89      0.00
    9    8    6     -0.84      0.00
    9    8    7      0.84      0.00
    9    8    8     -1.01      0.00
    9    8    9      1.61      0.00
    9    8   10     -2.40      0.00
    9    8   11      1.55      0.00
    9    8   12     -1.00      0.00
    9    8   13     -0.35      0.00
   -9   -9   18      0.54      0.00
   -9   -9   17      1.06      0.00
   -9   -9   16     -0.44      0.00
   -9   -9   15     -0.75      0.00
   -9   -9   14     -0.99      0.00
   -9   -9   13      0.62      0.00
   -9   -9   12     -3.35      0.00
   -9   -9   11      0.62      0.00
   -9   -9   10     -0.15      0.00
   -9   -9    9      0.31      0.00
   -9   -9    8      0.25      0.00
   -9   -9    7      1.42      0.00
   -9   -9    6      1.83      0.00
   -9   -9    5      0.11      0.00
   -9   -9    4     -0.26      0.00
   -9   -9    3     -2.24      0.00
   -9   -9    2     -0.20      0.00
   -9   -9    1      0.43      0.00
    9    9    0      0.23      0.00
    9    9    1     -0.73      0.00
    9    9    2      0.01      0.00
    9    9    3     -2.80      0.00
    9    9    4     -0.39      0.00
    9    9    5     -0.06      0.00
    9    9    6      1.44      0.00
    9    9    7     -0.33      0.00
    9    9    8     -0.28      0.00
    9    9    9      0.24      0.00
    9    9   10      0.81      0.00
    9    9   11     -0.50      0.00
   -9  -10   17     -0.59      0.00
   -9  -10   16     -0.09      0.00
   -9  -10   15     -0.91      0.00
   -9  -10   14      0.67      0.00
   -9  -10   13      0.33      0.00
   -9  -10   12      2.16      0.00
   -9  -10   11     -2.20      0.00
   -9  -10   10     -0.32      0.00
   -9  -10    9      0.39      0.00
   -9  -10    8     -1.17      0.00
   -9  -10    7     -0.31      0.00
   -9  -10    6     -0.02      0.00
   -9  -10    5      1.47      0.00
   -9  -10    4      0.97      0.00
   -9  -10    3      1.91      0.00
   -9  -10    2     -0.51      0.00
   -9  -10    1      0.25      0.00
    9   10    0     -1.43      0.00
    9   10    1      1.06      0.00
    9   10    2      0.20      0.00
    9   10    3      0.91      0.00
    9   10    4     -0.54      0.00
    9   10    5     -1.69      0.00
    9   10    6     -0.83      0.00
    9   10    7     -1.40      0.00
    9   10    8      0.82      0.00
    9   10    9     -1.39      0.00
   -9  -11   15      0.33      0.00
   -9  -11   14     -1.90      0.00
   -9  -11   13     -0.31      0.00
   -9  -11   12     -0.28      0.00
   -9  -11   11      1.61      0.00
   -9  -11   10     -0.74      0.00
   -9  -11    9     -0.70      0.00
   -9  -11    8      0.15      0.00
   -9  -11    7      0.22      0.00
   -9  -11    6     -0.06      0.00
   -9  -11    5     -1.32      0.00
   -9  -11    4      0.12      0.00
   -9  -11    3     -2.07      0.00
   -9  -11    2      1.43      0.00
   -9  -11    1      0.08      0.00
    9   11    0      1.31      0.00
    9   11    1     -0.26      0.00
    9   11    2     -0.45      0.00
    9   11    3      0.05      0.00
    9   11    4     -0.63      0.00
    9   11    5      1.48      0.00
    9   11    6      0.31      0.00
    9   11    7      1.27      0.00
   -9  -12   12     -0.39      0.00
   -9  -12   11     -1.15      0.00
   -9  -12   10      1.27      0.00
   -9  -12    9      0.18      0.00
   -9  -12    8     -1.39      0.00
   -9  -12    7     -0.75      0.00
   -9  -12    5      1.35      0.00
   -9  -12    4     -0.06      0.00
   -9  -12    3      1.15      0.00
   -9  -12    2     -0.99      0.00
   -9  -12    1     -0.66      0.00
    9   12    0     -0.59      0.00
    9   12    1     -0.25      0.00
    9   12    2      0.39      0.00
    9   12    3      0.36      0.00
   -9  -13    7      0.14      0.00
   -9  -13    6     -1.05      0.00
   -9  -13    5     -0.35      0.00
   -9  -13    4     -0.41      0.00
   -9  -13    3     -0.36      0.00
  -10   18    1      1.54      0.00
  -10   18    0     -2.21      0.00
   10  -18    1      1.42      0.00
   10  -18    2      0.10      0.00
   10  -18    3     -1.08      0.00
   10  -18    4     -1.96      0.00
   10  -18    5     -0.02      0.00
   10  -18    6     -1.28      0.00
   10  -18    7      0.29      0.00
   10  -18    8     -0.26      0.00
   10  -18    9      0.87      0.00
   10  -18   10      0.82      0.00
  -10   17    5     -1.69      0.00
  -10   17    4      3.01      0.00
  -10   17    3     -2.67      0.00
  -10   17    2      1.34      0.00
  -10   17    1      0.76      0.00
  -10   17    0      1.19      0.00
   10  -17    1     -1.25      0.00
   10  -17    2     -0.88      0.00
   10  -17    3      1.63      0.00
   10  -17    4     -0.64      0.00
   10  -17    5     -0.68      0.00
   10  -17    6      0.71      0.00
   10  -17    7     -0.64      0.00
   10  -17    8     -0.73      0.00
   10  -17    9     -0.34      0.00
   10  -17   10      0.27      0.00
   10  -17   11      1.43      0.00
   10  -17   12      0.45      0.00
   10  -17   13     -0.44      0.00
  -10   16    8     -2.18      0.00
  -10   16    7      2.45      0.00
  -10   16    6     -2.77      0.00
  -10   16    5      2.11      0.00
  -10   16    4     -1.22      0.00
  -10   16    3      1.06      0.00
  -10   16    2     -0.69      0.00
  -10   16    1     -0.97      0.00
  -10   16    0      0.73      0.00
   10  -16    1      0.26      0.00
   10  -16    2      0.96      0.00
   10  -16    3     -0.77      0.00
   10  -16    4      0.58      0.00
   10  -16    5     -1.02      0.00
   10  -16    6     -1.13      0.00
   10  -16    7      1.52      0.00
   10  -16    8      0.06      0.00
   10  -16    9     -0.44      0.00
   10  -16   10     -1.67      0.00
   10  -16   11     -0.12      0.00
   10  -16   12      0.56      0.00
   10  -16   13      0.79      0.00
   10  -16   14      0.01      0.00
   10  -16   15      0.77      0.00
  -10   15   10      0.42      0.00
  -10   15    9     -1.05      0.00
  -10   15    8      0.92      0.00
  -10   15    7     -1.98      0.00
  -10   15    6      0.90      0.00
  -10   15    5     -0.66      0.00
  -10   15    4      0.14      0.00
  -10   15    3     -0.20      0.00
  -10   15    2      0.20      0.00
  -10   15    1      0.95      0.00
  -10   15    0     -0.29      0.00
   10  -15    1     -0.47      0.00
   10  -15    2      0.23      0.00
   10  -15    3      0.66      0.00
   10  -15    4      1.62      0.00
   10  -15    5      0.31      0.00
   10  -15    6     -0.20      0.00
   10  -15    7     -2.07      0.00
   10  -15    8      0.85      0.00
   10  -15    9      1.10      0.00
   10  -15   10      0.32      0.00
   10  -15   11     -0.27      0.00
   10  -15   12     -0.48      0.00
   10  -15   13      0.23      0.00
   10  -15   14      0.95      0.00
   10  -15   15     -0.21      0.00
   10  -15   16      0.63      0.00
   10  -15   17      0.71      0.00
  -10   14   12      1.25      0.00
  -10   14   11     -1.29      0.00
  -10   14   10      1.18      0.00
  -10   14    9      1.19      0.00
  -10   14    8     -0.35      0.00
  -10   14    7      0.12      0.00
  -10   14    6     -0.95      0.00
  -10   14    5      0.26      0.00
  -10   14    4      0.33      0.00
  -10   14    3      0.21      0.00
  -10   14    2      0.91      0.00
  -10   14    1      0.31      0.00
  -10   14    0      1.17      0.00
   10  -14    1      1.69      0.00
   10  -14    2     -1.13      0.00
   10  -14    3     -0.65      0.00
   10  -14    4     -0.78      0.00
   10  -14    5      1.43      0.00
   10  -14    6      0.38      0.00
   10  -14    7     -0.38      0.00
   10  -14    8     -0.16      0.00
   10  -14    9     -1.15      0.00
   10  -14   10     -0.69      0.00
   10  -14   11      1.00      0.00
   10  -14   12     -0.88      0.00
   10  -14   13      0.34      0.00
   10  -14   14     -1.01      0.00
   10  -14   15      1.25      0.00
   10  -14   16     -0.46      0.00
   10  -14   17      0.11      0.00
   10  -14   18      0.03      0.00
  -10   13   13      2.15      0.00
  -10   13   12     -0.04      0.00
  -10   13   11      0.57      0.00
  -10   13   10     -1.25      0.00
  -10   13    9     -1.69      0.00
  -10   13    8      2.18      0.00
  -10   13    7     -0.58      0.00
  -10   13    6     -0.19      0.00
  -10   13    5     -0.05      0.00
  -10   13    4     -1.01      0.00
  -10   13    3      0.37      0.00
  -10   13    2     -1.55      0.00
  -10   13    1     -0.69      0.00
  -10   13    0      0.07      0.00
   10  -13    1     -0.05      0.00
   10  -13    2      2.04      0.00
   10  -13    3      1.31      0.00
   10  -13    4     -0.01      0.00
   10  -13    5      0.32      0.00
   10  -13    6      0.50      0.00
   10  -13    7      0.23      0.00
   10  -13    8      0.52      0.00
   10  -13    9     -0.21      0.00
   10  -13   10      1.44      0.00
   10  -13   11     -2.44      0.00
   10  -13   12      0.89      0.00
   10  -13   13     -1.32      0.00
   10  -13   14      0.57      0.00
   10  -13   15     -1.30      0.00
   10  -13   16      1.12      0.00
   10  -13   17      0.19      0.00
   10  -13   18     -0.95      0.00
   10  -13   19     -1.24      0.00
  -10   12   15     -1.50      0.00
  -10   12   14      1.63      0.00
  -10   12   13     -1.80      0.00
  -10   12   12      0.31      0.00
  -10   12   11      2.76      0.00
  -10   12   10      0.37      0.00
  -10   12    9      1.68      0.00
  -10   12    8     -1.46      0.00
  -10   12    7      1.43      0.00
  -10   12    6      0.16      0.00
  -10   12    5     -1.92      0.00
  -10   12    4     -0.46      0.00
  -10   12    3     -0.55      0.00
  -10   12    2     -0.83      0.00
  -10   12    1     -0.05      0.00
  -10   12    0     -0.78      0.00
   10  -12    1     -0.96      0.00
   10  -12    2     -0.83      0.00
   10  -12    3     -0.49      0.00
   10  -12    4      0.71      0.00
   10  -12    5      0.24      0.00
   10  -12    6      0.29      0.00
   10  -12    7      1.31      0.00
   10  -12    8     -1.41      0.00
   10  -12    9      0.56      0.00
   10  -12   10     -0.39      0.00
   10  -12   11      1.37      0.00
   10  -12   12     -1.02      0.00
   10  -12   13      0.86      0.00
   10  -12   14     -1.66      0.00
   10  -12   15     -0.41      0.00
   10  -12   16     -1.62      0.00
   10  -12   17     -0.25      0.00
   10  -12   18      1.65      0.00
   10  -12   19      0.16      0.00
   10  -12   20     -0.44      0.00
  -10   11   16     -1.79      0.00
  -10   11   15      1.06      0.00
  -10   11   14     -1.33      0.00
  -10   11   13      0.96      0.00
  -10   11   12     -0.76      0.00
  -10   11   11     -1.32      0.00
  -10   11   10      1.68      0.00
  -10   11    9     -0.95      0.00
  -10   11    8      0.48      0.00
  -10   11    7     -0.83      0.00
  -10   11    6      1.52      0.00
  -10   11    5      0.42      0.00
  -10   11    4      1.27      0.00
  -10   11    3     -0.70      0.00
  -10   11    2     -0.68      0.00
  -10   11    1     -0.58      0.00
  -10   11    0     -1.14      0.00
   10  -11    1      0.29      0.00
   10  -11    2     -0.75      0.00
   10  -11    3     -0.25      0.00
   10  -11    4     -0.34      0.00
   10  -11    5     -0.41      0.00
   10  -11    6      0.62      0.00
   10  -11    7      0.66      0.00
   10  -11    8      1.13      0.00
   10  -11    9      0.23      0.00
   10  -11   10     -0.47      0.00
   10  -11   11     -0.03      0.00
   10  -11   12      0.24      0.00
   10  -11   13     -0.30      0.00
   10  -11   14      1.80      0.00
   10  -11   15     -0.36      0.00
   10  -11   16      0.55      0.00
   10  -11   17      0.42      0.00
   10  -11   18     -1.83      0.00
   10  -11   19      0.22      0.00
   10  -11   20      0.21      0.00
   10  -11   21     -0.28      0.00
  -10   10   17     -1.58      0.00
  -10   10   16      1.89      0.00
  -10   10   15     -1.40      0.00
  -10   10   14     -0.68      0.00
  -10   10   13     -0.37      0.00
  -10   10   12     -0.36      0.00
  -10   10   11     -1.08      0.00
  -10   10   10     -0.61      0.00
  -10   10    9      2.34      0.00
  -10   10    8      0.07      0.00
  -10   10    7      1.58      0.00
  -10   10    6     -1.07      0.00
  -10   10    5      0.49      0.00
  -10   10    4     -0.48      0.00
  -10   10    3      0.77      0.00
  -10   10    2      2.23      0.00
  -10   10    1     -2.16      0.00
  -10   10    0      1.36      0.00
   10  -10    1     -0.74      0.00
   10  -10    2     -0.37      0.00
   10  -10    3     -0.10      0.00
   10  -10    4     -0.73      0.00
   10  -10    5     -0.63      0.00
   10  -10    6     -0.57      0.00
   10  -10    7     -0.96      0.00
   10  -10    8      1.16      0.00
   10  -10    9      0.25      0.00
   10  -10   10      2.17      0.00
   10  -10   11     -0.76      0.00
   10  -10   12      0.73      0.00
   10  -10   13     -0.29      0.00
   10  -10   14     -0.68      0.00
   10  -10   15      0.67      0.00
   10  -10   16     -1.01      0.00
   10  -10   17     -0.56      0.00
   10  -10   18      0.79      0.00
   10  -10   19      0.37      0.00
   10  -10   20     -0.60      0.00
   10  -10   21      0.53      0.00
  -10    9   18     -2.27      0.00
  -10    9   17      0.73      0.00
  -10    9   16     -1.09      0.00
  -10    9   15      0.11      0.00
  -10    9   14     -0.62      0.00
  -10    9   13     -1.19      0.00
  -10    9   12      0.80      0.00
  -10    9   11     -0.72      0.00
  -10    9   10     -1.46      0.00
  -10    9    9     -1.10      0.00
  -10    9    8      0.08      0.00
  -10    9    7     -0.02      0.00
  -10    9    6      2.62      0.00
  -10    9    5      0.32      0.00
  -10    9    4     -0.78      0.00
  -10    9    3      1.62      0.00
  -10    9    2     -1.08      0.00
  -10    9    1      1.91      0.00
  -10    9    0     -1.40      0.00
   10   -9    1     -0.11      0.00
   10   -9    2      0.00      0.00
   10   -9    3     -0.15      0.00
   10   -9    4     -0.31      0.00
   10   -9    5      0.74      0.00
   10   -9    6     -0.93      0.00
   10   -9    7      0.27      0.00
   10   -9    8     -2.65      0.00
   10   -9    9      0.35      0.00
   10   -9   10     -2.13      0.00
   10   -9   11      1.89      0.00
   10   -9   12     -0.09      0.00
   10   -9   13      0.49      0.00
   10   -9   14     -0.25      0.00
   10   -9   15      0.45      0.00
   10   -9   16      0.95      0.00
   10   -9   17     -0.70      0.00
   10   -9   18      0.60      0.00
   10   -9   19     -1.15      0.00
   10   -9   20      0.31      0.00
   10   -9   21     -0.49      0.00
  -10    8   19     -1.79      0.00
  -10    8   18      3.51      0.00
  -10    8   17     -0.20      0.00
  -10    8   16      1.03      0.00
  -10    8   15      0.58      0.00
  -10    8   14      0.26      0.00
  -10    8   13      0.03      0.00
  -10    8   12     -1.36      0.00
  -10    8   11      0.44      0.00
  -10    8   10      0.38      0.00
  -10    8    9     -0.87      0.00
  -10    8    8     -1.16      0.00
  -10    8    7     -0.46      0.00
  -10    8    6      0.09      0.00
  -10    8    5      1.85      0.00
  -10    8    4      1.10      0.00
  -10    8    3     -0.03      0.00
  -10    8    2      0.95      0.00
  -10    8    1      1.47      0.00
  -10    8    0      1.11      0.00
   10   -8    1     -0.74      0.00
   10   -8    2      0.55      0.00
   10   -8    3     -1.53      0.00
   10   -8    4      0.65      0.00
   10   -8    5     -2.34      0.00
   10   -8    6      0.81      0.00
   10   -8    7     -0.31      0.00
   10   -8    8      1.31      0.00
   10   -8    9     -0.35      0.00
   10   -8   10      0.97      0.00
   10   -8   11     -1.62      0.00
   10   -8   12      0.24      0.00
   10   -8   13      0.06      0.00
   10   -8   14      0.92      0.00
   10   -8   15     -0.57      0.00
   10   -8   16     -0.56      0.00
   10   -8   17      0.88      0.00
   10   -8   18     -1.35      0.00
   10   -8   19      0.44      0.00
   10   -8   20      0.07      0.00
   10   -8   21      0.11      0.00
  -10    7   19      1.25      0.00
  -10    7   18     -1.20      0.00
  -10    7   17      1.04      0.00
  -10    7   16     -0.04      0.00
  -10    7   15      0.59      0.00
  -10    7   14      1.20      0.00
  -10    7   13      0.37      0.00
  -10    7   12     -0.05      0.00
  -10    7   11     -0.74      0.00
  -10    7   10     -0.44      0.00
  -10    7    9      0.48      0.00
  -10    7    8     -0.41      0.00
  -10    7    7     -1.56      0.00
  -10    7    6     -2.15      0.00
  -10    7    5     -1.23      0.00
  -10    7    4      2.45      0.00
  -10    7    3     -1.21      0.00
  -10    7    2      1.08      0.00
  -10    7    1     -0.25      0.00
  -10    7    0      0.13      0.00
   10   -7    1      2.95      0.00
   10   -7    2     -0.92      0.00
   10   -7    3      1.55      0.00
   10   -7    4     -0.64      0.00
   10   -7    5      1.81      0.00
   10   -7    6     -1.54      0.00
   10   -7    7     -0.41      0.00
   10   -7    8     -1.09      0.00
   10   -7    9     -1.05      0.00
   10   -7   10      0.31      0.00
   10   -7   11      0.69      0.00
   10   -7   12     -1.32      0.00
   10   -7   13     -0.17      0.00
   10   -7   14      0.04      0.00
   10   -7   15      0.20      0.00
   10   -7   16      1.41      0.00
   10   -7   17     -0.11      0.00
   10   -7   18      1.28      0.00
   10   -7   19      0.24      0.00
   10   -7   20     -0.26      0.00
   10   -7   21      0.94      0.00
   10   -7   22     -0.92      0.00
  -10    6   20      1.03      0.00
  -10    6   19     -1.47      0.00
  -10    6   17      1.30      0.00
  -10    6   16     -0.68      0.00
  -10    6   15     -0.57      0.00
  -10    6   14      0.68      0.00
  -10    6   13      0.57      0.00
  -10    6   12      1.43      0.00
  -10    6   11     -0.14      0.00
  -10    6   10     -0.62      0.00
  -10    6    9     -1.24      0.00
  -10    6    8      0.98      0.00
  -10    6    7      0.29      0.00
  -10    6    6     -0.77      0.00
  -10    6    5     -0.50      0.00
  -10    6    4     -4.28      0.00
  -10    6    3      1.21      0.00
  -10    6    2      0.76      0.00
  -10    6    1      0.39      0.00
  -10    6    0      0.51      0.00
   10   -6    1     -0.52      0.00
   10   -6    2      2.44      0.00
   10   -6    3     -0.70      0.00
   10   -6    4      0.78      0.00
   10   -6    5     -1.83      0.00
   10   -6    6      1.41      0.00
   10   -6    7      0.10      0.00
   10   -6    8     -0.64      0.00
   10   -6    9     -0.12      0.00
   10   -6   10     -2.02      0.00
   10   -6   11      0.36      0.00
   10   -6   12      1.18      0.00
   10   -6   13      0.06      0.00
   10   -6   14     -1.13      0.00
   10   -6   15     -0.37      0.00
   10   -6   16     -1.02      0.00
   10   -6   17      0.28      0.00
   10   -6   18     -0.68      0.00
   10   -6   19     -0.16      0.00
   10   -6   20     -0.03      0.00
   10   -6   21     -1.52      0.00
   10   -6   22      1.81      0.00
  -10    5   21      0.62      0.00
  -10    5   20      0.75      0.00
  -10    5   19      0.39      0.00
  -10    5   18      1.97      0.00
  -10    5   17     -1.07      0.00
  -10    5   16      0.68      0.00
  -10    5   15      1.89      0.00
  -10    5   14     -1.47      0.00
  -10    5   13      0.26      0.00
  -10    5   12      1.14      0.00
  -10    5   11      1.84      0.00
  -10    5   10      0.90      0.00
  -10    5    9      0.54      0.00
  -10    5    8     -1.54      0.00
  -10    5    7     -0.64      0.00
  -10    5    6      0.58      0.00
  -10    5    5      0.61      0.00
  -10    5    4      0.98      0.00
  -10    5    3     -2.88      0.00
  -10    5    2     -2.64      0.00
  -10    5    1     -0.09      0.00
  -10    5    0     -0.30      0.00
   10   -5    1     -0.32      0.00
   10   -5    2     -1.74      0.00
   10   -5    3      2.68      0.00
   10   -5    4      0.42      0.00
   10   -5    5      1.45      0.00
   10   -5    6     -0.68      0.00
   10   -5    7     -0.01      0.00
   10   -5    8      2.38      0.00
   10   -5    9     -0.21      0.00
   10   -5   10      0.83      0.00
   10   -5   11     -1.49      0.00
   10   -5   12     -1.61      0.00
   10   -5   13      0.36      0.00
   10   -5   14      0.92      0.00
   10   -5   15      1.00      0.00
   10   -5   16     -0.70      0.00
   10   -5   17      0.43      0.00
   10   -5   18     -0.05      0.00
   10   -5   19      0.31      0.00
   10   -5   20      0.18      0.00
   10   -5   21      0.39      0.00
  -10    4   21     -0.51      0.00
  -10    4   20     -2.01      0.00
  -10    4   19     -0.72      0.00
  -10    4   18     -0.89      0.00
  -10    4   17     -0.92      0.00
  -10    4   16      1.26      0.00
  -10    4   15     -0.66      0.00
  -10    4   14      1.92      0.00
  -10    4   13      0.23      0.00
  -10    4   12     -1.25      0.00
  -10    4   11      0.61      0.00
  -10    4   10      1.65      0.00
  -10    4    9      1.63      0.00
  -10    4    8      2.00      0.00
  -10    4    7     -0.96      0.00
  -10    4    6     -1.18      0.00
  -10    4    5     -1.96      0.00
  -10    4    4      0.77      0.00
  -10    4    3      0.69      0.00
  -10    4    2     -1.32      0.00
  -10    4    1     -1.45      0.00
  -10    4    0     -0.24      0.00
   10   -4    1     -0.09      0.00
   10   -4    2      0.46      0.00
   10   -4    3     -1.78      0.00
   10   -4    4      0.33      0.00
   10   -4    5      1.45      0.00
   10   -4    6      0.81      0.00
   10   -4    7     -0.08      0.00
   10   -4    8     -0.34      0.00
   10   -4    9      1.04      0.00
   10   -4   10      0.35      0.00
   10   -4   11      1.23      0.00
   10   -4   12      1.38      0.00
   10   -4   13     -1.13      0.00
   10   -4   14     -0.33      0.00
   10   -4   15     -1.30      0.00
   10   -4   16      1.04      0.00
   10   -4   17     -1.12      0.00
   10   -4   18      1.14      0.00
   10   -4   19     -0.30      0.00
   10   -4   20     -1.04      0.00
   10   -4   21      0.91      0.00
  -10    3   21     -0.50      0.00
  -10    3   20      0.79      0.00
  -10    3   19      0.26      0.00
  -10    3   18     -1.41      0.00
  -10    3   17      0.82      0.00
  -10    3   16     -2.47      0.00
  -10    3   15     -0.78      0.00
  -10    3   14     -0.53      0.00
  -10    3   13      1.00      0.00
  -10    3   12      0.40      0.00
  -10    3   11     -1.72      0.00
  -10    3   10     -1.82      0.00
  -10    3    9     -0.32      0.00
  -10    3    8      1.11      0.00
  -10    3    7      3.25      0.00
  -10    3    6     -0.46      0.00
  -10    3    5      0.14      0.00
  -10    3    4     -0.62      0.00
  -10    3    3      0.13      0.00
  -10    3    2      1.84      0.00
  -10    3    1     -1.54      0.00
  -10    3    0     -0.05      0.00
   10   -3    1     -1.05      0.00
   10   -3    2      0.42      0.00
   10   -3    3     -0.34      0.00
   10   -3    4     -1.05      0.00
   10   -3    5      0.97      0.00
   10   -3    6     -0.31      0.00
   10   -3    7      0.60      0.00
   10   -3    8     -0.75      0.00
   10   -3    9      0.54      0.00
   10   -3   10      0.52      0.00
   10   -3   11     -0.34      0.00
   10   -3   12     -0.76      0.00
   10   -3   13      0.27      0.00
   10   -3   14      1.28      0.00
   10   -3   15      0.78      0.00
   10   -3   16     -1.10      0.00
   10   -3   17      0.35      0.00
   10   -3   18     -0.12      0.00
   10   -3   19     -0.40      0.00
   10   -3   20      1.26      0.00
   10   -3   21     -0.64      0.00
  -10    2   21      1.12      0.00
  -10    2   20      0.10      0.00
  -10    2   19     -1.07      0.00
  -10    2   18     -0.14      0.00
  -10    2   17     -1.25      0.00
  -10    2   16      0.44      0.00
  -10    2   15     -1.65      0.00
  -10    2   14     -1.78      0.00
  -10    2   13     -2.08      0.00
  -10    2   12      0.85      0.00
  -10    2   11      2.40      0.00
  -10    2   10      1.23      0.00
  -10    2    9     -1.43      0.00
  -10    2    8     -1.63      0.00
  -10    2    7      0.97      0.00
  -10    2    6      2.66      0.00
  -10    2    5      0.83      0.00
  -10    2    4     -0.93      0.00
  -10    2    3      0.13      0.00
  -10    2    2     -0.74      0.00
  -10    2    1      1.00      0.00
  -10    2    0     -2.89      0.00
   10   -2    1      0.66      0.00
   10   -2    2      0.06      0.00
   10   -2    3     -0.86      0.00
   10   -2    4     -0.92      0.00
   10   -2    5     -2.58      0.00
   10   -2    6      2.39      0.00
   10   -2    7      0.30      0.00
   10   -2    8      0.93      0.00
   10   -2    9     -2.29      0.00
   10   -2   10      0.39      0.00
   10   -2   11      1.31      0.00
   10   -2   12      0.12      0.00
   10   -2   13     -0.53      0.00
   10   -2   14     -0.77      0.00
   10   -2   15      0.79      0.00
   10   -2   16      0.17      0.00
   10   -2   17      0.03      0.00
   10   -2   18     -0.05      0.00
   10   -2   19      0.77      0.00
   10   -2   20      0.00      0.00
   10   -2   21      0.06      0.00
  -10    1   22      1.13      0.00
  -10    1   21     -0.50      0.00
  -10    1   20      0.10      0.00
  -10    1   19      1.45      0.00
  -10    1   18      0.53      0.00
  -10    1   17     -0.09      0.00
  -10    1   16     -0.46      0.00
  -10    1   15      1.24      0.00
  -10    1   14     -0.13      0.00
  -10    1   13     -0.23      0.00
  -10    1   12     -3.62      0.00
  -10    1   11     -2.32      0.00
  -10    1   10      0.78      0.00
  -10    1    9      1.01      0.00
  -10    1    8      1.36      0.00
  -10    1    7     -2.17      0.00
  -10    1    6      0.81      0.00
  -10    1    5      2.60      0.00
  -10    1    4      1.30      0.00
  -10    1    3      0.65      0.00
  -10    1    2      0.70      0.00
  -10    1    1      2.35      0.00
  -10    1    0      0.93      0.00
   10   -1    1     -3.15      0.00
   10   -1    2     -0.55      0.00
   10   -1    3      2.06      0.00
   10   -1    4      0.68      0.00
   10   -1    5     -1.11      0.00
   10   -1    6     -4.20      0.00
   10   -1    7      1.61      0.00
   10   -1    8     -0.11      0.00
   10   -1    9      2.19      0.00
   10   -1   10     -2.03      0.00
   10   -1   11      0.19      0.00
   10   -1   12      1.43      0.00
   10   -1   13      0.04      0.00
   10   -1   14     -1.15      0.00
   10   -1   15      0.27      0.00
   10   -1   16      0.24      0.00
   10   -1   17     -0.12      0.00
   10   -1   18     -0.57      0.00
   10   -1   19     -0.26      0.00
   10   -1   20      0.48      0.00
  -10    0   22      0.37      0.00
  -10    0   21      0.19      0.00
  -10    0   20     -0.10      0.00
  -10    0   19      0.86      0.00
  -10    0   18      0.21      0.00
  -10    0   17      0.47      0.00
  -10    0   16      1.84      0.00
  -10    0   15     -1.06      0.00
  -10    0   14      0.21      0.00
  -10    0   13      0.56      0.00
  -10    0   12      1.72      0.00
  -10    0   11     -0.56      0.00
  -10    0   10     -3.29      0.00
  -10    0    9      0.06      0.00
  -10    0    8     -1.42      0.00
  -10    0    7     -0.26      0.00
  -10    0    6     -1.62      0.00
  -10    0    5     -1.04      0.00
  -10    0    4      2.21      0.00
  -10    0    3     -0.34      0.00
  -10    0    2      0.91      0.00
  -10    0    1     -0.68      0.00
   10    0    0      3.38      0.00
   10    0    1      3.18      0.00
   10    0    2     -2.45      0.00
   10    0    3     -1.37      0.00
   10    0    4      1.06      0.00
   10    0    5      2.01      0.00
   10    0    6      0.38      0.00
   10    0    7     -3.07      0.00
   10    0    8      0.61      0.00
   10    0    9     -0.53      0.00
   10    0   10      1.37      0.00
   10    0   11     -1.63      0.00
   10    0   12     -0.63      0.00
   10    0   13      1.02      0.00
   10    0   14      0.94      0.00
   10    0   15     -0.82      0.00
   10    0   16      0.14      0.00
   10    0   17     -0.08      0.00
   10    0   18     -0.02      0.00
   10    0   19     -0.23      0.00
   10    0   20     -1.55      0.00
  -10   -1   22      0.93      0.00
  -10   -1   21     -0.16      0.00
  -10   -1   20      0.82      0.00
  -10   -1   19     -0.19      0.00
  -10   -1   18     -0.09      0.00
  -10   -1   17     -0.10      0.00
  -10   -1   16     -1.18      0.00
  -10   -1   15      1.70      0.00
  -10   -1   14      0.33      0.00
  -10   -1   13     -0.71      0.00
  -10   -1   12      0.69      0.00
  -10   -1   11      0.56      0.00
  -10   -1   10      0.75      0.00
  -10   -1    9     -0.59      0.00
  -10   -1    8      0.41      0.00
  -10   -1    7      0.08      0.00
  -10   -1    6      0.19      0.00
  -10   -1    5     -1.36      0.00
  -10   -1    4     -1.80      0.00
  -10   -1    3      1.61      0.00
  -10   -1    2      0.06      0.00
  -10   -1    1     -0.71      0.00
   10    1    0     -0.65      0.00
   10    1    1      0.57      0.00
   10    1    2      2.60      0.00
   10    1    3     -0.30      0.00
   10    1    4     -0.35      0.00
   10    1    5     -1.36      0.00
   10    1    6      1.78      0.00
   10    1    7      0.86      0.00
   10    1    8     -2.30      0.00
   10    1    9     -0.10      0.00
   10    1   10     -1.12      0.00
   10    1   11      1.56      0.00
   10    1   12      0.13      0.00
   10    1   13     -1.49      0.00
   10    1   14      0.01      0.00
   10    1   15     -0.19      0.00
   10    1   16      0.71      0.00
   10    1   17     -0.15      0.00
   10    1   18     -0.54      0.00
   10    1   19      1.00      0.00
  -10   -2   21     -0.52      0.00
  -10   -2   20     -0.24      0.00
  -10   -2   19      0.48      0.00
  -10   -2   18      1.46      0.00
  -10   -2   17      0.84      0.00
  -10   -2   16      0.98      0.00
  -10   -2   15     -0.38      0.00
  -10   -2   14      0.28      0.00
  -10   -2   13      0.70      0.00
  -10   -2   12     -0.41      0.00
  -10   -2   11     -0.64      0.00
  -10   -2   10      0.53      0.00
  -10   -2    9     -0.39      0.00
  -10   -2    8     -1.55      0.00
  -10   -2    7     -0.35      0.00
  -10   -2    6     -0.43      0.00
  -10   -2    5      0.69      0.00
  -10   -2    4     -1.51      0.00
  -10   -2    3     -0.36      0.00
  -10   -2    2     -1.18      0.00
  -10   -2    1      0.69      0.00
   10    2    0      0.46      0.00
   10    2    1     -0.41      0.00
   10    2    2      0.02      0.00
   10    2    3      1.06      0.00
   10    2    4      0.00      0.00
   10    2    5      1.00      0.00
   10    2    6     -1.15      0.00
   10    2    7     -0.56      0.00
   10    2    8      2.74      0.00
   10    2    9     -0.59      0.00
   10    2   10      0.21      0.00
   10    2   11     -2.17      0.00
   10    2   12      0.35      0.00
   10    2   13      1.70      0.00
   10    2   14     -1.65      0.00
   10    2   15      0.54      0.00
   10    2   16     -0.18      0.00
   10    2   17      1.04      0.00
   10    2   18      0.72      0.00
  -10   -3   21      0.28      0.00
  -10   -3   20     -1.25      0.00
  -10   -3   19     -1.61      0.00
  -10   -3   18     -0.81      0.00
  -10   -3   17      0.07      0.00
  -10   -3   16     -0.23      0.00
  -10   -3   15      1.23      0.00
  -10   -3   14      0.04      0.00
  -10   -3   13      0.29      0.00
  -10   -3   12      1.10      0.00
  -10   -3   11      0.99      0.00
  -10   -3   10      0.01      0.00
  -10   -3    9      1.06      0.00
  -10   -3    8      1.66      0.00
  -10   -3    7     -0.09      0.00
  -10   -3    6     -0.28      0.00
  -10   -3    5     -1.49      0.00
  -10   -3    4      1.73      0.00
  -10   -3    3     -1.81      0.00
  -10   -3    2      0.20      0.00
  -10   -3    1     -0.40      0.00
   10    3    0     -1.63      0.00
   10    3    1     -0.04      0.00
   10    3    2      0.19      0.00
   10    3    3     -0.95      0.00
   10    3    4     -0.51      0.00
   10    3    5      0.51      0.00
   10    3    6      0.52      0.00
   10    3    7     -0.17      0.00
   10    3    8     -1.77      0.00
   10    3    9      1.21      0.00
   10    3   10      0.10      0.00
   10    3   11      0.90      0.00
   10    3   12     -0.05      0.00
   10    3   13     -0.02      0.00
   10    3   14      1.81      0.00
   10    3   15     -1.54      0.00
   10    3   16      0.45      0.00
   10    3   17     -2.25      0.00
  -10   -4   21      0.76      0.00
  -10   -4   20      0.55      0.00
  -10   -4   19      0.29      0.00
  -10   -4   18     -0.34      0.00
  -10   -4   17     -1.74      0.00
  -10   -4   16     -0.41      0.00
  -10   -4   15     -0.15      0.00
  -10   -4   14      0.66      0.00
  -10   -4   13      0.64      0.00
  -10   -4   12      0.14      0.00
  -10   -4   11      0.58      0.00
  -10   -4   10      0.07      0.00
  -10   -4    9     -1.09      0.00
  -10   -4    8      0.32      0.00
  -10   -4    7      0.89      0.00
  -10   -4    6      0.40      0.00
  -10   -4    5      1.26      0.00
  -10   -4    4     -0.87      0.00
  -10   -4    3      0.46      0.00
  -10   -4    2     -1.14      0.00
  -10   -4    1      0.32      0.00
   10    4    0     -0.44      0.00
   10    4    1     -0.14      0.00
   10    4    2      0.04      0.00
   10    4    3      0.61      0.00
   10    4    4      0.51      0.00
   10    4    5     -0.64      0.00
   10    4    6      0.14      0.00
   10    4    7      0.20      0.00
   10    4    8     -0.32      0.00
   10    4    9      0.41      0.00
   10    4   10     -0.11      0.00
   10    4   11     -1.13      0.00
   10    4   12     -0.77      0.00
   10    4   13     -0.13      0.00
   10    4   14     -1.28      0.00
   10    4   15      2.66      0.00
   10    4   16     -1.45      0.00
  -10   -5   20     -1.06      0.00
  -10   -5   19      1.07      0.00
  -10   -5   18      0.39      0.00
  -10   -5   17      1.35      0.00
  -10   -5   16     -0.34      0.00
  -10   -5   15     -1.40      0.00
  -10   -5   14     -0.74      0.00
  -10   -5   13     -1.14      0.00
  -10   -5   12     -0.15      0.00
  -10   -5   11      1.06      0.00
  -10   -5   10      0.85      0.00
  -10   -5    9      0.86      0.00
  -10   -5    8     -0.98      0.00
  -10   -5    7     -0.22      0.00
  -10   -5    6     -0.04      0.00
  -10   -5    5     -0.31      0.00
  -10   -5    4      0.29      0.00
  -10   -5    3      0.09      0.00
  -10   -5    2      1.32      0.00
  -10   -5    1     -1.27      0.00
   10    5    0      0.43      0.00
   10    5    1     -0.46      0.00
   10    5    2     -1.11      0.00
   10    5    3      0.57      0.00
   10    5    4     -0.87      0.00
   10    5    5      1.10      0.00
   10    5    6      1.65      0.00
   10    5    7      0.06      0.00
   10    5    8      0.40      0.00
   10    5    9     -0.84      0.00
   10    5   10      1.08      0.00
   10    5   11      0.70      0.00
   10    5   12      1.05      0.00
   10    5   13     -1.31      0.00
   10    5   14      0.82      0.00
   10    5   15     -1.77      0.00
  -10   -6   19     -1.97      0.00
  -10   -6   18     -0.12      0.00
  -10   -6   17      0.30      0.00
  -10   -6   16      0.41      0.00
  -10   -6   15      0.63      0.00
  -10   -6   14      0.02      0.00
  -10   -6   13      0.17      0.00
  -10   -6   12     -1.36      0.00
  -10   -6   11     -1.01      0.00
  -10   -6   10     -0.78      0.00
  -10   -6    9      1.03      0.00
  -10   -6    8      0.49      0.00
  -10   -6    7     -0.58      0.00
  -10   -6    6      0.05      0.00
  -10   -6    5      0.07      0.00
  -10   -6    4      0.36      0.00
  -10   -6    3     -0.78      0.00
  -10   -6    2     -0.56      0.00
  -10   -6    1      0.90      0.00
   10    6    0      0.43      0.00
   10    6    1     -0.16      0.00
   10    6    2      0.91      0.00
   10    6    3     -0.99      0.00
   10    6    4     -0.30      0.00
   10    6    5     -1.05      0.00
   10    6    6     -1.89      0.00
   10    6    7      1.20      0.00
   10    6    8      0.89      0.00
   10    6    9      0.36      0.00
   10    6   10     -1.34      0.00
   10    6   11      1.30      0.00
   10    6   12     -1.88      0.00
   10    6   13      1.67      0.00
   10    6   14     -0.51      0.00
  -10   -7   19      1.24      0.00
  -10   -7   18     -0.68      0.00
  -10   -7   17     -0.60      0.00
  -10   -7   16     -0.13      0.00
  -10   -7   15      0.91      0.00
  -10   -7   14      0.77      0.00
  -10   -7   13     -1.49      0.00
  -10   -7   12      1.77      0.00
  -10   -7   11     -1.22      0.00
  -10   -7   10      0.57      0.00
  -10   -7    9     -2.01      0.00
  -10   -7    8      0.76      0.00
  -10   -7    7      1.17      0.00
  -10   -7    6     -1.48      0.00
  -10   -7    5      0.37      0.00
  -10   -7    4      0.71      0.00
  -10   -7    3      1.57      0.00
  -10   -7    2     -0.27      0.00
  -10   -7    1     -0.03      0.00
   10    7    0     -0.48      0.00
   10    7    1      0.32      0.00
   10    7    2      0.98      0.00
   10    7    3      0.29      0.00
   10    7    4      1.89      0.00
   10    7    5      0.10      0.00
   10    7    6      0.27      0.00
   10    7    7     -1.12      0.00
   10    7    8     -0.88      0.00
   10    7    9     -0.58      0.00
   10    7   10      1.08      0.00
   10    7   11     -1.86      0.00
   10    7   12      1.62      0.00
  -10   -8   17     -0.84      0.00
  -10   -8   16     -1.53      0.00
  -10   -8   15     -1.00      0.00
  -10   -8   14     -0.97      0.00
  -10   -8   13      1.71      0.00
  -10   -8   12     -2.71      0.00
  -10   -8   11      1.50      0.00
  -10   -8   10     -0.60      0.00
  -10   -8    9      0.17      0.00
  -10   -8    8      0.18      0.00
  -10   -8    7      0.28      0.00
  -10   -8    6      0.97      0.00
  -10   -8    5     -1.52      0.00
  -10   -8    4     -0.92      0.00
  -10   -8    3     -1.05      0.00
  -10   -8    2      1.14      0.00
  -10   -8    1      0.60      0.00
   10    8    0     -0.63      0.00
   10    8    1     -0.01      0.00
   10    8    2     -1.88      0.00
   10    8    3     -0.26      0.00
   10    8    4     -1.41      0.00
   10    8    5      0.50      0.00
   10    8    6      0.61      0.00
   10    8    7     -0.27      0.00
   10    8    8      0.44      0.00
   10    8    9      0.88      0.00
   10    8   10      0.14      0.00
   10    8   11      0.21      0.00
  -10   -9   16      1.68      0.00
  -10   -9   15     -1.00      0.00
  -10   -9   14      0.97      0.00
  -10   -9   13      0.10      0.00
  -10   -9   12      0.54      0.00
  -10   -9   11     -1.10      0.00
  -10   -9   10      0.46      0.00
  -10   -9    9     -0.38      0.00
  -10   -9    8     -1.63      0.00
  -10   -9    7      0.89      0.00
  -10   -9    6      1.27      0.00
  -10   -9    5      2.08      0.00
  -10   -9    4      0.32      0.00
  -10   -9    3      0.40      0.00
  -10   -9    2     -0.74      0.00
  -10   -9    1     -1.36      0.00
   10    9    0      1.53      0.00
   10    9    1     -0.54      0.00
   10    9    2      0.35      0.00
   10    9    3      0.73      0.00
   10    9    4     -1.52      0.00
   10    9    5     -1.02      0.00
   10    9    6     -0.21      0.00
   10    9    7      0.55      0.00
   10    9    8     -1.48      0.00
   10    9    9     -0.68      0.00
  -10  -10   14     -0.86      0.00
  -10  -10   13      0.01      0.00
  -10  -10   12      0.92      0.00
  -10  -10   11      0.75      0.00
  -10  -10   10     -0.47      0.00
  -10  -10    9      0.49      0.00
  -10  -10    8      0.91      0.00
  -10  -10    7     -2.46      0.00
  -10  -10    6     -1.04      0.00
  -10  -10    5     -0.70      0.00
  -10  -10    4     -0.38      0.00
  -10  -10    3      0.94      0.00
  -10  -10    2      0.51      0.00
  -10  -10    1      1.07      0.00
   10   10    0     -0.04      0.00
   10   10    1     -0.31      0.00
   10   10    2      0.29      0.00
   10   10    3     -0.48      0.00
   10   10    4      2.19      0.00
   10   10    5     -0.42      0.00
   10   10    6     -0.13      0.00
  -10  -11   11     -0.52      0.00
  -10  -11   10      0.56      0.00
  -10  -11    9     -0.16      0.00
  -10  -11    8     -1.01      0.00
  -10  -11    7      0.79      0.00
  -10  -11    6      0.86      0.00
  -10  -11    5     -0.41      0.00
  -10  -11    4     -0.54      0.00
  -10  -11    3      0.10      0.00
  -10  -11    2     -1.73      0.00
  -10  -11    1     -0.58      0.00
   10   11    0      0.21      0.00
   10   11    1      1.28      0.00
   10   11    2     -0.27      0.00
   10   11    3      0.78      0.00
   11  -18    3      0.58      0.00
   11  -18    4     -0.14      0.00
   11  -18    5     -0.95      0.00
   11  -18    6      0.22      0.00
  -11   17    3      1.17      0.00
  -11   17    2     -1.59      0.00
  -11   17    1      0.11      0.00
  -11   17    0      1.19      0.00
   11  -17    1      0.93      0.00
   11  -17    2     -1.31      0.00
   11  -17    3      0.10      0.00
   11  -17    4      0.70      0.00
   11  -17    5      0.28      0.00
   11  -17    6     -0.05      0.00
   11  -17    7      0.72      0.00
   11  -17    8     -0.22      0.00
   11  -17    9     -1.27      0.00
   11  -17   10     -0.13      0.00
   11  -17   11     -0.55      0.00
  -11   16    6      1.88      0.00
  -11   16    5     -1.30      0.00
  -11   16    4      1.04      0.00
  -11   16    3     -1.41      0.00
  -11   16    2      1.02      0.00
  -11   16    1     -0.22      0.00
  -11   16    0     -1.41      0.00
   11  -16    1      1.68      0.00
   11  -16    2      0.42      0.00
   11  -16    3      1.39      0.00
   11  -16    4     -0.30      0.00
   11  -16    5      0.25      0.00
   11  -16    6     -0.47      0.00
   11  -16    7     -0.22      0.00
   11  -16    8      1.36      0.00
   11  -16    9      0.81      0.00
   11  -16   10     -0.16      0.00
   11  -16   11     -0.68      0.00
   11  -16   12     -0.48      0.00
   11  -16   13      0.00      0.00
   11  -16   14      0.10      0.00
  -11   15    9      2.28      0.00
  -11   15    8     -1.39      0.00
  -11   15    7      1.19      0.00
  -11   15    6     -1.54      0.00
  -11   15    5      1.40      0.00
  -11   15    4     -0.16      0.00
  -11   15    3      0.87      0.00
  -11   15    2     -0.15      0.00
  -11   15    1     -0.60      0.00
  -11   15    0      1.07      0.00
   11  -15    1     -1.86      0.00
   11  -15    2     -0.09      0.00
   11  -15    3     -0.49      0.00
   11  -15    4      1.25      0.00
   11  -15    5      1.12      0.00
   11  -15    6     -0.29      0.00
   11  -15    7      0.31      0.00
   11  -15    8     -2.19      0.00
   11  -15    9      0.45      0.00
   11  -15   10      0.84      0.00
   11  -15   11      0.11      0.00
   11  -15   12     -0.54      0.00
   11  -15   13     -0.35      0.00
   11  -15   14      0.11      0.00
   11  -15   15      0.80      0.00
  -11   14   11     -0.68      0.00
  -11   14   10      0.40      0.00
  -11   14    9     -0.53      0.00
  -11   14    8      1.82      0.00
  -11   14    7      0.02      0.00
  -11   14    6      0.03      0.00
  -11   14    5     -0.81      0.00
  -11   14    4     -0.69      0.00
  -11   14    3     -0.91      0.00
  -11   14    2      0.12      0.00
  -11   14    1      0.67      0.00
  -11   14    0     -0.62      0.00
   11  -14    1      0.61      0.00
   11  -14    2      1.14      0.00
   11  -14    3     -1.26      0.00
   11  -14    4     -0.20      0.00
   11  -14    5     -0.37      0.00
   11  -14    6      2.47      0.00
   11  -14    7      0.25      0.00
   11  -14    8      0.31      0.00
   11  -14    9     -0.14      0.00
   11  -14   10     -1.13      0.00
   11  -14   11      0.19      0.00
   11  -14   12      0.55      0.00
   11  -14   13     -1.07      0.00
   11  -14   14     -1.20      0.00
   11  -14   15     -1.26      0.00
   11  -14   16      0.15      0.00
   11  -14   17     -0.70      0.00
  -11   13   12      0.26      0.00
  -11   13   11      1.38      0.00
  -11   13   10     -0.08      0.00
  -11   13    9     -0.34      0.00
  -11   13    8     -0.51      0.00
  -11   13    7      0.28      0.00
  -11   13    6      0.37      0.00
  -11   13    5      0.39      0.00
  -11   13    4      0.09      0.00
  -11   13    3     -1.01      0.00
  -11   13    2     -0.29      0.00
  -11   13    1     -1.59      0.00
  -11   13    0     -0.68      0.00
   11  -13    1     -0.40      0.00
   11  -13    2     -2.23      0.00
   11  -13    3      1.19      0.00
   11  -13    4     -0.61      0.00
   11  -13    5     -1.01      0.00
   11  -13    6     -0.93      0.00
   11  -13    7      0.97      0.00
   11  -13    8      1.02      0.00
   11  -13    9      0.14      0.00
   11  -13   10      0.39      0.00
   11  -13   11      0.84      0.00
   11  -13   12     -0.61      0.00
   11  -13   13      1.20      0.00
   11  -13   14     -0.02      0.00
   11  -13   15     -0.39      0.00
   11  -13   16      0.01      0.00
   11  -13   17      0.15      0.00
   11  -13   18      0.30      0.00
  -11   12   14      0.24      0.00
  -11   12   13     -0.47      0.00
  -11   12   12     -1.18      0.00
  -11   12   11     -1.84      0.00
  -11   12   10      1.16      0.00
  -11   12    9     -0.35      0.00
  -11   12    8      0.40      0.00
  -11   12    7      0.51      0.00
  -11   12    6      0.06      0.00
  -11   12    5      1.49      0.00
  -11   12    4     -0.33      0.00
  -11   12    3      0.94      0.00
  -11   12    2     -0.66      0.00
  -11   12    1      0.18      0.00
  -11   12    0      0.31      0.00
   11  -12    1     -0.01      0.00
   11  -12    2      0.58      0.00
   11  -12    4     -0.16      0.00
   11  -12    5      0.33      0.00
   11  -12    6     -0.71      0.00
   11  -12    7     -0.71      0.00
   11  -12    8      0.94      0.00
   11  -12    9     -0.43      0.00
   11  -12   10     -0.22      0.00
   11  -12   11     -0.32      0.00
   11  -12   12      0.54      0.00
   11  -12   13      0.28      0.00
   11  -12   14      0.10      0.00
   11  -12   15      0.88      0.00
   11  -12   16     -1.30      0.00
   11  -12   17     -0.08      0.00
   11  -12   18     -0.59      0.00
   11  -12   19      0.21      0.00
  -11   11   15     -0.10      0.00
  -11   11   14     -0.75      0.00
  -11   11   13      0.79      0.00
  -11   11   12     -0.78      0.00
  -11   11   11      0.15      0.00
  -11   11   10     -1.21      0.00
  -11   11    9      0.69      0.00
  -11   11    8     -0.42      0.00
  -11   11    7     -0.66      0.00
  -11   11    6      0.37      0.00
  -11   11    5     -0.70      0.00
  -11   11    4      1.97      0.00
  -11   11    3      1.71      0.00
  -11   11    2      0.54      0.00
  -11   11    1      0.58      0.00
  -11   11    0     -0.72      0.00
   11  -11    1     -0.06      0.00
   11  -11    2     -0.05      0.00
   11  -11    3     -0.12      0.00
   11  -11    4      0.50      0.00
   11  -11    5     -0.39      0.00
   11  -11    6     -0.75      0.00
   11  -11    7     -1.12      0.00
   11  -11    8      0.36      0.00
   11  -11    9      0.30      0.00
   11  -11   10      0.54      0.00
   11  -11   11     -0.08      0.00
   11  -11   12      0.09      0.00
   11  -11   13     -0.55      0.00
   11  -11   14      0.89      0.00
   11  -11   15     -0.33      0.00
   11  -11   16      1.42      0.00
   11  -11   17     -0.30      0.00
   11  -11   18      1.91      0.00
   11  -11   19     -0.97      0.00
  -11   10   16      0.52      0.00
  -11   10   15     -0.13      0.00
  -11   10   14      0.55      0.00
  -11   10   13     -0.62      0.00
  -11   10   12      0.34      0.00
  -11   10   11     -0.87      0.00
  -11   10   10     -0.85      0.00
  -11   10    9     -1.83      0.00
  -11   10    8      0.81      0.00
  -11   10    7      0.17      0.00
  -11   10    6      0.22      0.00
  -11   10    5      0.10      0.00
  -11   10    4     -1.07      0.00
  -11   10    3     -0.26      0.00
  -11   10    2      1.78      0.00
  -11   10    1      1.13      0.00
  -11   10    0      0.46      0.00
   11  -10    1      0.51      0.00
   11  -10    2      0.33      0.00
   11  -10    3     -0.78      0.00
   11  -10    5      1.27      0.00
   11  -10    6     -0.33      0.00
   11  -10    7     -0.58      0.00
   11  -10    8     -1.69      0.00
   11  -10    9      0.38      0.00
   11  -10   10     -0.42      0.00
   11  -10   11      0.71      0.00
   11  -10   12      0.17      0.00
   11  -10   13      0.22      0.00
   11  -10   14     -0.20      0.00
   11  -10   15      0.34      0.00
   11  -10   16     -0.48      0.00
   11  -10   17      0.36      0.00
   11  -10   18     -2.72      0.00
   11  -10   19      1.59      0.00
   11  -10   20     -0.23      0.00
  -11    9   17      1.15      0.00
  -11    9   16     -0.68      0.00
  -11    9   15      2.27      0.00
  -11    9   14     -0.44      0.00
  -11    9   13      0.34      0.00
  -11    9   12      0.32      0.00
  -11    9   11      1.55      0.00
  -11    9   10     -0.45      0.00
  -11    9    9      0.68      0.00
  -11    9    8     -1.56      0.00
  -11    9    7     -1.08      0.00
  -11    9    6     -0.19      0.00
  -11    9    5      0.07      0.00
  -11    9    4      0.22      0.00
  -11    9    3     -1.64      0.00
  -11    9    2      0.66      0.00
  -11    9    1     -1.20      0.00
  -11    9    0      1.01      0.00
   11   -9    1     -0.08      0.00
   11   -9    2      0.05      0.00
   11   -9    3      1.65      0.00
   11   -9    4     -0.74      0.00
   11   -9    5     -0.47      0.00
   11   -9    6      1.20      0.00
   11   -9    7      0.31      0.00
   11   -9    8      0.06      0.00
   11   -9    9     -1.22      0.00
   11   -9   10     -0.46      0.00
   11   -9   11     -1.89      0.00
   11   -9   12      0.15      0.00
   11   -9   13      0.82      0.00
   11   -9   14     -1.27      0.00
   11   -9   15      0.27      0.00
   11   -9   16      0.63      0.00
   11   -9   17      0.34      0.00
   11   -9   18      1.22      0.00
   11   -9   19     -0.93      0.00
   11   -9   20      0.26      0.00
  -11    8   18      0.13      0.00
  -11    8   17     -0.73      0.00
  -11    8   16      1.31      0.00
  -11    8   15     -1.02      0.00
  -11    8   14      2.27      0.00
  -11    8   13      0.42      0.00
  -11    8   12      0.30      0.00
  -11    8   11     -0.43      0.00
  -11    8   10      0.83      0.00
  -11    8    9     -0.22      0.00
  -11    8    8     -0.08      0.00
  -11    8    7     -0.72      0.00
  -11    8    6     -1.18      0.00
  -11    8    5      0.08      0.00
  -11    8    4     -1.12      0.00
  -11    8    3      1.59      0.00
  -11    8    2     -2.09      0.00
  -11    8    1      2.06      0.00
  -11    8    0      0.27      0.00
   11   -8    1      0.45      0.00
   11   -8    2      1.18      0.00
   11   -8    3     -0.39      0.00
   11   -8    4      1.68      0.00
   11   -8    5     -0.76      0.00
   11   -8    6     -0.84      0.00
   11   -8    7      0.09      0.00
   11   -8    8     -0.26      0.00
   11   -8    9      1.21      0.00
   11   -8   10      0.64      0.00
   11   -8   11      0.35      0.00
   11   -8   12     -0.67      0.00
   11   -8   13     -0.38      0.00
   11   -8   14      1.44      0.00
   11   -8   15     -0.80      0.00
   11   -8   16     -0.13      0.00
   11   -8   17      0.86      0.00
   11   -8   18     -0.39      0.00
   11   -8   19      0.34      0.00
   11   -8   20      0.04      0.00
  -11    7   18     -0.15      0.00
  -11    7   17     -0.52      0.00
  -11    7   16     -0.49      0.00
  -11    7   15     -0.90      0.00
  -11    7   14     -0.48      0.00
  -11    7   13      1.24      0.00
  -11    7   12      0.31      0.00
  -11    7   11      0.38      0.00
  -11    7   10      0.30      0.00
  -11    7    9      0.47      0.00
  -11    7    8      0.48      0.00
  -11    7    7      0.72      0.00
  -11    7    6     -0.52      0.00
  -11    7    5     -2.15      0.00
  -11    7    4      0.34      0.00
  -11    7    3     -0.97      0.00
  -11    7    2     -0.08      0.00
  -11    7    1     -1.34      0.00
  -11    7    0     -0.64      0.00
   11   -7    1     -0.43      0.00
   11   -7    2      0.11      0.00
   11   -7    3     -0.05      0.00
   11   -7    4      0.01      0.00
   11   -7    5      1.46      0.00
   11   -7    6      0.80      0.00
   11   -7    7      0.27      0.00
   11   -7    8     -0.09      0.00
   11   -7    9     -1.27      0.00
   11   -7   10      0.04      0.00
   11   -7   11      0.35      0.00
   11   -7   12     -0.03      0.00
   11   -7   13     -0.70      0.00
   11   -7   14     -0.20      0.00
   11   -7   15     -0.34      0.00
   11   -7   16      0.08      0.00
   11   -7   17     -1.10      0.00
   11   -7   18      1.30      0.00
   11   -7   19     -0.66      0.00
   11   -7   20     -0.03      0.00
  -11    6   19      0.96      0.00
  -11    6   18     -1.87      0.00
  -11    6   17      1.16      0.00
  -11    6   16      0.11      0.00
  -11    6   15     -0.17      0.00
  -11    6   14     -1.19      0.00
  -11    6   13     -0.40      0.00
  -11    6   12      0.91      0.00
  -11    6   11      1.23      0.00
  -11    6   10      0.73      0.00
  -11    6    9      0.47      0.00
  -11    6    8      0.03      0.00
  -11    6    7      0.92      0.00
  -11    6    6      1.46      0.00
  -11    6    5      0.68      0.00
  -11    6    4     -0.62      0.00
  -11    6    3     -3.01      0.00
  -11    6    2     -0.37      0.00
  -11    6    1     -0.39      0.00
  -11    6    0     -0.52      0.00
   11   -6    1      0.09      0.00
   11   -6    2     -0.80      0.00
   11   -6    3      1.13      0.00
   11   -6    4      0.02      0.00
   11   -6    5     -0.49      0.00
   11   -6    6      0.17      0.00
   11   -6    7      1.22      0.00
   11   -6    8      0.58      0.00
   11   -6    9      0.86      0.00
   11   -6   10     -0.17      0.00
   11   -6   11     -0.60      0.00
   11   -6   12     -0.13      0.00
   11   -6   13      1.59      0.00
   11   -6   14     -0.13      0.00
   11   -6   15      0.11      0.00
   11   -6   16     -0.67      0.00
   11   -6   17      0.41      0.00
   11   -6   18     -0.41      0.00
   11   -6   19     -0.46      0.00
   11   -6   20      0.11      0.00
  -11    5   19     -1.24      0.00
  -11    5   18      0.74      0.00
  -11    5   17     -0.88      0.00
  -11    5   16     -0.31      0.00
  -11    5   15      1.30      0.00
  -11    5   14      0.54      0.00
  -11    5   13     -0.93      0.00
  -11    5   12     -1.26      0.00
  -11    5   11     -0.30      0.00
  -11    5   10      1.05      0.00
  -11    5    9      0.01      0.00
  -11    5    8      0.83      0.00
  -11    5    7     -0.66      0.00
  -11    5    6     -1.89      0.00
  -11    5    5      2.18      0.00
  -11    5    4      0.88      0.00
  -11    5    3      2.47      0.00
  -11    5    2     -0.89      0.00
  -11    5    1     -1.57      0.00
  -11    5    0     -0.17      0.00
   11   -5    1     -0.64      0.00
   11   -5    2     -0.65      0.00
   11   -5    3     -2.02      0.00
   11   -5    4      0.85      0.00
   11   -5    6     -0.21      0.00
   11   -5    7     -0.16      0.00
   11   -5    8      0.06      0.00
   11   -5    9      1.07      0.00
   11   -5   10      0.78      0.00
   11   -5   11      1.09      0.00
   11   -5   12     -0.38      0.00
   11   -5   13     -1.95      0.00
   11   -5   14      0.74      0.00
   11   -5   15      0.70      0.00
   11   -5   16     -0.86      0.00
   11   -5   17      1.18      0.00
   11   -5   18     -0.96      0.00
   11   -5   19      1.46      0.00
   11   -5   20     -0.23      0.00
  -11    4   20     -1.39      0.00
  -11    4   19      0.73      0.00
  -11    4   18      0.11      0.00
  -11    4   17     -1.39      0.00
  -11    4   16     -1.39      0.00
  -11    4   15     -2.01      0.00
  -11    4   14      0.05      0.00
  -11    4   13     -0.65      0.00
  -11    4   12     -0.71      0.00
  -11    4   11     -1.60      0.00
  -11    4   10     -1.24      0.00
  -11    4    9      0.76      0.00
  -11    4    8      0.85      0.00
  -11    4    7      1.34      0.00
  -11    4    6      1.49      0.00
  -11    4    5     -1.90      0.00
  -11    4    4     -0.07      0.00
  -11    4    3      1.67      0.00
  -11    4    2      0.57      0.00
  -11    4    1      0.73      0.00
  -11    4    0     -0.84      0.00
   11   -4    1      1.13      0.00
   11   -4    2     -0.13      0.00
   11   -4    3      0.20      0.00
   11   -4    4     -1.18      0.00
   11   -4    5     -1.10      0.00
   11   -4    6      0.90      0.00
   11   -4    7     -0.82      0.00
   11   -4    8     -0.16      0.00
   11   -4    9     -0.52      0.00
   11   -4   10      0.25      0.00
   11   -4   11     -0.34      0.00
   11   -4   12      0.64      0.00
   11   -4   13      1.53      0.00
   11   -4   14     -0.43      0.00
   11   -4   15     -0.12      0.00
   11   -4   16      1.17      0.00
   11   -4   17     -2.01      0.00
   11   -4   18      1.07      0.00
   11   -4   19      0.06      0.00
   11   -4   20     -0.18      0.00
  -11    3   20      0.76      0.00
  -11    3   19     -0.57      0.00
  -11    3   18      0.10      0.00
  -11    3   17      1.49      0.00
  -11    3   16      0.46      0.00
  -11    3   15     -0.22      0.00
  -11    3   14     -1.34      0.00
  -11    3   13      1.08      0.00
  -11    3   12      0.39      0.00
  -11    3   11      0.04      0.00
  -11    3   10     -1.28      0.00
  -11    3    9     -2.04      0.00
  -11    3    8     -0.52      0.00
  -11    3    7     -0.33      0.00
  -11    3    6      2.68      0.00
  -11    3    5     -0.71      0.00
  -11    3    4      0.19      0.00
  -11    3    3     -0.69      0.00
  -11    3    2      1.87      0.00
  -11    3    1      0.43      0.00
  -11    3    0      0.04      0.00
   11   -3    1     -1.29      0.00
   11   -3    2      1.21      0.00
   11   -3    3     -0.32      0.00
   11   -3    4     -0.94      0.00
   11   -3    5      0.20      0.00
   11   -3    6      0.84      0.00
   11   -3    7      0.09      0.00
   11   -3    8     -1.19      0.00
   11   -3    9     -0.38      0.00
   11   -3   10     -0.39      0.00
   11   -3   11      1.29      0.00
   11   -3   12     -0.66      0.00
   11   -3   13     -1.52      0.00
   11   -3   14     -0.05      0.00
   11   -3   15      0.13      0.00
   11   -3   16      0.24      0.00
   11   -3   17      0.54      0.00
   11   -3   18     -0.76      0.00
   11   -3   19      0.40      0.00
   11   -3   20      0.52      0.00
  -11    2   20      1.61      0.00
  -11    2   19      0.43      0.00
  -11    2   18     -0.17      0.00
  -11    2   17      0.51      0.00
  -11    2   16      0.28      0.00
  -11    2   15      0.89      0.00
  -11    2   14     -0.27      0.00
  -11    2   13     -1.68      0.00
  -11    2   12     -0.76      0.00
  -11    2   11      0.13      0.00
  -11    2   10      1.24      0.00
  -11    2    9      1.97      0.00
  -11    2    8     -3.56      0.00
  -11    2    7      0.25      0.00
  -11    2    6     -1.41      0.00
  -11    2    5      3.52      0.00
  -11    2    4      0.21      0.00
  -11    2    3     -0.87      0.00
  -11    2    2      0.52      0.00
  -11    2    1      1.19      0.00
  -11    2    0      0.57      0.00
   11   -2    1     -0.50      0.00
   11   -2    2     -0.31      0.00
   11   -2    3      2.61      0.00
   11   -2    4     -1.82      0.00
   11   -2    5     -1.89      0.00
   11   -2    6     -1.95      0.00
   11   -2    7      1.05      0.00
   11   -2    8      2.12      0.00
   11   -2    9     -1.50      0.00
   11   -2   10     -0.41      0.00
   11   -2   11     -0.72      0.00
   11   -2   12      1.39      0.00
   11   -2   13      0.60      0.00
   11   -2   14     -0.33      0.00
   11   -2   15     -0.23      0.00
   11   -2   16      0.31      0.00
   11   -2   17     -0.91      0.00
   11   -2   18      0.40      0.00
   11   -2   19     -1.37      0.00
  -11    1   20      0.14      0.00
  -11    1   19      0.07      0.00
  -11    1   18      1.36      0.00
  -11    1   17     -0.26      0.00
  -11    1   16      1.07      0.00
  -11    1   15     -0.18      0.00
  -11    1   14      1.25      0.00
  -11    1   13      2.02      0.00
  -11    1   12      0.80      0.00
  -11    1   11     -2.51      0.00
  -11    1   10     -0.67      0.00
  -11    1    9     -1.14      0.00
  -11    1    8      2.70      0.00
  -11    1    7     -2.03      0.00
  -11    1    6     -1.96      0.00
  -11    1    5     -1.96      0.00
  -11    1    4      1.73      0.00
  -11    1    3      1.26      0.00
  -11    1    2     -1.25      0.00
  -11    1    1      1.66      0.00
  -11    1    0      1.58      0.00
   11   -1    1      0.01      0.00
   11   -1    2     -1.07      0.00
   11   -1    3     -0.42      0.00
   11   -1    4      4.40      0.00
   11   -1    5      1.03      0.00
   11   -1    6     -0.74      0.00
   11   -1    7     -1.84      0.00
   11   -1    8     -0.34      0.00
   11   -1    9      1.36      0.00
   11   -1   10     -0.62      0.00
   11   -1   11     -1.00      0.00
   11   -1   12     -0.54      0.00
   11   -1   13      0.68      0.00
   11   -1   14     -0.62      0.00
   11   -1   15     -0.03      0.00
   11   -1   16     -0.30      0.00
   11   -1   17      1.28      0.00
   11   -1   18     -0.76      0.00
   11   -1   19      0.03      0.00
  -11    0   20     -1.71      0.00
  -11    0   19      0.65      0.00
  -11    0   18     -1.18      0.00
  -11    0   17      0.85      0.00
  -11    0   16      0.72      0.00
  -11    0   15      1.52      0.00
  -11    0   14     -0.56      0.00
  -11    0   13     -0.13      0.00
  -11    0   12      0.59      0.00
  -11    0   11      3.14      0.00
  -11    0   10     -0.43      0.00
  -11    0    9     -1.24      0.00
  -11    0    8     -0.02      0.00
  -11    0    7      1.73      0.00
  -11    0    6     -0.41      0.00
  -11    0    5     -1.18      0.00
  -11    0    4     -2.89      0.00
  -11    0    3     -0.68      0.00
  -11    0    2     -0.49      0.00
  -11    0    1     -1.45      0.00
   11    0    0      0.92      0.00
   11    0    1      1.80      0.00
   11    0    2      1.73      0.00
   11    0    3     -1.52      0.00
   11    0    4     -2.15      0.00
   11    0    5      1.66      0.00
   11    0    6      0.52      0.00
   11    0    7      0.28      0.00
   11    0    8     -1.66      0.00
   11    0    9      0.35      0.00
   11    0   10      0.95      0.00
   11    0   11      0.58      0.00
   11    0   12     -0.51      0.00
   11    0   13     -0.89      0.00
   11    0   14      0.27      0.00
   11    0   15      0.26      0.00
   11    0   16     -0.97      0.00
   11    0   17      0.18      0.00
   11    0   18      1.35      0.00
  -11   -1   20      1.43      0.00
  -11   -1   19     -0.17      0.00
  -11   -1   18      0.06      0.00
  -11   -1   17     -1.66      0.00
  -11   -1   16     -0.72      0.00
  -11   -1   15     -1.13      0.00
  -11   -1   14      1.20      0.00
  -11   -1   13     -0.08      0.00
  -11   -1   12     -0.42      0.00
  -11   -1   11      0.46      0.00
  -11   -1   10      1.32      0.00
  -11   -1    9      0.43      0.00
  -11   -1    8     -0.57      0.00
  -11   -1    7     -0.99      0.00
  -11   -1    6      1.13      0.00
  -11   -1    5      0.77      0.00
  -11   -1    4      1.44      0.00
  -11   -1    3     -1.56      0.00
  -11   -1    2      0.57      0.00
  -11   -1    1     -0.65      0.00
   11    1    0     -2.43      0.00
   11    1    1     -0.63      0.00
   11    1    2     -0.80      0.00
   11    1    3      1.26      0.00
   11    1    4      0.84      0.00
   11    1    5     -0.66      0.00
   11    1    6      0.29      0.00
   11    1    7      1.11      0.00
   11    1    8      1.56      0.00
   11    1    9     -2.31      0.00
   11    1   10     -0.93      0.00
   11    1   11     -0.24      0.00
   11    1   12      0.99      0.00
   11    1   13      0.74      0.00
   11    1   14      0.92      0.00
   11    1   15     -0.55      0.00
   11    1   16      0.73      0.00
   11    1   17     -0.24      0.00
  -11   -2   20     -2.04      0.00
  -11   -2   19     -0.24      0.00
  -11   -2   18     -0.39      0.00
  -11   -2   17      1.05      0.00
  -11   -2   16     -0.11      0.00
  -11   -2   15      0.37      0.00
  -11   -2   14     -0.18      0.00
  -11   -2   13      0.31      0.00
  -11   -2   12      0.42      0.00
  -11   -2   11      0.01      0.00
  -11   -2   10     -0.36      0.00
  -11   -2    9      1.91      0.00
  -11   -2    8      0.95      0.00
  -11   -2    7     -0.05      0.00
  -11   -2    6     -0.20      0.00
  -11   -2    5     -0.04      0.00
  -11   -2    4     -1.84      0.00
  -11   -2    3      1.22      0.00
  -11   -2    2     -1.41      0.00
  -11   -2    1     -0.91      0.00
   11    2    0      0.48      0.00
   11    2    1      0.07      0.00
   11    2    2     -0.91      0.00
   11    2    3     -1.48      0.00
   11    2    4      0.25      0.00
   11    2    5     -0.54      0.00
   11    2    6     -0.19      0.00
   11    2    7     -0.33      0.00
   11    2    8     -1.16      0.00
   11    2    9      3.51      0.00
   11    2   10      0.13      0.00
   11    2   11      0.24      0.00
   11    2   12     -1.28      0.00
   11    2   13     -0.61      0.00
   11    2   14      0.25      0.00
   11    2   15     -0.32      0.00
   11    2   16     -0.68      0.00
  -11   -3   20      1.10      0.00
  -11   -3   19     -0.16      0.00
  -11   -3   18     -0.31      0.00
  -11   -3   17     -0.81      0.00
  -11   -3   16     -0.40      0.00
  -11   -3   15     -0.02      0.00
  -11   -3   14     -0.49      0.00
  -11   -3   13     -0.80      0.00
  -11   -3   12      0.32      0.00
  -11   -3   11     -0.76      0.00
  -11   -3   10      0.70      0.00
  -11   -3    9     -0.70      0.00
  -11   -3    8     -0.13      0.00
  -11   -3    7      1.38      0.00
  -11   -3    6      0.87      0.00
  -11   -3    5      0.09      0.00
  -11   -3    4      1.04      0.00
  -11   -3    3     -0.38      0.00
  -11   -3    2      0.88      0.00
  -11   -3    1     -0.22      0.00
   11    3    0      0.51      0.00
   11    3    1     -0.87      0.00
   11    3    2      0.81      0.00
   11    3    3      1.25      0.00
   11    3    4     -1.29      0.00
   11    3    5      0.02      0.00
   11    3    6      0.63      0.00
   11    3    7     -0.66      0.00
   11    3    8      1.47      0.00
   11    3    9     -2.67      0.00
   11    3   10      0.25      0.00
   11    3   11     -0.10      0.00
   11    3   12     -0.27      0.00
   11    3   13      1.00      0.00
   11    3   14     -0.46      0.00
   11    3   15      1.30      0.00
   11    3   16      0.11      0.00
  -11   -4   19      0.01      0.00
  -11   -4   18      1.66      0.00
  -11   -4   17     -0.42      0.00
  -11   -4   16     -0.35      0.00
  -11   -4   15     -0.50      0.00
  -11   -4   14      0.08      0.00
  -11   -4   13      0.70      0.00
  -11   -4   12     -0.62      0.00
  -11   -4   11      0.80      0.00
  -11   -4   10     -1.18      0.00
  -11   -4    9      0.24      0.00
  -11   -4    8     -1.43      0.00
  -11   -4    7     -1.15      0.00
  -11   -4    6      0.28      0.00
  -11   -4    5      0.07      0.00
  -11   -4    4      0.72      0.00
  -11   -4    3      1.29      0.00
  -11   -4    2     -0.72      0.00
  -11   -4    1      0.43      0.00
   11    4    0     -0.43      0.00
   11    4    1      0.13      0.00
   11    4    2     -0.35      0.00
   11    4    3     -0.32      0.00
   11    4    4      2.10      0.00
   11    4    5      0.94      0.00
   11    4    6     -0.37      0.00
   11    4    7      0.86      0.00
   11    4    8     -0.86      0.00
   11    4    9      1.09      0.00
   11    4   10      2.07      0.00
   11    4   11     -0.49      0.00
   11    4   12      0.37      0.00
   11    4   13     -1.91      0.00
   11    4   14     -0.27      0.00
  -11   -5   18     -0.88      0.00
  -11   -5   17      1.46      0.00
  -11   -5   16      0.23      0.00
  -11   -5   15      0.12      0.00
  -11   -5   14     -0.96      0.00
  -11   -5   13     -1.88      0.00
  -11   -5   12      0.21      0.00
  -11   -5   11     -2.70      0.00
  -11   -5   10      2.33      0.00
  -11   -5    9     -0.29      0.00
  -11   -5    8      1.24      0.00
  -11   -5    7     -0.49      0.00
  -11   -5    6     -0.89      0.00
  -11   -5    5      0.36      0.00
  -11   -5    4     -1.46      0.00
  -11   -5    3     -0.35      0.00
  -11   -5    2      1.43      0.00
  -11   -5    1      0.56      0.00
   11    5    0     -0.08      0.00
   11    5    1      1.10      0.00
   11    5    2     -0.62      0.00
   11    5    3     -1.23      0.00
   11    5    4     -0.57      0.00
   11    5    5     -1.41      0.00
   11    5    6      0.54      0.00
   11    5    7      1.71      0.00
   11    5    8     -0.87      0.00
   11    5    9     -0.05      0.00
   11    5   10     -2.02      0.00
   11    5   11      1.35      0.00
   11    5   12      0.88      0.00
   11    5   13      1.46      0.00
  -11   -6   18     -0.16      0.00
  -11   -6   17     -1.31      0.00
  -11   -6   16      1.21      0.00
  -11   -6   15      0.24      0.00
  -11   -6   14      0.25      0.00
  -11   -6   13      2.36      0.00
  -11   -6   12     -1.68      0.00
  -11   -6   11      2.05      0.00
  -11   -6   10     -3.65      0.00
  -11   -6    9      0.64      0.00
  -11   -6    8      0.56      0.00
  -11   -6    7     -0.17      0.00
  -11   -6    6      0.11      0.00
  -11   -6    5     -0.08      0.00
  -11   -6    4      1.19      0.00
  -11   -6    3     -0.66      0.00
  -11   -6    2     -0.18      0.00
  -11   -6    1     -0.66      0.00
   11    6    0      0.44      0.00
   11    6    1      1.11      0.00
   11    6    2      0.29      0.00
   11    6    3      1.17      0.00
   11    6    4     -0.47      0.00
   11    6    5     -0.03      0.00
   11    6    6     -1.11      0.00
   11    6    7     -2.91      0.00
   11    6    8      1.80      0.00
   11    6    9     -0.35      0.00
   11    6   10     -0.18      0.00
   11    6   11     -0.77      0.00
   11    6   12     -0.64      0.00
  -11   -7   16     -2.19      0.00
  -11   -7   15     -0.07      0.00
  -11   -7   14      1.10      0.00
  -11   -7   13     -1.86      0.00
  -11   -7   12      1.34      0.00
  -11   -7   11     -0.79      0.00
  -11   -7   10      0.64      0.00
  -11   -7    9     -0.25      0.00
  -11   -7    8     -0.69      0.00
  -11   -7    7      1.22      0.00
  -11   -7    6      0.13      0.00
  -11   -7    5     -0.21      0.00
  -11   -7    4     -0.52      0.00
  -11   -7    3      1.07      0.00
  -11   -7    2      0.30      0.00
  -11   -7    1     -0.64      0.00
   11    7    0     -0.74      0.00
   11    7    1     -2.04      0.00
   11    7    2      0.12      0.00
   11    7    3     -0.07      0.00
   11    7    4     -0.76      0.00
   11    7    5      2.00      0.00
   11    7    6      0.19      0.00
   11    7    7      0.69      0.00
   11    7    8     -0.33      0.00
   11    7    9      0.25      0.00
   11    7   10     -0.13      0.00
  -11   -8   15     -0.86      0.00
  -11   -8   14     -0.15      0.00
  -11   -8   13      1.02      0.00
  -11   -8   12      0.85      0.00
  -11   -8   11      0.02      0.00
  -11   -8   10      1.06      0.00
  -11   -8    9     -1.49      0.00
  -11   -8    8      0.46      0.00
  -11   -8    7      0.11      0.00
  -11   -8    6      0.50      0.00
  -11   -8    5      0.00      0.00
  -11   -8    4     -0.25      0.00
  -11   -8    3     -0.58      0.00
  -11   -8    2     -0.82      0.00
  -11   -8    1      2.08      0.00
   11    8    0      0.13      0.00
   11    8    1      0.04      0.00
   11    8    2      1.21      0.00
   11    8    3     -2.19      0.00
   11    8    4      0.18      0.00
   11    8    5     -1.79      0.00
   11    8    6     -0.17      0.00
   11    8    7     -0.66      0.00
   11    8    8     -0.97      0.00
  -11   -9   13      0.75      0.00
  -11   -9   12     -0.30      0.00
  -11   -9   11      0.13      0.00
  -11   -9   10      0.45      0.00
  -11   -9    9      1.51      0.00
  -11   -9    8     -1.83      0.00
  -11   -9    7     -0.92      0.00
  -11   -9    6      0.03      0.00
  -11   -9    5      0.03      0.00
  -11   -9    4      1.52      0.00
  -11   -9    3     -0.77      0.00
  -11   -9    2      0.73      0.00
  -11   -9    1     -0.35      0.00
   11    9    0     -0.84      0.00
   11    9    1      1.11      0.00
   11    9    2     -0.52      0.00
   11    9    3      2.22      0.00
   11    9    4      0.09      0.00
   11    9    5      1.26      0.00
  -11  -10   10     -0.74      0.00
  -11  -10    9     -0.77      0.00
  -11  -10    8      1.60      0.00
  -11  -10    7      0.58      0.00
  -11  -10    6     -2.02      0.00
  -11  -10    5      0.04      0.00
  -11  -10    4     -0.89      0.00
  -11  -10    3     -0.52      0.00
  -11  -10    2      0.06      0.00
  -11  -10    1     -0.41      0.00
   11   10    0      1.20      0.00
   11   10    1     -0.51      0.00
   11   10    2      0.62      0.00
  -12   17    0      1.17      0.00
   12  -17    1     -0.02      0.00
   12  -17    2      1.04      0.00
   12  -17    3     -1.90      0.00
   12  -17    4      0.97      0.00
   12  -17    5     -0.18      0.00
   12  -17    6      0.42      0.00
   12  -17    7      0.46      0.00
  -12   16    4      1.24      0.00
  -12   16    3      0.07      0.00
  -12   16    2     -1.11      0.00
  -12   16    1     -0.32      0.00
  -12   16    0     -1.26      0.00
   12  -16    1      0.04      0.00
   12  -16    2      0.01      0.00
   12  -16    3      1.11      0.00
   12  -16    4     -0.90      0.00
   12  -16    5      1.39      0.00
   12  -16    6     -0.62      0.00
   12  -16    7     -1.39      0.00
   12  -16    8      0.51      0.00
   12  -16    9      0.48      0.00
   12  -16   10      1.73      0.00
   12  -16   11     -0.31      0.00
  -12   15    7      0.79      0.00
  -12   15    6     -0.85      0.00
  -12   15    5     -1.46      0.00
  -12   15    4     -0.18      0.00
  -12   15    3      1.38      0.00
  -12   15    2      1.13      0.00
  -12   15    1      0.13      0.00
  -12   15    0     -0.69      0.00
   12  -15    1     -0.19      0.00
   12  -15    2     -1.09      0.00
   12  -15    3     -1.53      0.00
   12  -15    4      0.57      0.00
   12  -15    5     -0.17      0.00
   12  -15    6      1.86      0.00
   12  -15    7      0.17      0.00
   12  -15    8     -1.18      0.00
   12  -15    9     -1.10      0.00
   12  -15   10     -0.66      0.00
   12  -15   11      1.01      0.00
   12  -15   12     -0.70      0.00
   12  -15   13     -1.04      0.00
  -12   14    9     -1.28      0.00
  -12   14    8     -0.03      0.00
  -12   14    7     -0.18      0.00
  -12   14    6      1.68      0.00
  -12   14    5     -0.05      0.00
  -12   14    4     -0.90      0.00
  -12   14    3     -1.23      0.00
  -12   14    2     -1.15      0.00
  -12   14    1      0.55      0.00
  -12   14    0      0.13      0.00
   12  -14    1      0.07      0.00
   12  -14    2     -0.36      0.00
   12  -14    3      1.09      0.00
   12  -14    4     -3.12      0.00
   12  -14    5     -0.67      0.00
   12  -14    6     -0.05      0.00
   12  -14    7      1.83      0.00
   12  -14    8      1.09      0.00
   12  -14    9      0.20      0.00
   12  -14   10      0.84      0.00
   12  -14   11     -0.30      0.00
   12  -14   12      1.14      0.00
   12  -14   13      1.23      0.00
   12  -14   14     -0.31      0.00
   12  -14   15     -0.60      0.00
  -12   13   11     -0.19      0.00
  -12   13   10     -0.70      0.00
  -12   13    9      1.11      0.00
  -12   13    8     -1.37      0.00
  -12   13    7      0.48      0.00
  -12   13    6     -0.85      0.00
  -12   13    5      0.83      0.00
  -12   13    4      1.47      0.00
  -12   13    3      0.12      0.00
  -12   13    2      1.34      0.00
  -12   13    1     -1.01      0.00
  -12   13    0      1.04      0.00
   12  -13    1     -0.50      0.00
   12  -13    2      1.51      0.00
   12  -13    3     -1.04      0.00
   12  -13    4      1.84      0.00
   12  -13    5     -1.25      0.00
   12  -13    6     -2.67      0.00
   12  -13    7     -0.29      0.00
   12  -13    8     -0.94      0.00
   12  -13    9     -0.43      0.00
   12  -13   10     -0.22      0.00
   12  -13   11     -0.60      0.00
   12  -13   12      0.38      0.00
   12  -13   13     -0.29      0.00
   12  -13   14      1.40      0.00
   12  -13   15      0.41      0.00
   12  -13   16      0.45      0.00
  -12   12   12      1.12      0.00
  -12   12   11     -1.16      0.00
  -12   12   10      0.48      0.00
  -12   12    9     -1.22      0.00
  -12   12    8      0.39      0.00
  -12   12    7     -0.99      0.00
  -12   12    6      0.48      0.00
  -12   12    5      0.53      0.00
  -12   12    4     -0.27      0.00
  -12   12    3      1.18      0.00
  -12   12    2      0.34      0.00
  -12   12    1      0.38      0.00
  -12   12    0     -0.73      0.00
   12  -12    1      0.66      0.00
   12  -12    2      0.10      0.00
   12  -12    3      1.03      0.00
   12  -12    4      0.45      0.00
   12  -12    5     -0.29      0.00
   12  -12    6      0.57      0.00
   12  -12    7     -0.42      0.00
   12  -12    8     -0.40      0.00
   12  -12    9      1.67      0.00
   12  -12   10     -0.89      0.00
   12  -12   11      0.74      0.00
   12  -12   12     -0.60      0.00
   12  -12   13      0.08      0.00
   12  -12   14      0.11      0.00
   12  -12   15     -0.01      0.00
   12  -12   16      0.67      0.00
   12  -12   17      0.28      0.00
  -12   11   13      0.55      0.00
  -12   11   12      0.12      0.00
  -12   11   11      0.15      0.00
  -12   11   10     -0.93      0.00
  -12   11    9      1.22      0.00
  -12   11    8     -0.42      0.00
  -12   11    7     -0.29      0.00
  -12   11    6     -0.40      0.00
  -12   11    5     -0.83      0.00
  -12   11    4     -0.71      0.00
  -12   11    3      0.55      0.00
  -12   11    2      1.05      0.00
  -12   11    1      1.15      0.00
  -12   11    0      0.19      0.00
   12  -11    1     -0.37      0.00
   12  -11    2     -1.94      0.00
   12  -11    3      0.17      0.00
   12  -11    4      0.89      0.00
   12  -11    5      0.97      0.00
   12  -11    6      0.96      0.00
   12  -11    7     -1.31      0.00
   12  -11    8      0.06      0.00
   12  -11    9     -1.29      0.00
   12  -11   10      0.20      0.00
   12  -11   11      0.05      0.00
   12  -11   12     -0.61      0.00
   12  -11   13      0.50      0.00
   12  -11   14     -1.24      0.00
   12  -11   15      1.35      0.00
   12  -11   16     -0.91      0.00
   12  -11   17     -0.39      0.00
   12  -11   18      0.83      0.00
  -12   10   15     -0.23      0.00
  -12   10   14      1.34      0.00
  -12   10   13      0.08      0.00
  -12   10   12      1.11      0.00
  -12   10   11      1.09      0.00
  -12   10   10      0.50      0.00
  -12   10    9     -0.57      0.00
  -12   10    8     -0.59      0.00
  -12   10    7     -0.53      0.00
  -12   10    6     -0.95      0.00
  -12   10    5     -0.33      0.00
  -12   10    4     -0.79      0.00
  -12   10    3     -2.75      0.00
  -12   10    2     -1.62      0.00
  -12   10    1      0.77      0.00
  -12   10    0      0.60      0.00
   12  -10    1      1.63      0.00
   12  -10    2      1.45      0.00
   12  -10    3     -0.42      0.00
   12  -10    4     -1.25      0.00
   12  -10    5     -0.66      0.00
   12  -10    6      0.42      0.00
   12  -10    7      0.82      0.00
   12  -10    8     -0.28      0.00
   12  -10    9     -0.62      0.00
   12  -10   10      0.13      0.00
   12  -10   11     -0.59      0.00
   12  -10   12      1.36      0.00
   12  -10   13     -1.15      0.00
   12  -10   14      0.61      0.00
   12  -10   15     -1.34      0.00
   12  -10   16      1.61      0.00
   12  -10   17     -0.31      0.00
   12  -10   18      0.01      0.00
  -12    9   15      0.30      0.00
  -12    9   14      0.34      0.00
  -12    9   13     -0.37      0.00
  -12    9   12     -0.03      0.00
  -12    9   11     -0.01      0.00
  -12    9   10      0.95      0.00
  -12    9    9     -0.13      0.00
  -12    9    8      2.23      0.00
  -12    9    7      0.61      0.00
  -12    9    6     -0.99      0.00
  -12    9    5      1.00      0.00
  -12    9    4      0.39      0.00
  -12    9    3      0.31      0.00
  -12    9    2     -0.04      0.00
  -12    9    1     -2.24      0.00
  -12    9    0      0.25      0.00
   12   -9    1     -1.70      0.00
   12   -9    2      0.32      0.00
   12   -9    3      0.60      0.00
   12   -9    4      1.30      0.00
   12   -9    5      0.53      0.00
   12   -9    6     -0.88      0.00
   12   -9    7      1.29      0.00
   12   -9    8      1.30      0.00
   12   -9    9      0.32      0.00
   12   -9   10     -0.28      0.00
   12   -9   11     -0.31      0.00
   12   -9   12     -1.50      0.00
   12   -9   13      1.16      0.00
   12   -9   14     -0.02      0.00
   12   -9   15     -0.38      0.00
   12   -9   16     -0.92      0.00
   12   -9   17      0.81      0.00
   12   -9   18     -0.13      0.00
  -12    8   16     -1.52      0.00
  -12    8   15      0.19      0.00
  -12    8   14     -1.51      0.00
  -12    8   13      1.00      0.00
  -12    8   12     -0.60      0.00
  -12    8   11      0.74      0.00
  -12    8   10     -0.12      0.00
  -12    8    9     -0.14      0.00
  -12    8    8      0.08      0.00
  -12    8    7      0.18      0.00
  -12    8    6      1.05      0.00
  -12    8    5     -1.19      0.00
  -12    8    4      0.42      0.00
  -12    8    3     -0.30      0.00
  -12    8    2     -0.74      0.00
  -12    8    1      0.16      0.00
  -12    8    0     -1.38      0.00
   12   -8    1      1.33      0.00
   12   -8    2     -0.87      0.00
   12   -8    3      0.48      0.00
   12   -8    4     -0.13      0.00
   12   -8    5      1.16      0.00
   12   -8    6      0.04      0.00
   12   -8    7     -1.39      0.00
   12   -8    8     -0.16      0.00
   12   -8    9      0.84      0.00
   12   -8   10      0.42      0.00
   12   -8   11      1.39      0.00
   12   -8   12     -0.02      0.00
   12   -8   13     -0.32      0.00
   12   -8   14      0.15      0.00
   12   -8   15      0.92      0.00
   12   -8   16     -0.88      0.00
   12   -8   17      0.04      0.00
   12   -8   18     -0.51      0.00
   12   -8   19      0.29      0.00
  -12    7   17      0.06      0.00
  -12    7   16      1.59      0.00
  -12    7   15     -2.31      0.00
  -12    7   14     -0.14      0.00
  -12    7   13     -0.09      0.00
  -12    7   12     -0.19      0.00
  -12    7   11      0.68      0.00
  -12    7   10     -0.05      0.00
  -12    7    9      0.72      0.00
  -12    7    8     -0.04      0.00
  -12    7    7      0.71      0.00
  -12    7    6      1.08      0.00
  -12    7    5      0.26      0.00
  -12    7    4     -0.88      0.00
  -12    7    3      0.93      0.00
  -12    7    2      0.17      0.00
  -12    7    1      0.56      0.00
  -12    7    0     -0.08      0.00
   12   -7    1     -1.65      0.00
   12   -7    2     -0.60      0.00
   12   -7    3     -1.25      0.00
   12   -7    4     -0.80      0.00
   12   -7    5     -0.05      0.00
   12   -7    6      1.37      0.00
   12   -7    7      0.66      0.00
   12   -7    8      0.63      0.00
   12   -7    9     -0.62      0.00
   12   -7   10     -0.27      0.00
   12   -7   11     -0.39      0.00
   12   -7   12      0.95      0.00
   12   -7   13     -0.82      0.00
   12   -7   14     -0.43      0.00
   12   -7   15      0.02      0.00
   12   -7   16      0.40      0.00
   12   -7   17     -0.14      0.00
   12   -7   18     -0.36      0.00
   12   -7   19     -0.04      0.00
  -12    6   18     -0.41      0.00
  -12    6   17     -0.54      0.00
  -12    6   16      0.96      0.00
  -12    6   15      1.17      0.00
  -12    6   14      0.09      0.00
  -12    6   13     -3.59      0.00
  -12    6   12      0.27      0.00
  -12    6   11     -1.55      0.00
  -12    6   10     -0.10      0.00
  -12    6    9      0.70      0.00
  -12    6    8     -1.41      0.00
  -12    6    7      0.33      0.00
  -12    6    6      0.23      0.00
  -12    6    5      1.42      0.00
  -12    6    4      2.30      0.00
  -12    6    3     -0.42      0.00
  -12    6    2     -1.25      0.00
  -12    6    1     -1.19      0.00
  -12    6    0      1.24      0.00
   12   -6    1     -0.31      0.00
   12   -6    2      1.52      0.00
   12   -6    3     -0.55      0.00
   12   -6    4     -0.29      0.00
   12   -6    5     -0.27      0.00
   12   -6    6     -1.79      0.00
   12   -6    7     -0.33      0.00
   12   -6    8      0.30      0.00
   12   -6    9      0.60      0.00
   12   -6   10      0.43      0.00
   12   -6   11     -0.12      0.00
   12   -6   12     -0.29      0.00
   12   -6   13      0.44      0.00
   12   -6   14      1.17      0.00
   12   -6   15     -0.74      0.00
   12   -6   16      0.39      0.00
   12   -6   17     -0.69      0.00
   12   -6   18      1.92      0.00
   12   -6   19     -1.26      0.00
  -12    5   18     -0.50      0.00
  -12    5   17     -0.37      0.00
  -12    5   16     -2.53      0.00
  -12    5   15      1.00      0.00
  -12    5   14     -0.27      0.00
  -12    5   13      2.91      0.00
  -12    5   12     -2.22      0.00
  -12    5   11     -0.63      0.00
  -12    5   10     -0.08      0.00
  -12    5    9     -1.53      0.00
  -12    5    8      1.16      0.00
  -12    5    7     -0.79      0.00
  -12    5    6     -1.22      0.00
  -12    5    5     -2.03      0.00
  -12    5    4      0.65      0.00
  -12    5    3      1.81      0.00
  -12    5    2      2.35      0.00
  -12    5    1      1.27      0.00
  -12    5    0     -1.38      0.00
   12   -5    1      0.79      0.00
   12   -5    2     -0.82      0.00
   12   -5    3     -0.01      0.00
   12   -5    4     -0.19      0.00
   12   -5    5     -0.35      0.00
   12   -5    6      1.18      0.00
   12   -5    7     -0.49      0.00
   12   -5    8     -1.05      0.00
   12   -5    9     -0.52      0.00
   12   -5   10     -0.08      0.00
   12   -5   11      0.50      0.00
   12   -5   12      0.20      0.00
   12   -5   13     -0.48      0.00
   12   -5   14     -0.94      0.00
   12   -5   15      0.93      0.00
   12   -5   16     -0.51      0.00
   12   -5   17     -0.54      0.00
   12   -5   18     -0.07      0.00
   12   -5   19      0.45      0.00
  -12    4   18      2.33      0.00
  -12    4   17      1.32      0.00
  -12    4   16      1.22      0.00
  -12    4   15     -1.68      0.00
  -12    4   14      0.40      0.00
  -12    4   13     -0.73      0.00
  -12    4   12      0.65      0.00
  -12    4   11     -0.87      0.00
  -12    4   10     -0.74      0.00
  -12    4    9      0.00      0.00
  -12    4    8     -1.42      0.00
  -12    4    7      2.18      0.00
  -12    4    6     -0.13      0.00
  -12    4    5      1.58      0.00
  -12    4    4     -2.37      0.00
  -12    4    3     -0.06      0.00
  -12    4    2      0.81      0.00
  -12    4    1     -0.13      0.00
  -12    4    0      0.66      0.00
   12   -4    1      1.15      0.00
   12   -4    2      0.29      0.00
   12   -4    3      0.96      0.00
   12   -4    4     -0.79      0.00
   12   -4    5      0.45      0.00
   12   -4    6     -1.45      0.00
   12   -4    7      0.28      0.00
   12   -4    8     -0.35      0.00
   12   -4    9      0.06      0.00
   12   -4   10     -0.36      0.00
   12   -4   11     -0.66      0.00
   12   -4   12      0.13      0.00
   12   -4   13     -0.23      0.00
   12   -4   14     -0.46      0.00
   12   -4   15      1.25      0.00
   12   -4   16     -0.57      0.00
   12   -4   17      1.58      0.00
   12   -4   18     -1.70      0.00
  -12    3   19     -0.14      0.00
  -12    3   18     -1.28      0.00
  -12    3   17     -0.27      0.00
  -12    3   16      1.48      0.00
  -12    3   15      0.91      0.00
  -12    3   14      0.55      0.00
  -12    3   13      0.98      0.00
  -12    3   12      1.32      0.00
  -12    3   11      1.53      0.00
  -12    3   10      0.31      0.00
  -12    3    9     -0.99      0.00
  -12    3    8      0.44      0.00
  -12    3    7     -2.95      0.00
  -12    3    6      2.00      0.00
  -12    3    5      0.29      0.00
  -12    3    4     -0.19      0.00
  -12    3    3     -0.91      0.00
  -12    3    2     -0.19      0.00
  -12    3    1      1.11      0.00
  -12    3    0      0.11      0.00
   12   -3    1     -1.57      0.00
   12   -3    2      0.80      0.00
   12   -3    3     -0.55      0.00
   12   -3    4      0.93      0.00
   12   -3    5     -1.97      0.00
   12   -3    6      1.46      0.00
   12   -3    7      1.28      0.00
   12   -3    8     -0.40      0.00
   12   -3    9     -0.73      0.00
   12   -3   10     -0.45      0.00
   12   -3   11      0.53      0.00
   12   -3   12      0.83      0.00
   12   -3   13      0.27      0.00
   12   -3   14     -0.27      0.00
   12   -3   15     -2.25      0.00
   12   -3   16      1.04      0.00
   12   -3   17     -1.36      0.00
   12   -3   18      0.45      0.00
  -12    2   19      1.36      0.00
  -12    2   18     -0.10      0.00
  -12    2   17      0.34      0.00
  -12    2   16     -0.85      0.00
  -12    2   15      0.57      0.00
  -12    2   14      0.31      0.00
  -12    2   13     -0.24      0.00
  -12    2   12     -0.13      0.00
  -12    2   11     -0.34      0.00
  -12    2   10      0.26      0.00
  -12    2    9      1.74      0.00
  -12    2    8      0.57      0.00
  -12    2    7     -1.95      0.00
  -12    2    6     -2.19      0.00
  -12    2    5     -0.23      0.00
  -12    2    4      1.10      0.00
  -12    2    3      0.07      0.00
  -12    2    2     -1.36      0.00
  -12    2    1     -0.34      0.00
  -12    2    0      1.13      0.00
   12   -2    1      0.73      0.00
   12   -2    2     -0.40      0.00
   12   -2    3      1.88      0.00
   12   -2    4      1.79      0.00
   12   -2    5      0.10      0.00
   12   -2    6     -2.28      0.00
   12   -2    7     -1.38      0.00
   12   -2    8      1.13      0.00
   12   -2    9      1.68      0.00
   12   -2   10     -1.65      0.00
   12   -2   11     -1.05      0.00
   12   -2   12     -0.78      0.00
   12   -2   13      0.80      0.00
   12   -2   14      0.21      0.00
   12   -2   15      1.27      0.00
   12   -2   16     -0.24      0.00
   12   -2   17      0.88      0.00
  -12    1   19     -1.75      0.00
  -12    1   18      0.89      0.00
  -12    1   17      0.03      0.00
  -12    1   16      0.40      0.00
  -12    1   15     -0.04      0.00
  -12    1   14     -1.05      0.00
  -12    1   13     -0.02      0.00
  -12    1   12      1.32      0.00
  -12    1   11      1.20      0.00
  -12    1   10     -1.95      0.00
  -12    1    9      0.56      0.00
  -12    1    8      0.17      0.00
  -12    1    7      3.02      0.00
  -12    1    6     -0.25      0.00
  -12    1    5     -2.85      0.00
  -12    1    4     -1.19      0.00
  -12    1    3     -0.10      0.00
  -12    1    2      0.83      0.00
  -12    1    1     -0.92      0.00
  -12    1    0     -0.12      0.00
   12   -1    1      0.64      0.00
   12   -1    2     -1.78      0.00
   12   -1    3     -2.00      0.00
   12   -1    4     -0.19      0.00
   12   -1    5      2.48      0.00
   12   -1    6      2.09      0.00
   12   -1    7     -1.14      0.00
   12   -1    8      0.04      0.00
   12   -1    9     -1.03      0.00
   12   -1   10      3.51      0.00
   12   -1   11     -1.38      0.00
   12   -1   12      0.07      0.00
   12   -1   13     -0.67      0.00
   12   -1   14      0.50      0.00
   12   -1   15     -1.77      0.00
   12   -1   16      1.33      0.00
   12   -1   17     -0.68      0.00
  -12    0   19     -0.69      0.00
  -12    0   18     -1.77      0.00
  -12    0   17     -0.65      0.00
  -12    0   16     -1.25      0.00
  -12    0   15      1.54      0.00
  -12    0   14      0.97      0.00
  -12    0   13     -0.60      0.00
  -12    0   12     -0.04      0.00
  -12    0   11     -0.63      0.00
  -12    0   10      2.73      0.00
  -12    0    9     -0.81      0.00
  -12    0    8     -1.24      0.00
  -12    0    7      0.29      0.00
  -12    0    6      2.89      0.00
  -12    0    5      2.09      0.00
  -12    0    4     -0.48      0.00
  -12    0    3     -0.88      0.00
  -12    0    2     -1.95      0.00
  -12    0    1     -0.66      0.00
   12    0    0     -1.93      0.00
   12    0    1      0.30      0.00
   12    0    2      1.49      0.00
   12    0    3      0.90      0.00
   12    0    4     -1.53      0.00
   12    0    5     -1.54      0.00
   12    0    6      0.69      0.00
   12    0    7      1.53      0.00
   12    0    8     -2.53      0.00
   12    0    9      1.38      0.00
   12    0   10     -2.32      0.00
   12    0   11      3.02      0.00
   12    0   12     -0.49      0.00
   12    0   13      1.69      0.00
   12    0   14     -0.92      0.00
   12    0   15      0.61      0.00
   12    0   16     -0.40      0.00
  -12   -1   18      1.84      0.00
  -12   -1   17     -1.54      0.00
  -12   -1   16      0.51      0.00
  -12   -1   15     -2.15      0.00
  -12   -1   14     -1.27      0.00
  -12   -1   13      1.03      0.00
  -12   -1   12     -0.81      0.00
  -12   -1   11      0.32      0.00
  -12   -1   10      0.34      0.00
  -12   -1    9      0.82      0.00
  -12   -1    8      0.98      0.00
  -12   -1    7     -0.20      0.00
  -12   -1    6     -3.26      0.00
  -12   -1    5      0.61      0.00
  -12   -1    4      1.36      0.00
  -12   -1    3     -0.04      0.00
  -12   -1    2      1.20      0.00
  -12   -1    1      0.40      0.00
   12    1    0      1.05      0.00
   12    1    1     -2.63      0.00
   12    1    2     -0.68      0.00
   12    1    3     -0.41      0.00
   12    1    4     -0.24      0.00
   12    1    5      0.49      0.00
   12    1    6     -0.45      0.00
   12    1    7     -0.30      0.00
   12    1    8      3.62      0.00
   12    1    9     -1.89      0.00
   12    1   10      1.67      0.00
   12    1   11     -3.21      0.00
   12    1   12      0.29      0.00
   12    1   13     -0.52      0.00
   12    1   14      0.76      0.00
   12    1   15      1.17      0.00
  -12   -2   18     -0.97      0.00
  -12   -2   17      1.58      0.00
  -12   -2   16     -0.29      0.00
  -12   -2   15      0.09      0.00
  -12   -2   14      0.89      0.00
  -12   -2   13     -1.64      0.00
  -12   -2   12     -0.38      0.00
  -12   -2   11     -0.09      0.00
  -12   -2   10     -1.09      0.00
  -12   -2    9     -1.56      0.00
  -12   -2    8      0.98      0.00
  -12   -2    7     -0.19      0.00
  -12   -2    6      2.22      0.00
  -12   -2    5     -0.34      0.00
  -12   -2    4      0.53      0.00
  -12   -2    3      0.56      0.00
  -12   -2    2     -0.32      0.00
  -12   -2    1      0.43      0.00
   12    2    0     -0.78      0.00
   12    2    1      1.61      0.00
   12    2    2      0.73      0.00
   12    2    3     -0.30      0.00
   12    2    4     -0.02      0.00
   12    2    5      0.31      0.00
   12    2    6     -1.14      0.00
   12    2    7      0.55      0.00
   12    2    8     -2.34      0.00
   12    2    9      1.35      0.00
   12    2   10     -0.41      0.00
   12    2   11      2.23      0.00
   12    2   12     -0.31      0.00
   12    2   13     -1.19      0.00
   12    2   14      0.38      0.00
  -12   -3   18      0.38      0.00
  -12   -3   17      0.47      0.00
  -12   -3   16     -0.05      0.00
  -12   -3   15      0.61      0.00
  -12   -3   14     -0.16      0.00
  -12   -3   13      0.41      0.00
  -12   -3   12     -1.33      0.00
  -12   -3   11     -0.19      0.00
  -12   -3   10     -0.49      0.00
  -12   -3    9      0.33      0.00
  -12   -3    8     -1.24      0.00
  -12   -3    7     -0.24      0.00
  -12   -3    6     -1.44      0.00
  -12   -3    5      0.67      0.00
  -12   -3    4     -0.25      0.00
  -12   -3    3     -0.03      0.00
  -12   -3    2      0.29      0.00
  -12   -3    1      0.46      0.00
   12    3    0      0.81      0.00
   12    3    1      0.37      0.00
   12    3    2     -0.18      0.00
   12    3    3      0.99      0.00
   12    3    4      1.60      0.00
   12    3    5     -0.86      0.00
   12    3    6      1.29      0.00
   12    3    7     -0.45      0.00
   12    3    8      1.05      0.00
   12    3    9      0.43      0.00
   12    3   10     -0.18      0.00
   12    3   11     -0.63      0.00
   12    3   12     -0.48      0.00
   12    3   13     -0.03      0.00
  -12   -4   17     -0.16      0.00
  -12   -4   16     -0.39      0.00
  -12   -4   15     -1.00      0.00
  -12   -4   14      0.38      0.00
  -12   -4   13     -0.21      0.00
  -12   -4   12      0.93      0.00
  -12   -4   11      0.17      0.00
  -12   -4   10      0.70      0.00
  -12   -4    9     -0.17      0.00
  -12   -4    8     -0.22      0.00
  -12   -4    7      0.07      0.00
  -12   -4    6     -0.41      0.00
  -12   -4    5     -1.26      0.00
  -12   -4    4      0.27      0.00
  -12   -4    3      1.00      0.00
  -12   -4    2      1.04      0.00
  -12   -4    1     -1.36      0.00
   12    4    0      0.64      0.00
   12    4    1     -0.86      0.00
   12    4    2     -0.58      0.00
   12    4    3     -0.53      0.00
   12    4    4     -1.72      0.00
   12    4    5      1.62      0.00
   12    4    6     -0.03      0.00
   12    4    7     -0.18      0.00
   12    4    8     -0.73      0.00
   12    4    9     -1.10      0.00
   12    4   10      0.46      0.00
   12    4   11      2.02      0.00
   12    4   12      0.93      0.00
  -12   -5   16      0.81      0.00
  -12   -5   15      0.88      0.00
  -12   -5   14     -0.24      0.00
  -12   -5   13      0.51      0.00
  -12   -5   12     -1.16      0.00
  -12   -5   11     -0.98      0.00
  -12   -5   10     -0.76      0.00
  -12   -5    9      0.72      0.00
  -12   -5    8      0.79      0.00
  -12   -5    7     -0.02      0.00
  -12   -5    6      1.14      0.00
  -12   -5    5      0.28      0.00
  -12   -5    4     -0.96      0.00
  -12   -5    3     -0.31      0.00
  -12   -5    2     -1.87      0.00
  -12   -5    1      2.48      0.00
   12    5    0     -0.69      0.00
   12    5    1      0.49      0.00
   12    5    2      1.16      0.00
   12    5    3     -1.14      0.00
   12    5    4     -0.46      0.00
   12    5    5     -1.44      0.00
   12    5    6     -1.51      0.00
   12    5    7      0.11      0.00
   12    5    8      1.42      0.00
   12    5    9     -1.78      0.00
   12    5   10     -0.69      0.00
   12    5   11     -2.08      0.00
  -12   -6   15     -0.63      0.00
  -12   -6   14      0.85      0.00
  -12   -6   13     -0.08      0.00
  -12   -6   12      1.85      0.00
  -12   -6   11      0.27      0.00
  -12   -6   10      1.00      0.00
  -12   -6    9     -1.21      0.00
  -12   -6    8      0.11      0.00
  -12   -6    7      1.11      0.00
  -12   -6    6     -0.27      0.00
  -12   -6    5     -0.69      0.00
  -12   -6    4      1.34      0.00
  -12   -6    3     -1.00      0.00
  -12   -6    2      1.04      0.00
  -12   -6    1     -2.51      0.00
   12    6    0     -0.52      0.00
   12    6    1      0.04      0.00
   12    6    2      0.55      0.00
   12    6    3      0.68      0.00
   12    6    4      1.46      0.00
   12    6    5     -0.34      0.00
   12    6    6      0.43      0.00
   12    6    7      0.47      0.00
   12    6    8     -2.17      0.00
   12    6    9      2.71      0.00
  -12   -7   13      1.56      0.00
  -12   -7   12     -0.89      0.00
  -12   -7   11      0.68      0.00
  -12   -7   10     -0.87      0.00
  -12   -7    9      0.63      0.00
  -12   -7    8     -1.40      0.00
  -12   -7    7     -0.43      0.00
  -12   -7    6     -0.24      0.00
  -12   -7    5      1.45      0.00
  -12   -7    4     -1.36      0.00
  -12   -7    3      1.13      0.00
  -12   -7    2      0.62      0.00
  -12   -7    1      1.27      0.00
   12    7    0     -0.11      0.00
   12    7    1     -0.55      0.00
   12    7    2     -2.70      0.00
   12    7    3      0.59      0.00
   12    7    4     -0.45      0.00
   12    7    5     -0.55      0.00
   12    7    6      0.75      0.00
   12    7    7     -0.45      0.00
  -12   -8   11      0.34      0.00
  -12   -8   10      1.52      0.00
  -12   -8    9     -0.18      0.00
  -12   -8    8      0.69      0.00
  -12   -8    7     -1.05      0.00
  -12   -8    6      1.31      0.00
  -12   -8    5     -1.34      0.00
  -12   -8    4     -0.42      0.00
  -12   -8    3     -0.10      0.00
  -12   -8    2     -0.97      0.00
  -12   -8    1     -0.81      0.00
   12    8    0      2.21      0.00
   12    8    1      1.11      0.00
   12    8    2      1.44      0.00
   12    8    3      1.20      0.00
   12    8    4      0.13      0.00
  -12   -9    8     -0.53      0.00
  -12   -9    7     -0.60      0.00
  -12   -9    6     -0.85      0.00
  -12   -9    5      0.74      0.00
  -12   -9    4      0.06      0.00
  -12   -9    3      0.17      0.00
  -12   -9    2      0.01      0.00
  -12   -9    1     -0.01      0.00
   12    9    0     -1.36      0.00
  -13   16    0      0.52      0.00
   13  -16    1     -1.91      0.00
   13  -16    2      0.25      0.00
   13  -16    3      0.37      0.00
   13  -16    4     -0.50      0.00
   13  -16    5      0.59      0.00
   13  -16    6     -0.20      0.00
   13  -16    7     -0.23      0.00
  -13   15    4     -1.84      0.00
  -13   15    3     -0.96      0.00
  -13   15    2      0.96      0.00
  -13   15    1      1.98      0.00
  -13   15    0      0.20      0.00
   13  -15    1      0.45      0.00
   13  -15    2      0.13      0.00
   13  -15    3     -1.33      0.00
   13  -15    4     -0.55      0.00
   13  -15    5      0.23      0.00
   13  -15    6     -0.06      0.00
   13  -15    7      1.73      0.00
   13  -15    8      0.19      0.00
   13  -15    9      0.49      0.00
   13  -15   10     -1.13      0.00
   13  -15   11     -0.45      0.00
  -13   14    7     -1.20      0.00
  -13   14    6      0.52      0.00
  -13   14    5      0.96      0.00
  -13   14    4      0.68      0.00
  -13   14    3      0.59      0.00
  -13   14    2     -1.61      0.00
  -13   14    1     -0.43      0.00
  -13   14    0      0.61      0.00
   13  -14    1      1.32      0.00
   13  -14    2      0.37      0.00
   13  -14    3      0.42      0.00
   13  -14    4      1.19      0.00
   13  -14    5     -3.66      0.00
   13  -14    6      0.22      0.00
   13  -14    7     -2.57      0.00
   13  -14    8      1.32      0.00
   13  -14    9     -0.30      0.00
   13  -14   10     -0.07      0.00
   13  -14   11      1.38      0.00
   13  -14   12     -1.00      0.00
   13  -14   13      1.74      0.00
  -13   13    9     -0.10      0.00
  -13   13    8     -0.33      0.00
  -13   13    7      0.57      0.00
  -13   13    6      0.00      0.00
  -13   13    5     -1.52      0.00
  -13   13    4      1.15      0.00
  -13   13    3      0.13      0.00
  -13   13    2      0.40      0.00
  -13   13    1      0.73      0.00
  -13   13    0     -1.77      0.00
   13  -13    1      0.53      0.00
   13  -13    2      0.06      0.00
   13  -13    3      2.16      0.00
   13  -13    4     -1.66      0.00
   13  -13    5      5.02      0.00
   13  -13    6     -1.45      0.00
   13  -13    7     -0.02      0.00
   13  -13    8      0.26      0.00
   13  -13    9     -0.65      0.00
   13  -13   10     -0.29      0.00
   13  -13   11     -1.59      0.00
   13  -13   12     -0.23      0.00
   13  -13   13     -0.86      0.00
   13  -13   14     -0.20      0.00
  -13   12   10      1.41      0.00
  -13   12    9      0.66      0.00
  -13   12    8     -0.37      0.00
  -13   12    7      0.38      0.00
  -13   12    6     -1.21      0.00
  -13   12    5      0.52      0.00
  -13   12    4     -0.63      0.00
  -13   12    3     -0.91      0.00
  -13   12    2      1.20      0.00
  -13   12    1     -0.74      0.00
  -13   12    0      0.90      0.00
   13  -12    1     -2.76      0.00
   13  -12    2      1.41      0.00
   13  -12    3     -1.51      0.00
   13  -12    4      1.80      0.00
   13  -12    5     -0.98      0.00
   13  -12    6      0.48      0.00
   13  -12    7      0.17      0.00
   13  -12    8     -0.84      0.00
   13  -12    9      0.38      0.00
   13  -12   10      1.60      0.00
   13  -12   11     -0.64      0.00
   13  -12   12      1.09      0.00
   13  -12   13     -1.12      0.00
   13  -12   14      0.91      0.00
   13  -12   15     -0.64      0.00
  -13   11   12      0.33      0.00
  -13   11   11      0.51      0.00
  -13   11   10     -0.82      0.00
  -13   11    9     -0.69      0.00
  -13   11    8      1.23      0.00
  -13   11    7     -1.35      0.00
  -13   11    6      0.25      0.00
  -13   11    5     -0.04      0.00
  -13   11    4     -2.06      0.00
  -13   11    3     -0.20      0.00
  -13   11    2     -0.89      0.00
  -13   11    1      1.20      0.00
  -13   11    0      0.74      0.00
   13  -11    1      0.94      0.00
   13  -11    2     -1.28      0.00
   13  -11    3     -1.08      0.00
   13  -11    4     -1.26      0.00
   13  -11    5      0.64      0.00
   13  -11    6      1.48      0.00
   13  -11    7      1.24      0.00
   13  -11    8     -1.46      0.00
   13  -11    9      1.68      0.00
   13  -11   10     -1.81      0.00
   13  -11   11      1.32      0.00
   13  -11   12     -1.41      0.00
   13  -11   13      0.33      0.00
   13  -11   14     -1.26      0.00
   13  -11   15      0.05      0.00
   13  -11   16      0.43      0.00
  -13   10   13     -0.47      0.00
  -13   10   12     -0.13      0.00
  -13   10   11      0.40      0.00
  -13   10   10      0.38      0.00
  -13   10    9      2.14      0.00
  -13   10    8      0.39      0.00
  -13   10    7      0.68      0.00
  -13   10    6      1.20      0.00
  -13   10    5     -0.94      0.00
  -13   10    4      2.04      0.00
  -13   10    3     -0.98      0.00
  -13   10    2     -2.39      0.00
  -13   10    1     -1.35      0.00
  -13   10    0     -1.10      0.00
   13  -10    1      0.97      0.00
   13  -10    2      0.32      0.00
   13  -10    3      2.85      0.00
   13  -10    4      0.08      0.00
   13  -10    5     -2.40      0.00
   13  -10    6      0.98      0.00
   13  -10    7     -0.91      0.00
   13  -10    8      1.70      0.00
   13  -10    9     -2.00      0.00
   13  -10   10      1.09      0.00
   13  -10   11     -0.56      0.00
   13  -10   12      0.92      0.00
   13  -10   13      1.23      0.00
   13  -10   14     -0.37      0.00
   13  -10   15     -0.39      0.00
   13  -10   16     -0.79      0.00
  -13    9   14      0.13      0.00
  -13    9   13     -0.35      0.00
  -13    9   12     -0.60      0.00
  -13    9   11     -0.80      0.00
  -13    9   10     -0.78      0.00
  -13    9    9     -1.07      0.00
  -13    9    8     -1.24      0.00
  -13    9    7      2.58      0.00
  -13    9    6     -0.53      0.00
  -13    9    5      1.12      0.00
  -13    9    4      0.34      0.00
  -13    9    3      1.40      0.00
  -13    9    2      2.06      0.00
  -13    9    1     -0.20      0.00
  -13    9    0      0.11      0.00
   13   -9    1     -1.39      0.00
   13   -9    2     -0.62      0.00
   13   -9    3     -1.55      0.00
   13   -9    4      0.59      0.00
   13   -9    5      1.53      0.00
   13   -9    6     -2.18      0.00
   13   -9    7      1.98      0.00
   13   -9    8     -0.39      0.00
   13   -9    9      1.68      0.00
   13   -9   10      0.78      0.00
   13   -9   11     -0.57      0.00
   13   -9   12     -0.48      0.00
   13   -9   13     -0.87      0.00
   13   -9   14      1.61      0.00
   13   -9   15      0.17      0.00
   13   -9   16     -0.30      0.00
   13   -9   17     -0.11      0.00
  -13    8   15     -0.50      0.00
  -13    8   14      0.23      0.00
  -13    8   13     -0.46      0.00
  -13    8   12      0.55      0.00
  -13    8   11     -0.92      0.00
  -13    8   10      1.57      0.00
  -13    8    9     -0.80      0.00
  -13    8    8      0.29      0.00
  -13    8    7     -1.31      0.00
  -13    8    6      0.46      0.00
  -13    8    5      1.16      0.00
  -13    8    4     -0.95      0.00
  -13    8    3      0.74      0.00
  -13    8    2     -0.19      0.00
  -13    8    1     -0.09      0.00
  -13    8    0      0.10      0.00
   13   -8    1     -0.96      0.00
   13   -8    2      0.36      0.00
   13   -8    3     -0.95      0.00
   13   -8    4      0.92      0.00
   13   -8    5     -1.13      0.00
   13   -8    6      1.12      0.00
   13   -8    7     -1.27      0.00
   13   -8    8     -0.85      0.00
   13   -8    9     -0.82      0.00
   13   -8   10     -0.23      0.00
   13   -8   11      1.18      0.00
   13   -8   12     -0.31      0.00
   13   -8   13     -0.46      0.00
   13   -8   14     -0.24      0.00
   13   -8   15      0.14      0.00
   13   -8   16      1.46      0.00
   13   -8   17     -1.16      0.00
  -13    7   15      1.29      0.00
  -13    7   14     -2.36      0.00
  -13    7   13      0.67      0.00
  -13    7   12     -0.92      0.00
  -13    7   11      0.40      0.00
  -13    7   10     -0.76      0.00
  -13    7    9      0.20      0.00
  -13    7    8      0.36      0.00
  -13    7    7     -1.64      0.00
  -13    7    6      0.67      0.00
  -13    7    5     -0.40      0.00
  -13    7    4      0.96      0.00
  -13    7    3     -1.35      0.00
  -13    7    2      0.52      0.00
  -13    7    1      1.47      0.00
  -13    7    0      0.52      0.00
   13   -7    1      3.25      0.00
   13   -7    2     -2.41      0.00
   13   -7    3      0.75      0.00
   13   -7    4     -1.92      0.00
   13   -7    5     -0.88      0.00
   13   -7    6      0.19      0.00
   13   -7    7     -0.12      0.00
   13   -7    8      0.63      0.00
   13   -7    9      0.00      0.00
   13   -7   10     -0.47      0.00
   13   -7   11     -0.03      0.00
   13   -7   12      0.47      0.00
   13   -7   13      0.69      0.00
   13   -7   14     -1.29      0.00
   13   -7   15     -0.10      0.00
   13   -7   16     -1.21      0.00
   13   -7   17      1.81      0.00
  -13    6   16      0.24      0.00
  -13    6   15      0.96      0.00
  -13    6   14      2.59      0.00
  -13    6   13     -0.49      0.00
  -13    6   12     -1.25      0.00
  -13    6   11     -0.76      0.00
  -13    6   10     -1.29      0.00
  -13    6    9     -0.24      0.00
  -13    6    8     -0.62      0.00
  -13    6    7     -0.04      0.00
  -13    6    6     -2.52      0.00
  -13    6    5      0.32      0.00
  -13    6    4      0.46      0.00
  -13    6    3      2.34      0.00
  -13    6    2      0.01      0.00
  -13    6    1     -1.89      0.00
  -13    6    0     -0.57      0.00
   13   -6    1     -0.97      0.00
   13   -6    2      2.68      0.00
   13   -6    3      0.84      0.00
   13   -6    4      0.24      0.00
   13   -6    5      1.73      0.00
   13   -6    6     -1.34      0.00
   13   -6    7     -0.65      0.00
   13   -6    8     -0.59      0.00
   13   -6    9     -0.68      0.00
   13   -6   10     -0.08      0.00
   13   -6   11     -0.08      0.00
   13   -6   12     -0.56      0.00
   13   -6   13     -0.72      0.00
   13   -6   14      1.03      0.00
   13   -6   15      0.71      0.00
   13   -6   16     -0.30      0.00
   13   -6   17     -0.74      0.00
  -13    5   16     -0.77      0.00
  -13    5   15     -2.30      0.00
  -13    5   13      1.03      0.00
  -13    5   12      1.99      0.00
  -13    5   11      0.81      0.00
  -13    5   10      0.07      0.00
  -13    5    9      0.53      0.00
  -13    5    8      0.84      0.00
  -13    5    7      0.45      0.00
  -13    5    6      1.76      0.00
  -13    5    5     -2.66      0.00
  -13    5    4     -1.49      0.00
  -13    5    3     -0.85      0.00
  -13    5    2      0.45      0.00
  -13    5    1      2.23      0.00
  -13    5    0      1.29      0.00
   13   -5    1     -1.25      0.00
   13   -5    2      0.25      0.00
   13   -5    3     -1.31      0.00
   13   -5    4      0.19      0.00
   13   -5    5     -1.08      0.00
   13   -5    6      1.01      0.00
   13   -5    7      1.30      0.00
   13   -5    8      0.45      0.00
   13   -5    9     -0.32      0.00
   13   -5   10     -0.63      0.00
   13   -5   11      0.53      0.00
   13   -5   12      0.44      0.00
   13   -5   13      0.36      0.00
   13   -5   14     -0.89      0.00
   13   -5   15     -0.60      0.00
   13   -5   16      1.75      0.00
   13   -5   17     -1.40      0.00
  -13    4   17      1.72      0.00
  -13    4   16      1.67      0.00
  -13    4   15      1.83      0.00
  -13    4   14     -0.78      0.00
  -13    4   13      0.58      0.00
  -13    4   12      1.19      0.00
  -13    4   11     -0.54      0.00
  -13    4   10      0.53      0.00
  -13    4    9      0.12      0.00
  -13    4    8     -0.84      0.00
  -13    4    7      0.29      0.00
  -13    4    6      0.80      0.00
  -13    4    5      0.77      0.00
  -13    4    4      1.08      0.00
  -13    4    3     -1.71      0.00
  -13    4    2     -0.51      0.00
  -13    4    1     -0.68      0.00
  -13    4    0     -1.42      0.00
   13   -4    1      0.55      0.00
   13   -4    2      0.72      0.00
   13   -4    3      1.70      0.00
   13   -4    4     -0.02      0.00
   13   -4    5      0.21      0.00
   13   -4    6     -0.03      0.00
   13   -4    7     -1.49      0.00
   13   -4    8      0.74      0.00
   13   -4    9     -0.03      0.00
   13   -4   10      0.53      0.00
   13   -4   11     -1.23      0.00
   13   -4   12      0.93      0.00
   13   -4   13     -0.77      0.00
   13   -4   14     -0.16      0.00
   13   -4   15     -0.59      0.00
   13   -4   16     -0.16      0.00
  -13    3   17     -1.95      0.00
  -13    3   16     -1.68      0.00
  -13    3   15      0.67      0.00
  -13    3   14     -1.37      0.00
  -13    3   13      0.20      0.00
  -13    3   12      0.00      0.00
  -13    3   11      1.62      0.00
  -13    3   10      0.18      0.00
  -13    3    9      0.66      0.00
  -13    3    8     -1.62      0.00
  -13    3    7      1.33      0.00
  -13    3    6     -3.47      0.00
  -13    3    5      1.88      0.00
  -13    3    4     -0.38      0.00
  -13    3    3      0.10      0.00
  -13    3    2     -0.72      0.00
  -13    3    1      0.92      0.00
  -13    3    0      0.86      0.00
   13   -3    1     -0.54      0.00
   13   -3    2     -2.04      0.00
   13   -3    3      0.73      0.00
   13   -3    4      0.12      0.00
   13   -3    5     -0.02      0.00
   13   -3    6     -1.21      0.00
   13   -3    7      1.68      0.00
   13   -3    8      0.12      0.00
   13   -3    9      0.37      0.00
   13   -3   10     -1.15      0.00
   13   -3   11      0.11      0.00
   13   -3   12     -0.13      0.00
   13   -3   13      2.03      0.00
   13   -3   14      0.61      0.00
   13   -3   16     -1.10      0.00
  -13    2   17     -0.79      0.00
  -13    2   16      1.54      0.00
  -13    2   15     -2.19      0.00
  -13    2   14      0.76      0.00
  -13    2   13     -1.48      0.00
  -13    2   12     -0.67      0.00
  -13    2   11     -0.84      0.00
  -13    2   10      1.49      0.00
  -13    2    9     -2.17      0.00
  -13    2    8      4.45      0.00
  -13    2    7     -1.50      0.00
  -13    2    6      1.34      0.00
  -13    2    5     -2.67      0.00
  -13    2    4      0.26      0.00
  -13    2    3      0.56      0.00
  -13    2    2     -0.89      0.00
  -13    2    1     -1.96      0.00
  -13    2    0      0.28      0.00
   13   -2    1     -0.14      0.00
   13   -2    2      0.00      0.00
   13   -2    3     -1.19      0.00
   13   -2    4      1.95      0.00
   13   -2    5      1.29      0.00
   13   -2    6      0.35      0.00
   13   -2    7     -1.84      0.00
   13   -2    8     -0.28      0.00
   13   -2    9      1.94      0.00
   13   -2   10      0.84      0.00
   13   -2   11     -0.22      0.00
   13   -2   12     -1.54      0.00
   13   -2   13     -0.80      0.00
   13   -2   14     -0.26      0.00
   13   -2   15      0.78      0.00
  -13    1   17      0.97      0.00
  -13    1   16     -0.51      0.00
  -13    1   15      1.42      0.00
  -13    1   14      0.83      0.00
  -13    1   13     -0.72      0.00
  -13    1   12     -1.46      0.00
  -13    1   11      1.80      0.00
  -13    1   10     -1.43      0.00
  -13    1    9      0.76      0.00
  -13    1    8     -2.24      0.00
  -13    1    7      2.25      0.00
  -13    1    6      1.64      0.00
  -13    1    5      1.55      0.00
  -13    1    4     -1.95      0.00
  -13    1    3      0.32      0.00
  -13    1    2      0.34      0.00
  -13    1    1     -0.30      0.00
  -13    1    0     -0.22      0.00
   13   -1    1      0.49      0.00
   13   -1    2      0.17      0.00
   13   -1    3     -1.80      0.00
   13   -1    4     -2.57      0.00
   13   -1    5      0.44      0.00
   13   -1    6      0.91      0.00
   13   -1    7      1.22      0.00
   13   -1    8     -0.75      0.00
   13   -1    9     -1.33      0.00
   13   -1   10      1.22      0.00
   13   -1   11      0.73      0.00
   13   -1   12      1.23      0.00
   13   -1   13     -0.55      0.00
   13   -1   14      0.67      0.00
   13   -1   15     -0.39      0.00
  -13    0   17     -0.75      0.00
  -13    0   16     -1.94      0.00
  -13    0   15     -0.24      0.00
  -13    0   14      0.24      0.00
  -13    0   13      1.08      0.00
  -13    0   12      1.30      0.00
  -13    0   11     -1.82      0.00
  -13    0   10      0.53      0.00
  -13    0    9      0.90      0.00
  -13    0    8     -0.70      0.00
  -13    0    7     -3.04      0.00
  -13    0    6      0.71      0.00
  -13    0    5      0.58      0.00
  -13    0    4      2.11      0.00
  -13    0    3     -0.06      0.00
  -13    0    2      1.12      0.00
  -13    0    1      0.28      0.00
   13    0    0     -1.42      0.00
   13    0    1     -0.15      0.00
   13    0    2      0.27      0.00
   13    0    3      1.05      0.00
   13    0    4      1.45      0.00
   13    0    5     -2.21      0.00
   13    0    6     -0.24      0.00
   13    0    7      0.51      0.00
   13    0    8      0.56      0.00
   13    0    9     -1.10      0.00
   13    0   10     -0.22      0.00
   13    0   11     -0.43      0.00
   13    0   12     -0.27      0.00
   13    0   13      0.63      0.00
   13    0   14      0.34      0.00
  -13   -1   16      0.37      0.00
  -13   -1   15     -0.12      0.00
  -13   -1   14     -1.64      0.00
  -13   -1   13     -1.12      0.00
  -13   -1   12     -1.09      0.00
  -13   -1   11      0.12      0.00
  -13   -1   10     -0.88      0.00
  -13   -1    9      0.10      0.00
  -13   -1    8      0.53      0.00
  -13   -1    7      1.13      0.00
  -13   -1    6     -0.59      0.00
  -13   -1    5     -0.55      0.00
  -13   -1    4     -0.90      0.00
  -13   -1    3      0.61      0.00
  -13   -1    2     -0.60      0.00
  -13   -1    1      0.17      0.00
   13    1    0      2.07      0.00
   13    1    1      1.01      0.00
   13    1    2     -1.06      0.00
   13    1    3      0.11      0.00
   13    1    4      0.27      0.00
   13    1    5      0.15      0.00
   13    1    6     -0.16      0.00
   13    1    7      0.01      0.00
   13    1    8     -0.56      0.00
   13    1    9      2.12      0.00
   13    1   10     -1.06      0.00
   13    1   11      0.42      0.00
   13    1   12     -1.05      0.00
   13    1   13     -0.93      0.00
  -13   -2   16      1.06      0.00
  -13   -2   15      0.14      0.00
  -13   -2   14      0.78      0.00
  -13   -2   13      0.67      0.00
  -13   -2   12     -0.05      0.00
  -13   -2   11     -1.22      0.00
  -13   -2   10      0.68      0.00
  -13   -2    9     -0.49      0.00
  -13   -2    8     -1.79      0.00
  -13   -2    7     -0.60      0.00
  -13   -2    6     -1.23      0.00
  -13   -2    5      0.19      0.00
  -13   -2    4      0.54      0.00
  -13   -2    3      0.30      0.00
  -13   -2    2      1.01      0.00
  -13   -2    1      0.46      0.00
   13    2    0     -0.80      0.00
   13    2    1      0.27      0.00
   13    2    2      1.08      0.00
   13    2    3      0.39      0.00
   13    2    4     -0.44      0.00
   13    2    5      1.08      0.00
   13    2    6     -0.09      0.00
   13    2    7     -1.00      0.00
   13    2    8      1.10      0.00
   13    2    9     -1.75      0.00
   13    2   10      0.86      0.00
   13    2   11      0.09      0.00
   13    2   12      0.79      0.00
  -13   -3   15     -0.64      0.00
  -13   -3   14      0.86      0.00
  -13   -3   13      0.59      0.00
  -13   -3   12      0.44      0.00
  -13   -3   11      0.48      0.00
  -13   -3   10     -1.06      0.00
  -13   -3    9      0.58      0.00
  -13   -3    8      2.26      0.00
  -13   -3    7     -0.32      0.00
  -13   -3    6      0.64      0.00
  -13   -3    5     -0.41      0.00
  -13   -3    4     -0.05      0.00
  -13   -3    3     -0.60      0.00
  -13   -3    2     -0.63      0.00
  -13   -3    1     -0.76      0.00
   13    3    0     -0.46      0.00
   13    3    1     -0.02      0.00
   13    3    2     -0.13      0.00
   13    3    3     -1.03      0.00
   13    3    4      0.31      0.00
   13    3    5      0.08      0.00
   13    3    6     -0.48      0.00
   13    3    7      0.38      0.00
   13    3    8     -0.89      0.00
   13    3    9      0.26      0.00
   13    3   10      0.83      0.00
   13    3   11     -0.15      0.00
  -13   -4   14     -1.43      0.00
  -13   -4   13     -0.20      0.00
  -13   -4   12      0.69      0.00
  -13   -4   11     -0.11      0.00
  -13   -4   10      1.45      0.00
  -13   -4    9     -0.45      0.00
  -13   -4    8     -0.18      0.00
  -13   -4    7      1.28      0.00
  -13   -4    6     -0.41      0.00
  -13   -4    5      0.17      0.00
  -13   -4    4     -1.01      0.00
  -13   -4    3     -0.41      0.00
  -13   -4    2      1.87      0.00
  -13   -4    1      0.30      0.00
   13    4    0     -0.35      0.00
   13    4    1     -0.32      0.00
   13    4    2     -0.24      0.00
   13    4    3     -0.48      0.00
   13    4    4     -0.96      0.00
   13    4    5     -1.15      0.00
   13    4    6      0.56      0.00
   13    4    7     -0.03      0.00
   13    4    8     -1.01      0.00
   13    4    9      0.01      0.00
  -13   -5   13      0.87      0.00
  -13   -5   12     -0.32      0.00
  -13   -5   11      1.08      0.00
  -13   -5   10     -1.83      0.00
  -13   -5    9      0.30      0.00
  -13   -5    8     -0.09      0.00
  -13   -5    7     -0.37      0.00
  -13   -5    6      0.07      0.00
  -13   -5    5      0.73      0.00
  -13   -5    4      0.54      0.00
  -13   -5    3     -0.28      0.00
  -13   -5    2     -2.31      0.00
  -13   -5    1      0.32      0.00
   13    5    0      0.38      0.00
   13    5    1      0.14      0.00
   13    5    2      0.87      0.00
   13    5    3      1.55      0.00
   13    5    4     -1.07      0.00
   13    5    5      1.02      0.00
   13    5    6     -0.02      0.00
   13    5    7     -1.00      0.00
  -13   -6   11     -0.29      0.00
  -13   -6   10      1.35      0.00
  -13   -6    9     -1.17      0.00
  -13   -6    8     -0.14      0.00
  -13   -6    7     -0.08      0.00
  -13   -6    6      0.70      0.00
  -13   -6    5     -0.78      0.00
  -13   -6    4      0.38      0.00
  -13   -6    3      0.35      0.00
  -13   -6    2      0.62      0.00
  -13   -6    1      0.12      0.00
   13    6    0     -0.89      0.00
   13    6    1     -2.10      0.00
   13    6    2      0.92      0.00
   13    6    3      0.19      0.00
   13    6    4      0.99      0.00
   13    6    5      0.49      0.00
  -13   -7    9      0.72      0.00
  -13   -7    8     -0.30      0.00
  -13   -7    7     -0.12      0.00
  -13   -7    6     -1.72      0.00
  -13   -7    5     -0.17      0.00
  -13   -7    4      0.33      0.00
  -13   -7    3     -0.55      0.00
  -13   -7    2     -0.09      0.00
  -13   -7    1      1.55      0.00
   13    7    0      1.41      0.00
   13    7    1      1.48      0.00
   13    7    2     -0.82      0.00
   14  -15    1      0.06      0.00
   14  -15    2      0.35      0.00
   14  -15    3      0.46      0.00
   14  -15    4     -1.03      0.00
   14  -15    5      0.51      0.00
  -14   14    3      0.47      0.00
  -14   14    2     -0.13      0.00
  -14   14    1     -1.18      0.00
  -14   14    0     -0.73      0.00
   14  -14    1      0.37      0.00
   14  -14    2      0.59      0.00
   14  -14    3     -0.15      0.00
   14  -14    4      2.22      0.00
   14  -14    5     -0.33      0.00
   14  -14    6     -0.28      0.00
   14  -14    7     -0.49      0.00
   14  -14    8     -0.52      0.00
   14  -14    9     -0.74      0.00
  -14   13    6      0.83      0.00
  -14   13    5     -0.76      0.00
  -14   13    4     -0.44      0.00
  -14   13    3      0.66      0.00
  -14   13    2     -0.28      0.00
  -14   13    1      0.38      0.00
  -14   13    0     -0.53      0.00
   14  -13    1     -0.99      0.00
   14  -13    2     -1.36      0.00
   14  -13    3      0.59      0.00
   14  -13    4     -0.73      0.00
   14  -13    5      0.12      0.00
   14  -13    6      1.79      0.00
   14  -13    7     -0.22      0.00
   14  -13    8      1.10      0.00
   14  -13    9      1.64      0.00
   14  -13   10     -0.15      0.00
   14  -13   11     -0.17      0.00
  -14   12    8      0.28      0.00
  -14   12    7      0.73      0.00
  -14   12    6     -0.11      0.00
  -14   12    5     -0.56      0.00
  -14   12    4      0.79      0.00
  -14   12    3     -0.95      0.00
  -14   12    2     -0.40      0.00
  -14   12    1      0.73      0.00
  -14   12    0      0.58      0.00
   14  -12    1     -0.25      0.00
   14  -12    2     -0.31      0.00
   14  -12    3     -0.74      0.00
   14  -12    4      0.16      0.00
   14  -12    5      1.02      0.00
   14  -12    6     -1.08      0.00
   14  -12    7     -0.40      0.00
   14  -12    8      0.08      0.00
   14  -12    9     -1.36      0.00
   14  -12   10      1.09      0.00
   14  -12   11      0.24      0.00
   14  -12   12      0.05      0.00
  -14   11    9     -1.18      0.00
  -14   11    8      0.07      0.00
  -14   11    7      1.03      0.00
  -14   11    6     -1.21      0.00
  -14   11    5      1.32      0.00
  -14   11    4     -0.14      0.00
  -14   11    3     -0.39      0.00
  -14   11    2     -0.18      0.00
  -14   11    1     -0.26      0.00
  -14   11    0      0.02      0.00
   14  -11    1      1.45      0.00
   14  -11    2      0.80      0.00
   14  -11    3     -1.20      0.00
   14  -11    4     -0.72      0.00
   14  -11    5     -0.83      0.00
   14  -11    6      0.34      0.00
   14  -11    7      1.08      0.00
   14  -11    8     -0.74      0.00
   14  -11    9      0.58      0.00
   14  -11   10      0.35      0.00
   14  -11   11     -0.02      0.00
   14  -11   12      1.28      0.00
   14  -11   13     -0.45      0.00
  -14   10   11     -0.87      0.00
  -14   10   10     -0.83      0.00
  -14   10    9     -0.81      0.00
  -14   10    8      1.35      0.00
  -14   10    7     -0.29      0.00
  -14   10    6      2.06      0.00
  -14   10    5     -0.18      0.00
  -14   10    4      0.77      0.00
  -14   10    3      2.04      0.00
  -14   10    2      0.30      0.00
  -14   10    1     -1.48      0.00
  -14   10    0     -0.49      0.00
   14  -10    1     -0.84      0.00
   14  -10    2     -0.30      0.00
   14  -10    3      1.42      0.00
   14  -10    4      0.20      0.00
   14  -10    5      0.49      0.00
   14  -10    6     -0.70      0.00
   14  -10    7     -0.42      0.00
   14  -10    8      1.11      0.00
   14  -10    9     -0.42      0.00
   14  -10   10     -1.54      0.00
   14  -10   11      0.36      0.00
   14  -10   12     -1.03      0.00
   14  -10   13      1.32      0.00
   14  -10   14      1.09      0.00
  -14    9   12      0.33      0.00
  -14    9   11      0.70      0.00
  -14    9   10     -0.05      0.00
  -14    9    9      0.44      0.00
  -14    9    8     -3.22      0.00
  -14    9    7     -0.41      0.00
  -14    9    6      0.30      0.00
  -14    9    5     -1.09      0.00
  -14    9    4      0.07      0.00
  -14    9    3     -0.93      0.00
  -14    9    2      1.23      0.00
  -14    9    1      1.76      0.00
  -14    9    0      0.00      0.00
   14   -9    1      0.03      0.00
   14   -9    2      0.06      0.00
   14   -9    3     -0.84      0.00
   14   -9    4     -0.93      0.00
   14   -9    5     -0.02      0.00
   14   -9    6      0.17      0.00
   14   -9    7     -1.67      0.00
   14   -9    8      0.27      0.00
   14   -9    9      0.63      0.00
   14   -9   10      0.59      0.00
   14   -9   11     -0.09      0.00
   14   -9   12     -0.31      0.00
   14   -9   13     -1.49      0.00
   14   -9   14     -0.13      0.00
  -14    8   13      0.09      0.00
  -14    8   12      0.21      0.00
  -14    8   11     -0.51      0.00
  -14    8   10      0.25      0.00
  -14    8    9      0.75      0.00
  -14    8    8      0.19      0.00
  -14    8    7     -0.66      0.00
  -14    8    6     -1.40      0.00
  -14    8    5      1.42      0.00
  -14    8    4     -0.69      0.00
  -14    8    3      0.44      0.00
  -14    8    2     -0.67      0.00
  -14    8    1      0.43      0.00
  -14    8    0      0.69      0.00
   14   -8    1     -0.27      0.00
   14   -8    2      0.57      0.00
   14   -8    3     -0.48      0.00
   14   -8    4      0.39      0.00
   14   -8    5      0.69      0.00
   14   -8    6     -0.89      0.00
   14   -8    7      0.84      0.00
   14   -8    8     -1.49      0.00
   14   -8    9     -0.83      0.00
   14   -8   10      0.66      0.00
   14   -8   11     -0.37      0.00
   14   -8   12      0.66      0.00
   14   -8   13     -0.03      0.00
   14   -8   14     -1.67      0.00
   14   -8   15      0.11      0.00
  -14    7   13     -2.00      0.00
  -14    7   12      0.74      0.00
  -14    7   11     -0.55      0.00
  -14    7   10     -0.26      0.00
  -14    7    9      0.17      0.00
  -14    7    8      0.75      0.00
  -14    7    7     -0.75      0.00
  -14    7    6     -0.22      0.00
  -14    7    5     -1.39      0.00
  -14    7    4      0.74      0.00
  -14    7    3     -0.47      0.00
  -14    7    2     -0.50      0.00
  -14    7    1     -1.05      0.00
  -14    7    0      0.65      0.00
   14   -7    1      1.20      0.00
   14   -7    2      1.28      0.00
   14   -7    3      0.23      0.00
   14   -7    4      0.10      0.00
   14   -7    5     -0.82      0.00
   14   -7    6      1.16      0.00
   14   -7    7      0.23      0.00
   14   -7    8     -0.55      0.00
   14   -7    9      0.36      0.00
   14   -7   10     -0.90      0.00
   14   -7   11     -0.01      0.00
   14   -7   12      0.49      0.00
   14   -7   13      0.36      0.00
   14   -7   14      1.97      0.00
   14   -7   15     -1.42      0.00
  -14    6   14      0.02      0.00
  -14    6   13      3.67      0.00
  -14    6   12     -0.32      0.00
  -14    6   11      0.33      0.00
  -14    6   10      0.62      0.00
  -14    6    9     -0.26      0.00
  -14    6    8      0.46      0.00
  -14    6    7      1.70      0.00
  -14    6    6     -0.99      0.00
  -14    6    5     -0.35      0.00
  -14    6    4     -1.39      0.00
  -14    6    3      0.17      0.00
  -14    6    2      1.41      0.00
  -14    6    1      0.10      0.00
  -14    6    0     -2.15      0.00
   14   -6    1     -0.49      0.00
   14   -6    2     -1.54      0.00
   14   -6    3      1.30      0.00
   14   -6    4      0.61      0.00
   14   -6    5     -0.52      0.00
   14   -6    6      1.24      0.00
   14   -6    7      0.76      0.00
   14   -6    8      0.19      0.00
   14   -6    9      0.02      0.00
   14   -6   10      0.29      0.00
   14   -6   11      0.10      0.00
   14   -6   12     -0.40      0.00
   14   -6   13     -0.46      0.00
   14   -6   14     -1.42      0.00
   14   -6   15      1.47      0.00
  -14    5   14     -0.65      0.00
  -14    5   13     -1.10      0.00
  -14    5   12      0.89      0.00
  -14    5   11      0.63      0.00
  -14    5   10      0.36      0.00
  -14    5    9      0.12      0.00
  -14    5    8      0.46      0.00
  -14    5    7      0.45      0.00
  -14    5    6      1.62      0.00
  -14    5    5      2.18      0.00
  -14    5    4     -1.31      0.00
  -14    5    3     -0.24      0.00
  -14    5    2     -1.21      0.00
  -14    5    1     -0.35      0.00
  -14    5    0      1.28      0.00
   14   -5    1      0.46      0.00
   14   -5    2      0.14      0.00
   14   -5    3     -0.22      0.00
   14   -5    4     -0.75      0.00
   14   -5    5     -0.42      0.00
   14   -5    6     -1.15      0.00
   14   -5    7     -0.46      0.00
   14   -5    8      1.47      0.00
   14   -5    9      0.14      0.00
   14   -5   10     -0.84      0.00
   14   -5   11     -0.11      0.00
   14   -5   12      0.48      0.00
   14   -5   13      1.00      0.00
   14   -5   14      0.05      0.00
  -14    4   14      0.17      0.00
  -14    4   13     -0.78      0.00
  -14    4   12     -0.02      0.00
  -14    4   11      0.85      0.00
  -14    4   10     -1.32      0.00
  -14    4    9     -0.58      0.00
  -14    4    8      1.51      0.00
  -14    4    7     -3.59      0.00
  -14    4    6      1.69      0.00
  -14    4    5     -1.67      0.00
  -14    4    4      1.65      0.00
  -14    4    3     -0.02      0.00
  -14    4    2      0.30      0.00
  -14    4    1      0.38      0.00
  -14    4    0     -0.90      0.00
   14   -4    1     -2.03      0.00
   14   -4    2     -0.17      0.00
   14   -4    3      0.79      0.00
   14   -4    4      1.08      0.00
   14   -4    5      0.49      0.00
   14   -4    6     -0.42      0.00
   14   -4    7      0.76      0.00
   14   -4    8     -1.17      0.00
   14   -4    9      0.53      0.00
   14   -4   10      0.95      0.00
   14   -4   11      0.49      0.00
   14   -4   12     -0.98      0.00
   14   -4   13      0.94      0.00
   14   -4   14     -0.20      0.00
  -14    3   15     -0.19      0.00
  -14    3   14     -0.73      0.00
  -14    3   13     -1.79      0.00
  -14    3   12     -0.09      0.00
  -14    3   11     -0.61      0.00
  -14    3   10      0.11      0.00
  -14    3    9      1.59      0.00
  -14    3    8     -2.90      0.00
  -14    3    7      2.91      0.00
  -14    3    6     -2.33      0.00
  -14    3    5      0.35      0.00
  -14    3    4     -0.10      0.00
  -14    3    3     -0.91      0.00
  -14    3    2     -0.55      0.00
  -14    3    1      0.17      0.00
  -14    3    0      1.03      0.00
   14   -3    1      1.26      0.00
   14   -3    2     -0.94      0.00
   14   -3    3     -1.52      0.00
   14   -3    4      0.49      0.00
   14   -3    5      0.58      0.00
   14   -3    6     -0.24      0.00
   14   -3    7     -1.11      0.00
   14   -3    9     -0.71      0.00
   14   -3   10      0.79      0.00
   14   -3   11     -2.08      0.00
   14   -3   12      0.91      0.00
   14   -3   13     -1.18      0.00
   14   -3   14      1.78      0.00
  -14    2   15      1.77      0.00
  -14    2   14     -0.89      0.00
  -14    2   13      1.68      0.00
  -14    2   12     -1.68      0.00
  -14    2   11     -0.34      0.00
  -14    2   10      0.37      0.00
  -14    2    9     -0.98      0.00
  -14    2    8      1.13      0.00
  -14    2    7      0.59      0.00
  -14    2    6      0.51      0.00
  -14    2    5      0.03      0.00
  -14    2    4      0.76      0.00
  -14    2    3      0.28      0.00
  -14    2    2      0.32      0.00
  -14    2    1     -1.25      0.00
  -14    2    0     -0.45      0.00
   14   -2    1     -0.06      0.00
   14   -2    2      0.12      0.00
   14   -2    3     -0.79      0.00
   14   -2    4     -0.50      0.00
   14   -2    5      0.10      0.00
   14   -2    6      1.31      0.00
   14   -2    7      0.22      0.00
   14   -2    8     -2.32      0.00
   14   -2    9      1.05      0.00
   14   -2   10      0.14      0.00
   14   -2   11      2.08      0.00
   14   -2   12     -0.96      0.00
   14   -2   13      0.15      0.00
  -14    1   14      2.96      0.00
  -14    1   13     -0.26      0.00
  -14    1   12      0.64      0.00
  -14    1   11     -0.77      0.00
  -14    1   10      0.41      0.00
  -14    1    9     -0.88      0.00
  -14    1    8     -0.66      0.00
  -14    1    7     -0.96      0.00
  -14    1    6      0.82      0.00
  -14    1    5      0.84      0.00
  -14    1    4     -0.65      0.00
  -14    1    3      1.23      0.00
  -14    1    2      0.12      0.00
  -14    1    1      1.35      0.00
  -14    1    0     -0.87      0.00
   14   -1    1      0.71      0.00
   14   -1    2      0.64      0.00
   14   -1    3      1.14      0.00
   14   -1    4     -2.18      0.00
   14   -1    5     -0.84      0.00
   14   -1    6     -0.12      0.00
   14   -1    7      0.08      0.00
   14   -1    8      1.19      0.00
   14   -1   10     -1.41      0.00
   14   -1   11      0.33      0.00
   14   -1   12     -0.36      0.00
  -14    0   14     -2.09      0.00
  -14    0   13      0.17      0.00
  -14    0   12      0.42      0.00
  -14    0   11      0.97      0.00
  -14    0   10     -0.46      0.00
  -14    0    9      0.39      0.00
  -14    0    8      0.33      0.00
  -14    0    7     -0.19      0.00
  -14    0    6     -2.46      0.00
  -14    0    5      0.01      0.00
  -14    0    4      1.13      0.00
  -14    0    3     -1.84      0.00
  -14    0    2      0.79      0.00
  -14    0    1      0.85      0.00
   14    0    0      2.05      0.00
   14    0    1     -1.60      0.00
   14    0    2      0.74      0.00
   14    0    3      0.52      0.00
   14    0    4      1.58      0.00
   14    0    5      1.25      0.00
   14    0    6     -1.63      0.00
   14    0    7     -0.11      0.00
   14    0    8      0.41      0.00
   14    0    9     -1.50      0.00
   14    0   10      1.11      0.00
   14    0   11     -0.90      0.00
  -14   -1   14      1.31      0.00
  -14   -1   13     -1.17      0.00
  -14   -1   12     -1.20      0.00
  -14   -1   11     -0.51      0.00
  -14   -1   10      0.08      0.00
  -14   -1    9     -0.90      0.00
  -14   -1    8      0.25      0.00
  -14   -1    7     -0.35      0.00
  -14   -1    6      0.99      0.00
  -14   -1    5     -0.20      0.00
  -14   -1    4     -0.63      0.00
  -14   -1    3      2.36      0.00
  -14   -1    2     -1.83      0.00
  -14   -1    1     -1.18      0.00
   14    1    0     -0.68      0.00
   14    1    1      1.90      0.00
   14    1    2     -0.14      0.00
   14    1    3     -1.42      0.00
   14    1    4      0.15      0.00
   14    1    5     -0.28      0.00
   14    1    6      0.60      0.00
   14    1    7      0.19      0.00
   14    1    8     -0.24      0.00
   14    1    9      1.46      0.00
   14    1   10     -0.91      0.00
  -14   -2   13      2.15      0.00
  -14   -2   12      0.21      0.00
  -14   -2   11      0.41      0.00
  -14   -2   10      0.43      0.00
  -14   -2    9      1.35      0.00
  -14   -2    8      1.00      0.00
  -14   -2    7     -0.02      0.00
  -14   -2    6      0.39      0.00
  -14   -2    5     -1.90      0.00
  -14   -2    4      0.10      0.00
  -14   -2    3     -1.54      0.00
  -14   -2    2      1.48      0.00
  -14   -2    1     -0.24      0.00
   14    2    0     -0.62      0.00
   14    2    1     -1.01      0.00
   14    2    2      0.09      0.00
   14    2    3      0.51      0.00
   14    2    4     -0.38      0.00
   14    2    5     -0.43      0.00
   14    2    6      0.37      0.00
   14    2    7     -0.67      0.00
   14    2    8     -0.53      0.00
   14    2    9      0.00      0.00
  -14   -3   12      1.46      0.00
  -14   -3   11      0.15      0.00
  -14   -3   10     -0.81      0.00
  -14   -3    9     -0.03      0.00
  -14   -3    8     -1.37      0.00
  -14   -3    7      2.21      0.00
  -14   -3    6     -0.23      0.00
  -14   -3    5      1.15      0.00
  -14   -3    4     -0.44      0.00
  -14   -3    3      1.19      0.00
  -14   -3    2     -0.45      0.00
  -14   -3    1      0.45      0.00
   14    3    0     -0.73      0.00
   14    3    1     -0.09      0.00
   14    3    2     -0.36      0.00
   14    3    3     -0.09      0.00
   14    3    4     -0.83      0.00
   14    3    5      0.21      0.00
   14    3    6     -0.33      0.00
   14    3    7      0.09      0.00
  -14   -4   10      0.86      0.00
  -14   -4    9     -0.44      0.00
  -14   -4    8      0.26      0.00
  -14   -4    7     -1.88      0.00
  -14   -4    6      1.47      0.00
  -14   -4    5      0.27      0.00
  -14   -4    4     -0.98      0.00
  -14   -4    3     -1.49      0.00
  -14   -4    2      0.01      0.00
  -14   -4    1      0.41      0.00
   14    4    0      1.21      0.00
   14    4    1     -0.43      0.00
   14    4    2      0.73      0.00
   14    4    3      0.26      0.00
   14    4    4      1.18      0.00
   14    4    5     -0.65      0.00
  -14   -5    8     -0.22      0.00
  -14   -5    7     -0.08      0.00
  -14   -5    6     -1.11      0.00
  -14   -5    5     -0.28      0.00
  -14   -5    4      1.41      0.00
  -14   -5    3      0.67      0.00
  -14   -5    2     -0.35      0.00
  -14   -5    1     -0.87      0.00
   14    5    0     -0.57      0.00
   14    5    1      1.18      0.00
   14    5    2     -1.08      0.00
  -15   13    1     -0.04      0.00
  -15   13    0      1.32      0.00
   15  -13    1     -0.36      0.00
   15  -13    2     -1.21      0.00
   15  -13    3      0.62      0.00
   15  -13    4     -0.10      0.00
   15  -13    5     -1.00      0.00
   15  -13    6     -0.12      0.00
  -15   12    4     -0.01      0.00
  -15   12    3      0.94      0.00
  -15   12    2     -0.85      0.00
  -15   12    1     -0.11      0.00
  -15   12    0      0.65      0.00
   15  -12    1      0.64      0.00
   15  -12    2     -0.40      0.00
   15  -12    3      0.00      0.00
   15  -12    4     -0.10      0.00
   15  -12    5      0.67      0.00
   15  -12    6      0.18      0.00
   15  -12    7      0.05      0.00
   15  -12    8     -0.81      0.00
  -15   11    6     -0.05      0.00
  -15   11    5     -0.84      0.00
  -15   11    4      0.63      0.00
  -15   11    3     -0.08      0.00
  -15   11    2     -0.10      0.00
  -15   11    1     -0.20      0.00
  -15   11    0      0.43      0.00
   15  -11    1     -0.17      0.00
   15  -11    2      1.06      0.00
   15  -11    3     -0.53      0.00
   15  -11    4      0.33      0.00
   15  -11    5     -1.49      0.00
   15  -11    6      0.22      0.00
   15  -11    7      0.43      0.00
   15  -11    8      0.13      0.00
   15  -11    9     -1.16      0.00
   15  -11   10     -0.14      0.00
  -15   10    8     -0.68      0.00
  -15   10    7     -0.36      0.00
  -15   10    6     -0.29      0.00
  -15   10    5      0.67      0.00
  -15   10    4     -1.13      0.00
  -15   10    3      0.63      0.00
  -15   10    2      0.79      0.00
  -15   10    1      0.02      0.00
  -15   10    0     -1.41      0.00
   15  -10    1      0.49      0.00
   15  -10    2     -0.45      0.00
   15  -10    3     -0.16      0.00
   15  -10    4      0.99      0.00
   15  -10    5      0.26      0.00
   15  -10    6     -1.20      0.00
   15  -10    7      0.58      0.00
   15  -10    8     -0.05      0.00
   15  -10    9      0.91      0.00
   15  -10   10     -0.56      0.00
   15  -10   11     -1.05      0.00
  -15    9    9      0.94      0.00
  -15    9    8      0.80      0.00
  -15    9    7     -1.56      0.00
  -15    9    6      0.22      0.00
  -15    9    5     -0.35      0.00
  -15    9    4      0.02      0.00
  -15    9    3     -1.22      0.00
  -15    9    2     -0.40      0.00
  -15    9    1      0.55      0.00
  -15    9    0      0.89      0.00
   15   -9    1      0.82      0.00
   15   -9    2     -0.91      0.00
   15   -9    3      1.02      0.00
   15   -9    4     -0.87      0.00
   15   -9    5      0.20      0.00
   15   -9    6      0.58      0.00
   15   -9    7     -1.73      0.00
   15   -9    8      0.45      0.00
   15   -9    9     -0.10      0.00
   15   -9   10      0.74      0.00
   15   -9   11      0.74      0.00
  -15    8   10     -0.87      0.00
  -15    8    9      0.61      0.00
  -15    8    8      0.15      0.00
  -15    8    7      1.03      0.00
  -15    8    6     -1.44      0.00
  -15    8    5      0.06      0.00
  -15    8    4      0.85      0.00
  -15    8    3     -0.12      0.00
  -15    8    2      0.29      0.00
  -15    8    1     -0.95      0.00
  -15    8    0      0.00      0.00
   15   -8    1     -0.39      0.00
   15   -8    2      1.03      0.00
   15   -8    3     -0.19      0.00
   15   -8    4      0.23      0.00
   15   -8    5      1.36      0.00
   15   -8    6      0.85      0.00
   15   -8    7      0.49      0.00
   15   -8    8     -0.96      0.00
   15   -8    9     -0.08      0.00
   15   -8   10     -0.80      0.00
   15   -8   11      1.33      0.00
   15   -8   12      0.52      0.00
  -15    7   11     -0.40      0.00
  -15    7   10      0.52      0.00
  -15    7    9     -0.47      0.00
  -15    7    8      0.99      0.00
  -15    7    7      0.73      0.00
  -15    7    6      0.62      0.00
  -15    7    5     -1.15      0.00
  -15    7    4     -0.74      0.00
  -15    7    3      0.61      0.00
  -15    7    2     -1.10      0.00
  -15    7    1      0.12      0.00
  -15    7    0     -0.40      0.00
   15   -7    1     -0.95      0.00
   15   -7    2      1.39      0.00
   15   -7    3     -0.95      0.00
   15   -7    4     -0.50      0.00
   15   -7    5     -0.47      0.00
   15   -7    6     -0.17      0.00
   15   -7    7      0.95      0.00
   15   -7    8      2.62      0.00
   15   -7    9     -1.74      0.00
   15   -7   10      0.58      0.00
   15   -7   11     -1.37      0.00
   15   -7   12     -0.07      0.00
  -15    6   11      0.35      0.00
  -15    6   10     -0.22      0.00
  -15    6    9      0.13      0.00
  -15    6    8     -0.09      0.00
  -15    6    7      0.77      0.00
  -15    6    6      1.89      0.00
  -15    6    5      0.11      0.00
  -15    6    4      0.73      0.00
  -15    6    3     -0.69      0.00
  -15    6    2      0.12      0.00
  -15    6    1      0.64      0.00
  -15    6    0     -1.30      0.00
   15   -6    1      0.17      0.00
   15   -6    2     -1.78      0.00
   15   -6    3      1.02      0.00
   15   -6    4     -0.15      0.00
   15   -6    5     -0.05      0.00
   15   -6    6     -1.78      0.00
   15   -6    7      0.56      0.00
   15   -6    8     -1.51      0.00
   15   -6    9      2.09      0.00
   15   -6   10     -0.52      0.00
   15   -6   11      0.26      0.00
   15   -6   12      0.69      0.00
  -15    5   12     -0.35      0.00
  -15    5   11     -0.28      0.00
  -15    5   10     -0.43      0.00
  -15    5    9     -0.05      0.00
  -15    5    8     -2.54      0.00
  -15    5    7      0.50      0.00
  -15    5    6     -1.85      0.00
  -15    5    5      1.32      0.00
  -15    5    4      0.15      0.00
  -15    5    3      0.20      0.00
  -15    5    2      1.59      0.00
  -15    5    1     -1.01      0.00
  -15    5    0      1.34      0.00
   15   -5    1     -0.86      0.00
   15   -5    2      0.89      0.00
   15   -5    3     -0.51      0.00
   15   -5    4      0.73      0.00
   15   -5    5     -0.74      0.00
   15   -5    6      1.34      0.00
   15   -5    7     -1.25      0.00
   15   -5    8      0.26      0.00
   15   -5    9      0.60      0.00
   15   -5   10      0.28      0.00
   15   -5   11     -1.18      0.00
  -15    4   12     -0.73      0.00
  -15    4   11     -0.01      0.00
  -15    4   10      0.90      0.00
  -15    4    9     -1.56      0.00
  -15    4    8      1.43      0.00
  -15    4    7     -0.94      0.00
  -15    4    6     -0.04      0.00
  -15    4    5     -0.17      0.00
  -15    4    4     -1.55      0.00
  -15    4    3      0.41      0.00
  -15    4    2     -1.63      0.00
  -15    4    1      1.41      0.00
  -15    4    0      0.38      0.00
   15   -4    1      0.39      0.00
   15   -4    2     -1.64      0.00
   15   -4    3      0.45      0.00
   15   -4    4      0.64      0.00
   15   -4    5      0.19      0.00
   15   -4    6     -0.11      0.00
   15   -4    7     -0.68      0.00
   15   -4    8     -0.02      0.00
   15   -4    9     -0.47      0.00
   15   -4   10     -0.07      0.00
   15   -4   11      1.77      0.00
  -15    3   12     -0.58      0.00
  -15    3   11     -0.20      0.00
  -15    3   10      0.33      0.00
  -15    3    9      0.50      0.00
  -15    3    8      0.31      0.00
  -15    3    7     -1.68      0.00
  -15    3    6      1.41      0.00
  -15    3    5     -0.39      0.00
  -15    3    4      1.17      0.00
  -15    3    3      0.20      0.00
  -15    3    2     -0.26      0.00
  -15    3    1     -1.17      0.00
  -15    3    0      0.15      0.00
   15   -3    1      0.84      0.00
   15   -3    2      0.32      0.00
   15   -3    3     -1.11      0.00
   15   -3    4     -1.26      0.00
   15   -3    5      1.48      0.00
   15   -3    6     -0.18      0.00
   15   -3    7      0.73      0.00
   15   -3    8     -0.75      0.00
   15   -3    9     -0.23      0.00
   15   -3   10      0.60      0.00
   15   -3   11     -0.84      0.00
  -15    2   12      0.41      0.00
  -15    2   11     -0.24      0.00
  -15    2   10     -1.00      0.00
  -15    2    9      1.04      0.00
  -15    2    8     -0.58      0.00
  -15    2    7      1.51      0.00
  -15    2    6     -0.43      0.00
  -15    2    5     -0.19      0.00
  -15    2    4     -0.62      0.00
  -15    2    3      0.94      0.00
  -15    2    2      1.03      0.00
  -15    2    1     -0.21      0.00
  -15    2    0     -0.71      0.00
   15   -2    1      0.59      0.00
   15   -2    2      0.88      0.00
   15   -2    3     -0.38      0.00
   15   -2    4      0.15      0.00
   15   -2    5     -1.60      0.00
   15   -2    6      0.05      0.00
   15   -2    7      0.72      0.00
   15   -2    8     -0.20      0.00
   15   -2    9     -1.24      0.00
   15   -2   10      0.09      0.00
  -15    1   11      0.09      0.00
  -15    1   10      0.09      0.00
  -15    1    9      0.20      0.00
  -15    1    8     -0.72      0.00
  -15    1    7     -1.79      0.00
  -15    1    6      0.93      0.00
  -15    1    5      0.52      0.00
  -15    1    4      0.30      0.00
  -15    1    3     -1.55      0.00
  -15    1    2      1.61      0.00
  -15    1    1      1.11      0.00
  -15    1    0      0.07      0.00
   15   -1    1     -0.11      0.00
   15   -1    2      0.03      0.00
   15   -1    3      1.41      0.00
   15   -1    4      1.08      0.00
   15   -1    5     -1.03      0.00
   15   -1    6     -0.14      0.00
   15   -1    7     -0.57      0.00
   15   -1    8      0.30      0.00
   15   -1    9      0.87      0.00
  -15    0   11      0.23      0.00
  -15    0   10     -0.07      0.00
  -15    0    9      0.42      0.00
  -15    0    8      1.40      0.00
  -15    0    7      0.82      0.00
  -15    0    6     -1.81      0.00
  -15    0    5     -0.01      0.00
  -15    0    4      0.30      0.00
  -15    0    3      0.02      0.00
  -15    0    2     -2.30      0.00
  -15    0    1     -1.03      0.00
   15    0    0      1.33      0.00
   15    0    1      0.35      0.00
   15    0    2     -0.98      0.00
   15    0    3     -0.36      0.00
   15    0    4     -0.16      0.00
   15    0    5      2.20      0.00
   15    0    6      0.29      0.00
   15    0    7      0.08      0.00
   15    0    8      0.09      0.00
  -15   -1   10      0.47      0.00
  -15   -1    9     -0.10      0.00
  -15   -1    8     -0.70      0.00
  -15   -1    7      1.29      0.00
  -15   -1    6     -0.42      0.00
  -15   -1    5     -0.35      0.00
  -15   -1    4     -0.41      0.00
  -15   -1    3      0.99      0.00
  -15   -1    2      0.81      0.00
  -15   -1    1     -0.40      0.00
   15    1    0     -2.71      0.00
   15    1    1     -0.22      0.00
   15    1    2      1.52      0.00
   15    1    3     -0.85      0.00
   15    1    4     -1.15      0.00
   15    1    5     -0.81      0.00
   15    1    6     -0.34      0.00
  -15   -2    8      1.62      0.00
  -15   -2    7     -0.56      0.00
  -15   -2    6      1.48      0.00
  -15   -2    5      0.30      0.00
  -15   -2    4     -0.36      0.00
  -15   -2    3     -0.89      0.00
  -15   -2    2      0.57      0.00
  -15   -2    1      0.85      0.00
   15    2    0      0.69      0.00
   15    2    1     -1.29      0.00
   15    2    2     -0.47      0.00
   15    2    3      0.58      0.00
   15    2    4      0.03      0.00
  -15   -3    6     -0.52      0.00
  -15   -3    5     -0.46      0.00
  -15   -3    4      0.28      0.00
  -15   -3    3     -0.63      0.00
  -15   -3    2     -0.28      0.00
  -15   -3    1      0.88      0.00
   15    3    0      0.36      0.00
   15    3    1      0.47      0.00
  -16   10    3     -0.44      0.00
  -16   10    2      0.63      0.00
  -16   10    1      0.15      0.00
  -16   10    0      0.39      0.00
   16  -10    1     -1.95      0.00
   16  -10    2      1.42      0.00
   16  -10    3     -1.33      0.00
   16  -10    4      1.24      0.00
   16  -10    5     -0.16      0.00
  -16    9    4      0.24      0.00
  -16    9    3      0.32      0.00
  -16    9    2     -1.14      0.00
  -16    9    1      0.24      0.00
  -16    9    0     -0.49      0.00
   16   -9    1      1.45      0.00
   16   -9    2     -0.19      0.00
   16   -9    3      0.03      0.00
   16   -9    4      0.47      0.00
   16   -9    5     -0.17      0.00
   16   -9    6      0.26      0.00
   16   -9    7      0.70      0.00
  -16    8    6     -0.29      0.00
  -16    8    5     -0.58      0.00
  -16    8    4      0.03      0.00
  -16    8    3      0.24      0.00
  -16    8    2      0.58      0.00
  -16    8    1     -0.11      0.00
  -16    8    0     -0.48      0.00
   16   -8    1     -0.15      0.00
   16   -8    2     -2.26      0.00
   16   -8    3      1.61      0.00
   16   -8    4     -1.41      0.00
   16   -8    5     -0.47      0.00
   16   -8    6      1.58      0.00
   16   -8    7      0.59      0.00
  -16    7    7      0.71      0.00
  -16    7    6      0.49      0.00
  -16    7    5      0.53      0.00
  -16    7    4     -0.56      0.00
  -16    7    3     -0.23      0.00
  -16    7    2     -0.16      0.00
  -16    7    1     -1.05      0.00
  -16    7    0      0.81      0.00
   16   -7    1     -0.88      0.00
   16   -7    2      1.69      0.00
   16   -7    3     -1.10      0.00
   16   -7    4      0.56      0.00
   16   -7    5     -1.30      0.00
   16   -7    6     -2.16      0.00
   16   -7    7     -0.44      0.00
   16   -7    8      1.54      0.00
  -16    6    7     -1.27      0.00
  -16    6    6      0.90      0.00
  -16    6    5     -0.20      0.00
  -16    6    4      1.04      0.00
  -16    6    3      0.66      0.00
  -16    6    2      0.69      0.00
  -16    6    1      1.48      0.00
  -16    6    0     -0.78      0.00
   16   -6    1     -0.04      0.00
   16   -6    2     -0.72      0.00
   16   -6    3      0.08      0.00
   16   -6    4      0.52      0.00
   16   -6    5      1.77      0.00
   16   -6    6      0.05      0.00
   16   -6    7     -1.08      0.00
   16   -6    8     -0.37      0.00
  -16    5    8     -0.14      0.00
  -16    5    7     -0.75      0.00
  -16    5    6     -1.42      0.00
  -16    5    5     -0.20      0.00
  -16    5    4     -0.89      0.00
  -16    5    3     -1.25      0.00
  -16    5    2     -0.30      0.00
  -16    5    1      0.84      0.00
  -16    5    0      0.85      0.00
   16   -5    1      0.98      0.00
   16   -5    2     -0.18      0.00
   16   -5    3      0.18      0.00
   16   -5    4      0.01      0.00
   16   -5    5     -0.84      0.00
   16   -5    6     -0.36      0.00
   16   -5    7      1.26      0.00
  -16    4    8     -0.78      0.00
  -16    4    7      1.63      0.00
  -16    4    6      0.13      0.00
  -16    4    5      0.39      0.00
  -16    4    4      1.35      0.00
  -16    4    3     -0.31      0.00
  -16    4    2     -0.43      0.00
  -16    4    1     -1.63      0.00
  -16    4    0      0.01      0.00
   16   -4    1      0.01      0.00
   16   -4    2      0.05      0.00
   16   -4    3     -0.70      0.00
   16   -4    4      0.38      0.00
   16   -4    5      1.75      0.00
   16   -4    6      0.40      0.00
   16   -4    7     -1.67      0.00
  -16    3    7     -0.34      0.00
  -16    3    6     -0.98      0.00
  -16    3    5     -0.57      0.00
  -16    3    4     -0.03      0.00
  -16    3    3      1.03      0.00
  -16    3    2      0.49      0.00
  -16    3    1      0.15      0.00
  -16    3    0      0.57      0.00
   16   -3    1     -0.15      0.00
   16   -3    2      0.55      0.00
   16   -3    3     -0.13      0.00
   16   -3    4     -1.89      0.00
   16   -3    5     -1.26      0.00
   16   -3    6      1.00      0.00
  -16    2    7      0.97      0.00
  -16    2    6      1.43      0.00
  -16    2    5      0.82      0.00
  -16    2    4     -1.59      0.00
  -16    2    3      0.73      0.00
  -16    2    2     -0.30      0.00
  -16    2    1      0.64      0.00
  -16    2    0     -1.19      0.00
   16   -2    1     -0.19      0.00
   16   -2    2      1.54      0.00
   16   -2    3      0.53      0.00
   16   -2    4      0.78      0.00
   16   -2    5      0.57      0.00
  -16    1    6     -0.94      0.00
  -16    1    5     -0.35      0.00
  -16    1    4      1.78      0.00
  -16    1    3     -1.56      0.00
  -16    1    2     -0.54      0.00
  -16    1    1      1.14      0.00
  -16    1    0      0.60      0.00
   16   -1    1     -0.08      0.00
   16   -1    2     -1.40      0.00
   16   -1    3      0.66      0.00
  -16    0    4     -0.82      0.00
  -16    0    3      1.21      0.00
  -16    0    2     -0.11      0.00
  -16    0    1     -3.06      0.00
   16    0    0     -0.44      0.00
    3    0    0     -8.37      0.00
    1    5    0     -0.66      0.00
  -16   11    0     -0.07      0.00
  -14   15    0      1.38      0.00
    2   18    0      1.17      0.00
   -1   19    0      0.21      0.00
    9  -19    1     -0.60      0.00
   11  -18    1     -0.93      0.00
   -4  -17    1      0.95      0.00
   -8  -14    1     -0.93      0.00
   -9  -13    1      0.09      0.00
   16  -11    1      0.22      0.00
    0   -2    1     29.13      0.00
    2   -2    1    -11.39      0.00
    0   -1    1     -0.38      0.00
   -1    0    1    -73.16      0.00
    1    0    1    107.77      0.00
   16    0    1      0.26      0.00
    0    2    1    -28.74      0.00
   12    9    1     -0.69      0.00
  -16   11    1     -0.24      0.00
  -13   16    1     -1.63      0.00
  -12   17    1     -1.13      0.00
   -8   19    1      0.03      0.00
    0  -19    2     -1.20      0.00
    9  -19    2      1.00      0.00
   11  -18    2      1.67      0.00
   -7  -15    2      0.58      0.00
   -8  -14    2      0.47      0.00
   -9  -13    2      0.85      0.00
  -10  -12    2      1.79      0.00
   16  -11    2     -0.21      0.00
   -4   -8    2      1.14      0.00
  -14   -6    2      0.70      0.00
   -2   -1    2     57.76      0.00
    0   -1    2    -93.68      0.00
   -1    0    2    -63.61      0.00
    0    0    2     31.35      0.00
   16    0    2     -0.02      0.00
    0    1    2     32.32      0.00
   15    3    2      0.55      0.00
    0    4    2      1.47      0.00
  -15   13    2      0.94      0.00
    3   17    2      0.35      0.00
  -10   18    2     -0.65      0.00
    1   18    2     -0.71      0.00
   -7   19    2      0.04      0.00
   -2   19    2     -1.46      0.00
   -7  -15    3      0.22      0.00
  -10  -12    3     -0.32      0.00
   11  -12    3     -1.13      0.00
   16  -11    3      1.26      0.00
  -14   -6    3      0.00      0.00
    4   -1    3     13.18      0.00
    0    0    3    -83.97      0.00
   14    5    3      1.24      0.00
   13    7    3     -1.04      0.00
   11   10    3     -0.56      0.00
    6   15    3      0.38      0.00
    2   16    3     -0.87      0.00
    2   17    3      0.77      0.00
   -6   19    3     -0.29      0.00
   -5   19    3      0.50      0.00
   -4   19    3      0.77      0.00
   -7  -15    4      0.51      0.00
  -10  -12    4      0.80      0.00
   16  -11    4     -1.18      0.00
   11  -10    4     -1.24      0.00
  -14   -6    4     -0.58      0.00
   -4   -2    4     -2.46      0.00
   16   -1    4      0.59      0.00
    1    1    4      0.31      0.00
    9    1    4     -2.99      0.00
  -16   10    4      0.19      0.00
    3   11    4     -0.56      0.00
    9   12    4      0.66      0.00
    8   13    4      0.69      0.00
  -14   14    4     -0.03      0.00
  -11   17    4     -0.81      0.00
   -9   18    4      0.29      0.00
    0   18    4     -0.09      0.00
  -10  -12    5     -0.88      0.00
   11   -5    5      0.60      0.00
  -16    0    5     -0.99      0.00
    4    2    5     -3.21      0.00
   15    2    5      0.42      0.00
   12    8    5      0.91      0.00
  -16    9    5      0.25      0.00
  -15   12    5      0.35      0.00
  -13   15    5     -0.31      0.00
  -12   16    5      0.62      0.00
   -1   18    5      1.06      0.00
   14  -15    6     -1.15      0.00
  -10  -12    6     -0.05      0.00
   -9  -12    6     -0.84      0.00
   16  -10    6      0.20      0.00
   16   -2    6     -1.03      0.00
   14    4    6      0.74      0.00
   13    6    6     -0.24      0.00
   11    9    6      0.38      0.00
  -10   17    6      1.04      0.00
   -7   18    6     -0.01      0.00
   -2   18    6     -0.58      0.00
   11  -18    7     -0.79      0.00
   -7  -15    7     -1.78      0.00
   14  -15    7      0.91      0.00
   15  -13    7     -0.17      0.00
  -10  -12    7     -1.16      0.00
  -15   -3    7      0.31      0.00
   16   -3    7      0.77      0.00
  -16    1    7     -1.83      0.00
   15    1    7     -0.52      0.00
   10   10    7      0.03      0.00
  -15   11    7      0.28      0.00
  -14   13    7     -0.58      0.00
    7   13    7      0.77      0.00
  -11   16    7     -0.84      0.00
    9  -19    8     -1.68      0.00
   11  -18    8     -0.88      0.00
   12  -17    8      0.40      0.00
   13  -16    8     -1.31      0.00
   -7  -15    8      1.95      0.00
   -8  -14    8     -1.59      0.00
   -9  -13    8      1.46      0.00
   16   -8    8      0.18      0.00
   16   -5    8     -0.61      0.00
    4   -3    8      2.30      0.00
   14   -3    8      1.68      0.00
  -16    2    8     -0.60      0.00
  -16    3    8      1.30      0.00
   14    3    8     -0.01      0.00
   13    5    8      2.18      0.00
  -16    6    8     -0.46      0.00
    2   16    8      0.47      0.00
    0  -19    9      0.35      0.00
   12  -17    9      0.56      0.00
   -8  -14    9      0.75      0.00
   15  -12    9     -0.37      0.00
  -12   -9    9      1.84      0.00
  -14   -5    9      0.07      0.00
  -15   -2    9     -0.78      0.00
   14   -1    9     -0.71      0.00
    1   16    9      0.95      0.00
   -7   17    9     -1.44      0.00
   -2   17    9     -0.35      0.00
   -4  -17   10      0.30      0.00
   14  -14   10     -1.06      0.00
   13    4   10     -2.51      0.00
    8    8   10      0.61      0.00
  -14   11   10      0.82      0.00
    0   16   10      0.54      0.00
    8  -19   11      0.80      0.00
   -2  -18   11      0.72      0.00
   10  -18   11     -0.86      0.00
  -11  -10   11      0.50      0.00
  -14   -4   11     -0.28      0.00
   14    1   11      0.54      0.00
  -13   12   11      0.12      0.00
    5   13   11      1.32      0.00
    0   14   11      0.13      0.00
   -7   16   11      1.09      0.00
    7  -19   12     -0.72      0.00
   11  -17   12      0.92      0.00
   -5  -16   12     -0.63      0.00
   12  -16   12      0.40      0.00
  -10  -11   12      0.28      0.00
   15   -9   12     -0.10      0.00
  -12   -8   12      0.72      0.00
  -13   -6   12      0.50      0.00
   15   -5   12     -0.19      0.00
   14    0   12      0.80      0.00
  -15    1   12      0.63      0.00
    3    3   12     -1.74      0.00
  -15    6   12      0.58      0.00
    8   10   12     -0.64      0.00
    2  -19   13      0.50      0.00
    6  -19   13     -0.08      0.00
   -1  -18   13      1.19      0.00
    9  -18   13      0.61      0.00
   -6  -15   13     -0.44      0.00
   -9  -12   13     -0.39      0.00
   14  -12   13      0.03      0.00
   14   -1   13      0.47      0.00
    1    2   13      1.26      0.00
   10    7   13     -0.77      0.00
    5   12   13     -1.67      0.00
  -11   13   13     -1.17      0.00
   -7   15   13      0.04      0.00
   -1   15   13      0.40      0.00
   10  -17   14      0.22      0.00
   12  -15   14     -0.41      0.00
   14  -11   14      0.22      0.00
  -11   -9   14     -1.46      0.00
  -12   -7   14     -0.68      0.00
  -13   -5   14      0.82      0.00
    1    2   14     -2.39      0.00
   12    3   14     -0.42      0.00
  -13    5   14      0.51      0.00
  -14    7   14      0.71      0.00
  -12   11   14     -0.54      0.00
    4   11   14      0.78      0.00
  -10   13   14     -1.47      0.00
    0  -18   15      0.28      0.00
   -4  -16   15      1.89      0.00
  -10  -10   15      0.21      0.00
   14   -9   15      0.88      0.00
   14   -5   15     -0.29      0.00
  -13   -4   15      0.38      0.00
   13   -3   15      0.32      0.00
  -14    0   15     -0.24      0.00
  -14    1   15     -1.69      0.00
    1    2   15     -4.32      0.00
   12    2   15     -1.34      0.00
  -14    4   15      0.68      0.00
   11    4   15     -1.50      0.00
  -14    5   15     -2.04      0.00
    9    7   15     -0.71      0.00
    6   10   15      0.28      0.00
   -9   13   15     -0.09      0.00
    6  -18   16     -0.08      0.00
   10  -16   16      0.17      0.00
   11  -15   16     -0.36      0.00
   -6  -14   16      0.35      0.00
   -8  -12   16      0.08      0.00
  -13   -3   16      0.19      0.00
    4   -2   16     -2.45      0.00
   13   -2   16      0.02      0.00
   12    1   16     -1.12      0.00
  -13    7   16      0.78      0.00
  -12    9   16     -0.91      0.00
    3   11   16     -0.97      0.00
    4   11   16     -1.51      0.00
    0   13   16      0.04      0.00
    8  -17   17      1.92      0.00
   13  -10   17      0.14      0.00
  -11   -7   17      0.27      0.00
   13   -4   17      1.50      0.00
  -13   -1   17      1.05      0.00
   11    2   17      0.64      0.00
   10    4   17      1.52      0.00
  -13    5   17      0.25      0.00
  -12    8   17     -0.47      0.00
    3   11   17      0.14      0.00
   -8   12   17     -0.49      0.00
    0   12   17      0.55      0.00
    1   12   17     -0.68      0.00
   -5   13   17     -0.70      0.00
   -4   13   17      0.57      0.00
   -3   13   17      1.19      0.00
   -2  -16   18     -0.06      0.00
   -5  -14   18     -1.57      0.00
   -8  -11   18     -0.11      0.00
  -10   -8   18      1.40      0.00
   12   -2   18     -0.53      0.00
   11    1   18     -0.69      0.00
   10    3   18      0.61      0.00
   -1    5   18      0.31      0.00
  -10    6   18     -1.08      0.00
    7    7   18      0.48      0.00
    6    8   18      0.71      0.00
    1   11   18      1.29      0.00
   -6   12   18     -0.39      0.00
   -1   12   18      0.77      0.00
    3  -17   19     -0.41      0.00
    4  -17   19      0.14      0.00
   -1  -16   19      0.72      0.00
   -3  -15   19     -0.54      0.00
    9  -15   19     -0.37      0.00
   10  -14   19      0.50      0.00
   -9   -9   19      0.03      0.00
   12   -9   19      0.70      0.00
  -11   -5   19      0.25      0.00
   12   -4   19      0.73      0.00
  -12   -1   19      0.86      0.00
   -3    3   19     -0.70      0.00
  -12    4   19     -0.03      0.00
   -1    5   19     -0.87      0.00
    7    6   19      2.09      0.00
  -11    7   19     -0.49      0.00
    1    8   19     -1.27      0.00
    5    8   19      0.54      0.00
    2   10   19     -0.54      0.00
    6  -16   20     -0.83      0.00
   -2  -15   20      0.07      0.00
    8  -15   20     -0.20      0.00
    9  -14   20      1.40      0.00
   -5  -13   20     -0.54      0.00
   -6  -12   20      0.80      0.00
   -7  -11   20      0.72      0.00
   -9   -8   20      0.36      0.00
   -3   -7   20      0.80      0.00
  -10   -6   20      2.24      0.00
  -11    5   20      0.88      0.00
    1    5   20     -0.06      0.00
    5    5   20      0.80      0.00
    6    5   20     -0.46      0.00
    7    5   20     -0.37      0.00
    6    6   20      0.25      0.00
  -10    7   20     -2.18      0.00
    4    8   20     -0.90      0.00
    0   10   20      0.54      0.00
    8  -14   21     -1.02      0.00
   -4  -13   21     -0.26      0.00
    9  -13   21      0.35      0.00
   -7  -10   21      0.13      0.00
    8   -8   21     -0.27      0.00
   -9   -7   21      1.27      0.00
   11   -7   21      0.97      0.00
  -11    0   21      0.31      0.00
  -11    1   21     -0.33      0.00
    9    1   21     -0.13      0.00
   -1    3   21     -0.51      0.00
    5    4   21     -0.92      0.00
    6    4   21      0.85      0.00
    7    4   21      1.13      0.00
    5    5   21     -0.46      0.00
    6    5   21      0.30      0.00
   -9    7   21      1.13      0.00
    4    7   21      0.37      0.00
   -8    8   21     -0.33      0.00
    2  -15   22      0.28      0.00
    3  -15   22     -0.98      0.00
    4  -15   22      1.01      0.00
   -3  -13   22     -0.84      0.00
    8  -13   22     -1.00      0.00
   -7   -9   22     -0.07      0.00
   10   -9   22     -0.79      0.00
   10   -8   22      0.91      0.00
   10   -5   22     -1.08      0.00
   10   -4   22     -0.82      0.00
  -10   -2   22     -1.54      0.00
    6   -1   22      1.33      0.00
    9   -1   22     -0.72      0.00
  -10    2   22     -1.52      0.00
   -1    4   22      0.91      0.00
    4    4   22     -0.80      0.00
    5    4   22      0.17      0.00
    6    4   22     -1.73      0.00
   -9    5   22      0.15      0.00
    4    5   22      0.23      0.00
    5    5   22      0.17      0.00
    4    6   22     -0.18      0.00
   -6    8   22     -1.40      0.00
    1  -14   23      0.92      0.00
    4  -14   23      1.56      0.00
    9   -9   23      0.62      0.00
   -7   -8   23     -0.11      0.00
   -8   -6   23     -1.81      0.00
    9   -4   23     -0.31      0.00
   -9   -3   23     -1.47      0.00
    0    2   23     -0.08      0.00
   -6    3   23      0.19      0.00
    0    3   23      1.75      0.00
    4    4   23      0.20      0.00
   -2    5   23     -0.13      0.00
   -7    6   23      1.30      0.00
    0    7   23     -0.12      0.00
    1  -13   24      0.41      0.00
    4  -13   24      0.55      0.00
   -2  -12   24      0.63      0.00
    6  -12   24      0.66      0.00
    7  -11   24      1.26      0.00
    8   -9   24     -0.03      0.00
   -6   -8   24     -0.28      0.00
   -8   -4   24     -0.11      0.00
    7   -1   24     -1.25      0.00
   -5    0   24     -0.21      0.00
    3    0   24      0.27      0.00
    6    1   24     -0.58      0.00
   -8    2   24     -1.99      0.00
   -5    2   24      1.96      0.00
   -4    2   24     -0.65      0.00
    2    2   24     -0.20      0.00
    3    2   24      2.17      0.00
    4    2   24     -0.01      0.00
   -1    3   24     -0.03      0.00
    2    3   24      0.84      0.00
    3    3   24     -1.51      0.00
    4    3   24     -0.58      0.00
   -7    4   24      1.00      0.00
    3    4   24      0.70      0.00
   -6    5   24     -0.49      0.00
    2    5   24      0.37      0.00
   -4    6   24     -0.16      0.00
    0    6   24      1.13      0.00
    1  -12   25      1.91      0.00
    2  -12   25      0.04      0.00
    3  -12   25     -0.12      0.00
    5  -11   25     -0.26      0.00
   -3  -10   25     -0.95      0.00
    6  -10   25      0.86      0.00
   -4   -9   25     -0.07      0.00
    7   -8   25      0.42      0.00
    7   -7   25     -1.23      0.00
   -6   -6   25      0.84      0.00
    7   -4   25      0.56      0.00
   -7   -3   25     -1.31      0.00
   -7   -1   25     -0.66      0.00
    6   -1   25     -0.94      0.00
   -7    0   25     -1.48      0.00
    1    0   25      0.70      0.00
   -7    1   25      2.37      0.00
   -2    1   25      0.60      0.00
    0    1   25     -0.93      0.00
    1    1   25      1.09      0.00
    2    1   25      0.10      0.00
    3    1   25     -1.74      0.00
    4    1   25     -0.82      0.00
    1    2   25     -1.10      0.00
    2    2   25      0.36      0.00
    3    2   25      0.88      0.00
   -6    3   25      1.25      0.00
   -1    3   25     -0.54      0.00
    1    3   25      0.57      0.00
    2    3   25      0.04      0.00
   -5    4   25     -0.36      0.00
   -2    4   25     -1.26      0.00
    1    4   25     -0.25      0.00
    0  -10   26      1.00      0.00
   -2   -9   26      0.31      0.00
   -4   -7   26      0.72      0.00
   -5   -5   26     -0.14      0.00
    5   -2   26      0.42      0.00
    0    0   26     -0.24      0.00
    1    0   26     -0.30      0.00
    2    0   26      1.14      0.00
    3    0   26      0.85      0.00
   -5    1   26     -0.02      0.00
    0    1   26      0.08      0.00
    1    1   26     -0.62      0.00
    2    1   26      0.74      0.00
   -4    2   26     -0.60      0.00
   -1    2   26      0.33      0.00
    0    2   26      0.02      0.00
    1    2   26     -0.16      0.00
   -2    3   26      0.04      0.00
   -1    3   26     -1.10      0.00
    0   -8   27     -0.72      0.00
    1   -8   27      1.45      0.00
    2   -8   27     -0.60      0.00
   -2   -7   27     -1.24      0.00
    3   -7   27     -0.06      0.00
   -3   -5   27      0.27      0.00
    3   -3   27     -0.78      0.00
   -3   -2   27      0.06      0.00
   -3   -1   27      0.75      0.00
   -2   -1   27     -0.88      0.00
   -1   -1   27     -0.15      0.00
    0   -1   27      0.36      0.00
    1   -1   27     -0.25      0.00
    2   -1   27      1.12      0.00
   -2    0   27     -0.46      0.00
   -1    0   27     -0.93      0.00
    0    0   27      0.65      0.00
    1    0   27     -0.27      0.00
    0    0    0      0.00      0.00
# SQUEEZE RESULTS (Version = 280416)
# Note: Data are Listed for all Voids in the P1 Unit Cell
# i.e. Centre of Gravity, Solvent Accessible Volume,
# Recovered number of Electrons in the Void and
# Details about the Squeezed Material
loop_
  _platon_squeeze_void_nr
  _platon_squeeze_void_average_x
  _platon_squeeze_void_average_y
  _platon_squeeze_void_average_z
  _platon_squeeze_void_volume
  _platon_squeeze_void_count_electrons
  _platon_squeeze_void_content
   1  0.001  0.500  0.500       936       218 ' '
   2  0.351  0.888  0.282        15         0 ' '
   3  0.648  0.112  0.718        15         0 ' '
# Missing Reflections Below sin(th)/lambda = 0.25
loop_
  _platon_missing_refln_index_h
  _platon_missing_refln_index_k
  _platon_missing_refln_index_l
  _platon_missing_refln_theta
    3    0    0     4.950
    1    5    0     7.732
    0   -2    1     2.795
    2   -2    1     3.707
    0   -1    1     1.544
   -1    0    1     1.866
    1    0    1     1.968
    0    2    1     3.183
   -2   -1    2     4.179
    0   -1    2     2.165
   -1    0    2     2.483
    0    0    2     1.960
    0    1    2     2.646
    0    4    2     6.376
    4   -1    3     7.044
    0    0    3     2.941
   -4   -2    4     8.380
    1    1    4     4.957
    4    2    5     9.839
    4   -3    8    10.015
_platon_squeeze_void_probe_radius                  1.20
_platon_squeeze_details
)
TITL mx5350_a.res in P-1
CELL   12.8962   15.3330   21.2480    101.53     90.07    106.29
SPGR P-1
# Solvent Accessible Volume =       963
# Note: Atoms in Void as Cxxx and Qxxx all others
C101 0.781 0.712 0.222 !       2.72 eA-3
C102 0.277 0.598 0.406 !       2.54 eA-3
C103 0.781 0.584 0.230 !       2.49 eA-3
C104 0.811 0.500 0.144 !       2.23 eA-3
C105 0.797 0.558 0.185 !       2.18 eA-3
C106 0.747 0.701 0.173 !       2.07 eA-3
C107 0.748 0.638 0.108 !       2.06 eA-3
Q108 0.703 0.870 0.062 !       2.04 eA-3
C109 0.263 0.543 0.467 !       2.04 eA-3
C110 0.746 0.282 0.385 !       1.96 eA-3
C111 0.717 0.317 0.456 !       1.79 eA-3
C112 0.767 0.352 0.432 !       1.77 eA-3
C113 0.793 0.651 0.169 !       1.75 eA-3
C114 0.775 0.462 0.503 !       1.71 eA-3
C115 0.609 0.339 0.457 !       1.69 eA-3
C116 0.770 0.532 0.130 !       1.66 eA-3
C117 0.295 0.576 0.487 !       1.64 eA-3
Q118 0.766 0.038-0.005 !       1.61 eA-3
C119 0.687 0.465 0.498 !       1.61 eA-3
C120 0.816 0.378 0.463 !       1.58 eA-3
C121 0.732 0.390 0.469 !       1.43 eA-3
Q122 0.423 0.980 0.156 !       1.41 eA-3
Q123 0.485 0.130 0.100 !       1.11 eA-3
C124 0.292 0.654 0.463 !       0.95 eA-3
Q125 0.145 0.073 0.130 !       0.93 eA-3
Q126 0.782 0.102 0.172 !       0.92 eA-3
Q127 0.644 0.940 0.059 !       0.89 eA-3
Q128 0.675 1.004 0.036 !       0.86 eA-3
Q129 0.645 0.151-0.003 !       0.84 eA-3
Q130 0.261 0.687 0.219 !       0.76 eA-3
Q131 0.595 0.310 0.128 !       0.74 eA-3
Q132 0.316 0.290 0.128 !       0.73 eA-3
Q133 0.843 0.311 0.232 !       0.72 eA-3
Q134 0.405 0.582 0.188 !       0.71 eA-3
Q135 0.841 0.620 0.268 !       0.70 eA-3
Q136 0.062 0.608 0.249 !       0.67 eA-3
Q137 0.167 0.334 0.283 !       0.67 eA-3
Q138 0.311 0.998 0.394 !       0.66 eA-3
Q139 0.233 0.996 0.173 !       0.65 eA-3
Q140 0.468 0.731 0.284 !       0.61 eA-3
Q141 0.161 0.178 0.079 !       0.60 eA-3
Q142 0.878 0.176 0.184 !       0.60 eA-3
Q143 0.154 1.007 0.139 !       0.60 eA-3
Q144 0.704 1.000 0.308 !       0.59 eA-3
Q145 0.996 0.698 0.249 !       0.59 eA-3
Q146 0.719 0.678 0.269 !       0.59 eA-3
Q147 0.425 0.078 0.051 !       0.58 eA-3
Q148 0.421 0.621 0.013 !       0.58 eA-3
Q149 0.435 0.697 0.169 !       0.57 eA-3
Q150 0.890 0.047 0.216 !       0.57 eA-3
Q151 0.971 0.545 0.392 !       0.56 eA-3
Q152 0.592 0.231 0.439 !       0.55 eA-3
Q153 0.357 0.379 0.361 !       0.54 eA-3
Q154 0.235 0.723 0.186 !       0.54 eA-3
Q155 0.963 0.889 0.128 !       0.54 eA-3
Q156 0.231 0.157 0.126 !       0.54 eA-3
Q157 0.388 0.623 0.389 !       0.53 eA-3
Q158 0.083 0.160 0.387 !       0.53 eA-3
Q159 0.857 0.268 0.160 !       0.52 eA-3
Q160 0.517 0.748 0.234 !       0.52 eA-3
Q161 0.191 0.178 0.046 !       0.51 eA-3
Q162 0.314 0.739 0.237 !       0.51 eA-3
Q163 0.188 0.691 0.123 !       0.51 eA-3
Q164 0.594 0.630 0.201 !       0.51 eA-3
Q165 0.322 0.642 0.224 !       0.50 eA-3
)
;
_shelx_shelxl_version_number     2014/7
loop_
_space_group_symop_operation_xyz
'x, y, z'
'-x, -y, -z'
loop_
_atom_site_label
_atom_site_type_symbol
_atom_site_fract_x
_atom_site_fract_y
_atom_site_fract_z
_atom_site_U_iso_or_equiv
_atom_site_adp_type
_atom_site_occupancy
_atom_site_site_symmetry_order
_atom_site_calc_flag
_atom_site_refinement_flags_posn
_atom_site_refinement_flags_adp
_atom_site_refinement_flags_occupancy
_atom_site_disorder_assembly
_atom_site_disorder_group
Sn1 Sn 0.84840(2) 0.34565(2) 0.77915(2) 0.03100(7) Uani 1 1 d . . . . .
Sn2 Sn 0.56809(2) 0.33053(2) 0.77244(2) 0.02972(7) Uani 1 1 d . . . . .
F1 F 0.6920(12) -0.0140(8) 0.8021(6) 0.067(3) Uani 0.61(3) 1 d . U P A 1
F2 F 0.6845(11) -0.1692(4) 0.8419(4) 0.103(3) Uani 0.643(18) 1 d . U P A 1
F3 F 0.8555(9) -0.1803(5) 0.9132(3) 0.101(3) Uani 0.664(10) 1 d . U P A 1
F4 F 1.0362(7) -0.0336(7) 0.9404(4) 0.096(3) Uani 0.664(10) 1 d . U P A 1
F5 F 1.0412(10) 0.1251(8) 0.9040(6) 0.084(3) Uani 0.664(10) 1 d . U P A 1
F6 F 0.8122(2) 0.1602(2) 0.54790(14) 0.0641(7) Uani 1 1 d . . . . .
F7 F 0.8587(4) 0.0972(3) 0.42705(16) 0.1011(13) Uani 1 1 d . . . . .
F8 F 1.0516(19) 0.1605(17) 0.3882(9) 0.160(9) Uani 0.61(3) 1 d . . P A 1
F9 F 1.2210(3) 0.2813(4) 0.47344(17) 0.1065(14) Uani 1 1 d . . . . .
F10 F 1.1753(2) 0.3395(2) 0.59459(14) 0.0695(8) Uani 1 1 d . . . . .
F11 F 1.1685(3) 0.6911(3) 0.7826(4) 0.162(3) Uani 1 1 d . . . . .
F12 F 1.2239(3) 0.8645(3) 0.7598(4) 0.177(3) Uani 1 1 d . . . . .
F13 F 1.0712(3) 0.94603(19) 0.7400(2) 0.0885(11) Uani 1 1 d . . . . .
F14 F 0.8615(3) 0.8503(2) 0.73551(16) 0.0691(8) Uani 1 1 d . . . . .
F15 F 0.8043(2) 0.6779(2) 0.76010(19) 0.0787(10) Uani 1 1 d . . . . .
F16 F 0.6678(2) 0.6249(2) 0.64816(14) 0.0625(8) Uani 1 1 d . . . . .
F17 F 0.6667(3) 0.7905(2) 0.62535(17) 0.0833(11) Uani 1 1 d . . . . .
F18 F 0.5410(3) 0.8867(2) 0.69173(17) 0.0764(9) Uani 1 1 d . . . . .
F19 F 0.4157(3) 0.8157(2) 0.78210(16) 0.0722(9) Uani 1 1 d . . . . .
F20 F 0.4120(2) 0.6497(2) 0.80424(15) 0.0630(8) Uani 1 1 d . . . . .
F21 F 0.6245(3) 0.0771(2) 0.90726(18) 0.0780(9) Uani 1 1 d . . . . .
F22 F 0.5674(3) -0.0857(3) 0.94614(19) 0.0924(11) Uani 1 1 d . . . . .
F23 F 0.3552(3) -0.1816(2) 0.94611(19) 0.0881(11) Uani 1 1 d . . . . .
F24 F 0.2015(3) -0.1178(3) 0.9024(2) 0.1024(13) Uani 1 1 d . . . . .
F25 F 0.2552(3) 0.0420(3) 0.8596(2) 0.0920(12) Uani 1 1 d . . . . .
F26 F 0.5619(2) 0.1571(3) 0.54837(15) 0.0748(9) Uani 1 1 d . . . . .
F27 F 0.5018(3) 0.0536(3) 0.42984(15) 0.0859(11) Uani 1 1 d . . . . .
F28 F 0.2894(3) -0.0061(2) 0.38851(13) 0.0738(9) Uani 1 1 d . . . . .
F29 F 0.1379(3) 0.0348(3) 0.46952(17) 0.0857(11) Uani 1 1 d . . . . .
F30 F 0.1990(2) 0.1371(2) 0.58869(15) 0.0701(9) Uani 1 1 d . . . . .
O1 O 0.7041(2) 0.31585(18) 0.74090(12) 0.0349(6) Uani 1 1 d . . . . .
N1 N 0.8538(3) 0.3074(2) 0.86622(16) 0.0391(7) Uani 1 1 d . . . . .
N2 N 0.9070(3) 0.2354(2) 0.74336(15) 0.0339(7) Uani 1 1 d . . . . .
N3 N 0.9450(3) 0.4203(2) 0.72040(16) 0.0374(7) Uani 1 1 d . . . . .
N4 N 0.8821(3) 0.4695(2) 0.84571(17) 0.0412(8) Uani 1 1 d . . . . .
N5 N 0.4621(3) 0.2004(2) 0.74933(15) 0.0342(7) Uani 1 1 d . . . . .
N6 N 0.4950(2) 0.3689(2) 0.70147(15) 0.0319(6) Uani 1 1 d . . . . .
N7 N 0.5810(3) 0.4617(2) 0.82448(15) 0.0368(7) Uani 1 1 d . . . . .
N8 N 0.5569(3) 0.3143(2) 0.86619(15) 0.0375(7) Uani 1 1 d . . . . .
C1 C 0.8558(3) 0.3733(3) 0.92111(19) 0.0402(9) Uani 1 1 d . . . . .
C2 C 0.8525(4) 0.3294(3) 0.9736(2) 0.0488(10) Uani 1 1 d . . . . .
H2 H 0.8501 0.3565 1.0166 0.059 Uiso 1 1 calc R . . . .
C3 C 0.8533(4) 0.2392(3) 0.9501(2) 0.0472(10) Uani 1 1 d . . . . .
H3 H 0.8517 0.1948 0.9745 0.057 Uiso 1 1 calc R . . . .
C4 C 0.8570(3) 0.2255(3) 0.8814(2) 0.0399(9) Uani 1 1 d . . . . .
C5 C 0.8747(3) 0.1537(3) 0.8341(2) 0.0420(9) Uani 1 1 d . . . . .
C6 C 0.8650(13) 0.0623(9) 0.8538(8) 0.042(2) Uani 0.61(3) 1 d . U P A 1
C7 C 0.7760(14) -0.0155(7) 0.8376(6) 0.049(3) Uani 0.61(3) 1 d . U P A 1
C8 C 0.7748(10) -0.0948(6) 0.8590(5) 0.062(3) Uani 0.643(18) 1 d . U P A 1
C9 C 0.8626(10) -0.0993(6) 0.8941(5) 0.062(2) Uani 0.664(10) 1 d . U P A 1
C10 C 0.9491(9) -0.0291(8) 0.9077(4) 0.057(2) Uani 0.664(10) 1 d . U P A 1
C11 C 0.9530(12) 0.0545(10) 0.8881(5) 0.057(3) Uani 0.73(4) 1 d . U P A 1
C12 C 0.8978(3) 0.1581(3) 0.7702(2) 0.0386(8) Uani 1 1 d . . . . .
C13 C 0.9272(4) 0.0914(3) 0.7220(2) 0.0455(10) Uani 1 1 d . . . . .
H13 H 0.9286 0.0325 0.7265 0.055 Uiso 1 1 calc R U . . .
C14 C 0.9528(3) 0.1273(3) 0.6689(2) 0.0418(9) Uani 1 1 d . . . . .
H14 H 0.9744 0.0974 0.6309 0.050 Uiso 1 1 calc R . . . .
C15 C 0.9410(3) 0.2192(3) 0.68150(19) 0.0366(8) Uani 1 1 d . . . . .
C16 C 0.9658(3) 0.2855(3) 0.64297(19) 0.0371(8) Uani 1 1 d . . . . .
C17 C 0.9920(4) 0.2518(3) 0.5754(2) 0.0430(9) Uani 1 1 d . . . . .
C18 C 0.9134(4) 0.1908(3) 0.5310(2) 0.0515(11) Uani 1 1 d . . . . .
C19 C 0.9373(6) 0.1580(4) 0.4677(3) 0.0716(16) Uani 1 1 d . . . . .
C20 C 1.0406(6) 0.1905(5) 0.4491(3) 0.0753(17) Uani 1 1 d . . . . .
C21 C 1.1202(5) 0.2517(5) 0.4914(3) 0.0734(16) Uani 1 1 d . . . . .
C22 C 1.0946(4) 0.2812(4) 0.5540(2) 0.0549(12) Uani 1 1 d . . . . .
C23 C 0.9712(3) 0.3799(3) 0.6611(2) 0.0382(8) Uani 1 1 d . . . . .
C24 C 1.0084(4) 0.4523(3) 0.6260(2) 0.0493(10) Uani 1 1 d . . . . .
H24 H 1.0313 0.4450 0.5843 0.059 Uiso 1 1 calc R . . . .
C25 C 1.0043(4) 0.5332(3) 0.6641(2) 0.0517(11) Uani 1 1 d . . . . .
H25 H 1.0243 0.5909 0.6528 0.062 Uiso 1 1 calc R . . . .
C26 C 0.9642(3) 0.5158(3) 0.7250(2) 0.0424(9) Uani 1 1 d . . . . .
C27 C 0.9526(3) 0.5800(3) 0.7799(2) 0.0425(9) Uani 1 1 d . . . . .
C28 C 0.9842(3) 0.6796(3) 0.7735(2) 0.0453(10) Uani 1 1 d . . . . .
C29 C 1.0900(4) 0.7302(3) 0.7742(4) 0.089(2) Uani 1 1 d . . . . .
C30 C 1.1196(5) 0.8193(4) 0.7620(4) 0.095(3) Uani 1 1 d . . . . .
C31 C 1.0416(4) 0.8592(3) 0.7513(3) 0.0621(14) Uani 1 1 d . . . . .
C32 C 0.9377(4) 0.8116(3) 0.7494(2) 0.0463(10) Uani 1 1 d . . . . .
C33 C 0.9092(4) 0.7225(3) 0.7609(2) 0.0438(9) Uani 1 1 d . . . . .
C34 C 0.9179(3) 0.5597(3) 0.8393(2) 0.0422(9) Uani 1 1 d . . . . .
C35 C 0.9247(4) 0.6150(3) 0.9021(2) 0.0515(11) Uani 1 1 d . . . . .
H35 H 0.9442 0.6796 0.9125 0.062 Uiso 1 1 calc R . . . .
C36 C 0.8976(4) 0.5572(3) 0.9448(2) 0.0521(11) Uani 1 1 d . . . . .
H36 H 0.8960 0.5756 0.9892 0.063 Uiso 1 1 calc R . . . .
C37 C 0.8725(3) 0.4647(3) 0.9094(2) 0.0419(9) Uani 1 1 d . . . . .
C38 C 0.5986(3) 0.4765(3) 0.88986(19) 0.0384(8) Uani 1 1 d . . . . .
C39 C 0.6157(4) 0.5728(3) 0.9145(2) 0.0467(10) Uani 1 1 d . . . . .
H39 H 0.6317 0.6033 0.9574 0.056 Uiso 1 1 calc R . . . .
C40 C 0.6041(4) 0.6128(3) 0.8636(2) 0.0449(10) Uani 1 1 d . . . . .
H40 H 0.6114 0.6755 0.8661 0.054 Uiso 1 1 calc R . . . .
C41 C 0.5792(3) 0.5426(3) 0.80616(19) 0.0364(8) Uani 1 1 d . . . . .
C42 C 0.5436(3) 0.5400(3) 0.7431(2) 0.0374(8) Uani 1 1 d . . . . .
C43 C 0.5412(3) 0.6314(3) 0.7276(2) 0.0407(9) Uani 1 1 d . . . . .
C44 C 0.6049(4) 0.6705(3) 0.6825(2) 0.0472(10) Uani 1 1 d . . . . .
C45 C 0.6049(4) 0.7561(3) 0.6703(3) 0.0548(12) Uani 1 1 d . . . . .
C46 C 0.5418(4) 0.8045(3) 0.7036(3) 0.0557(12) Uani 1 1 d . . . . .
C47 C 0.4779(4) 0.7681(3) 0.7488(2) 0.0532(11) Uani 1 1 d . . . . .
C48 C 0.4776(4) 0.6826(3) 0.7602(2) 0.0469(10) Uani 1 1 d . . . . .
C49 C 0.5040(3) 0.4597(3) 0.69506(19) 0.0344(8) Uani 1 1 d . . . . .
C50 C 0.4590(3) 0.4507(3) 0.6312(2) 0.0427(9) Uani 1 1 d . . . . .
H50 H 0.4533 0.4997 0.6131 0.051 Uiso 1 1 calc R . . . .
C51 C 0.4264(3) 0.3604(3) 0.6017(2) 0.0408(9) Uani 1 1 d . . . . .
H51 H 0.3957 0.3369 0.5600 0.049 Uiso 1 1 calc R . . . .
C52 C 0.4470(3) 0.3068(3) 0.64533(18) 0.0347(8) Uani 1 1 d . . . . .
C53 C 0.4203(3) 0.2102(3) 0.63792(18) 0.0365(8) Uani 1 1 d . . . . .
C54 C 0.3830(3) 0.1529(3) 0.57224(19) 0.0392(8) Uani 1 1 d . . . . .
C55 C 0.2756(4) 0.1186(3) 0.5499(2) 0.0460(10) Uani 1 1 d . . . . .
C56 C 0.2442(4) 0.0665(3) 0.4885(2) 0.0558(12) Uani 1 1 d . . . . .
C57 C 0.3194(4) 0.0452(3) 0.4479(2) 0.0522(11) Uani 1 1 d . . . . .
C58 C 0.4256(5) 0.0752(4) 0.4687(2) 0.0574(12) Uani 1 1 d . . . . .
C59 C 0.4567(4) 0.1291(3) 0.5298(2) 0.0493(10) Uani 1 1 d . . . . .
C60 C 0.4236(3) 0.1594(3) 0.68640(19) 0.0351(8) Uani 1 1 d . . . . .
C61 C 0.3854(3) 0.0619(3) 0.6832(2) 0.0439(9) Uani 1 1 d . . . . .
H61 H 0.3549 0.0171 0.6466 0.053 Uiso 1 1 calc R . . . .
C62 C 0.4007(3) 0.0452(3) 0.7423(2) 0.0452(10) Uani 1 1 d . . . . .
H62 H 0.3834 -0.0129 0.7530 0.054 Uiso 1 1 calc R . . . .
C63 C 0.4477(3) 0.1319(3) 0.7854(2) 0.0386(8) Uani 1 1 d . . . . .
C64 C 0.4727(3) 0.1489(3) 0.8522(2) 0.0403(9) Uani 1 1 d . . . . .
C65 C 0.4409(4) 0.0657(3) 0.8819(2) 0.0460(10) Uani 1 1 d . . . . .
C66 C 0.3368(4) 0.0145(4) 0.8830(3) 0.0694(16) Uani 1 1 d . . . . .
C67 C 0.3072(5) -0.0683(4) 0.9048(3) 0.0717(16) Uani 1 1 d . . . . .
C68 C 0.3844(5) -0.1008(4) 0.9262(3) 0.0643(14) Uani 1 1 d . . . . .
C69 C 0.4885(5) -0.0536(3) 0.9250(2) 0.0556(12) Uani 1 1 d . . . . .
C70 C 0.5161(4) 0.0283(3) 0.9029(2) 0.0551(12) Uani 1 1 d . . . . .
C71 C 0.5199(3) 0.2369(3) 0.89228(19) 0.0402(9) Uani 1 1 d . . . . .
C72 C 0.5290(4) 0.2696(3) 0.9602(2) 0.0479(10) Uani 1 1 d . . . . .
H72 H 0.5123 0.2327 0.9907 0.057 Uiso 1 1 calc R . . . .
C73 C 0.5665(4) 0.3645(3) 0.9731(2) 0.0491(10) Uani 1 1 d . . . . .
H73 H 0.5795 0.4034 1.0136 0.059 Uiso 1 1 calc R . . . .
C74 C 0.5821(3) 0.3929(3) 0.91315(19) 0.0394(8) Uani 1 1 d . . . . .
F3A F 0.9393(15) -0.1421(9) 0.9332(7) 0.089(4) Uani 0.336(10) 1 d . U P A 2
F4A F 1.0964(13) 0.0244(11) 0.9576(6) 0.081(4) Uani 0.336(10) 1 d . U P A 2
C9A C 0.9251(16) -0.0730(13) 0.9092(10) 0.064(4) Uani 0.336(10) 1 d D U P A 2
C10A C 1.0033(15) 0.0119(11) 0.9212(8) 0.054(3) Uani 0.336(10) 1 d D U P A 2
F5A F 1.0646(19) 0.1643(12) 0.9115(11) 0.068(4) Uani 0.336(10) 1 d . U P A 2
C11A C 0.987(2) 0.0849(19) 0.8973(14) 0.050(5) Uani 0.27(4) 1 d D U P A 2
C6A C 0.8964(19) 0.0753(15) 0.8584(12) 0.044(4) Uani 0.39(3) 1 d D U P A 2
C7A C 0.819(2) -0.0106(11) 0.8469(9) 0.053(4) Uani 0.39(3) 1 d D U P A 2
F8A F 1.0724(15) 0.1566(15) 0.3897(10) 0.068(5) Uani 0.39(3) 1 d . . P A 2
F1A F 0.731(2) -0.0230(13) 0.8074(13) 0.081(5) Uani 0.39(3) 1 d . U P A 2
C8A C 0.8331(15) -0.0840(10) 0.8717(9) 0.065(4) Uani 0.357(18) 1 d D U P A 2
F2A F 0.7535(18) -0.1648(8) 0.8607(9) 0.099(5) Uani 0.357(18) 1 d D U P A 2
loop_
_atom_site_aniso_label
_atom_site_aniso_U_11
_atom_site_aniso_U_22
_atom_site_aniso_U_33
_atom_site_aniso_U_23
_atom_site_aniso_U_13
_atom_site_aniso_U_12
Sn1 0.03059(13) 0.02388(12) 0.03773(15) 0.00655(10) 0.00007(10) 0.00642(10)
Sn2 0.03093(13) 0.02759(13) 0.03140(13) 0.00821(10) 0.00381(10) 0.00816(10)
F1 0.067(6) 0.043(4) 0.079(4) 0.005(3) -0.018(4) 0.002(4)
F2 0.144(8) 0.037(3) 0.113(5) 0.022(3) -0.009(5) -0.005(4)
F3 0.174(8) 0.062(4) 0.098(5) 0.046(3) 0.020(5) 0.062(5)
F4 0.111(6) 0.132(6) 0.092(4) 0.057(4) 0.017(4) 0.087(5)
F5 0.063(5) 0.101(8) 0.098(6) 0.039(7) -0.010(4) 0.028(6)
F6 0.0581(17) 0.0596(17) 0.0638(18) 0.0070(14) -0.0111(14) 0.0039(14)
F7 0.133(4) 0.098(3) 0.055(2) -0.0087(19) -0.031(2) 0.023(3)
F8 0.225(18) 0.262(18) 0.044(6) 0.023(8) 0.036(8) 0.157(15)
F9 0.085(3) 0.178(4) 0.066(2) 0.029(3) 0.036(2) 0.051(3)
F10 0.0433(15) 0.103(2) 0.0593(18) 0.0160(17) 0.0104(13) 0.0176(16)
F11 0.0462(19) 0.067(2) 0.387(9) 0.105(4) -0.045(3) 0.0009(17)
F12 0.054(2) 0.076(3) 0.408(10) 0.118(4) -0.041(4) -0.018(2)
F13 0.081(2) 0.0345(15) 0.152(3) 0.0383(19) -0.010(2) 0.0063(15)
F14 0.079(2) 0.0643(18) 0.083(2) 0.0312(16) 0.0063(17) 0.0398(17)
F15 0.0448(16) 0.070(2) 0.130(3) 0.043(2) 0.0031(17) 0.0143(15)
F16 0.0773(19) 0.0592(16) 0.0693(18) 0.0290(14) 0.0376(15) 0.0379(15)
F17 0.108(3) 0.075(2) 0.095(2) 0.058(2) 0.050(2) 0.044(2)
F18 0.103(3) 0.0469(16) 0.097(2) 0.0347(16) 0.014(2) 0.0353(17)
F19 0.088(2) 0.0599(18) 0.086(2) 0.0166(16) 0.0214(18) 0.0483(17)
F20 0.0636(17) 0.0587(17) 0.081(2) 0.0293(15) 0.0331(15) 0.0304(14)
F21 0.0629(19) 0.075(2) 0.097(3) 0.0315(19) 0.0003(18) 0.0118(17)
F22 0.108(3) 0.088(3) 0.107(3) 0.054(2) 0.016(2) 0.047(2)
F23 0.100(3) 0.064(2) 0.111(3) 0.060(2) 0.004(2) 0.0134(19)
F24 0.072(2) 0.093(3) 0.154(4) 0.069(3) 0.030(2) 0.011(2)
F25 0.061(2) 0.094(3) 0.142(3) 0.070(3) 0.021(2) 0.0252(19)
F26 0.0444(15) 0.102(3) 0.0600(18) -0.0083(17) 0.0061(13) 0.0096(16)
F27 0.082(2) 0.106(3) 0.0517(18) -0.0110(18) 0.0197(16) 0.018(2)
F28 0.105(3) 0.0588(18) 0.0411(15) 0.0013(13) -0.0159(16) 0.0043(17)
F29 0.063(2) 0.093(2) 0.083(2) -0.0172(19) -0.0376(17) 0.0181(18)
F30 0.0424(15) 0.084(2) 0.074(2) -0.0114(16) -0.0078(14) 0.0204(15)
O1 0.0352(13) 0.0358(14) 0.0347(14) 0.0045(11) 0.0029(11) 0.0135(11)
N1 0.0436(18) 0.0336(17) 0.0390(18) 0.0074(14) -0.0018(14) 0.0093(14)
N2 0.0354(16) 0.0250(14) 0.0422(18) 0.0082(13) 0.0035(13) 0.0095(13)
N3 0.0371(17) 0.0247(15) 0.0489(19) 0.0113(14) 0.0054(14) 0.0040(13)
N4 0.0453(19) 0.0284(16) 0.047(2) 0.0041(14) -0.0004(15) 0.0078(14)
N5 0.0362(16) 0.0281(15) 0.0355(16) 0.0084(13) 0.0002(13) 0.0033(13)
N6 0.0337(15) 0.0283(15) 0.0354(16) 0.0093(12) 0.0011(13) 0.0099(12)
N7 0.0443(18) 0.0311(16) 0.0355(17) 0.0038(13) 0.0032(14) 0.0136(14)
N8 0.0449(18) 0.0349(17) 0.0331(16) 0.0117(14) 0.0045(14) 0.0087(14)
C1 0.041(2) 0.041(2) 0.036(2) 0.0036(17) 0.0010(16) 0.0112(18)
C2 0.050(2) 0.058(3) 0.038(2) 0.005(2) 0.0001(19) 0.018(2)
C3 0.052(2) 0.046(2) 0.046(2) 0.0156(19) 0.0024(19) 0.014(2)
C4 0.040(2) 0.043(2) 0.040(2) 0.0168(18) 0.0000(17) 0.0115(17)
C5 0.045(2) 0.034(2) 0.049(2) 0.0134(18) -0.0023(18) 0.0127(17)
C6 0.048(5) 0.035(5) 0.048(4) 0.014(3) -0.002(4) 0.014(4)
C7 0.052(6) 0.039(4) 0.058(5) 0.011(4) -0.004(5) 0.016(4)
C8 0.080(5) 0.035(4) 0.073(5) 0.018(3) 0.005(4) 0.013(4)
C9 0.088(5) 0.052(4) 0.064(5) 0.024(3) 0.014(4) 0.042(4)
C10 0.072(5) 0.064(5) 0.051(4) 0.021(4) 0.010(4) 0.036(4)
C11 0.061(5) 0.061(5) 0.058(4) 0.025(4) 0.005(4) 0.023(4)
C12 0.041(2) 0.0303(18) 0.045(2) 0.0088(16) -0.0041(17) 0.0119(16)
C13 0.060(3) 0.033(2) 0.048(2) 0.0069(18) -0.003(2) 0.0219(19)
C14 0.050(2) 0.035(2) 0.043(2) 0.0020(17) -0.0023(18) 0.0196(18)
C15 0.0352(19) 0.0339(19) 0.041(2) 0.0077(16) 0.0001(16) 0.0098(16)
C16 0.037(2) 0.039(2) 0.037(2) 0.0066(16) 0.0000(16) 0.0141(17)
C17 0.050(2) 0.044(2) 0.041(2) 0.0106(18) 0.0014(18) 0.0211(19)
C18 0.060(3) 0.052(3) 0.044(2) 0.009(2) -0.004(2) 0.019(2)
C19 0.100(5) 0.068(3) 0.045(3) 0.003(3) -0.020(3) 0.027(3)
C20 0.087(4) 0.105(5) 0.040(3) 0.011(3) 0.012(3) 0.040(4)
C21 0.074(4) 0.110(5) 0.047(3) 0.023(3) 0.020(3) 0.039(4)
C22 0.053(3) 0.075(3) 0.044(2) 0.014(2) 0.006(2) 0.029(3)
C23 0.0327(19) 0.039(2) 0.045(2) 0.0135(17) 0.0070(16) 0.0094(16)
C24 0.049(2) 0.047(2) 0.055(3) 0.021(2) 0.011(2) 0.010(2)
C25 0.054(3) 0.037(2) 0.065(3) 0.022(2) 0.009(2) 0.005(2)
C26 0.039(2) 0.0289(19) 0.058(3) 0.0153(18) 0.0024(19) 0.0048(16)
C27 0.038(2) 0.0214(17) 0.065(3) 0.0080(17) -0.0052(19) 0.0045(15)
C28 0.042(2) 0.0257(18) 0.064(3) 0.0080(18) -0.004(2) 0.0037(16)
C29 0.043(3) 0.038(3) 0.188(7) 0.042(4) -0.027(4) 0.003(2)
C30 0.045(3) 0.041(3) 0.194(8) 0.042(4) -0.020(4) -0.004(2)
C31 0.062(3) 0.028(2) 0.099(4) 0.021(2) -0.005(3) 0.012(2)
C32 0.060(3) 0.040(2) 0.044(2) 0.0096(18) 0.001(2) 0.021(2)
C33 0.047(2) 0.034(2) 0.051(2) 0.0091(18) -0.0017(19) 0.0105(18)
C34 0.041(2) 0.0255(18) 0.058(3) 0.0039(17) -0.0032(19) 0.0097(16)
C35 0.052(3) 0.029(2) 0.066(3) -0.006(2) -0.009(2) 0.0106(19)
C36 0.055(3) 0.045(2) 0.051(3) -0.005(2) -0.004(2) 0.016(2)
C37 0.040(2) 0.038(2) 0.040(2) -0.0015(17) -0.0050(17) 0.0077(17)
C38 0.042(2) 0.039(2) 0.033(2) 0.0045(16) 0.0043(16) 0.0121(17)
C39 0.052(2) 0.042(2) 0.041(2) -0.0013(18) 0.0048(19) 0.012(2)
C40 0.051(2) 0.032(2) 0.048(2) 0.0014(17) 0.0062(19) 0.0108(18)
C41 0.0371(19) 0.0283(18) 0.043(2) 0.0075(16) 0.0083(16) 0.0086(15)
C42 0.038(2) 0.0333(19) 0.046(2) 0.0136(17) 0.0080(17) 0.0143(16)
C43 0.043(2) 0.034(2) 0.049(2) 0.0143(17) 0.0064(18) 0.0125(17)
C44 0.051(2) 0.046(2) 0.053(3) 0.018(2) 0.016(2) 0.023(2)
C45 0.063(3) 0.045(2) 0.066(3) 0.027(2) 0.018(2) 0.019(2)
C46 0.071(3) 0.041(2) 0.066(3) 0.022(2) 0.009(3) 0.026(2)
C47 0.062(3) 0.043(2) 0.066(3) 0.014(2) 0.012(2) 0.030(2)
C48 0.048(2) 0.041(2) 0.056(3) 0.013(2) 0.012(2) 0.0177(19)
C49 0.0320(18) 0.0304(18) 0.044(2) 0.0118(16) 0.0037(16) 0.0101(15)
C50 0.042(2) 0.042(2) 0.051(2) 0.0187(19) 0.0003(18) 0.0172(18)
C51 0.043(2) 0.042(2) 0.041(2) 0.0143(18) -0.0042(17) 0.0148(18)
C52 0.0330(18) 0.0342(19) 0.038(2) 0.0110(16) 0.0008(15) 0.0094(15)
C53 0.0358(19) 0.038(2) 0.0340(19) 0.0074(16) 0.0003(15) 0.0080(16)
C54 0.046(2) 0.0323(19) 0.036(2) 0.0076(16) -0.0031(17) 0.0061(17)
C55 0.041(2) 0.044(2) 0.050(2) 0.0053(19) -0.0069(19) 0.0111(19)
C56 0.055(3) 0.046(3) 0.059(3) 0.005(2) -0.020(2) 0.006(2)
C57 0.073(3) 0.041(2) 0.037(2) 0.0084(18) -0.009(2) 0.007(2)
C58 0.071(3) 0.057(3) 0.041(2) 0.011(2) 0.011(2) 0.014(3)
C59 0.047(2) 0.052(3) 0.041(2) 0.005(2) 0.0000(19) 0.004(2)
C60 0.0331(18) 0.0309(18) 0.039(2) 0.0066(15) -0.0017(15) 0.0062(15)
C61 0.045(2) 0.033(2) 0.049(2) 0.0097(18) -0.0019(19) 0.0030(17)
C62 0.047(2) 0.0265(18) 0.058(3) 0.0123(18) -0.004(2) 0.0012(17)
C63 0.039(2) 0.0351(19) 0.044(2) 0.0188(17) 0.0065(17) 0.0078(16)
C64 0.042(2) 0.040(2) 0.044(2) 0.0230(18) 0.0099(17) 0.0109(17)
C65 0.049(2) 0.046(2) 0.048(2) 0.022(2) 0.0060(19) 0.013(2)
C66 0.058(3) 0.072(4) 0.097(4) 0.051(3) 0.016(3) 0.024(3)
C67 0.057(3) 0.065(3) 0.099(4) 0.046(3) 0.018(3) 0.007(3)
C68 0.078(4) 0.052(3) 0.070(3) 0.034(3) -0.002(3) 0.014(3)
C69 0.077(3) 0.053(3) 0.048(3) 0.020(2) 0.007(2) 0.030(3)
C70 0.054(3) 0.056(3) 0.061(3) 0.024(2) 0.010(2) 0.017(2)
C71 0.041(2) 0.046(2) 0.039(2) 0.0189(18) 0.0099(17) 0.0143(18)
C72 0.055(3) 0.057(3) 0.037(2) 0.018(2) 0.0070(19) 0.018(2)
C73 0.057(3) 0.061(3) 0.033(2) 0.011(2) 0.0066(19) 0.021(2)
C74 0.041(2) 0.043(2) 0.0324(19) 0.0065(16) 0.0020(16) 0.0101(17)
F3A 0.149(11) 0.062(7) 0.088(7) 0.041(6) 0.031(7) 0.066(7)
F4A 0.097(9) 0.104(9) 0.069(7) 0.040(6) 0.011(6) 0.060(7)
C9A 0.085(7) 0.057(7) 0.061(6) 0.022(6) 0.010(6) 0.030(6)
C10A 0.068(6) 0.057(6) 0.053(6) 0.020(5) 0.010(5) 0.035(5)
F5A 0.074(10) 0.078(10) 0.063(7) 0.024(8) -0.004(6) 0.035(8)
C11A 0.053(8) 0.051(8) 0.051(7) 0.021(6) -0.001(6) 0.017(6)
C6A 0.056(7) 0.037(6) 0.047(6) 0.025(5) 0.008(6) 0.014(5)
C7A 0.061(7) 0.045(5) 0.059(6) 0.017(4) 0.006(6) 0.019(5)
F8A 0.066(7) 0.106(10) 0.030(6) -0.001(6) 0.010(4) 0.031(7)
F1A 0.085(12) 0.042(5) 0.107(10) 0.006(6) 0.001(10) 0.009(8)
C8A 0.075(7) 0.054(6) 0.069(6) 0.011(5) 0.006(6) 0.026(6)
F2A 0.140(11) 0.043(6) 0.109(9) 0.020(6) 0.026(8) 0.013(7)
loop_
_atom_type_symbol
_atom_type_description
_atom_type_scat_dispersion_real
_atom_type_scat_dispersion_imag
_atom_type_scat_source
C C 0.0033 0.0016 'International Tables Vol C Tables 4.2.6.8 and 6.1.1.4'
H H 0.0000 0.0000 'International Tables Vol C Tables 4.2.6.8 and 6.1.1.4'
F F 0.0171 0.0103 'International Tables Vol C Tables 4.2.6.8 and 6.1.1.4'
N N 0.0061 0.0033 'International Tables Vol C Tables 4.2.6.8 and 6.1.1.4'
O O 0.0106 0.0060 'International Tables Vol C Tables 4.2.6.8 and 6.1.1.4'
Sn Sn -0.6537 1.4246 'International Tables Vol C Tables 4.2.6.8 and 6.1.1.4'
loop_
_geom_angle_atom_site_label_1
_geom_angle_atom_site_label_2
_geom_angle_atom_site_label_3
_geom_angle
O1 Sn1 N1 113.59(13)
O1 Sn1 N2 106.86(12)
O1 Sn1 N3 104.69(12)
O1 Sn1 N4 109.70(12)
N1 Sn1 N4 75.94(13)
N2 Sn1 N1 85.55(13)
N2 Sn1 N4 143.15(13)
N3 Sn1 N1 141.24(14)
N3 Sn1 N2 89.20(12)
N3 Sn1 N4 86.00(14)
O1 Sn2 N5 104.87(12)
O1 Sn2 N6 106.32(11)
O1 Sn2 N7 113.20(12)
O1 Sn2 N8 110.10(12)
N5 Sn2 N6 89.93(12)
N5 Sn2 N7 141.44(13)
N5 Sn2 N8 85.74(13)
N6 Sn2 N7 85.33(12)
N6 Sn2 N8 143.22(13)
N7 Sn2 N8 75.94(13)
Sn1 O1 Sn2 134.46(14)
C1 N1 Sn1 117.7(3)
C4 N1 Sn1 131.6(3)
C4 N1 C1 110.7(3)
C12 N2 Sn1 126.2(3)
C15 N2 Sn1 122.7(2)
C15 N2 C12 109.8(3)
C23 N3 Sn1 122.9(2)
C23 N3 C26 110.1(3)
C26 N3 Sn1 124.3(3)
C34 N4 Sn1 131.9(3)
C34 N4 C37 110.7(3)
C37 N4 Sn1 117.4(3)
C60 N5 Sn2 121.4(2)
C60 N5 C63 109.2(3)
C63 N5 Sn2 126.0(3)
C49 N6 Sn2 126.5(3)
C52 N6 Sn2 122.5(2)
C52 N6 C49 109.8(3)
C38 N7 Sn2 117.1(3)
C38 N7 C41 110.7(3)
C41 N7 Sn2 132.1(3)
C71 N8 Sn2 131.9(3)
C74 N8 Sn2 117.3(3)
C74 N8 C71 110.6(3)
N1 C1 C2 107.1(4)
N1 C1 C37 113.4(4)
C2 C1 C37 139.0(4)
C1 C2 H2 126.0
C3 C2 C1 108.0(4)
C3 C2 H2 126.0
C2 C3 H3 125.9
C2 C3 C4 108.1(4)
C4 C3 H3 125.9
N1 C4 C3 105.9(4)
N1 C4 C5 120.7(4)
C5 C4 C3 132.9(4)
C4 C5 C6 116.8(7)
C4 C5 C6A 115.6(10)
C12 C5 C4 126.1(4)
C12 C5 C6 117.1(7)
C12 C5 C6A 116.6(10)
C7 C6 C5 124.3(10)
C7 C6 C11 117.8(10)
C11 C6 C5 117.9(10)
F1 C7 C6 120.7(11)
F1 C7 C8 119.8(13)
C8 C7 C6 119.5(13)
F2 C8 C7 116.9(10)
F2 C8 C9 122.1(8)
C7 C8 C9 121.0(11)
F3 C9 C8 117.5(10)
C10 C9 F3 121.4(10)
C10 C9 C8 121.1(8)
F4 C10 C11 118.5(12)
C9 C10 F4 121.6(10)
C9 C10 C11 119.9(10)
F5 C11 C6 121.1(10)
F5 C11 C10 118.3(10)
C6 C11 C10 120.6(12)
N2 C12 C5 125.0(4)
N2 C12 C13 106.1(3)
C5 C12 C13 128.6(4)
C12 C13 H13 125.4
C14 C13 C12 109.2(3)
C14 C13 H13 125.4
C13 C14 H14 125.9
C13 C14 C15 108.2(4)
C15 C14 H14 125.9
N2 C15 C14 106.7(3)
N2 C15 C16 124.1(3)
C16 C15 C14 129.0(4)
C15 C16 C17 115.9(3)
C15 C16 C23 127.3(4)
C23 C16 C17 116.8(4)
C18 C17 C16 121.1(4)
C18 C17 C22 116.7(4)
C22 C17 C16 122.2(4)
F6 C18 C17 120.2(4)
F6 C18 C19 118.2(5)
C17 C18 C19 121.6(5)
F7 C19 C18 119.2(6)
F7 C19 C20 121.8(5)
C20 C19 C18 119.0(5)
F8 C20 C19 113.7(12)
F8 C20 C21 125.2(12)
C19 C20 F8A 122.4(9)
C21 C20 C19 121.0(5)
C21 C20 F8A 116.2(9)
F9 C21 C20 120.8(5)
F9 C21 C22 120.6(6)
C20 C21 C22 118.6(5)
F10 C22 C17 120.0(4)
F10 C22 C21 116.9(5)
C17 C22 C21 123.1(5)
N3 C23 C16 123.7(3)
N3 C23 C24 107.1(4)
C16 C23 C24 129.1(4)
C23 C24 H24 126.0
C25 C24 C23 108.1(4)
C25 C24 H24 126.0
C24 C25 H25 125.4
C24 C25 C26 109.3(4)
C26 C25 H25 125.4
N3 C26 C25 105.3(4)
N3 C26 C27 125.9(4)
C27 C26 C25 128.7(4)
C26 C27 C28 115.5(4)
C26 C27 C34 126.3(3)
C34 C27 C28 118.2(4)
C29 C28 C27 121.9(4)
C29 C28 C33 115.9(4)
C33 C28 C27 121.9(4)
F11 C29 C28 119.5(4)
F11 C29 C30 118.3(5)
C28 C29 C30 122.1(5)
F12 C30 C29 120.2(5)
F12 C30 C31 120.4(5)
C31 C30 C29 119.4(5)
F13 C31 C30 118.9(5)
C32 C31 F13 120.9(4)
C32 C31 C30 120.1(4)
F14 C32 C33 120.6(4)
C31 C32 F14 119.5(4)
C31 C32 C33 119.8(4)
F15 C33 C28 119.4(4)
F15 C33 C32 118.1(4)
C28 C33 C32 122.5(4)
N4 C34 C27 119.8(4)
N4 C34 C35 106.2(4)
C27 C34 C35 133.3(4)
C34 C35 H35 125.8
C36 C35 C34 108.5(4)
C36 C35 H35 125.8
C35 C36 H36 126.1
C35 C36 C37 107.8(4)
C37 C36 H36 126.1
N4 C37 C1 113.9(3)
N4 C37 C36 106.7(4)
C36 C37 C1 138.7(4)
N7 C38 C39 107.1(4)
N7 C38 C74 113.4(3)
C39 C38 C74 138.9(4)
C38 C39 H39 126.3
C40 C39 C38 107.4(4)
C40 C39 H39 126.3
C39 C40 H40 125.5
C39 C40 C41 108.9(4)
C41 C40 H40 125.5
N7 C41 C40 105.6(3)
N7 C41 C42 120.1(3)
C42 C41 C40 133.7(4)
C41 C42 C43 116.7(4)
C49 C42 C41 125.6(3)
C49 C42 C43 117.6(4)
C44 C43 C42 122.5(4)
C44 C43 C48 116.2(4)
C48 C43 C42 121.3(4)
F16 C44 C43 120.1(4)
F16 C44 C45 117.9(4)
C43 C44 C45 122.0(4)
F17 C45 C44 119.9(4)
F17 C45 C46 120.1(4)
C46 C45 C44 120.0(4)
F18 C46 C45 120.3(5)
F18 C46 C47 120.0(4)
C45 C46 C47 119.7(4)
F19 C47 C46 120.0(4)
F19 C47 C48 120.0(4)
C46 C47 C48 119.9(4)
F20 C48 C43 120.4(4)
F20 C48 C47 117.4(4)
C47 C48 C43 122.2(4)
N6 C49 C42 125.8(3)
N6 C49 C50 105.2(3)
C42 C49 C50 128.9(3)
C49 C50 H50 125.2
C51 C50 C49 109.6(3)
C51 C50 H50 125.2
C50 C51 H51 125.8
C50 C51 C52 108.5(4)
C52 C51 H51 125.8
N6 C52 C51 107.0(3)
N6 C52 C53 123.7(3)
C53 C52 C51 129.2(4)
C52 C53 C54 117.4(3)
C52 C53 C60 127.2(4)
C60 C53 C54 115.4(3)
C55 C54 C53 123.8(4)
C55 C54 C59 115.7(4)
C59 C54 C53 120.5(4)
F30 C55 C54 119.2(4)
F30 C55 C56 118.6(4)
C56 C55 C54 122.1(4)
F29 C56 C55 119.4(5)
F29 C56 C57 120.2(4)
C57 C56 C55 120.4(4)
F28 C57 C56 120.7(5)
F28 C57 C58 120.0(5)
C58 C57 C56 119.2(4)
F27 C58 C57 120.5(4)
F27 C58 C59 119.5(5)
C57 C58 C59 120.0(5)
F26 C59 C54 119.4(4)
F26 C59 C58 118.1(4)
C58 C59 C54 122.5(4)
N5 C60 C53 123.7(3)
N5 C60 C61 106.9(3)
C53 C60 C61 129.3(4)
C60 C61 H61 125.7
C62 C61 C60 108.7(4)
C62 C61 H61 125.7
C61 C62 H62 125.8
C61 C62 C63 108.4(4)
C63 C62 H62 125.8
N5 C63 C62 106.8(3)
N5 C63 C64 124.8(4)
C64 C63 C62 128.4(4)
C63 C64 C65 115.5(4)
C71 C64 C63 125.6(3)
C71 C64 C65 118.9(4)
C66 C65 C64 123.1(4)
C66 C65 C70 114.5(4)
C70 C65 C64 121.9(4)
F25 C66 C67 116.9(5)
C65 C66 F25 119.6(4)
C65 C66 C67 123.5(5)
F24 C67 C66 120.3(5)
C68 C67 F24 120.1(5)
C68 C67 C66 119.5(5)
F23 C68 C67 119.1(5)
C69 C68 F23 121.4(5)
C69 C68 C67 119.4(5)
F22 C69 C70 119.9(5)
C68 C69 F22 120.1(4)
C68 C69 C70 120.1(5)
F21 C70 C69 117.2(4)
C65 C70 F21 119.5(4)
C65 C70 C69 123.1(5)
N8 C71 C64 120.5(4)
N8 C71 C72 106.1(4)
C64 C71 C72 133.0(4)
C71 C72 H72 125.8
C73 C72 C71 108.4(4)
C73 C72 H72 125.8
C72 C73 H73 126.2
C72 C73 C74 107.6(4)
C74 C73 H73 126.2
N8 C74 C38 114.2(3)
N8 C74 C73 107.1(4)
C73 C74 C38 137.7(4)
F3A C9A C10A 119.9(16)
F3A C9A C8A 121.1(17)
C8A C9A C10A 119.0(17)
F4A C10A C9A 120.1(14)
F4A C10A C11A 120.1(18)
C9A C10A C11A 120(2)
F5A C11A C10A 116(2)
F5A C11A C6A 121.2(18)
C6A C11A C10A 122(3)
C11A C6A C5 123.5(16)
C11A C6A C7A 117(2)
C7A C6A C5 119.6(15)
C6A C7A C8A 122(2)
F1A C7A C6A 118.0(16)
F1A C7A C8A 120(2)
C9A C8A C7A 120.4(18)
F2A C8A C9A 120.6(18)
F2A C8A C7A 118.9(16)
loop_
_geom_bond_atom_site_label_1
_geom_bond_atom_site_label_2
_geom_bond_distance
Sn1 O1 1.924(3)
Sn1 N1 2.056(3)
Sn1 N2 2.051(3)
Sn1 N3 2.049(3)
Sn1 N4 2.063(3)
Sn2 O1 1.934(3)
Sn2 N5 2.041(3)
Sn2 N6 2.042(3)
Sn2 N7 2.054(3)
Sn2 N8 2.056(3)
F1 C7 1.327(15)
F2 C8 1.370(12)
F3 C9 1.361(9)
F4 C10 1.345(11)
F5 C11 1.32(2)
F6 C18 1.334(6)
F7 C19 1.338(7)
F8 C20 1.305(18)
F9 C21 1.335(7)
F10 C22 1.341(6)
F11 C29 1.341(6)
F12 C30 1.335(7)
F13 C31 1.348(5)
F14 C32 1.341(5)
F15 C33 1.331(5)
F16 C44 1.340(5)
F17 C45 1.338(5)
F18 C46 1.337(5)
F19 C47 1.341(5)
F20 C48 1.342(5)
F21 C70 1.381(6)
F22 C69 1.358(6)
F23 C68 1.343(5)
F24 C67 1.356(6)
F25 C66 1.366(6)
F26 C59 1.336(5)
F27 C58 1.354(6)
F28 C57 1.338(5)
F29 C56 1.351(6)
F30 C55 1.342(5)
N1 C1 1.377(5)
N1 C4 1.369(5)
N2 C12 1.391(5)
N2 C15 1.384(5)
N3 C23 1.376(5)
N3 C26 1.398(5)
N4 C34 1.365(5)
N4 C37 1.374(5)
N5 C60 1.385(5)
N5 C63 1.391(5)
N6 C49 1.399(4)
N6 C52 1.388(5)
N7 C38 1.370(5)
N7 C41 1.378(5)
N8 C71 1.375(5)
N8 C74 1.360(5)
C1 C2 1.409(6)
C1 C37 1.429(6)
C2 H2 0.9300
C2 C3 1.376(6)
C3 H3 0.9300
C3 C4 1.436(6)
C4 C5 1.404(6)
C5 C6 1.514(15)
C5 C12 1.402(6)
C5 C6A 1.49(2)
C6 C7 1.387(15)
C6 C11 1.393(19)
C7 C8 1.378(14)
C8 C9 1.380(16)
C9 C10 1.300(15)
C10 C11 1.412(14)
C12 C13 1.428(6)
C13 H13 0.9300
C13 C14 1.354(6)
C14 H14 0.9300
C14 C15 1.431(5)
C15 C16 1.400(5)
C16 C17 1.498(6)
C16 C23 1.402(5)
C17 C18 1.381(6)
C17 C22 1.381(6)
C18 C19 1.404(7)
C19 C20 1.373(9)
C20 C21 1.365(9)
C20 F8A 1.37(2)
C21 C22 1.387(7)
C23 C24 1.432(6)
C24 H24 0.9300
C24 C25 1.354(6)
C25 H25 0.9300
C25 C26 1.441(6)
C26 C27 1.404(6)
C27 C28 1.501(5)
C27 C34 1.404(6)
C28 C29 1.365(7)
C28 C33 1.366(6)
C29 C30 1.389(7)
C30 C31 1.355(7)
C31 C32 1.330(7)
C32 C33 1.384(6)
C34 C35 1.418(6)
C35 H35 0.9300
C35 C36 1.372(7)
C36 H36 0.9300
C36 C37 1.413(6)
C38 C39 1.418(6)
C38 C74 1.427(6)
C39 H39 0.9300
C39 C40 1.373(6)
C40 H40 0.9300
C40 C41 1.425(6)
C41 C42 1.406(6)
C42 C43 1.511(5)
C42 C49 1.400(5)
C43 C44 1.381(6)
C43 C48 1.383(6)
C44 C45 1.388(6)
C45 C46 1.358(7)
C46 C47 1.368(7)
C47 C48 1.379(6)
C49 C50 1.441(6)
C50 H50 0.9300
C50 C51 1.346(6)
C51 H51 0.9300
C51 C52 1.425(5)
C52 C53 1.400(5)
C53 C54 1.490(5)
C53 C60 1.417(5)
C54 C55 1.382(6)
C54 C59 1.385(6)
C55 C56 1.379(6)
C56 C57 1.364(7)
C57 C58 1.359(7)
C58 C59 1.383(6)
C60 C61 1.424(5)
C61 H61 0.9300
C61 C62 1.357(6)
C62 H62 0.9300
C62 C63 1.425(6)
C63 C64 1.412(6)
C64 C65 1.491(5)
C64 C71 1.412(6)
C65 C66 1.354(7)
C65 C70 1.371(6)
C66 C67 1.391(7)
C67 C68 1.347(8)
C68 C69 1.337(8)
C69 C70 1.383(6)
C71 C72 1.424(6)
C72 H72 0.9300
C72 C73 1.369(7)
C73 H73 0.9300
C73 C74 1.423(6)
F3A C9A 1.32(2)
F4A C10A 1.37(2)
C9A C10A 1.381(10)
C9A C8A 1.379(10)
C10A C11A 1.384(10)
F5A C11A 1.32(4)
C11A C6A 1.384(10)
C6A C7A 1.387(10)
C7A F1A 1.35(2)
C7A C8A 1.388(10)
C8A F2A 1.346(9)
loop_
_geom_torsion_atom_site_label_1
_geom_torsion_atom_site_label_2
_geom_torsion_atom_site_label_3
_geom_torsion_atom_site_label_4
_geom_torsion
Sn1 N1 C1 C2 176.4(3)
Sn1 N1 C1 C37 -10.1(5)
Sn1 N1 C4 C3 -176.6(3)
Sn1 N1 C4 C5 10.4(6)
Sn1 N2 C12 C5 -18.8(6)
Sn1 N2 C12 C13 166.9(3)
Sn1 N2 C15 C14 -167.3(3)
Sn1 N2 C15 C16 17.1(5)
Sn1 N3 C23 C16 -21.1(5)
Sn1 N3 C23 C24 161.8(3)
Sn1 N3 C26 C25 -161.6(3)
Sn1 N3 C26 C27 22.1(6)
Sn1 N4 C34 C27 -9.0(6)
Sn1 N4 C34 C35 179.2(3)
Sn1 N4 C37 C1 9.0(5)
Sn1 N4 C37 C36 -179.0(3)
Sn2 N5 C60 C53 -23.3(5)
Sn2 N5 C60 C61 159.7(3)
Sn2 N5 C63 C62 -158.1(3)
Sn2 N5 C63 C64 23.9(6)
Sn2 N6 C49 C42 -15.7(5)
Sn2 N6 C49 C50 167.4(3)
Sn2 N6 C52 C51 -167.4(3)
Sn2 N6 C52 C53 16.1(5)
Sn2 N7 C38 C39 174.1(3)
Sn2 N7 C38 C74 -12.9(5)
Sn2 N7 C41 C40 -173.6(3)
Sn2 N7 C41 C42 13.8(6)
Sn2 N8 C71 C64 -4.7(6)
Sn2 N8 C71 C72 -178.1(3)
Sn2 N8 C74 C38 8.2(5)
Sn2 N8 C74 C73 178.9(3)
F1 C7 C8 F2 -0.1(16)
F1 C7 C8 C9 177.8(11)
F2 C8 C9 F3 -1.9(14)
F2 C8 C9 C10 177.4(9)
F3 C9 C10 F4 1.2(14)
F3 C9 C10 C11 -179.0(9)
F4 C10 C11 F5 -1.6(15)
F4 C10 C11 C6 179.6(11)
F6 C18 C19 F7 -0.6(7)
F6 C18 C19 C20 178.5(5)
F7 C19 C20 F8 3.6(15)
F7 C19 C20 C21 -179.2(6)
F7 C19 C20 F8A -6.1(16)
F8 C20 C21 F9 -4.7(17)
F8 C20 C21 C22 176.5(15)
F9 C21 C22 F10 -0.3(8)
F9 C21 C22 C17 -179.1(5)
F11 C29 C30 F12 -1.0(13)
F11 C29 C30 C31 178.0(8)
F12 C30 C31 F13 -1.6(12)
F12 C30 C31 C32 175.6(7)
F13 C31 C32 F14 0.6(8)
F13 C31 C32 C33 179.8(5)
F14 C32 C33 F15 -2.4(7)
F14 C32 C33 C28 178.2(4)
F16 C44 C45 F17 0.0(8)
F16 C44 C45 C46 179.6(5)
F17 C45 C46 F18 0.0(8)
F17 C45 C46 C47 179.1(5)
F18 C46 C47 F19 -1.2(8)
F18 C46 C47 C48 178.9(5)
F19 C47 C48 F20 1.3(7)
F19 C47 C48 C43 -179.3(5)
F22 C69 C70 F21 -3.9(7)
F22 C69 C70 C65 -179.0(5)
F23 C68 C69 F22 -2.1(9)
F23 C68 C69 C70 178.6(5)
F24 C67 C68 F23 -1.2(10)
F24 C67 C68 C69 176.5(6)
F25 C66 C67 F24 -0.2(10)
F25 C66 C67 C68 177.5(6)
F27 C58 C59 F26 -0.9(7)
F27 C58 C59 C54 -179.3(4)
F28 C57 C58 F27 0.1(7)
F28 C57 C58 C59 179.2(4)
F29 C56 C57 F28 0.9(7)
F29 C56 C57 C58 -177.8(5)
F30 C55 C56 F29 -0.8(7)
F30 C55 C56 C57 -179.1(4)
N1 C1 C2 C3 2.6(5)
N1 C1 C37 N4 0.6(5)
N1 C1 C37 C36 -167.7(5)
N1 C4 C5 C6 -173.6(7)
N1 C4 C5 C12 4.7(7)
N1 C4 C5 C6A 169.4(10)
N2 C12 C13 C14 0.1(5)
N2 C15 C16 C17 -174.9(4)
N2 C15 C16 C23 6.7(7)
N3 C23 C24 C25 0.2(5)
N3 C26 C27 C28 176.7(4)
N3 C26 C27 C34 -1.2(7)
N4 C34 C35 C36 2.6(5)
N5 C60 C61 C62 -0.1(5)
N5 C63 C64 C65 174.4(4)
N5 C63 C64 C71 -2.7(7)
N6 C49 C50 C51 -0.5(5)
N6 C52 C53 C54 -171.9(3)
N6 C52 C53 C60 8.7(6)
N7 C38 C39 C40 2.0(5)
N7 C38 C74 N8 2.9(5)
N7 C38 C74 C73 -163.7(5)
N7 C41 C42 C43 178.3(3)
N7 C41 C42 C49 2.6(6)
N8 C71 C72 C73 2.3(5)
C1 N1 C4 C3 4.2(5)
C1 N1 C4 C5 -168.8(4)
C1 C2 C3 C4 -0.1(5)
C2 C1 C37 N4 171.2(5)
C2 C1 C37 C36 2.8(10)
C2 C3 C4 N1 -2.4(5)
C2 C3 C4 C5 169.3(5)
C3 C4 C5 C6 15.6(10)
C3 C4 C5 C12 -166.1(5)
C3 C4 C5 C6A -1.4(12)
C4 N1 C1 C2 -4.3(5)
C4 N1 C1 C37 169.3(4)
C4 C5 C6 C7 102.3(13)
C4 C5 C6 C11 -80.4(13)
C4 C5 C12 N2 0.0(7)
C4 C5 C12 C13 173.0(4)
C4 C5 C6A C11A -65(3)
C4 C5 C6A C7A 109.4(19)
C5 C6 C7 F1 1(2)
C5 C6 C7 C8 -178.9(11)
C5 C6 C11 F5 1.3(19)
C5 C6 C11 C10 -179.9(9)
C5 C12 C13 C14 -174.0(4)
C5 C6A C7A F1A 8(3)
C5 C6A C7A C8A -176.4(18)
C6 C5 C12 N2 178.3(7)
C6 C5 C12 C13 -8.7(9)
C6 C7 C8 F2 179.6(11)
C6 C7 C8 C9 -2.5(17)
C7 C6 C11 F5 178.7(12)
C7 C6 C11 C10 -2.5(19)
C7 C8 C9 F3 -179.7(9)
C7 C8 C9 C10 -0.4(15)
C8 C9 C10 F4 -178.1(9)
C8 C9 C10 C11 1.8(14)
C9 C10 C11 F5 178.5(11)
C9 C10 C11 C6 -0.3(16)
C11 C6 C7 F1 -176.4(12)
C11 C6 C7 C8 3.8(19)
C12 N2 C15 C14 0.5(4)
C12 N2 C15 C16 -175.1(4)
C12 C5 C6 C7 -76.1(14)
C12 C5 C6 C11 101.1(12)
C12 C5 C6A C11A 101(2)
C12 C5 C6A C7A -84(2)
C12 C13 C14 C15 0.2(5)
C13 C14 C15 N2 -0.4(5)
C13 C14 C15 C16 174.9(4)
C14 C15 C16 C17 10.5(6)
C14 C15 C16 C23 -167.9(4)
C15 N2 C12 C5 174.0(4)
C15 N2 C12 C13 -0.3(4)
C15 C16 C17 C18 69.2(5)
C15 C16 C17 C22 -112.1(5)
C15 C16 C23 N3 -4.6(7)
C15 C16 C23 C24 171.8(4)
C16 C17 C18 F6 -0.4(6)
C16 C17 C18 C19 -179.4(4)
C16 C17 C22 F10 2.1(7)
C16 C17 C22 C21 -179.2(5)
C16 C23 C24 C25 -176.6(4)
C17 C16 C23 N3 177.1(4)
C17 C16 C23 C24 -6.5(6)
C17 C18 C19 F7 178.4(5)
C17 C18 C19 C20 -2.6(8)
C18 C17 C22 F10 -179.1(4)
C18 C17 C22 C21 -0.4(7)
C18 C19 C20 F8 -175.4(13)
C18 C19 C20 C21 1.8(9)
C18 C19 C20 F8A 174.8(14)
C19 C20 C21 F9 178.4(6)
C19 C20 C21 C22 -0.4(10)
C20 C21 C22 F10 178.5(5)
C20 C21 C22 C17 -0.3(9)
C22 C17 C18 F6 -179.2(4)
C22 C17 C18 C19 1.9(7)
C23 N3 C26 C25 0.2(5)
C23 N3 C26 C27 -176.2(4)
C23 C16 C17 C18 -112.3(5)
C23 C16 C17 C22 66.4(5)
C23 C24 C25 C26 -0.1(5)
C24 C25 C26 N3 0.0(5)
C24 C25 C26 C27 176.2(4)
C25 C26 C27 C28 1.3(7)
C25 C26 C27 C34 -176.7(4)
C26 N3 C23 C16 176.8(4)
C26 N3 C23 C24 -0.3(5)
C26 C27 C28 C29 -74.6(7)
C26 C27 C28 C33 99.4(5)
C26 C27 C34 N4 -6.1(7)
C26 C27 C34 C35 163.1(5)
C27 C28 C29 F11 -2.0(11)
C27 C28 C29 C30 173.5(7)
C27 C28 C33 F15 6.4(7)
C27 C28 C33 C32 -174.2(4)
C27 C34 C35 C36 -167.7(5)
C28 C27 C34 N4 176.0(4)
C28 C27 C34 C35 -14.8(7)
C28 C29 C30 F12 -176.5(8)
C28 C29 C30 C31 2.4(13)
C29 C28 C33 F15 -179.3(6)
C29 C28 C33 C32 0.1(8)
C29 C30 C31 F13 179.4(7)
C29 C30 C31 C32 -3.3(12)
C30 C31 C32 F14 -176.6(6)
C30 C31 C32 C33 2.6(9)
C31 C32 C33 F15 178.4(5)
C31 C32 C33 C28 -1.0(7)
C33 C28 C29 F11 -176.3(7)
C33 C28 C29 C30 -0.8(11)
C34 N4 C37 C1 -168.5(4)
C34 N4 C37 C36 3.5(5)
C34 C27 C28 C29 103.5(6)
C34 C27 C28 C33 -82.5(6)
C34 C35 C36 C37 -0.5(5)
C35 C36 C37 N4 -1.8(5)
C35 C36 C37 C1 167.2(5)
C37 N4 C34 C27 168.1(4)
C37 N4 C34 C35 -3.8(5)
C37 C1 C2 C3 -168.3(5)
C38 N7 C41 C40 3.8(4)
C38 N7 C41 C42 -168.8(4)
C38 C39 C40 C41 0.3(5)
C39 C38 C74 N8 172.7(5)
C39 C38 C74 C73 6.1(10)
C39 C40 C41 N7 -2.5(5)
C39 C40 C41 C42 168.7(4)
C40 C41 C42 C43 8.2(7)
C40 C41 C42 C49 -167.6(4)
C41 N7 C38 C39 -3.7(5)
C41 N7 C38 C74 169.3(3)
C41 C42 C43 C44 116.6(5)
C41 C42 C43 C48 -60.7(6)
C41 C42 C49 N6 -1.1(6)
C41 C42 C49 C50 175.0(4)
C42 C43 C44 F16 3.4(7)
C42 C43 C44 C45 -177.7(5)
C42 C43 C48 F20 -3.5(7)
C42 C43 C48 C47 177.1(4)
C42 C49 C50 C51 -177.3(4)
C43 C42 C49 N6 -176.8(3)
C43 C42 C49 C50 -0.7(6)
C43 C44 C45 F17 -178.9(5)
C43 C44 C45 C46 0.6(8)
C44 C43 C48 F20 179.1(4)
C44 C43 C48 C47 -0.4(7)
C44 C45 C46 F18 -179.5(5)
C44 C45 C46 C47 -0.4(9)
C45 C46 C47 F19 179.7(5)
C45 C46 C47 C48 -0.1(8)
C46 C47 C48 F20 -178.9(5)
C46 C47 C48 C43 0.6(8)
C48 C43 C44 F16 -179.1(4)
C48 C43 C44 C45 -0.2(7)
C49 N6 C52 C51 0.8(4)
C49 N6 C52 C53 -175.7(4)
C49 C42 C43 C44 -67.2(6)
C49 C42 C43 C48 115.4(5)
C49 C50 C51 C52 1.0(5)
C50 C51 C52 N6 -1.1(5)
C50 C51 C52 C53 175.2(4)
C51 C52 C53 C54 12.3(6)
C51 C52 C53 C60 -167.1(4)
C52 N6 C49 C42 176.7(4)
C52 N6 C49 C50 -0.2(4)
C52 C53 C54 C55 -92.1(5)
C52 C53 C54 C59 89.4(5)
C52 C53 C60 N5 -4.6(6)
C52 C53 C60 C61 171.6(4)
C53 C54 C55 F30 0.1(6)
C53 C54 C55 C56 179.4(4)
C53 C54 C59 F26 0.7(7)
C53 C54 C59 C58 179.1(4)
C53 C60 C61 C62 -176.8(4)
C54 C53 C60 N5 176.0(4)
C54 C53 C60 C61 -7.8(6)
C54 C55 C56 F29 179.9(4)
C54 C55 C56 C57 1.5(7)
C55 C54 C59 F26 -177.9(4)
C55 C54 C59 C58 0.5(7)
C55 C56 C57 F28 179.3(4)
C55 C56 C57 C58 0.6(7)
C56 C57 C58 F27 178.8(5)
C56 C57 C58 C59 -2.1(7)
C57 C58 C59 F26 179.9(4)
C57 C58 C59 C54 1.6(8)
C59 C54 C55 F30 178.7(4)
C59 C54 C55 C56 -2.0(6)
C60 N5 C63 C62 1.3(4)
C60 N5 C63 C64 -176.7(4)
C60 C53 C54 C55 87.3(5)
C60 C53 C54 C59 -91.2(5)
C60 C61 C62 C63 0.9(5)
C61 C62 C63 N5 -1.3(5)
C61 C62 C63 C64 176.5(4)
C62 C63 C64 C65 -3.1(6)
C62 C63 C64 C71 179.8(4)
C63 N5 C60 C53 176.2(4)
C63 N5 C60 C61 -0.8(4)
C63 C64 C65 C66 -62.9(6)
C63 C64 C65 C70 108.8(5)
C63 C64 C71 N8 -7.4(6)
C63 C64 C71 C72 164.0(4)
C64 C65 C66 F25 -3.9(9)
C64 C65 C66 C67 173.4(6)
C64 C65 C70 F21 11.3(7)
C64 C65 C70 C69 -173.8(5)
C64 C71 C72 C73 -169.9(5)
C65 C64 C71 N8 175.6(4)
C65 C64 C71 C72 -13.0(7)
C65 C66 C67 F24 -177.6(6)
C65 C66 C67 C68 0.2(11)
C66 C65 C70 F21 -176.4(5)
C66 C65 C70 C69 -1.4(8)
C66 C67 C68 F23 -178.9(6)
C66 C67 C68 C69 -1.3(10)
C67 C68 C69 F22 -179.6(5)
C67 C68 C69 C70 1.0(9)
C68 C69 C70 F21 175.5(5)
C68 C69 C70 C65 0.4(8)
C70 C65 C66 F25 -176.2(5)
C70 C65 C66 C67 1.1(9)
C71 N8 C74 C38 -167.1(4)
C71 N8 C74 C73 3.5(5)
C71 C64 C65 C66 114.4(6)
C71 C64 C65 C70 -73.9(6)
C71 C72 C73 C74 -0.3(5)
C72 C73 C74 N8 -1.9(5)
C72 C73 C74 C38 165.3(5)
C74 N8 C71 C64 169.8(4)
C74 N8 C71 C72 -3.6(5)
C74 C38 C39 C40 -168.2(5)
F3A C9A C10A F4A 1(3)
F3A C9A C10A C11A -178(2)
F3A C9A C8A C7A 179.8(19)
F3A C9A C8A F2A 3(3)
F4A C10A C11A F5A 0(4)
F4A C10A C11A C6A 178(2)
C9A C10A C11A F5A 179(2)
C9A C10A C11A C6A -3(4)
C10A C9A C8A C7A -1(3)
C10A C9A C8A F2A -177.7(18)
C10A C11A C6A C5 178(2)
C10A C11A C6A C7A 3(4)
F5A C11A C6A C5 -5(4)
F5A C11A C6A C7A -179(3)
C11A C6A C7A F1A -178(2)
C11A C6A C7A C8A -2(3)
C6A C5 C12 N2 -164.5(10)
C6A C5 C12 C13 8.5(12)
C6A C7A C8A C9A 1(3)
C6A C7A C8A F2A 177.7(19)
F8A C20 C21 F9 4.9(15)
F8A C20 C21 C22 -173.9(13)
F1A C7A C8A C9A 177(2)
F1A C7A C8A F2A -6(3)
C8A C9A C10A F4A -179.0(18)
C8A C9A C10A C11A 2(3)
