#------------------------------------------------------------------------------
#$Date: 2019-11-17 08:24:23 +0200 (Sun, 17 Nov 2019) $
#$Revision: 228842 $
#$URL: file:///home/coder/svn-repositories/cod/cif/1/55/00/1550076.cif $
#------------------------------------------------------------------------------
#
# This file is available in the Crystallography Open Database (COD),
# http://www.crystallography.net/
#
# All data on this site have been placed in the public domain by the
# contributors.
#
data_1550076
loop_
_publ_author_name
'Le Roy, Jennifer J.'
'Cremers, Jonathan'
'Thomlinson, Isabel A.'
'Slota, Michael'
'Myers, William K.'
'Horton, Peter H.'
'Coles, Simon J.'
'Anderson, Harry L.'
'Bogani, Lapo'
_publ_section_title
;
 Tailored homo- and hetero- lanthanide porphyrin dimers: a synthetic
 strategy for integrating multiple spintronic functionalities into a
 single molecule.
;
_journal_issue                   45
_journal_name_full               'Chemical science'
_journal_page_first              8474
_journal_page_last               8481
_journal_paper_doi               10.1039/c8sc03762k
_journal_volume                  9
_journal_year                    2018
_chemical_formula_moiety         'C87 H127 Co N4 O9 P3 Si2 Tb, 1.5(CH2Cl2)'
_chemical_formula_sum            'C88.5 H130 Cl3 Co N4 O9 P3 Si2 Tb'
_chemical_formula_weight         1867.25
_space_group_crystal_system      monoclinic
_space_group_IT_number           14
_space_group_name_Hall           '-P 2ybc'
_space_group_name_H-M_alt        'P 1 21/c 1'
_symmetry_space_group_name_Hall  '-P 2ybc'
_symmetry_space_group_name_H-M   'P 1 21/c 1'
_atom_sites_solution_hydrogens   geom
_atom_sites_solution_primary     dual
_audit_creation_date             2017-07-26
_audit_creation_method
;
Olex2 1.2-alpha
(compiled 2017.07.04 svn.r3439 for OlexSys, GUI svn.r5361)
;
_audit_update_record
;
2017-07-27 deposited with the CCDC.
2018-10-18 downloaded from the CCDC.
;
_cell_angle_alpha                90
_cell_angle_beta                 107.3060(10)
_cell_angle_gamma                90
_cell_formula_units_Z            4
_cell_length_a                   31.5498(4)
_cell_length_b                   16.09500(10)
_cell_length_c                   19.4714(2)
_cell_measurement_reflns_used    96961
_cell_measurement_temperature    100(2)
_cell_measurement_theta_max      30.1670
_cell_measurement_theta_min      1.8290
_cell_volume                     9439.85(17)
_computing_cell_refinement       'CrysAlisPro 1.171.39.28e (Rigaku OD, 2015)'
_computing_data_collection       'CrysAlisPro 1.171.39.28e (Rigaku OD, 2015)'
_computing_data_reduction        'CrysAlisPro 1.171.39.28e (Rigaku OD, 2015)'
_computing_molecular_graphics    'Olex2 (Dolomanov et al., 2009)'
_computing_publication_material  'Olex2 (Dolomanov et al., 2009)'
_computing_structure_refinement  'ShelXL (Sheldrick, 2015)'
_computing_structure_solution    'ShelXT (Sheldrick, 2015)'
_diffrn_ambient_temperature      100(2)
_diffrn_detector                 'hybrid pixel detector'
_diffrn_detector_area_resol_mean 10
_diffrn_detector_dtime           0.000
_diffrn_detector_type            'Rigaku, HyPix 6000'
_diffrn_measured_fraction_theta_full 0.999
_diffrn_measured_fraction_theta_max 0.999
_diffrn_measurement_details
;
List of Runs (angles in degrees, time in seconds):

  # Type    Start    End  Width  t~exp~   \w     \q     \k     \f   Frames
#--------------------------------------------------------------------------
  1  \w    -66.00  67.00   0.50   13.00    --  -22.80  57.00-150.00  266
  2  \w    -66.00  67.00   0.50   13.00    --  -22.80  57.00  90.00  266
  3  \w    -66.00  67.00   0.50   13.00    --  -22.80  65.00 -90.00  266
  4  \w    -66.00  67.00   0.50   13.00    --  -22.80  65.00 120.00  266
  5  \w    -66.00  67.00   0.50   13.00    --  -22.80  65.00   0.00  266
  6  \w    -66.00  67.00   0.50   13.00    --  -22.80  65.00-180.00  266
  7  \w    -66.00  67.00   0.50   13.00    --  -22.80  65.00 -30.00  266
  8  \w   -112.00  21.00   0.50   13.00    --  -22.80 -65.00  90.00  266
  9  \w   -112.00  21.00   0.50   13.00    --  -22.80 -57.00 150.00  266
 10  \w   -112.00  21.00   0.50   13.00    --  -22.80 -57.00 -30.00  266
 11  \w   -112.00  21.00   0.50   13.00    --  -22.80 -65.00-150.00  266
 12  \w   -112.00  21.00   0.50   13.00    --  -22.80 -65.00  30.00  266
 13  \w   -112.00  21.00   0.50   13.00    --  -22.80 -65.00 -90.00  266
 14  \w   -112.00  -2.00   0.50   13.00    --  -22.80 -65.00 -30.00  220
 15  \w   -112.00  21.00   0.50   13.00    --  -22.80 -65.00 150.00  266
;
_diffrn_measurement_device       'four-circle diffractometer'
_diffrn_measurement_device_details 'Rigaku, AFC11 quarter \c goniometer'
_diffrn_measurement_device_type
'Rigaku FRE+ equipped with VHF Varimax confocal mirrors and an AFC12 goniometer and HyPix 6000 detector'
_diffrn_measurement_method       'profile data from \w-scans'
_diffrn_measurement_specimen_support 'MiTeGen MicroLoop'
_diffrn_orient_matrix_type
'CrysAlisPro convention (1999,Acta A55,543-557)'
_diffrn_orient_matrix_UB_11      -0.0027497000
_diffrn_orient_matrix_UB_12      0.0075029000
_diffrn_orient_matrix_UB_13      0.0343243000
_diffrn_orient_matrix_UB_21      0.0233787000
_diffrn_orient_matrix_UB_22      -0.0001332000
_diffrn_orient_matrix_UB_23      0.0156166000
_diffrn_orient_matrix_UB_31      0.0005547000
_diffrn_orient_matrix_UB_32      0.0434113000
_diffrn_orient_matrix_UB_33      -0.0058862000
_diffrn_radiation_collimation    0.2
_diffrn_radiation_monochromator  'Confocal mirrors, VHF Varimax'
_diffrn_radiation_probe          x-ray
_diffrn_radiation_type           MoK\a
_diffrn_radiation_wavelength     0.71075
_diffrn_radiation_xray_symbol    K-L~3~
_diffrn_reflns_av_R_equivalents  0.0656
_diffrn_reflns_av_unetI/netI     0.0249
_diffrn_reflns_Laue_measured_fraction_full 0.999
_diffrn_reflns_Laue_measured_fraction_max 0.999
_diffrn_reflns_limit_h_max       40
_diffrn_reflns_limit_h_min       -40
_diffrn_reflns_limit_k_max       20
_diffrn_reflns_limit_k_min       -20
_diffrn_reflns_limit_l_max       25
_diffrn_reflns_limit_l_min       -25
_diffrn_reflns_number            315944
_diffrn_reflns_point_group_measured_fraction_full 0.999
_diffrn_reflns_point_group_measured_fraction_max 0.999
_diffrn_reflns_theta_full        25.242
_diffrn_reflns_theta_max         27.485
_diffrn_reflns_theta_min         1.852
_diffrn_source                   'Rotating Anode'
_diffrn_source_current           55.0
_diffrn_source_power             2.475
_diffrn_source_target            Mo
_diffrn_source_type              'Rigaku FRE+'
_diffrn_source_voltage           45.0
_exptl_absorpt_coefficient_mu    1.134
_exptl_absorpt_correction_T_max  1.000
_exptl_absorpt_correction_T_min  0.348
_exptl_absorpt_correction_type   gaussian
_exptl_absorpt_process_details
;
CrysAlisPro 1.171.39.28e (Rigaku Oxford Diffraction, 2015)
Numerical absorption correction based on gaussian integration over
            a multifaceted crystal model
Empirical absorption correction using spherical harmonics,
 implemented in SCALE3 ABSPACK scaling algorithm.
;
_exptl_crystal_colour            'iridescent purple'
_exptl_crystal_colour_primary    'iridescent purple'
_exptl_crystal_density_diffrn    1.314
_exptl_crystal_description       plate
_exptl_crystal_F_000             3908
_exptl_crystal_recrystallization_method
'The material was obtained from a mixture of methanol and DCM'
_exptl_crystal_size_max          0.319
_exptl_crystal_size_mid          0.28
_exptl_crystal_size_min          0.041
_refine_diff_density_max         1.928
_refine_diff_density_min         -1.148
_refine_diff_density_rms         0.138
_refine_ls_extinction_method     none
_refine_ls_goodness_of_fit_ref   1.048
_refine_ls_hydrogen_treatment    constr
_refine_ls_matrix_type           full
_refine_ls_number_parameters     1228
_refine_ls_number_reflns         21622
_refine_ls_number_restraints     3508
_refine_ls_restrained_S_all      1.043
_refine_ls_R_factor_all          0.1022
_refine_ls_R_factor_gt           0.0872
_refine_ls_shift/su_max          0.002
_refine_ls_shift/su_mean         0.000
_refine_ls_structure_factor_coef Fsqd
_refine_ls_weighting_details
'w=1/[\s^2^(Fo^2^)+(0.1460P)^2^+35.4756P] where P=(Fo^2^+2Fc^2^)/3'
_refine_ls_weighting_scheme      calc
_refine_ls_wR_factor_gt          0.2518
_refine_ls_wR_factor_ref         0.2681
_reflns_Friedel_coverage         0.000
_reflns_number_gt                17246
_reflns_number_total             21622
_reflns_threshold_expression     'I > 2\s(I)'
_cod_data_source_file            c8sc03762k2.cif
_cod_data_source_block           P1Tb
_cod_depositor_comments
'Adding full bibliography for 1550065--1550077.cif.'
_cod_original_formula_sum        'C88.50 H130 Cl3 Co N4 O9 P3 Si2 Tb'
_cod_database_code               1550076
_shelx_shelxl_version_number     2014/7
_chemical_oxdiff_formula         'C55H83 (C14H21)2 Co N4 O9 P3 Si2 Tb'
_chemical_oxdiff_usercomment     Tb-Por
_shelx_space_group_comment
;
The symmetry employed for this shelxl refinement is uniquely defined
by the following loop, which should always be used as a source of
symmetry information in preference to the above space-group names.
They are only intended as comments.
;
_shelx_estimated_absorpt_t_max   0.955
_shelx_estimated_absorpt_t_min   0.714
_reflns_odcompleteness_completeness 99.91
_reflns_odcompleteness_iscentric 1
_reflns_odcompleteness_theta     27.42
_olex2_refinement_description
;
1. Fixed Uiso
 At 1.2 times of:
  All C(H) groups, All C(H,H) groups
 At 1.5 times of:
  All C(H,H,H) groups
2. Restrained distances
 O206-C205 = O207-C207 = O208-C209 = O209-C211 = O204-C201 = O205-C203
 1.45 with sigma of 0.04
 Si1-C23 \\sim Si1-C26 \\sim Si1-C29 \\sim Si2-C40 \\sim Si2-C34 \\sim Si2-C37
 with sigma of 0.02
 C25-C24 \\sim C27-C28 \\sim C30-C31 \\sim C35-C36 \\sim C38-C39 \\sim C41-C42
 with sigma of 0.02
 C31-C29 \\sim C29-C30 \\sim C28-C26 \\sim C26-C27 \\sim C25-C23 \\sim C23-C24
 with sigma of 0.02
 C35-C34 \\sim C34-C36 \\sim C41-C40 \\sim C40-C42 \\sim C39-C37 \\sim C37-C38
 with sigma of 0.02
 C39-Si2 \\sim Si2-C38 \\sim C42-Si2 \\sim Si2-C41 \\sim C36-Si2 \\sim Si2-C35
 with sigma of 0.02
 C30-Si1 \\sim Si1-C31 \\sim C24-Si1 \\sim Si1-C25 \\sim C28-Si1 \\sim Si1-C27
 with sigma of 0.02
 C68-C61 \\sim C61-C69 \\sim C61-C70 \\sim C65-C59 \\sim C59-C66 \\sim C59-C64
 with sigma of 0.02
 C50-C45 \\sim C45-C51 \\sim C45-C52 \\sim C56-C47 \\sim C47-C55 \\sim C47-C54
 with sigma of 0.02
 C63-C59 \\sim C67-C61 \\sim C49-C45 \\sim C53-C47
 with sigma of 0.02
 C59-C64 \\sim C59-C65 \\sim C59-C66 \\sim C64-C65 \\sim C65-C66
 with sigma of 0.04
 C63-C59 \\sim C63-C64 \\sim C63-C65 \\sim C63-C66
 with sigma of 0.02
 C61-C68 \\sim C61-C69 \\sim C68-C70 \\sim C69-C70
 with sigma of 0.04
 C67-C61 \\sim C67-C68 \\sim C67-C69 \\sim C67-C70
 with sigma of 0.02
 C45-C50 \\sim C45-C51 \\sim C45-C52 \\sim C50-C51 \\sim C50-C52 \\sim C51-C52
 with sigma of 0.04
 C49-C45 \\sim C49-C50 \\sim C49-C51 \\sim C49-C52
 with sigma of 0.02
 C47-C54 \\sim C47-C55 \\sim C47-C56 \\sim C54-C55 \\sim C54-C56 \\sim C55-C56
 with sigma of 0.04
 C53-C47 \\sim C53-C54 \\sim C53-C55 \\sim C53-C56
 with sigma of 0.02
 O106-C105 \\sim O107-C107 \\sim O108-C109 \\sim O109-C111 \\sim O104-C101
\\sim O105-C103
 with sigma of 0.02
 C106-C105 \\sim C108-C107 \\sim C110-C109 \\sim C112-C111 \\sim C102-C101
\\sim C104-C103
 with sigma of 0.02
 P102-O107 \\sim P102-O106 \\sim P103-O108 \\sim P103-O109 \\sim P101-O104
\\sim P101-O105
 with sigma of 0.02
 C106-O106 \\sim C108-O107 \\sim C110-O108 \\sim O109-C112 \\sim O104-C102
\\sim O105-C104
 with sigma of 0.02
 P102-O102 \\sim P103-O103 \\sim P101-O101
 with sigma of 0.02
 O104-O105 \\sim O106-O107 \\sim O108-O109
 with sigma of 0.02
 O206-C205 \\sim O207-C207 \\sim O208-C209 \\sim O209-C211 \\sim O204-C201
\\sim O205-C203
 with sigma of 0.02
 C206-C205 \\sim C208-C207 \\sim C210-C209 \\sim C212-C211 \\sim C202-C201
\\sim C204-C203
 with sigma of 0.02
 P202-O207 \\sim P202-O206 \\sim P203-O208 \\sim P203-O209 \\sim P201-O204
\\sim P201-O205
 with sigma of 0.02
 C206-O206 \\sim C208-O207 \\sim C210-O208 \\sim O209-C212 \\sim O204-C202
\\sim O205-C204
 with sigma of 0.02
 P202-O202 \\sim P203-O203 \\sim P201-O201
 with sigma of 0.02
 O204-O205 \\sim O206-O207 \\sim O208-O209
 with sigma of 0.02
 Co2-C222 \\sim Co2-C221 \\sim Co2-C223 \\sim Co2-C225 \\sim Co2-C224
 with sigma of 0.02
3. Uiso/Uaniso restraints and constraints
All non-hydrogen atoms have similar U: within 2A with sigma of 0.04 and sigma
for terminal atoms of 0.08
4. Rigid body (RIGU) restrains
 All non-hydrogen atoms
 with sigma for 1-2 distances of 0.004 and sigma for 1-3 distances of 0.004
5. Same fragment restrains
{P101, P102, P103, O101, O102, O103, O104, O105, O106, O107, O108, O109, C101,
C102, C103, C104, C105, C106, C107, C108, C109, C110, C111, C112} sigma for
1-2: 0.02, 1-3: 0.04
as
{P201, P202, P203, O201, O202, O203, O204, O205, O206, O207, O208, O209, C201,
C202, C203, C204, C205, C206, C207, C208, C209, C210, C211, C212}
6. Others
 Sof(Tb2)=1-FVAR(1)
 Sof(Tb1)=FVAR(1)
 Sof(Co2)=Sof(C221)=Sof(H221)=Sof(C222)=Sof(H222)=Sof(C223)=Sof(H223)=
 Sof(C224)=Sof(H224)=Sof(C225)=Sof(H225)=1-FVAR(2)
 Sof(Co1)=Sof(C121)=Sof(H121)=Sof(C122)=Sof(H122)=Sof(C123)=Sof(H123)=
 Sof(C124)=Sof(H124)=Sof(C125)=Sof(H125)=FVAR(2)
 Sof(P201)=Sof(P202)=Sof(P203)=Sof(O201)=Sof(O202)=Sof(O203)=Sof(O204)=
 Sof(O205)=Sof(O206)=Sof(O207)=Sof(O208)=Sof(O209)=Sof(C201)=Sof(H20A)=
 Sof(H20B)=Sof(C202)=Sof(H20C)=Sof(H20D)=Sof(H20E)=Sof(C203)=Sof(H20F)=
 Sof(H20G)=Sof(C204)=Sof(H20H)=Sof(H20I)=Sof(H20J)=Sof(C205)=Sof(H20K)=
 Sof(H20L)=Sof(C206)=Sof(H20M)=Sof(H20N)=Sof(H20O)=Sof(C207)=Sof(H20P)=
 Sof(H20Q)=Sof(C208)=Sof(H20R)=Sof(H20S)=Sof(H20T)=Sof(C209)=Sof(H20U)=
 Sof(H20V)=Sof(C210)=Sof(H21A)=Sof(H21B)=Sof(H21C)=Sof(C211)=Sof(H21D)=
 Sof(H21E)=Sof(C212)=Sof(H21F)=Sof(H21G)=Sof(H21H)=1-FVAR(3)
 Sof(P101)=Sof(P102)=Sof(P103)=Sof(O101)=Sof(O102)=Sof(O103)=Sof(O104)=
 Sof(O105)=Sof(O106)=Sof(O107)=Sof(O108)=Sof(O109)=Sof(C101)=Sof(H10A)=
 Sof(H10B)=Sof(C102)=Sof(H10C)=Sof(H10D)=Sof(H10E)=Sof(C103)=Sof(H10F)=
 Sof(H10G)=Sof(C104)=Sof(H10H)=Sof(H10I)=Sof(H10J)=Sof(C105)=Sof(H10K)=
 Sof(H10L)=Sof(C106)=Sof(H10M)=Sof(H10N)=Sof(H10O)=Sof(C107)=Sof(H10P)=
 Sof(H10Q)=Sof(C108)=Sof(H10R)=Sof(H10S)=Sof(H10T)=Sof(C109)=Sof(H10U)=
 Sof(H10V)=Sof(C110)=Sof(H11A)=Sof(H11B)=Sof(H11C)=Sof(C111)=Sof(H11D)=
 Sof(H11E)=Sof(C112)=Sof(H11F)=Sof(H11G)=Sof(H11H)=FVAR(3)
7.a Ternary CH refined with riding coordinates:
 C23(H23), C26(H26), C29(H29), C34(H34), C37(H37), C40(H40)
7.b Secondary CH2 refined with riding coordinates:
 C101(H10A,H10B), C103(H10F,H10G), C105(H10K,H10L), C107(H10P,H10Q), C109(H10U,
 H10V), C111(H11D,H11E), C201(H20A,H20B), C203(H20F,H20G), C205(H20K,H20L),
 C207(H20P,H20Q), C209(H20U,H20V), C211(H21D,H21E)
7.c Me refined with riding coordinates:
 C24(H24A,H24B,H24C), C25(H25A,H25B,H25C), C27(H27A,H27B,H27C), C28(H28A,H28B,
 H28C), C30(H30A,H30B,H30C), C31(H31A,H31B,H31C), C35(H35A,H35B,H35C), C36(H36A,
 H36B,H36C), C38(H38A,H38B,H38C), C39(H39A,H39B,H39C), C41(H41A,H41B,H41C),
 C42(H42A,H42B,H42C), C50(H50A,H50B,H50C), C51(H51A,H51B,H51C), C52(H52A,H52B,
 H52C), C54(H54A,H54B,H54C), C55(H55A,H55B,H55C), C56(H56A,H56B,H56C), C64(H64A,
 H64B,H64C), C65(H65A,H65B,H65C), C66(H66A,H66B,H66C), C68(H68A,H68B,H68C),
 C69(H69A,H69B,H69C), C70(H70A,H70B,H70C), C102(H10C,H10D,H10E), C104(H10H,H10I,
 H10J), C106(H10M,H10N,H10O), C108(H10R,H10S,H10T), C110(H11A,H11B,H11C),
 C112(H11F,H11G,H11H), C202(H20C,H20D,H20E), C204(H20H,H20I,H20J), C206(H20M,
 H20N,H20O), C208(H20R,H20S,H20T), C210(H21A,H21B,H21C), C212(H21F,H21G,H21H)
7.d Aromatic/amide H refined with riding coordinates:
 C2(H2), C3(H3), C7(H7), C8(H8), C12(H12), C13(H13), C17(H17), C18(H18),
 C44(H44), C46(H46), C48(H48), C58(H58), C60(H60), C62(H62), C121(H121),
 C122(H122), C123(H123), C124(H124), C125(H125), C221(H221), C222(H222),
 C223(H223), C224(H224), C225(H225)
7.e Fitted pentagon refined as free rotating group:
 C121(C122,C123,C124,C125), C221(C222,C223,C224,C225)
;
_shelx_res_file
;
    2016ncs0592.res created by SHELXL-2014/7

TITL 2016ncs0592_a.res in P2(1)/c
REM Old TITL 2016ncs0592new2_2b in P2(1)/c
REM SHELXT solution in P2(1)/c
REM R1 0.258, Rweak 0.013, Alpha 0.069, Orientation as input
REM Formula found by SHELXT: C70 N18 O5 Si5 Co2 Tb2
CELL 0.71075 31.5498 16.095 19.4714 90 107.306 90
ZERR 4 0.0004 0.0001 0.0002 0 0.001 0
LATT 1
SYMM -X,0.5+Y,0.5-Z
SFAC C Cl Co H N O P Si Tb
UNIT 354 12 4 520 16 36 12 8 4
DFIX 1.45 0.04 O206 C205 O207 C207 O208 C209 O209 C211 O204 C201 O205 C203
SADI Si1 C23 Si1 C26 Si1 C29 Si2 C40 Si2 C34 Si2 C37
SADI C25 C24 C27 C28 C30 C31 C35 C36 C38 C39 C41 C42
SADI C31 C29 C29 C30 C28 C26 C26 C27 C25 C23 C23 C24
SADI C35 C34 C34 C36 C41 C40 C40 C42 C39 C37 C37 C38
SADI C39 Si2 Si2 C38 C42 Si2 Si2 C41 C36 Si2 Si2 C35
SADI C30 Si1 Si1 C31 C24 Si1 Si1 C25 C28 Si1 Si1 C27
SADI C68 C61 C61 C69 C61 C70 C65 C59 C59 C66 C59 C64
SADI C50 C45 C45 C51 C45 C52 C56 C47 C47 C55 C47 C54
SADI C63 C59 C67 C61 C49 C45 C53 C47
SADI 0.04 C59 C64 C59 C65 C59 C66 C64 C65 C65 C66
SADI C63 C59 C63 C64 C63 C65 C63 C66
SADI 0.04 C61 C68 C61 C69 C68 C70 C69 C70
SADI C67 C61 C67 C68 C67 C69 C67 C70
SADI 0.04 C45 C50 C45 C51 C45 C52 C50 C51 C50 C52 C51 C52
SADI C49 C45 C49 C50 C49 C51 C49 C52
SADI 0.04 C47 C54 C47 C55 C47 C56 C54 C55 C54 C56 C55 C56
SADI C53 C47 C53 C54 C53 C55 C53 C56
SADI O106 C105 O107 C107 O108 C109 O109 C111 O104 C101 O105 C103
SADI C106 C105 C108 C107 C110 C109 C112 C111 C102 C101 C104 C103
SADI P102 O107 P102 O106 P103 O108 P103 O109 P101 O104 P101 O105
SADI C106 O106 C108 O107 C110 O108 O109 C112 O104 C102 O105 C104
SADI P102 O102 P103 O103 P101 O101
SADI O104 O105 O106 O107 O108 O109
SADI O206 C205 O207 C207 O208 C209 O209 C211 O204 C201 O205 C203
SADI C206 C205 C208 C207 C210 C209 C212 C211 C202 C201 C204 C203
SADI P202 O207 P202 O206 P203 O208 P203 O209 P201 O204 P201 O205
SADI C206 O206 C208 O207 C210 O208 O209 C212 O204 C202 O205 C204
SADI P202 O202 P203 O203 P201 O201
SADI O204 O205 O206 O207 O208 O209
SADI Co2 C222 Co2 C221 Co2 C223 Co2 C225 Co2 C224
SIMU
RIGU

L.S. 29
PLAN  20
SIZE 0.041 0.28 0.319
TEMP -173
FREE O209 C212
FREE O208 C210
FREE O208 C211
FREE O205 C204
FREE P202 C205
FREE P203 C211
FREE O206 C206
FREE O207 C208
FREE O204 C202
FREE P102 Tb2
FREE Co2 O105
FREE Co1 Co2
FREE Tb2 C9
FREE Tb2 C10
FREE Tb2 C11
FREE Tb1 Tb2
BIND 1 3
BIND 1 4
BIND 2 3
BIND 2 4
BUMP -0.03
BOND $H
CONF
ABIN
fmap 2
acta
OMIT 4 6 0
OMIT 1 5 0
OMIT -4 7 2
OMIT 3 3 0
OMIT 7 5 2
REM <olex2.extras>
REM <HklSrc "%.\\2016ncs0592.hkl">
REM </olex2.extras>

WGHT    0.146000   35.475601
FVAR       0.16786   0.88595   0.78477   0.70555
PART 3
TB1   9    0.267260    0.302246    0.469774    21.00000    0.06422    0.03409 =
         0.04056   -0.00172    0.03123    0.00007
PART 0
PART 4
TB2   9    0.244077    0.288541    0.455400   -21.00000    0.10940    0.03646 =
         0.04073    0.00473    0.03536    0.00449
PART 0
PART 3
CO1   3    0.279829    0.360639    0.264032    31.00000    0.11111    0.05787 =
         0.04944   -0.00640    0.04899   -0.01254
PART 0
PART 4
CO2   3    0.285235    0.404590    0.273933   -31.00000    0.13579    0.08402 =
         0.05565    0.01276    0.05450    0.00688
PART 0
SI1   8    0.503791    0.458720    0.709705    11.00000    0.08710    0.07200 =
         0.16394   -0.04331    0.05511   -0.01890
SI2   8    0.023529    0.112071    0.323557    11.00000    0.06494    0.12793 =
         0.15378    0.01332    0.00787    0.00037
N1    5    0.287559    0.390065    0.573117    11.00000    0.09159    0.03116 =
         0.05106    0.00374    0.04236    0.00457
N2    5    0.200062    0.327029    0.501185    11.00000    0.08035    0.05042 =
         0.05539    0.00072    0.03707    0.00893
N3    5    0.237624    0.166010    0.483399    11.00000    0.07990    0.04413 =
         0.04785   -0.00720    0.03179    0.00176
N4    5    0.326350    0.230373    0.552122    11.00000    0.08139    0.03450 =
         0.05729   -0.00065    0.03727   -0.00027
C1    1    0.331506    0.408371    0.608537    11.00000    0.08655    0.03356 =
         0.06308    0.00141    0.04188   -0.00651
C2    1    0.335361    0.490463    0.639204    11.00000    0.09327    0.03299 =
         0.06795    0.00122    0.03825   -0.00206
AFIX  43
H2    4    0.361838    0.518121    0.665385    11.00000   -1.20000
AFIX   0
C3    1    0.293873    0.519597    0.623109    11.00000    0.10152    0.03601 =
         0.06970    0.00565    0.04532    0.00113
AFIX  43
H3    4    0.285718    0.572695    0.636351    11.00000   -1.20000
AFIX   0
C4    1    0.263697    0.458546    0.582920    11.00000    0.09172    0.03524 =
         0.05025    0.00750    0.04044    0.00998
C5    1    0.216855    0.464063    0.557713    11.00000    0.09300    0.04568 =
         0.04734    0.00612    0.04060    0.01324
C6    1    0.188292    0.405522    0.521969    11.00000    0.08703    0.05492 =
         0.05786    0.00231    0.04164    0.01338
C7    1    0.140155    0.409327    0.502110    11.00000    0.08853    0.07651 =
         0.09283   -0.00816    0.04853    0.01451
AFIX  43
H7    4    0.123052    0.454684    0.510441    11.00000   -1.20000
AFIX   0
C8    1    0.124010    0.336791    0.469640    11.00000    0.07726    0.08357 =
         0.10116   -0.00660    0.04192    0.00796
AFIX  43
H8    4    0.093636    0.322159    0.449880    11.00000   -1.20000
AFIX   0
C9    1    0.161760    0.286189    0.470864    11.00000    0.08487    0.06701 =
         0.08058   -0.00394    0.04820    0.00230
C10   1    0.158903    0.203466    0.444744    11.00000    0.07701    0.06639 =
         0.07137   -0.00121    0.03424   -0.00203
C11   1    0.195573    0.147325    0.454637    11.00000    0.08036    0.05315 =
         0.05580   -0.00450    0.03176   -0.00260
C12   1    0.190411    0.060042    0.435707    11.00000    0.08458    0.05473 =
         0.06650   -0.00871    0.02093   -0.00258
AFIX  43
H12   4    0.163303    0.031661    0.414183    11.00000   -1.20000
AFIX   0
C13   1    0.230771    0.027504    0.454205    11.00000    0.09084    0.05221 =
         0.06243   -0.01133    0.02398    0.00006
AFIX  43
H13   4    0.237944   -0.028687    0.447666    11.00000   -1.20000
AFIX   0
C14   1    0.261702    0.091959    0.485807    11.00000    0.08890    0.05292 =
         0.04762   -0.00454    0.03059    0.00000
C15   1    0.307675    0.085480    0.513691    11.00000    0.08623    0.03628 =
         0.05268   -0.00327    0.03752    0.00607
C16   1    0.338700    0.149197    0.545906    11.00000    0.08080    0.03497 =
         0.06119   -0.00002    0.04199    0.00168
C17   1    0.384612    0.138908    0.579820    11.00000    0.07626    0.03714 =
         0.08846   -0.00484    0.04273    0.00156
AFIX  43
H17   4    0.400780    0.088604    0.582522    11.00000   -1.20000
AFIX   0
C18   1    0.401793    0.213453    0.608029    11.00000    0.07186    0.04018 =
         0.08935   -0.00458    0.03725   -0.00093
AFIX  43
H18   4    0.431895    0.225229    0.633367    11.00000   -1.20000
AFIX   0
C19   1    0.365287    0.270427    0.591744    11.00000    0.07540    0.03633 =
         0.06889   -0.00246    0.03822   -0.00401
C20   1    0.368149    0.354410    0.614593    11.00000    0.08469    0.03568 =
         0.06831   -0.00283    0.04116   -0.00571
C21   1    0.411231    0.386072    0.648818    11.00000    0.08776    0.04234 =
         0.08661   -0.00931    0.04306   -0.00695
C22   1    0.447624    0.414618    0.676207    11.00000    0.09101    0.04826 =
         0.11276   -0.01575    0.04468   -0.01425
C23   1    0.497190    0.574028    0.684164    11.00000    0.13270    0.08994 =
         0.14239   -0.02243    0.05054   -0.04565
AFIX  13
H23   4    0.486207    0.578519    0.630547    11.00000   -1.20000
AFIX   0
C24   1    0.540850    0.620644    0.710774    11.00000    0.13807    0.11504 =
         0.20791   -0.07215    0.08571   -0.05675
AFIX  33
H24A  4    0.562862    0.594790    0.691104    11.00000   -1.50000
H24B  4    0.536413    0.678651    0.694961    11.00000   -1.50000
H24C  4    0.551462    0.618587    0.763436    11.00000   -1.50000
AFIX   0
C25   1    0.463988    0.614515    0.714832    11.00000    0.14942    0.06337 =
         0.24336   -0.00855    0.08353   -0.01673
AFIX  33
H25A  4    0.435610    0.584975    0.698045    11.00000   -1.50000
H25B  4    0.474858    0.612477    0.767479    11.00000   -1.50000
H25C  4    0.459809    0.672540    0.699004    11.00000   -1.50000
AFIX   0
C26   1    0.527322    0.440240    0.808679    11.00000    0.14490    0.09519 =
         0.17361   -0.01052    0.00495   -0.02451
AFIX  13
H26   4    0.560133    0.435897    0.817534    11.00000   -1.20000
AFIX   0
C27   1    0.521539    0.504591    0.857646    11.00000    0.51688    0.18306 =
         0.23226   -0.03838    0.10856   -0.00036
AFIX  33
H27A  4    0.530230    0.558466    0.842622    11.00000   -1.50000
H27B  4    0.490331    0.506660    0.856732    11.00000   -1.50000
H27C  4    0.540160    0.491972    0.906553    11.00000   -1.50000
AFIX   0
C28   1    0.513683    0.358108    0.833190    11.00000    0.35267    0.14555 =
         0.19966   -0.00088    0.03046   -0.08300
AFIX  33
H28A  4    0.517345    0.313880    0.800830    11.00000   -1.50000
H28B  4    0.532343    0.346241    0.882229    11.00000   -1.50000
H28C  4    0.482515    0.360929    0.832408    11.00000   -1.50000
AFIX   0
C29   1    0.538698    0.403584    0.663281    11.00000    0.15193    0.17753 =
         0.27591   -0.09839    0.11401   -0.01888
AFIX  13
H29   4    0.567885    0.433142    0.675895    11.00000   -1.20000
AFIX   0
C30   1    0.519850    0.406296    0.582441    11.00000    0.20120    0.31305 =
         0.26052   -0.09631    0.14211   -0.04392
AFIX  33
H30A  4    0.513325    0.463991    0.566771    11.00000   -1.50000
H30B  4    0.541511    0.383184    0.560551    11.00000   -1.50000
H30C  4    0.492469    0.373475    0.567491    11.00000   -1.50000
AFIX   0
C31   1    0.548233    0.315322    0.685325    11.00000    0.36341    0.20923 =
         0.37423   -0.07261    0.14988    0.04444
AFIX  33
H31A  4    0.560532    0.312168    0.737776    11.00000   -1.50000
H31B  4    0.520701    0.282992    0.669826    11.00000   -1.50000
H31C  4    0.569743    0.292700    0.662886    11.00000   -1.50000
AFIX   0
C32   1    0.115728    0.172820    0.407933    11.00000    0.08111    0.06139 =
         0.09765    0.00549    0.03724    0.00074
C33   1    0.079659    0.146279    0.376138    11.00000    0.07700    0.09219 =
         0.12162   -0.00455    0.03308    0.00054
C34   1    0.023517    0.130134    0.227289    11.00000    0.19121    0.29713 =
         0.18451    0.02504    0.01347   -0.04012
AFIX  13
H34   4    0.051727    0.109494    0.219860    11.00000   -1.20000
AFIX   0
C35   1    0.018258    0.223213    0.213006    11.00000    0.15690    0.31900 =
         0.24641    0.08732   -0.06755   -0.03642
AFIX  33
H35A  4    0.043513    0.252621    0.245573    11.00000   -1.50000
H35B  4    0.017208    0.234517    0.163071    11.00000   -1.50000
H35C  4   -0.009328    0.242365    0.221189    11.00000   -1.50000
AFIX   0
C36   1   -0.016273    0.088161    0.175650    11.00000    0.29355    0.44848 =
         0.22399   -0.00210   -0.00331   -0.11837
AFIX  33
H36A  4   -0.014060    0.027930    0.183252    11.00000   -1.50000
H36B  4   -0.043524    0.108616    0.184195    11.00000   -1.50000
H36C  4   -0.016989    0.100769    0.126078    11.00000   -1.50000
AFIX   0
C37   1   -0.014786    0.151141    0.373969    11.00000    0.12828    0.21992 =
         0.32781   -0.06224    0.09693   -0.02868
AFIX  13
H37   4   -0.005253    0.132679    0.425331    11.00000   -1.20000
AFIX   0
C38   1   -0.016059    0.247571    0.367105    11.00000    0.21706    0.22849 =
         0.55823   -0.07299    0.17900   -0.01022
AFIX  33
H38A  4    0.013528    0.270196    0.390770    11.00000   -1.50000
H38B  4   -0.025188    0.263095    0.316132    11.00000   -1.50000
H38C  4   -0.037318    0.270106    0.390093    11.00000   -1.50000
AFIX   0
C39   1   -0.062403    0.125699    0.335224    11.00000    0.12830    0.22733 =
         0.43274   -0.04683    0.08927   -0.00274
AFIX  33
H39A  4   -0.065045    0.065098    0.336627    11.00000   -1.50000
H39B  4   -0.082468    0.151319    0.359038    11.00000   -1.50000
H39C  4   -0.070338    0.144308    0.285077    11.00000   -1.50000
AFIX   0
C40   1    0.021142   -0.002350    0.331056    11.00000    0.13676    0.14905 =
         0.25201   -0.02156    0.01892   -0.02746
AFIX  13
H40   4   -0.008389   -0.023045    0.300760    11.00000   -1.20000
AFIX   0
C41   1    0.057684   -0.045667    0.309636    11.00000    0.13352    0.18177 =
         0.29392   -0.05319    0.01728   -0.02177
AFIX  33
H41A  4    0.055178   -0.032402    0.259460    11.00000   -1.50000
H41B  4    0.086571   -0.026888    0.340741    11.00000   -1.50000
H41C  4    0.055044   -0.105855    0.314789    11.00000   -1.50000
AFIX   0
C42   1    0.028539   -0.027912    0.410968    11.00000    0.21873    0.21709 =
         0.25885    0.00551    0.02208   -0.03063
AFIX  33
H42A  4    0.005792   -0.001851    0.428828    11.00000   -1.50000
H42B  4    0.026474   -0.088464    0.414188    11.00000   -1.50000
H42C  4    0.058001   -0.009496    0.440139    11.00000   -1.50000
AFIX   0
C43   1    0.197504    0.545018    0.573879    11.00000    0.09821    0.04623 =
         0.05496    0.00855    0.03942    0.02083
C44   1    0.201141    0.567638    0.643225    11.00000    0.12198    0.05255 =
         0.05301    0.01001    0.03953    0.03039
AFIX  43
H44   4    0.215338    0.530747    0.681184    11.00000   -1.20000
AFIX   0
C45   1    0.184720    0.642975    0.660045    11.00000    0.14460    0.06354 =
         0.07277    0.00393    0.05184    0.04244
C46   1    0.161504    0.692686    0.601532    11.00000    0.15083    0.06404 =
         0.08906    0.01670    0.05177    0.05156
AFIX  43
H46   4    0.148602    0.742952    0.611301    11.00000   -1.20000
AFIX   0
C47   1    0.156438    0.672261    0.530349    11.00000    0.12847    0.06562 =
         0.08163    0.02455    0.05107    0.04030
C48   1    0.174984    0.597755    0.518346    11.00000    0.10677    0.06479 =
         0.05959    0.01761    0.03950    0.03013
AFIX  43
H48   4    0.172227    0.581962    0.470200    11.00000   -1.20000
AFIX   0
C49   1    0.190089    0.665701    0.737293    11.00000    0.22266    0.08960 =
         0.07776   -0.00083    0.06781    0.06517
C50   1    0.236778    0.651543    0.783739    11.00000    0.23891    0.12453 =
         0.08235   -0.01389    0.04082    0.05199
AFIX  33
H50A  4    0.257168    0.685279    0.765989    11.00000   -1.50000
H50B  4    0.239337    0.667431    0.833397    11.00000   -1.50000
H50C  4    0.244353    0.592662    0.782194    11.00000   -1.50000
AFIX   0
C51   1    0.178642    0.755607    0.744485    11.00000    0.29775    0.11023 =
         0.11101   -0.01835    0.06073    0.08630
AFIX  33
H51A  4    0.197394    0.791086    0.724687    11.00000   -1.50000
H51B  4    0.147362    0.765161    0.718041    11.00000   -1.50000
H51C  4    0.183732    0.769001    0.795400    11.00000   -1.50000
AFIX   0
C52   1    0.161314    0.612556    0.767615    11.00000    0.27861    0.15451 =
         0.10267   -0.01355    0.10571    0.02854
AFIX  33
H52A  4    0.130219    0.619556    0.738997    11.00000   -1.50000
H52B  4    0.169914    0.554208    0.766287    11.00000   -1.50000
H52C  4    0.164898    0.628976    0.817490    11.00000   -1.50000
AFIX   0
C53   1    0.130329    0.728740    0.470971    11.00000    0.14653    0.09955 =
         0.10547    0.05519    0.05702    0.05766
C54   1    0.152217    0.812128    0.475048    11.00000    0.18116    0.10943 =
         0.15912    0.07211    0.03637    0.04342
AFIX  33
H54A  4    0.182619    0.804949    0.472790    11.00000   -1.50000
H54B  4    0.135417    0.846592    0.434606    11.00000   -1.50000
H54C  4    0.152910    0.839300    0.520410    11.00000   -1.50000
AFIX   0
C55   1    0.083735    0.741334    0.474535    11.00000    0.15372    0.15213 =
         0.13974    0.06657    0.05770    0.06631
AFIX  33
H55A  4    0.068984    0.687338    0.471929    11.00000   -1.50000
H55B  4    0.084696    0.768784    0.519898    11.00000   -1.50000
H55C  4    0.067203    0.776075    0.434095    11.00000   -1.50000
AFIX   0
C56   1    0.126643    0.693839    0.397591    11.00000    0.20929    0.14172 =
         0.10684    0.05866    0.05269    0.06906
AFIX  33
H56A  4    0.112451    0.639095    0.392595    11.00000   -1.50000
H56B  4    0.108723    0.731285    0.360554    11.00000   -1.50000
H56C  4    0.156359    0.688445    0.391914    11.00000   -1.50000
AFIX   0
C57   1    0.326569    0.001594    0.511591    11.00000    0.09040    0.03346 =
         0.08907   -0.01683    0.03818    0.00228
C58   1    0.353699   -0.010838    0.467328    11.00000    0.11863    0.07241 =
         0.14233   -0.05209    0.07907   -0.00855
AFIX  43
H58   4    0.360282    0.034189    0.440645    11.00000   -1.20000
AFIX   0
C59   1    0.371248   -0.090357    0.462416    11.00000    0.13552    0.09537 =
         0.22663   -0.07584    0.08682    0.01084
C60   1    0.359252   -0.154809    0.504005    11.00000    0.11450    0.05694 =
         0.22441   -0.06013    0.04660    0.01226
AFIX  43
H60   4    0.371366   -0.208585    0.502539    11.00000   -1.20000
AFIX   0
C61   1    0.330780   -0.143827    0.546809    11.00000    0.09931    0.03107 =
         0.17029   -0.02458    0.00926    0.00773
C62   1    0.315180   -0.063300    0.549466    11.00000    0.08228    0.02999 =
         0.09487   -0.00993    0.02355    0.00306
AFIX  43
H62   4    0.296134   -0.052508    0.578138    11.00000   -1.20000
AFIX   0
C63   1    0.400338   -0.109846    0.414576    11.00000    0.19184    0.19473 =
         0.28985   -0.13105    0.14441   -0.00285
C64   1    0.373706   -0.143021    0.343275    11.00000    0.26228    0.32858 =
         0.30125   -0.14558    0.15524   -0.04113
AFIX  33
H64A  4    0.360761   -0.196650    0.349958    11.00000   -1.50000
H64B  4    0.349898   -0.103809    0.320569    11.00000   -1.50000
H64C  4    0.392961   -0.150402    0.312448    11.00000   -1.50000
AFIX   0
C65   1    0.437324   -0.168110    0.450805    11.00000    0.25084    0.31800 =
         0.33991   -0.12505    0.14590    0.06753
AFIX  33
H65A  4    0.425067   -0.217226    0.467817    11.00000   -1.50000
H65B  4    0.452945   -0.185175    0.416499    11.00000   -1.50000
H65C  4    0.458131   -0.140003    0.491775    11.00000   -1.50000
AFIX   0
C66   1    0.414433   -0.032145    0.386014    11.00000    0.28450    0.25900 =
         0.37376   -0.11454    0.22474   -0.00859
AFIX  33
H66A  4    0.433219    0.000655    0.425948    11.00000   -1.50000
H66B  4    0.431210   -0.046278    0.352589    11.00000   -1.50000
H66C  4    0.388147    0.000315    0.360711    11.00000   -1.50000
AFIX   0
C67   1    0.315940   -0.216487    0.581784    11.00000    0.14662    0.04294 =
         0.20201    0.01413    0.00441   -0.00724
C68   1    0.280130   -0.264718    0.525531    11.00000    0.13904    0.11109 =
         0.20887    0.00917    0.00684   -0.03838
AFIX  33
H68A  4    0.256450   -0.226565    0.500095    11.00000   -1.50000
H68B  4    0.293245   -0.290551    0.491042    11.00000   -1.50000
H68C  4    0.267766   -0.307920    0.549438    11.00000   -1.50000
AFIX   0
C69   1    0.353444   -0.270665    0.623120    11.00000    0.16730    0.06928 =
         0.28304    0.02788   -0.02703   -0.01225
AFIX  33
H69A  4    0.341688   -0.316924    0.644661    11.00000   -1.50000
H69B  4    0.369201   -0.292539    0.590563    11.00000   -1.50000
H69C  4    0.373993   -0.237995    0.661191    11.00000   -1.50000
AFIX   0
C70   1    0.292494   -0.190507    0.635721    11.00000    0.28559    0.10495 =
         0.25325    0.03593    0.09960   -0.00620
AFIX  33
H70A  4    0.267311   -0.154539    0.612112    11.00000   -1.50000
H70B  4    0.281733   -0.239967    0.654712    11.00000   -1.50000
H70C  4    0.313245   -0.160179    0.675291    11.00000   -1.50000
AFIX   0
PART 1
P101  7    0.297048    0.446247    0.355486    41.00000    0.13526    0.05745 =
         0.05964   -0.00019    0.05456   -0.01675
P102  7    0.218460    0.329922    0.284574    41.00000    0.09263    0.08082 =
         0.04388    0.00301    0.03078    0.01117
P103  7    0.317017    0.263471    0.332440    41.00000    0.08108    0.06977 =
         0.05812   -0.01280    0.04297   -0.00365
O101  6    0.289965    0.420216    0.425499    41.00000    0.13125    0.05245 =
         0.05553   -0.01054    0.05154   -0.02765
O102  6    0.216785    0.307697    0.357826    41.00000    0.06600    0.10990 =
         0.04407    0.00638    0.02816    0.00111
O103  6    0.305553    0.244967    0.400321    41.00000    0.10160    0.05805 =
         0.05678   -0.00258    0.04776    0.01122
O104  6    0.346159    0.479569    0.373382    41.00000    0.16936    0.09312 =
         0.06644    0.00280    0.06587   -0.04634
O105  6    0.270387    0.529263    0.322525    41.00000    0.24264    0.07529 =
         0.06849    0.00450    0.06511    0.00688
O106  6    0.185450    0.403660    0.258217    41.00000    0.11436    0.09036 =
         0.07906    0.00981    0.03281    0.01701
O107  6    0.195247    0.258316    0.230298    41.00000    0.10963    0.09290 =
         0.07995   -0.01625    0.04368    0.00966
O108  6    0.317229    0.177340    0.290601    41.00000    0.10348    0.07726 =
         0.07292   -0.02762    0.04187    0.00498
O109  6    0.368664    0.285182    0.356343    41.00000    0.09259    0.10396 =
         0.09604    0.00046    0.04716   -0.01508
C101  1    0.380216    0.458307    0.438949    41.00000    0.17074    0.15492 =
         0.06574    0.00329    0.04927   -0.04206
AFIX  23
H10A  4    0.408576    0.447769    0.428444    41.00000   -1.20000
H10B  4    0.371729    0.407084    0.459758    41.00000   -1.20000
AFIX   0
C102  1    0.385786    0.526775    0.490427    41.00000    0.20315    0.19057 =
         0.09375   -0.02556    0.08246   -0.07161
AFIX  33
H10C  4    0.408896    0.512366    0.534930    41.00000   -1.50000
H10D  4    0.394473    0.577178    0.469780    41.00000   -1.50000
H10E  4    0.357716    0.536593    0.501016    41.00000   -1.50000
AFIX   0
C103  1    0.274627    0.600710    0.368844    41.00000    0.27352    0.06840 =
         0.07433    0.00444    0.07308    0.01254
AFIX  23
H10F  4    0.286975    0.583716    0.419772    41.00000   -1.20000
H10G  4    0.245121    0.626094    0.362465    41.00000   -1.20000
AFIX   0
C104  1    0.304411    0.661202    0.350033    41.00000    0.31442    0.09277 =
         0.12433   -0.00509    0.10201   -0.01618
AFIX  33
H10H  4    0.307598    0.710127    0.381122    41.00000   -1.50000
H10I  4    0.333585    0.635740    0.356795    41.00000   -1.50000
H10J  4    0.291864    0.677984    0.299669    41.00000   -1.50000
AFIX   0
C105  1    0.169002    0.451758    0.307996    41.00000    0.18920    0.16627 =
         0.09701    0.02559    0.05658    0.06924
AFIX  23
H10K  4    0.169156    0.511652    0.296496    41.00000   -1.20000
H10L  4    0.188326    0.443158    0.357819    41.00000   -1.20000
AFIX   0
C106  1    0.124030    0.424861    0.301762    41.00000    0.18033    0.20483 =
         0.14010    0.05334    0.06614    0.07271
AFIX  33
H10M  4    0.112510    0.456883    0.335130    41.00000   -1.50000
H10N  4    0.105075    0.433922    0.252411    41.00000   -1.50000
H10O  4    0.124185    0.365643    0.313542    41.00000   -1.50000
AFIX   0
C107  1    0.156151    0.218061    0.235401    41.00000    0.10958    0.10540 =
         0.07635   -0.01864    0.03512   -0.00845
AFIX  23
H10P  4    0.131868    0.259041    0.228844    41.00000   -1.20000
H10Q  4    0.161771    0.192331    0.283466    41.00000   -1.20000
AFIX   0
C108  1    0.143239    0.153291    0.178736    41.00000    0.15057    0.13256 =
         0.10536   -0.04231    0.05288   -0.01972
AFIX  33
H10R  4    0.116312    0.125056    0.181674    41.00000   -1.50000
H10S  4    0.137534    0.179274    0.131333    41.00000   -1.50000
H10T  4    0.167344    0.112773    0.185785    41.00000   -1.50000
AFIX   0
C109  1    0.278582    0.131097    0.258049    41.00000    0.13497    0.09655 =
         0.08662   -0.03829    0.04573   -0.01421
AFIX  23
H10U  4    0.284330    0.093336    0.221682    41.00000   -1.20000
H10V  4    0.254451    0.169514    0.232882    41.00000   -1.20000
AFIX   0
C110  1    0.264180    0.082245    0.310200    41.00000    0.20212    0.14769 =
         0.08819   -0.03374    0.03932   -0.07635
AFIX  33
H11A  4    0.237286    0.051179    0.285285    41.00000   -1.50000
H11B  4    0.287729    0.043295    0.334566    41.00000   -1.50000
H11C  4    0.257855    0.119462    0.345765    41.00000   -1.50000
AFIX   0
C111  1    0.399006    0.225337    0.395813    41.00000    0.09645    0.13797 =
         0.11400    0.00407    0.04235    0.00357
AFIX  23
H11D  4    0.408846    0.189887    0.361895    41.00000   -1.20000
H11E  4    0.383730    0.189275    0.422186    41.00000   -1.20000
AFIX   0
C112  1    0.437443    0.262179    0.446464    41.00000    0.09574    0.19638 =
         0.11346   -0.00305    0.04495   -0.01423
AFIX  33
H11F  4    0.457328    0.218180    0.472303    41.00000   -1.50000
H11G  4    0.453112    0.296991    0.420586    41.00000   -1.50000
H11H  4    0.427989    0.296379    0.480894    41.00000   -1.50000
AFIX   0
SAME 0.02 0.04 P101 > C112
PART 0
PART 2
P201  7    0.244224    0.451940    0.330803   -41.00000    0.19278    0.12069 =
         0.07590    0.04093    0.07295    0.04110
P202  7    0.252292    0.266890    0.282104   -41.00000    0.18675    0.13443 =
         0.05750   -0.01020    0.05880   -0.03044
P203  7    0.333126    0.378198    0.365014   -41.00000    0.14022    0.09954 =
         0.07173    0.00942    0.06252   -0.01423
O201  6    0.246723    0.422195    0.405238   -41.00000    0.15977    0.07751 =
         0.06338    0.01819    0.05984    0.01895
O202  6    0.244075    0.253106    0.353920   -41.00000    0.15337    0.10078 =
         0.06065   -0.00184    0.04891   -0.01243
O203  6    0.325862    0.328139    0.426176   -41.00000    0.11993    0.11547 =
         0.07843    0.02130    0.05342   -0.00517
O204  6    0.273264    0.534436    0.344810   -41.00000    0.23709    0.11254 =
         0.09660    0.02318    0.08223    0.01062
O205  6    0.199765    0.478683    0.277691   -41.00000    0.18583    0.14631 =
         0.09265    0.04726    0.06981    0.04523
O206  6    0.206280    0.229725    0.233073   -41.00000    0.17727    0.13492 =
         0.09528   -0.01040    0.04618   -0.03384
O207  6    0.285816    0.197528    0.272926   -41.00000    0.17984    0.11039 =
         0.11296   -0.01109    0.05924   -0.02889
O208  6    0.374027    0.336332    0.346685   -41.00000    0.12687    0.12448 =
         0.10421   -0.00144    0.05756   -0.01241
O209  6    0.352953    0.466673    0.393865   -41.00000    0.16329    0.10857 =
         0.06737    0.01239    0.05191   -0.02601
C201  1    0.270882    0.594234    0.399120   -41.00000    0.26531    0.11367 =
         0.10460    0.02488    0.08607    0.02054
AFIX  23
H20A  4    0.282618    0.648755    0.389795   -41.00000   -1.20000
H20B  4    0.288323    0.574895    0.447547   -41.00000   -1.20000
AFIX   0
C202  1    0.223964    0.600757    0.394134   -41.00000    0.26940    0.13724 =
         0.14051    0.01993    0.09785    0.02265
AFIX  33
H20C  4    0.220257    0.640689    0.429907   -41.00000   -1.50000
H20D  4    0.207214    0.619708    0.345857   -41.00000   -1.50000
H20E  4    0.212887    0.546257    0.403288   -41.00000   -1.50000
AFIX   0
C203  1    0.156868    0.456490    0.284995   -41.00000    0.18717    0.18956 =
         0.11057    0.04477    0.07359    0.03739
AFIX  23
H20F  4    0.160352    0.417572    0.325676   -41.00000   -1.20000
H20G  4    0.138249    0.429654    0.240475   -41.00000   -1.20000
AFIX   0
C204  1    0.136627    0.533939    0.298178   -41.00000    0.20261    0.20286 =
         0.18690    0.02314    0.08952    0.04149
AFIX  33
H20H  4    0.107288    0.522352    0.303570   -41.00000   -1.50000
H20I  4    0.155486    0.559756    0.342290   -41.00000   -1.50000
H20J  4    0.133498    0.571775    0.257535   -41.00000   -1.50000
AFIX   0
C205  1    0.201480    0.141133    0.239183   -41.00000    0.18015    0.13856 =
         0.13067   -0.00475    0.02882   -0.03109
AFIX  23
H20K  4    0.219953    0.121317    0.286819   -41.00000   -1.20000
H20L  4    0.210846    0.111773    0.201434   -41.00000   -1.20000
AFIX   0
C206  1    0.154449    0.125742    0.230408   -41.00000    0.18050    0.16364 =
         0.16884    0.01562    0.03275   -0.03704
AFIX  33
H20M  4    0.149584    0.065995    0.234182   -41.00000   -1.50000
H20N  4    0.145664    0.155211    0.268068   -41.00000   -1.50000
H20O  4    0.136602    0.145713    0.183097   -41.00000   -1.50000
AFIX   0
C207  1    0.278194    0.115500    0.297723   -41.00000    0.18464    0.11806 =
         0.10593   -0.00954    0.04237   -0.03308
AFIX  23
H20P  4    0.272561    0.119349    0.344998   -41.00000   -1.20000
H20Q  4    0.252082    0.089398    0.263047   -41.00000   -1.20000
AFIX   0
C208  1    0.317509    0.066799    0.303768   -41.00000    0.19518    0.13896 =
         0.12414   -0.02299    0.03440   -0.01561
AFIX  33
H20R  4    0.313458    0.010763    0.320479   -41.00000   -1.50000
H20S  4    0.322696    0.063359    0.256663   -41.00000   -1.50000
H20T  4    0.343089    0.093184    0.338270   -41.00000   -1.50000
AFIX   0
C209  1    0.362753    0.254499    0.314910   -41.00000    0.12404    0.11846 =
         0.09362   -0.00123    0.05729   -0.01159
AFIX  23
H20U  4    0.336749    0.231849    0.327202   -41.00000   -1.20000
H20V  4    0.355379    0.257859    0.261886   -41.00000   -1.20000
AFIX   0
C210  1    0.401098    0.201570    0.343742   -41.00000    0.16623    0.15741 =
         0.18075   -0.02383    0.02031    0.02412
AFIX  33
H21A  4    0.394622    0.145671    0.323364   -41.00000   -1.50000
H21B  4    0.426576    0.224574    0.331160   -41.00000   -1.50000
H21C  4    0.408024    0.198674    0.396199   -41.00000   -1.50000
AFIX   0
C211  1    0.388149    0.465285    0.461034   -41.00000    0.17330    0.11886 =
         0.07232    0.00896    0.04931   -0.03006
AFIX  23
H21D  4    0.417330    0.471494    0.452275   -41.00000   -1.20000
H21E  4    0.387914    0.412005    0.486323   -41.00000   -1.20000
AFIX   0
C212  1    0.380337    0.534682    0.504354   -41.00000    0.24230    0.18208 =
         0.10221   -0.03603    0.02052    0.02206
AFIX  33
H21F  4    0.403707    0.535740    0.550623   -41.00000   -1.50000
H21G  4    0.380681    0.586993    0.478768   -41.00000   -1.50000
H21H  4    0.351393    0.527765    0.512667   -41.00000   -1.50000
AFIX  56
PART 0
PART 3
C121  1    0.261100    0.442503    0.176241    31.00000    0.15381    0.11453 =
         0.05945    0.02144    0.06153   -0.00108
AFIX  43
H121  4    0.241842    0.488875    0.171814    31.00000   -1.20000
AFIX  55
C122  1    0.307878    0.443151    0.207828    31.00000    0.15497    0.08659 =
         0.06336    0.00549    0.06445   -0.01771
AFIX  43
H122  4    0.325409    0.490032    0.228244    31.00000   -1.20000
AFIX  55
C123  1    0.323850    0.361419    0.203541    31.00000    0.15036    0.08809 =
         0.07164   -0.00119    0.07337   -0.01392
AFIX  43
H123  4    0.353943    0.344021    0.220585    31.00000   -1.20000
AFIX  55
C124  1    0.286944    0.310259    0.169304    31.00000    0.16419    0.10059 =
         0.06061   -0.00611    0.07250   -0.02076
AFIX  43
H124  4    0.288012    0.252625    0.159421    31.00000   -1.20000
AFIX  55
C125  1    0.248163    0.360371    0.152431    31.00000    0.15886    0.12175 =
         0.04694    0.00107    0.05806   -0.01164
AFIX  43
H125  4    0.218729    0.342149    0.129280    31.00000   -1.20000
AFIX  56
PART 0
PART 4
C221  1    0.282718    0.503505    0.208859   -31.00000    0.15669    0.10350 =
         0.06471    0.01517    0.06435    0.00633
AFIX  43
H221  4    0.278202    0.559755    0.219709   -31.00000   -1.20000
AFIX  55
C222  1    0.324364    0.462747    0.223190   -31.00000    0.15336    0.10071 =
         0.06938    0.01153    0.06245    0.00136
AFIX  43
H222  4    0.352600    0.486942    0.245312   -31.00000   -1.20000
AFIX  55
C223  1    0.316393    0.379475    0.198651   -31.00000    0.14788    0.09637 =
         0.06175    0.01226    0.06197    0.00282
AFIX  43
H223  4    0.338360    0.338178    0.201472   -31.00000   -1.20000
AFIX  55
C224  1    0.269821    0.368767    0.169153   -31.00000    0.14881    0.10931 =
         0.06779    0.00720    0.05732    0.00312
AFIX  43
H224  4    0.255162    0.319049    0.148775   -31.00000   -1.20000
AFIX  55
C225  1    0.249009    0.445422    0.175462   -31.00000    0.15543    0.11125 =
         0.06364    0.01789    0.06064    0.00533
AFIX  43
H225  4    0.217982    0.455992    0.160046   -31.00000   -1.20000
AFIX   0
HKLF 4

REM  2016ncs0592_a.res in P2(1)/c
REM R1 =  0.0872 for   17246 Fo > 4sig(Fo)  and  0.1022 for all   21622 data
REM   1228 parameters refined using   3508 restraints

END

WGHT      0.1459     35.6047

REM Highest difference peak  1.928,  deepest hole -1.148,  1-sigma level  0.138
Q1    1   0.2409  0.3740  0.2465  11.00000  0.05    1.93
Q2    1   0.2784  0.2658  0.4796  11.00000  0.05    1.70
Q3    1   0.2650  0.2632  0.4664  11.00000  0.05    1.53
Q4    1   0.2237  0.3915  0.2893  11.00000  0.05    1.50
Q5    1   0.2610  0.2846  0.4889  11.00000  0.05    1.43
Q6    1   0.2261  0.2808  0.4502  11.00000  0.05    1.41
Q7    1   0.3356 -0.1988  0.6490  11.00000  0.05    1.22
Q8    1   0.4585 -0.0680  0.5027  11.00000  0.05    1.21
Q9    1   0.5895  0.4006  0.7024  11.00000  0.05    1.12
Q10   1   0.2773  0.2298  0.3015  11.00000  0.05    1.09
Q11   1   0.2907  0.3011  0.3829  11.00000  0.05    1.03
Q12   1   0.4997  0.4792  0.6685  11.00000  0.05    1.00
Q13   1   0.2399  0.3018  0.5479  11.00000  0.05    0.97
Q14   1   0.5704  0.4465  0.8478  11.00000  0.05    0.96
Q15   1   0.5858  0.4505  0.7876  11.00000  0.05    0.95
Q16   1   0.4994  0.4752  0.5421  11.00000  0.05    0.88
Q17   1   0.4021 -0.0932  0.3925  11.00000  0.05    0.83
Q18   1   0.3554 -0.2928  0.5603  11.00000  0.05    0.82
Q19   1   0.2377  0.1822  0.2505  11.00000  0.05    0.81
Q20   1   0.2625  0.3074  0.2809  11.00000  0.05    0.79
;
_shelx_res_checksum              74299
_shelx_fab_file
;
-40 0 4 0.2502 0.0704
-40 0 6 0.2605 -0.0323
-40 0 8 0.3074 -0.1262
-40 0 10 -0.2169 -0.2148
-40 0 12 0.3235 -0.2497
-40 1 3 0.9676 -0.0912
-40 1 4 -0.0907 0.2023
-40 1 5 0.6920 -0.0399
-40 1 6 -0.1918 0.2370
-40 1 7 -0.0850 0.0106
-40 1 8 0.6856 0.2676
-40 1 9 -0.3947 0.0141
-40 1 10 -0.0404 0.2388
-40 1 11 -0.5318 -0.0124
-40 1 12 -0.4572 0.2504
-40 2 3 0.4366 0.1106
-40 2 4 -0.0666 -0.0615
-40 2 5 0.6778 0.1052
-40 2 6 -0.0843 0.0231
-40 2 7 -0.4810 0.1140
-40 2 8 -0.2992 0.0803
-40 2 9 -0.2833 0.1091
-40 2 10 0.0867 0.1680
-40 2 11 0.1681 0.1719
-40 2 12 0.0127 0.1606
-40 3 4 -0.0889 -0.0042
-40 3 5 0.1289 0.0079
-40 3 6 -0.5165 -0.1030
-40 3 7 -0.7596 0.1264
-40 3 8 0.6226 -0.0667
-40 3 9 0.0700 0.1549
-40 3 10 -0.5810 -0.1010
-40 3 11 -0.1176 0.1418
-40 4 5 0.3583 -0.1664
-40 4 6 -0.1736 0.0439
-40 4 7 -0.3083 -0.2430
-40 4 8 -0.6148 0.0107
-40 4 9 -0.2183 -0.2015
-39 0 2 -0.3784 0.1208
-39 0 4 1.0826 0.0358
-39 0 6 0.6282 -0.0377
-39 0 8 0.3871 -0.1139
-39 0 10 -0.0218 -0.1581
-39 0 12 0.5271 -0.1426
-39 0 14 0.6104 0.1350
-39 1 1 -0.4471 -0.0095
-39 1 2 -0.4855 -0.0552
-39 1 3 1.4321 -0.0567
-39 1 4 -0.1922 0.2129
-39 1 5 0.3141 -0.0090
-39 1 6 0.0774 0.2166
-39 1 7 -0.4696 0.0312
-39 1 8 0.4035 0.2529
-39 1 9 -0.5824 0.0206
-39 1 10 -0.5485 0.2067
-39 1 11 -0.9229 0.0287
-39 1 12 -0.4256 0.3461
-39 1 13 0.1707 0.1265
-39 1 14 0.5421 0.4315
-39 2 1 -0.2239 -0.0470
-39 2 2 -0.8550 -0.0450
-39 2 3 0.4108 0.0967
-39 2 4 0.8455 -0.0806
-39 2 5 0.2635 0.0928
-39 2 6 0.1639 0.0110
-39 2 7 -1.0333 0.1030
-39 2 8 -0.4405 0.0928
-39 2 9 0.3200 0.1118
-39 2 10 0.1111 0.1507
-39 2 11 0.4752 0.2111
-39 2 12 -0.0611 0.0814
-39 2 13 -0.0440 0.1989
-39 2 14 -0.4256 -0.0605
-39 3 1 0.3238 -0.0292
-39 3 2 -0.0480 0.0333
-39 3 3 0.4911 -0.1337
-39 3 4 0.0850 -0.0215
-39 3 5 -0.2058 0.0277
-39 3 6 0.0766 -0.1160
-39 3 7 -0.6436 0.1013
-39 3 8 0.2119 -0.0887
-39 3 9 0.0266 0.0853
-39 3 10 -1.6208 -0.1661
-39 3 11 -0.1815 0.0589
-39 3 12 -1.4896 -0.1573
-39 3 13 -0.1316 -0.1490
-39 4 2 0.2720 -0.1088
-39 4 3 0.1260 0.0339
-39 4 4 0.1852 -0.0068
-39 4 5 0.2556 -0.1843
-39 4 6 -0.0947 0.0325
-39 4 7 -0.2326 -0.2020
-39 4 8 -0.6599 0.0530
-39 4 9 0.2267 -0.1802
-39 4 10 0.4242 0.1086
-39 4 11 0.9588 -0.2087
-39 4 12 0.0889 0.0942
-39 5 3 0.2169 0.0657
-39 5 4 0.0713 -0.0417
-39 5 5 0.6730 0.2867
-39 5 6 0.4605 -0.0846
-39 5 7 -0.1321 0.2764
-39 5 8 0.7267 -0.0302
-39 5 9 0.7224 0.2880
-39 5 10 -0.1694 -0.0312
-39 5 11 0.6271 0.3424
-39 6 5 0.1401 -0.0998
-39 6 6 -0.1797 0.1235
-39 6 7 0.2299 0.0127
-39 6 8 -0.2909 0.1138
-39 6 9 -1.0901 0.0171
-38 0 2 -0.2110 0.0725
-38 0 4 2.0655 0.0181
-38 0 6 0.4476 -0.0257
-38 0 8 0.3383 -0.0754
-38 0 10 0.2700 -0.0728
-38 0 12 0.3459 -0.0141
-38 0 14 0.9064 0.2965
-38 0 16 0.3475 0.3978
-38 1 1 -0.2439 0.0274
-38 1 2 -0.8669 -0.0221
-38 1 3 1.4506 -0.0182
-38 1 4 -0.0034 0.1674
-38 1 5 0.0203 0.0077
-38 1 6 0.2314 0.1700
-38 1 7 -0.5507 0.0398
-38 1 8 -0.2947 0.1835
-38 1 9 -0.8417 0.0373
-38 1 10 -0.7689 0.1678
-38 1 11 -0.9830 0.0623
-38 1 12 -0.1647 0.3634
-38 1 13 0.6303 0.1321
-38 1 14 0.4160 0.1945
-38 1 15 -0.2721 0.1505
-38 2 1 -0.2434 -0.0512
-38 2 2 -0.1088 -0.0562
-38 2 3 0.0610 0.0826
-38 2 4 1.6124 -0.0870
-38 2 5 -0.3335 0.0701
-38 2 6 -0.1160 0.0056
-38 2 7 -1.0418 0.0848
-38 2 8 -0.6970 0.0899
-38 2 9 0.9191 0.1158
-38 2 10 0.0833 0.0897
-38 2 11 0.1520 0.2033
-38 2 12 -0.2805 0.0269
-38 2 13 -0.6667 0.1219
-38 2 14 -0.4019 -0.0510
-38 2 15 0.3689 -0.1208
-38 3 1 -0.0930 -0.0209
-38 3 2 -0.0435 0.0316
-38 3 3 -0.0296 -0.1198
-38 3 4 0.4168 -0.0420
-38 3 5 -0.1122 0.0292
-38 3 6 0.4542 -0.1150
-38 3 7 -0.2615 0.0225
-38 3 8 -0.6329 -0.1201
-38 3 9 -0.1727 0.0174
-38 3 10 -1.9594 -0.2122
-38 3 11 -0.2264 -0.0426
-38 3 12 -0.7936 -0.1293
-38 3 13 0.0441 -0.2535
-38 3 14 0.4789 0.0409
-38 3 15 -0.1602 -0.1277
-38 4 1 -0.1374 0.0524
-38 4 2 0.0786 -0.1063
-38 4 3 -0.0663 0.0174
-38 4 4 0.2129 0.0013
-38 4 5 0.2352 -0.1627
-38 4 6 -0.0451 0.0497
-38 4 7 0.0937 -0.1369
-38 4 8 -0.6244 0.1208
-38 4 9 0.5854 -0.1369
-38 4 10 0.7035 0.1478
-38 4 11 0.7452 -0.0993
-38 4 12 0.7330 0.1569
-38 4 13 0.2564 0.1938
-38 4 14 0.4562 0.2781
-38 5 1 0.1872 -0.0457
-38 5 2 -0.4453 0.1191
-38 5 3 0.4138 0.1111
-38 5 4 0.2657 -0.0454
-38 5 5 0.2755 0.2687
-38 5 6 0.9905 -0.0754
-38 5 7 -0.1090 0.2186
-38 5 8 1.0014 -0.0229
-38 5 9 0.7772 0.2697
-38 5 10 -0.3003 -0.0053
-38 5 11 0.3018 0.3176
-38 5 12 0.2797 0.0633
-38 5 13 -0.3180 0.2666
-38 6 2 -0.4285 -0.1415
-38 6 3 -0.1204 -0.0245
-38 6 4 -0.4412 0.0274
-38 6 5 0.2868 -0.0729
-38 6 6 0.1544 0.1551
-38 6 7 0.0135 0.0238
-38 6 8 -0.5156 0.1063
-38 6 9 -1.2714 -0.0847
-38 6 10 -0.7466 0.1069
-38 6 11 -0.2921 -0.2388
-38 6 12 0.3506 0.0041
-38 7 3 0.8869 0.1349
-38 7 4 -0.8289 -0.1367
-38 7 5 0.1891 0.1066
-38 7 6 -0.5079 -0.1902
-38 7 7 -1.1833 -0.0693
-38 7 8 -0.2331 -0.2027
-38 7 9 0.4638 -0.0407
-38 7 10 0.0951 -0.1698
-37 0 2 0.2718 0.0298
-37 0 4 2.5397 0.0185
-37 0 6 -0.2998 -0.0183
-37 0 8 0.3566 -0.0302
-37 0 10 0.2533 -0.0016
-37 0 12 -0.0488 0.0755
-37 0 14 1.4278 0.3143
-37 0 16 0.3116 0.1479
-37 1 1 -0.1533 0.0657
-37 1 2 -0.9756 -0.0210
-37 1 3 1.4412 0.0029
-37 1 4 0.3687 0.0982
-37 1 5 0.2376 0.0188
-37 1 6 0.0972 0.1023
-37 1 7 -0.5958 0.0506
-37 1 8 -1.0350 0.0916
-37 1 9 -1.1748 0.0548
-37 1 10 -0.6623 0.1313
-37 1 11 -0.5979 0.0653
-37 1 12 -0.0959 0.2614
-37 1 13 0.7628 0.1126
-37 1 14 0.0153 -0.0950
-37 1 15 -0.7185 0.0946
-37 1 16 0.0423 -0.4596
-37 1 17 -0.9672 -0.0370
-37 2 1 -0.1848 -0.0410
-37 2 2 0.6321 -0.0511
-37 2 3 -0.6599 0.0572
-37 2 4 1.5081 -0.0834
-37 2 5 -0.6688 0.0339
-37 2 6 -0.8510 -0.0017
-37 2 7 -0.5540 0.0660
-37 2 8 -0.8034 0.0511
-37 2 9 0.9557 0.0955
-37 2 10 -0.0769 0.0221
-37 2 11 -0.4787 0.1512
-37 2 12 -0.4944 -0.0102
-37 2 13 -0.9243 0.0465
-37 2 14 -0.1391 -0.0728
-37 2 15 0.5361 -0.1316
-37 2 16 0.0861 0.0416
-37 3 1 -0.6344 -0.0194
-37 3 2 -0.0861 0.0169
-37 3 3 -0.0825 -0.0919
-37 3 4 0.7252 -0.0472
-37 3 5 0.4438 -0.0036
-37 3 6 0.4771 -0.1006
-37 3 7 0.2509 -0.0568
-37 3 8 -1.2754 -0.1422
-37 3 9 -0.4618 -0.0139
-37 3 10 -1.4140 -0.1973
-37 3 11 -0.1817 -0.1308
-37 3 12 -0.1042 -0.0364
-37 3 13 0.1947 -0.2339
-37 3 14 0.3692 0.1431
-37 3 15 -0.3589 0.0960
-37 3 16 0.4383 0.2242
-37 4 1 0.1092 0.0498
-37 4 2 -0.0735 -0.0833
-37 4 3 -0.1332 0.0016
-37 4 4 0.1620 0.0235
-37 4 5 0.2889 -0.1064
-37 4 6 -0.1102 0.0854
-37 4 7 0.3824 -0.0726
-37 4 8 -0.4790 0.1546
-37 4 9 0.4454 -0.0776
-37 4 10 1.0600 0.1482
-37 4 11 0.1417 0.0077
-37 4 12 1.3361 0.1804
-37 4 13 -0.0185 0.2748
-37 4 14 0.5122 0.2282
-37 4 15 -0.2857 0.3182
-37 4 16 -0.2313 -0.0619
-37 5 1 0.6121 -0.0185
-37 5 2 0.0206 0.1189
-37 5 3 0.2689 0.1111
-37 5 4 0.5087 -0.0579
-37 5 5 -0.0121 0.1830
-37 5 6 1.6155 -0.0445
-37 5 7 0.3772 0.1488
-37 5 8 1.2357 0.0009
-37 5 9 0.6572 0.2414
-37 5 10 -0.1376 0.0055
-37 5 11 -0.2857 0.2532
-37 5 12 0.6700 0.0356
-37 5 13 -0.3414 0.1427
-37 5 14 0.5806 -0.0518
-37 5 15 0.1543 -0.1449
-37 6 1 -0.2260 0.1043
-37 6 2 -0.4928 -0.1600
-37 6 3 -0.0674 -0.0509
-37 6 4 0.0996 0.0781
-37 6 5 0.1872 -0.0270
-37 6 6 0.0156 0.1460
-37 6 7 -0.1455 -0.0340
-37 6 8 -1.0695 0.0627
-37 6 9 -1.0635 -0.1897
-37 6 10 -0.5449 0.0642
-37 6 11 0.0327 -0.2871
-37 6 12 1.3044 -0.0549
-37 6 13 0.6376 -0.2968
-37 6 14 1.4891 -0.1215
-37 7 1 0.2919 -0.0333
-37 7 2 -0.0390 0.0183
-37 7 3 0.8193 0.0917
-37 7 4 -0.6609 -0.1488
-37 7 5 -0.7080 -0.0011
-37 7 6 0.2346 -0.1730
-37 7 7 -1.0543 -0.0506
-37 7 8 0.3393 -0.1281
-37 7 9 1.1837 0.0265
-37 7 10 0.5502 -0.1122
-37 7 11 0.6723 0.1586
-37 7 12 0.6978 -0.1349
-37 7 13 -0.0240 0.2820
-37 8 3 -1.1892 -0.0628
-37 8 4 -0.2220 0.1749
-37 8 5 -1.3721 -0.0321
-37 8 6 -0.1048 0.3036
-37 8 7 -0.2636 0.0400
-37 8 8 -0.2064 0.2822
-37 8 9 -0.3355 0.0422
-37 8 10 -1.0837 0.3247
-37 8 11 -0.4167 0.0119
-36 0 2 0.5876 0.0153
-36 0 4 2.0246 0.0106
-36 0 6 -1.0232 -0.0181
-36 0 8 0.5421 0.0054
-36 0 10 -0.1263 0.0259
-36 0 12 -0.1617 0.0906
-36 0 14 1.8534 0.1875
-36 0 16 -0.1419 -0.1359
-36 0 18 -1.1171 -0.4336
-36 1 1 0.0384 0.0713
-36 1 2 -0.5466 -0.0356
-36 1 3 1.6969 0.0145
-36 1 4 0.5525 0.0324
-36 1 5 0.6781 0.0314
-36 1 6 -0.4604 0.0257
-36 1 7 -1.0248 0.0568
-36 1 8 -1.6367 0.0199
-36 1 9 -1.3515 0.0514
-36 1 10 -0.5783 0.0838
-36 1 11 0.0093 0.0514
-36 1 12 -0.3458 0.1024
-36 1 13 0.4672 0.1023
-36 1 14 -0.4156 -0.2569
-36 1 15 -0.6762 0.0659
-36 1 16 -0.0473 -0.3421
-36 1 17 -0.2967 0.0312
-36 1 18 -0.2138 -0.0468
-36 2 1 -0.3088 -0.0295
-36 2 2 0.7573 -0.0362
-36 2 3 -1.5318 0.0112
-36 2 4 0.6408 -0.0740
-36 2 5 -0.5224 0.0020
-36 2 6 -1.4004 -0.0232
-36 2 7 -0.0164 0.0377
-36 2 8 -0.6429 -0.0050
-36 2 9 0.4804 0.0432
-36 2 10 -0.3852 -0.0253
-36 2 11 -0.7464 0.0826
-36 2 12 -0.4378 -0.0582
-36 2 13 -0.7765 -0.0133
-36 2 14 0.1962 -0.1006
-36 2 15 0.7110 -0.1076
-36 2 16 -0.0833 0.0671
-36 2 17 0.5857 0.0525
-36 3 1 -0.7177 -0.0076
-36 3 2 -0.1695 0.0049
-36 3 3 0.5924 -0.0637
-36 3 4 0.8959 -0.0331
-36 3 5 1.2859 -0.0493
-36 3 6 0.3858 -0.0773
-36 3 7 0.5813 -0.0801
-36 3 8 -1.3205 -0.1284
-36 3 9 -0.9283 -0.0126
-36 3 10 -0.6702 -0.1139
-36 3 11 -0.2348 -0.1634
-36 3 12 -0.0084 0.0709
-36 3 13 0.2220 -0.1041
-36 3 14 -0.0188 0.1912
-36 3 15 -0.3219 0.2623
-36 3 16 0.0312 0.1431
-36 3 17 -0.1345 0.3028
-36 4 1 0.4910 0.0364
-36 4 2 -0.1116 -0.0509
-36 4 3 -0.1828 0.0007
-36 4 4 -0.1558 0.0535
-36 4 5 0.3046 -0.0401
-36 4 6 -0.3216 0.0903
-36 4 7 0.5200 -0.0223
-36 4 8 -0.1076 0.1244
-36 4 9 0.0376 -0.0226
-36 4 10 1.4358 0.1101
-36 4 11 -0.2041 0.0697
-36 4 12 1.6978 0.1320
-36 4 13 -0.0403 0.2892
-36 4 14 0.3834 0.0904
-36 4 15 -0.3246 0.1962
-36 4 16 -0.1874 -0.1678
-36 4 17 0.2398 -0.0814
-36 5 1 0.6679 0.0041
-36 5 2 0.3089 0.0918
-36 5 3 -0.0552 0.0613
-36 5 4 0.9385 -0.0644
-36 5 5 0.2140 0.0841
-36 5 6 2.1405 0.0162
-36 5 7 1.0182 0.1081
-36 5 8 1.3616 0.0083
-36 5 9 0.1655 0.1997
-36 5 10 0.0010 -0.0013
-36 5 11 -0.7260 0.1620
-36 5 12 0.4981 -0.0090
-36 5 13 0.1524 0.0160
-36 5 14 0.2765 -0.1309
-36 5 15 0.5521 -0.1758
-36 5 16 0.1148 -0.0054
-36 6 1 -0.2855 0.0635
-36 6 2 0.0791 -0.1165
-36 6 3 0.1643 -0.0448
-36 6 4 0.3238 0.1083
-36 6 5 0.0622 -0.0134
-36 6 6 -0.6704 0.0734
-36 6 7 -0.0253 -0.1279
-36 6 8 -1.2391 0.0084
-36 6 9 -0.6840 -0.2272
-36 6 10 0.4156 0.0225
-36 6 11 0.4159 -0.2732
-36 6 12 2.0852 -0.0603
-36 6 13 0.8927 -0.2048
-36 6 14 1.2167 -0.0009
-36 6 15 0.2808 0.2421
-36 7 1 0.5457 -0.0266
-36 7 2 -0.0226 0.0289
-36 7 3 0.4863 0.0122
-36 7 4 -0.1691 -0.1314
-36 7 5 -1.1209 -0.0338
-36 7 6 0.7589 -0.0802
-36 7 7 -0.4484 0.0318
-36 7 8 0.7396 -0.0241
-36 7 9 1.2959 0.0963
-36 7 10 0.8952 -0.0568
-36 7 11 -0.2272 0.2697
-36 7 12 0.3703 -0.0371
-36 7 13 -0.0513 0.3169
-36 7 14 -0.2518 0.3080
-36 8 1 -1.2548 0.0636
-36 8 2 -0.4929 -0.0196
-36 8 3 -1.6788 -0.0395
-36 8 4 -0.1806 0.2188
-36 8 5 -1.6039 -0.0121
-36 8 6 -0.2094 0.2501
-36 8 7 0.1392 -0.0009
-36 8 8 -0.6329 0.2252
-36 8 9 -0.4376 -0.0179
-36 8 10 -0.5572 0.2913
-36 8 11 -0.3693 -0.1163
-36 8 12 1.4447 0.2659
-36 8 13 0.1005 -0.2088
-36 9 2 -0.7561 -0.0854
-36 9 3 1.8469 -0.0171
-36 9 4 0.7773 -0.2298
-36 9 5 1.3214 -0.0097
-36 9 6 1.0649 -0.2732
-36 9 7 -0.0879 0.0159
-36 9 8 0.0225 -0.3720
-36 9 9 -0.3006 0.0138
-36 9 10 0.5438 -0.4269
-36 9 11 -0.4613 0.0334
-35 0 2 0.5723 0.0055
-35 0 4 1.2521 -0.0081
-35 0 6 -0.8618 -0.0105
-35 0 8 0.5736 0.0190
-35 0 10 -0.8060 0.0119
-35 0 12 -0.0340 0.0521
-35 0 14 1.6502 0.0206
-35 0 16 -0.6927 -0.2708
-35 0 18 -1.0570 -0.2412
-35 1 1 0.4171 0.0498
-35 1 2 -0.0239 -0.0446
-35 1 3 2.0224 0.0273
-35 1 4 0.1293 -0.0226
-35 1 5 0.6442 0.0328
-35 1 6 -1.1082 -0.0326
-35 1 7 -1.9082 0.0410
-35 1 8 -1.8855 -0.0166
-35 1 9 -1.2390 0.0254
-35 1 10 -0.6772 0.0275
-35 1 11 0.4488 0.0400
-35 1 12 -0.6741 -0.0077
-35 1 13 0.1205 0.0860
-35 1 14 -0.7350 -0.2423
-35 1 15 0.0468 0.0369
-35 1 16 -0.1432 -0.1286
-35 1 17 0.3986 0.0696
-35 1 18 -0.1992 0.0712
-35 2 1 -0.9741 -0.0379
-35 2 2 0.1333 -0.0208
-35 2 3 -2.1938 -0.0329
-35 2 4 -0.4792 -0.0619
-35 2 5 0.1166 -0.0152
-35 2 6 -1.3038 -0.0516
-35 2 7 0.4568 -0.0095
-35 2 8 -0.2556 -0.0405
-35 2 9 0.1172 -0.0122
-35 2 10 -0.4958 -0.0537
-35 2 11 -0.5152 0.0285
-35 2 12 0.0322 -0.1007
-35 2 13 -0.6264 -0.0457
-35 2 14 0.3262 -0.0804
-35 2 15 0.7701 -0.0536
-35 2 16 -0.2742 0.1088
-35 2 17 0.5541 0.1012
-35 2 18 -0.6600 0.0998
-35 3 1 -0.0770 0.0191
-35 3 2 0.0572 0.0010
-35 3 3 1.5734 -0.0457
-35 3 4 0.9487 -0.0103
-35 3 5 1.7315 -0.0652
-35 3 6 0.2095 -0.0435
-35 3 7 0.3222 -0.0474
-35 3 8 -1.2424 -0.0732
-35 3 9 -1.5376 -0.0024
-35 3 10 -0.5753 -0.0104
-35 3 11 -0.3511 -0.1350
-35 3 12 -0.3275 0.1231
-35 3 13 0.3946 0.0256
-35 3 14 -0.3390 0.1612
-35 3 15 0.1105 0.2800
-35 3 16 -0.3200 0.0107
-35 3 17 0.2647 0.1399
-35 3 18 -0.9341 -0.1527
-35 4 1 0.9638 0.0196
-35 4 2 -0.1283 -0.0125
-35 4 3 -0.3499 0.0136
-35 4 4 -0.6390 0.0594
-35 4 5 0.2783 0.0127
-35 4 6 -0.2448 0.0390
-35 4 7 0.4993 0.0130
-35 4 8 0.6765 0.0607
-35 4 9 -0.2337 0.0079
-35 4 10 1.7649 0.0492
-35 4 11 -0.1036 0.0889
-35 4 12 1.7404 0.0388
-35 4 13 -0.0769 0.2573
-35 4 14 0.1814 -0.0380
-35 4 15 -0.3650 0.0457
-35 4 16 0.0188 -0.1593
-35 4 17 0.2757 -0.0940
-35 4 18 0.6124 0.0487
-35 5 1 0.2911 0.0162
-35 5 2 0.4962 0.0374
-35 5 3 0.1154 -0.0104
-35 5 4 1.5089 -0.0399
-35 5 5 1.0079 0.0259
-35 5 6 2.2226 0.0702
-35 5 7 1.3226 0.0839
-35 5 8 1.2030 -0.0206
-35 5 9 -0.5850 0.1295
-35 5 10 -0.2521 -0.0057
-35 5 11 -0.7486 0.0643
-35 5 12 -0.0486 -0.0463
-35 5 13 0.8489 -0.0813
-35 5 14 0.1283 -0.1232
-35 5 15 0.6738 -0.1305
-35 5 16 0.0609 0.1141
-35 5 17 0.1570 0.0780
-35 6 1 0.0248 0.0301
-35 6 2 0.7189 -0.0485
-35 6 3 0.3386 -0.0235
-35 6 4 -0.1144 0.0744
-35 6 5 0.2108 -0.0422
-35 6 6 -1.1870 -0.0211
-35 6 7 0.3356 -0.1690
-35 6 8 -0.5658 -0.0141
-35 6 9 -0.1343 -0.1764
-35 6 10 1.5626 0.0071
-35 6 11 0.9043 -0.2116
-35 6 12 2.0738 -0.0119
-35 6 13 0.6866 -0.0729
-35 6 14 0.6402 0.0995
-35 6 15 -0.2761 0.2606
-35 6 16 -0.1806 0.0516
-35 7 1 0.6853 -0.0461
-35 7 2 -0.1502 0.0325
-35 7 3 0.1912 -0.0288
-35 7 4 0.2143 -0.0692
-35 7 5 -1.1982 0.0134
-35 7 6 0.8105 0.0366
-35 7 7 -0.1271 0.1081
-35 7 8 1.0946 0.0393
-35 7 9 0.5621 0.1435
-35 7 10 0.8755 -0.0199
-35 7 11 -0.8082 0.3341
-35 7 12 -0.1338 0.0492
-35 7 13 0.5084 0.2312
-35 7 14 0.0207 0.2998
-35 7 15 0.6198 -0.3043
-35 7 16 0.5186 0.1201
-35 8 1 -1.1772 0.0450
-35 8 2 -0.6589 0.0355
-35 8 3 -2.0926 -0.0372
-35 8 4 -0.1275 0.1588
-35 8 5 -1.0051 -0.0449
-35 8 6 -0.2651 0.1378
-35 8 7 0.6760 -0.0698
-35 8 8 -0.5192 0.1349
-35 8 9 -0.6774 -0.0944
-35 8 10 0.6966 0.1831
-35 8 11 -0.3233 -0.2592
-35 8 12 2.0105 0.0797
-35 8 13 -0.1533 -0.2960
-35 8 14 0.5226 -0.4136
-35 9 1 1.5785 -0.0886
-35 9 2 0.0282 -0.1037
-35 9 3 2.7193 -0.0389
-35 9 4 1.3719 -0.2028
-35 9 5 0.8103 -0.0009
-35 9 6 0.6640 -0.2460
-35 9 7 -0.2683 0.0332
-35 9 8 0.0308 -0.2942
-35 9 9 -0.5059 0.0577
-35 9 10 0.5402 -0.3320
-35 9 11 -0.7007 0.1039
-35 9 12 -0.0477 -0.1644
-35 9 13 0.0252 -0.0068
-35 10 2 0.8882 0.0710
-35 10 3 -1.1378 0.0360
-35 10 4 -0.4603 0.2276
-35 10 5 -0.7239 0.0449
-35 10 6 -0.4555 0.3059
-35 10 7 0.2035 -0.0025
-35 10 8 0.1321 0.3704
-35 10 9 0.2449 -0.0571
-35 10 10 0.2171 0.4520
-35 10 11 0.1506 -0.0893
-34 0 2 0.4764 -0.0152
-34 0 4 0.9391 -0.0109
-34 0 6 -0.0656 0.0047
-34 0 8 -0.0438 0.0104
-34 0 10 -1.3691 -0.0100
-34 0 12 0.2269 0.0158
-34 0 14 1.0159 -0.0769
-34 0 16 -0.8151 -0.2123
-34 0 18 -0.7187 0.0029
-34 1 1 0.7472 0.0268
-34 1 2 0.2841 -0.0495
-34 1 3 1.7164 0.0303
-34 1 4 -0.7580 -0.0580
-34 1 5 -0.3788 0.0100
-34 1 6 -1.5947 -0.0540
-34 1 7 -2.8121 0.0043
-34 1 8 -2.0657 -0.0320
-34 1 9 -0.7719 -0.0067
-34 1 10 -1.0327 -0.0095
-34 1 11 0.7956 0.0241
-34 1 12 -0.7958 -0.0292
-34 1 13 0.2532 0.0442
-34 1 14 -0.8064 -0.1377
-34 1 15 1.0083 0.0075
-34 1 16 -0.0442 0.0367
-34 1 17 0.6610 0.0656
-34 1 18 -0.0916 0.0512
-34 1 19 -0.0970 -0.0132
-34 2 1 -1.8209 -0.0531
-34 2 2 -0.7099 -0.0055
-34 2 3 -2.0668 -0.0473
-34 2 4 -0.8135 -0.0458
-34 2 5 1.0341 -0.0281
-34 2 6 -0.2280 -0.0626
-34 2 7 0.8193 -0.0545
-34 2 8 0.2576 -0.0387
-34 2 9 -0.0257 -0.0304
-34 2 10 -0.3812 -0.0653
-34 2 11 -0.3956 0.0028
-34 2 12 0.3233 -0.0943
-34 2 13 -0.6761 -0.0440
-34 2 14 0.0501 -0.0199
-34 2 15 0.7519 0.0094
-34 2 16 -0.1831 0.1306
-34 2 17 0.2126 0.1008
-34 2 18 -0.5326 0.1023
-34 2 19 -1.0034 -0.0672
-34 3 1 0.9031 0.0440
-34 3 2 0.4369 -0.0062
-34 3 3 2.3043 -0.0298
-34 3 4 0.5742 0.0160
-34 3 5 1.4070 -0.0396
-34 3 6 -0.1731 -0.0033
-34 3 7 -0.4893 -0.0072
-34 3 8 -1.3721 -0.0097
-34 3 9 -2.1394 0.0024
-34 3 10 -0.8913 0.0463
-34 3 11 -0.4303 -0.0928
-34 3 12 -0.3633 0.0970
-34 3 13 0.8339 0.0670
-34 3 14 -0.4554 0.0840
-34 3 15 0.6264 0.1848
-34 3 16 -0.3720 -0.1080
-34 3 17 0.3160 -0.0261
-34 3 18 -0.4092 -0.1223
-34 3 19 -0.1001 -0.2548
-34 4 1 0.8150 0.0069
-34 4 2 -0.1989 0.0208
-34 4 3 -0.8460 0.0275
-34 4 4 -0.9635 0.0179
-34 4 5 0.4503 0.0453
-34 4 6 0.3811 -0.0268
-34 4 7 0.6820 0.0347
-34 4 8 1.7036 0.0102
-34 4 9 0.0590 0.0113
-34 4 10 1.9370 -0.0146
-34 4 11 0.1858 0.0900
-34 4 12 1.4385 -0.0395
-34 4 13 -0.3066 0.1889
-34 4 14 0.0113 -0.0965
-34 4 15 -0.4166 -0.0775
-34 4 16 0.4197 -0.0613
-34 4 17 0.0519 -0.0134
-34 4 18 0.9342 0.1443
-34 5 1 0.0891 0.0107
-34 5 2 0.9546 -0.0147
-34 5 3 0.8343 -0.0626
-34 5 4 1.8785 0.0082
-34 5 5 1.4628 0.0076
-34 5 6 1.6615 0.0715
-34 5 7 0.8636 0.0338
-34 5 8 0.6119 -0.0581
-34 5 9 -1.1380 0.0437
-34 5 10 -0.8569 0.0118
-34 5 11 -0.1382 -0.0106
-34 5 12 -0.4624 -0.0502
-34 5 13 1.5279 -0.1203
-34 5 14 0.1259 -0.0348
-34 5 15 0.5099 -0.0280
-34 5 16 0.0537 0.1679
-34 5 17 -0.3023 0.1223
-34 5 18 0.0699 0.0883
-34 6 1 0.5707 0.0215
-34 6 2 0.7684 -0.0017
-34 6 3 0.6901 -0.0121
-34 6 4 -0.7303 -0.0009
-34 6 5 0.7631 -0.0597
-34 6 6 -0.8573 -0.0647
-34 6 7 0.4963 -0.1099
-34 6 8 0.6231 0.0087
-34 6 9 0.3809 -0.0872
-34 6 10 2.1307 0.0162
-34 6 11 1.0804 -0.1348
-34 6 12 1.3706 0.0428
-34 6 13 -0.0307 0.0325
-34 6 14 0.2106 0.1113
-34 6 15 -0.5648 0.1659
-34 6 16 -0.1969 -0.0404
-34 6 17 -0.3925 -0.0743
-34 7 1 0.6915 -0.0524
-34 7 2 -0.2702 0.0316
-34 7 3 -0.1417 -0.0117
-34 7 4 0.1297 0.0065
-34 7 5 -1.2398 0.0673
-34 7 6 0.6373 0.0970
-34 7 7 -0.2426 0.1231
-34 7 8 1.2489 0.0426
-34 7 9 -0.2459 0.1516
-34 7 10 0.3495 0.0039
-34 7 11 -0.4102 0.3087
-34 7 12 -0.3487 0.0987
-34 7 13 1.1110 0.0658
-34 7 14 0.6325 0.2126
-34 7 15 0.2596 -0.3884
-34 7 16 0.8263 0.0016
-34 7 17 -0.4548 -0.2107
-34 8 1 -1.1289 0.0210
-34 8 2 -0.5989 0.0263
-34 8 3 -1.9156 -0.0556
-34 8 4 0.2630 0.0410
-34 8 5 0.2134 -0.0930
-34 8 6 0.0516 0.0288
-34 8 7 0.8355 -0.1191
-34 8 8 0.1741 0.0273
-34 8 9 -0.9050 -0.1557
-34 8 10 1.5764 0.0475
-34 8 11 -0.2952 -0.3491
-34 8 12 1.4900 -0.0851
-34 8 13 -0.5514 -0.2620
-34 8 14 -0.0567 -0.4377
-34 8 15 -0.0568 0.1259
-34 8 16 0.1040 -0.1660
-34 9 1 2.9663 -0.0826
-34 9 2 0.9618 -0.0787
-34 9 3 2.5326 -0.0070
-34 9 4 1.0041 -0.1325
-34 9 5 0.0187 0.0436
-34 9 6 -0.0391 -0.1577
-34 9 7 -0.4163 0.0898
-34 9 8 0.1152 -0.1446
-34 9 9 -0.7470 0.1402
-34 9 10 0.4214 -0.1809
-34 9 11 -0.1757 0.1984
-34 9 12 0.0056 0.0780
-34 9 13 0.6787 0.1016
-34 9 14 0.7475 0.5534
-34 10 1 -0.5515 0.0494
-34 10 2 0.1714 0.1106
-34 10 3 -1.6577 0.0527
-34 10 4 -0.5922 0.2202
-34 10 5 -0.3961 0.0409
-34 10 6 -0.3439 0.2571
-34 10 7 0.5620 -0.0349
-34 10 8 0.5192 0.2753
-34 10 9 0.1829 -0.1124
-34 10 10 0.6026 0.3378
-34 10 11 -0.3290 -0.0946
-34 10 12 0.7923 0.0304
-34 10 13 -0.1320 0.1267
-34 11 2 -0.2442 -0.0501
-34 11 3 1.5155 -0.0695
-34 11 4 0.3796 -0.1687
-34 11 5 -0.2328 -0.1476
-34 11 6 0.0712 -0.2709
-34 11 7 -0.5670 -0.0523
-34 11 8 -0.7533 -0.2811
-34 11 9 -0.5028 -0.0280
-34 11 10 -0.7386 -0.2782
-33 0 2 0.6620 -0.0271
-33 0 4 1.4740 0.0088
-33 0 6 0.6779 0.0106
-33 0 8 -1.2613 -0.0017
-33 0 10 -1.6512 -0.0080
-33 0 12 0.1603 0.0131
-33 0 14 0.2302 -0.0810
-33 0 16 -0.5647 -0.0657
-33 0 18 -0.3564 0.1171
-33 0 20 0.5396 0.0567
-33 1 1 0.5351 0.0099
-33 1 2 -0.2165 -0.0535
-33 1 3 0.3246 0.0111
-33 1 4 -1.8487 -0.0607
-33 1 5 -1.9194 -0.0244
-33 1 6 -1.7241 -0.0516
-33 1 7 -2.9449 -0.0330
-33 1 8 -1.9998 -0.0379
-33 1 9 0.0746 -0.0326
-33 1 10 -1.0192 -0.0118
-33 1 11 1.2588 -0.0044
-33 1 12 -0.4234 -0.0110
-33 1 13 0.6414 0.0038
-33 1 14 -0.6788 -0.0469
-33 1 15 1.4263 -0.0025
-33 1 16 0.1068 0.0870
-33 1 17 0.4016 0.0493
-33 1 18 -0.1657 -0.0392
-33 1 19 -0.5426 -0.0024
-33 1 20 -0.7303 -0.1803
-33 2 1 -2.2200 -0.0429
-33 2 2 -0.9845 0.0122
-33 2 3 -1.1727 -0.0374
-33 2 4 -0.0739 -0.0231
-33 2 5 1.7586 -0.0384
-33 2 6 1.0775 -0.0421
-33 2 7 1.0569 -0.0580
-33 2 8 0.3930 -0.0123
-33 2 9 -0.1946 -0.0048
-33 2 10 -0.3316 -0.0504
-33 2 11 -0.7146 -0.0002
-33 2 12 0.2317 -0.0435
-33 2 13 -0.6991 -0.0176
-33 2 14 -0.0027 0.0183
-33 2 15 0.6152 0.0508
-33 2 16 0.3686 0.1116
-33 2 17 -0.2345 0.0561
-33 2 18 -0.4515 0.0495
-33 2 19 -0.8709 -0.1216
-33 2 20 -0.1564 -0.1892
-33 3 1 1.8146 0.0545
-33 3 2 0.7353 -0.0194
-33 3 3 2.2212 -0.0063
-33 3 4 -0.2616 0.0448
-33 3 5 0.0845 -0.0070
-33 3 6 -0.7494 0.0207
-33 3 7 -1.6112 0.0062
-33 3 8 -1.7086 0.0205
-33 3 9 -2.3276 -0.0021
-33 3 10 -1.0546 0.0334
-33 3 11 0.0760 -0.0860
-33 3 12 0.0240 0.0317
-33 3 13 1.6533 0.0372
-33 3 14 -0.4243 0.0072
-33 3 15 0.8692 0.0750
-33 3 16 -0.0563 -0.1561
-33 3 17 -0.0118 -0.1058
-33 3 18 0.0303 0.0102
-33 3 19 -0.3075 -0.1167
-33 4 1 0.0281 0.0005
-33 4 2 -0.2168 0.0283
-33 4 3 -0.8700 0.0318
-33 4 4 -0.5477 -0.0422
-33 4 5 1.1232 0.0636
-33 4 6 1.5917 -0.0469
-33 4 7 0.8902 0.0397
-33 4 8 2.6580 -0.0192
-33 4 9 0.3077 0.0004
-33 4 10 1.7237 -0.0581
-33 4 11 0.0082 0.0835
-33 4 12 0.6560 -0.0658
-33 4 13 -0.5621 0.0990
-33 4 14 -0.0303 -0.0889
-33 4 15 -0.3484 -0.1237
-33 4 16 0.9409 0.0497
-33 4 17 -0.1346 0.0891
-33 4 18 0.9137 0.1126
-33 4 19 -0.8435 0.3020
-33 5 1 0.2152 -0.0067
-33 5 2 1.5145 -0.0378
-33 5 3 1.5676 -0.0792
-33 5 4 1.5329 0.0409
-33 5 5 1.3315 -0.0153
-33 5 6 0.6547 0.0249
-33 5 7 0.2971 -0.0431
-33 5 8 -0.2104 -0.0556
-33 5 9 -0.9336 -0.0136
-33 5 10 -1.2718 0.0495
-33 5 11 0.7811 -0.0413
-33 5 12 -0.5261 -0.0123
-33 5 13 1.6861 -0.0964
-33 5 14 0.0016 0.0613
-33 5 15 -0.0521 0.0781
-33 5 16 0.1221 0.1091
-33 5 17 -0.8654 0.1060
-33 5 18 0.2388 0.0010
-33 5 19 -0.4626 -0.1141
-33 6 1 0.7733 0.0242
-33 6 2 0.3342 0.0118
-33 6 3 1.0919 -0.0025
-33 6 4 -0.7697 -0.0498
-33 6 5 1.1547 -0.0189
-33 6 6 0.1672 -0.0309
-33 6 7 0.2743 0.0002
-33 6 8 1.4842 0.0409
-33 6 9 0.9413 -0.0248
-33 6 10 1.8181 0.0226
-33 6 11 0.9259 -0.0692
-33 6 12 0.5209 0.0484
-33 6 13 -0.6155 0.0699
-33 6 14 0.0678 0.0371
-33 6 15 -0.1960 0.0144
-33 6 16 -0.3104 -0.1232
-33 6 17 0.0842 -0.1384
-33 6 18 -0.2507 -0.1181
-33 7 1 0.6085 -0.0310
-33 7 2 -0.5925 0.0250
-33 7 3 -0.8085 0.0131
-33 7 4 -0.3175 0.0377
-33 7 5 -1.4952 0.0610
-33 7 6 0.6227 0.0796
-33 7 7 -0.5169 0.0745
-33 7 8 1.0033 0.0218
-33 7 9 -0.3251 0.1159
-33 7 10 -0.2421 0.0180
-33 7 11 0.7160 0.2028
-33 7 12 -0.0605 0.1034
-33 7 13 1.1658 -0.0858
-33 7 14 0.9782 0.0960
-33 7 15 -0.3172 -0.3327
-33 7 16 0.7657 -0.0342
-33 7 17 -0.5428 -0.0503
-33 8 1 -1.0072 0.0046
-33 8 2 -0.0255 -0.0257
-33 8 3 -0.8239 -0.0701
-33 8 4 0.8386 -0.0480
-33 8 5 1.2761 -0.1102
-33 8 6 0.5396 -0.0427
-33 8 7 0.4301 -0.1229
-33 8 8 0.6806 -0.0618
-33 8 9 -1.0471 -0.1713
-33 8 10 1.3795 -0.0416
-33 8 11 -0.4284 -0.3347
-33 8 12 0.5972 -0.1619
-33 8 13 -0.7650 -0.1110
-33 8 14 -0.4272 -0.3280
-33 8 15 0.3338 0.2417
-33 8 16 -0.2783 -0.0309
-33 9 1 3.3347 -0.0338
-33 9 2 1.3530 -0.0292
-33 9 3 1.2706 0.0427
-33 9 4 -0.1345 -0.0453
-33 9 5 -0.5472 0.0950
-33 9 6 -0.4877 -0.0353
-33 9 7 -0.3897 0.1516
-33 9 8 0.2231 0.0062
-33 9 9 -0.3370 0.1983
-33 9 10 0.1173 -0.0331
-33 9 11 1.0163 0.2427
-33 9 12 0.0575 0.2676
-33 9 13 1.0002 0.1173
-33 9 14 0.9182 0.4577
-33 9 15 -0.3100 -0.0366
-33 10 1 -1.1878 0.0461
-33 10 2 0.0085 0.1034
-33 10 3 -1.5109 0.0422
-33 10 4 -0.3473 0.1518
-33 10 5 0.2128 -0.0085
-33 10 6 -0.0290 0.1299
-33 10 7 0.6423 -0.1019
-33 10 8 0.9184 0.1179
-33 10 9 -0.3382 -0.1410
-33 10 10 0.3173 0.1504
-33 10 11 -0.7013 -0.1055
-33 10 12 -0.0078 -0.2489
-33 10 13 0.2109 -0.0031
-33 10 14 -0.8142 -0.4911
-33 11 1 1.7527 -0.0288
-33 11 2 0.5409 -0.0662
-33 11 3 1.3381 -0.0828
-33 11 4 0.3806 -0.1770
-33 11 5 -0.5158 -0.1180
-33 11 6 -0.5171 -0.2267
-33 11 7 -0.5469 -0.0037
-33 11 8 -1.0921 -0.1952
-33 11 9 -0.3018 -0.0358
-33 11 10 -0.3775 -0.2283
-33 11 11 0.1337 -0.1861
-33 11 12 0.2245 -0.0190
-33 12 3 0.1977 0.2017
-33 12 4 -0.5001 0.0054
-33 12 5 -0.4294 0.2305
-33 12 6 -0.3665 0.1796
-33 12 7 -0.5431 0.1578
-33 12 8 0.2130 0.1372
-33 12 9 -0.0775 0.1098
-32 0 2 1.3678 -0.0167
-32 0 4 2.0740 0.0224
-32 0 6 0.2985 0.0034
-32 0 8 -2.7921 0.0005
-32 0 10 -1.6327 0.0125
-32 0 12 0.0872 0.0263
-32 0 14 -0.0010 -0.0433
-32 0 16 -0.1448 0.0345
-32 0 18 -0.1445 0.0709
-32 0 20 0.4752 -0.0467
-32 1 1 -0.3635 -0.0080
-32 1 2 -1.1252 -0.0426
-32 1 3 -1.7359 -0.0139
-32 1 4 -2.4024 -0.0394
-32 1 5 -2.8564 -0.0439
-32 1 6 -1.4109 -0.0498
-32 1 7 -1.9105 -0.0528
-32 1 8 -1.6281 -0.0292
-32 1 9 1.1541 -0.0449
-32 1 10 -0.6800 -0.0043
-32 1 11 1.7559 -0.0214
-32 1 12 -0.0394 -0.0108
-32 1 13 0.6766 0.0039
-32 1 14 -0.5317 -0.0074
-32 1 15 1.1362 0.0057
-32 1 16 0.2692 0.0454
-32 1 17 -0.0846 0.0502
-32 1 18 -0.3411 -0.0872
-32 1 19 -0.8838 0.0364
-32 1 20 -0.7685 -0.0949
-32 2 1 -1.5845 -0.0075
-32 2 2 -0.4511 0.0291
-32 2 3 0.0878 -0.0249
-32 2 4 1.2999 0.0042
-32 2 5 1.9247 -0.0243
-32 2 6 1.7718 -0.0036
-32 2 7 0.9072 -0.0147
-32 2 8 -0.0169 0.0178
-32 2 9 -0.9142 0.0317
-32 2 10 -0.5473 -0.0142
-32 2 11 -1.4279 0.0061
-32 2 12 -0.0631 -0.0086
-32 2 13 -0.4856 0.0105
-32 2 14 0.3771 0.0060
-32 2 15 0.4719 0.0566
-32 2 16 0.7796 0.0635
-32 2 17 -0.3714 0.0021
-32 2 18 -0.6796 -0.0460
-32 2 19 -0.5022 -0.1116
-32 2 20 -0.1648 -0.1901
-32 3 1 1.9772 0.0541
-32 3 2 0.2801 -0.0223
-32 3 3 1.1144 0.0125
-32 3 4 -1.4424 0.0614
-32 3 5 -1.5376 0.0004
-32 3 6 -1.1981 0.0093
-32 3 7 -2.0942 0.0037
-32 3 8 -1.6358 0.0118
-32 3 9 -1.4257 -0.0186
-32 3 10 -0.4473 -0.0147
-32 3 11 1.1931 -0.1081
-32 3 12 0.6808 -0.0204
-32 3 13 2.0025 0.0130
-32 3 14 -0.2877 -0.0430
-32 3 15 0.3546 0.0121
-32 3 16 0.2591 -0.1174
-32 3 17 -0.4758 -0.0796
-32 3 18 0.0025 0.1520
-32 3 19 -0.3877 0.0583
-32 3 20 -0.5542 0.2104
-32 4 1 -0.8203 -0.0045
-32 4 2 0.1792 0.0087
-32 4 3 -0.1621 0.0273
-32 4 4 0.5650 -0.0652
-32 4 5 1.6249 0.0707
-32 4 6 2.6172 -0.0206
-32 4 7 0.6411 0.0226
-32 4 8 2.8962 -0.0458
-32 4 9 0.2504 -0.0113
-32 4 10 0.8829 -0.0603
-32 4 11 -0.1828 0.0674
-32 4 12 -0.2946 -0.0491
-32 4 13 -0.3522 0.0255
-32 4 14 0.3956 -0.0496
-32 4 15 -0.2625 -0.0908
-32 4 16 1.3238 0.1007
-32 4 17 -0.1188 0.1363
-32 4 18 0.3434 -0.0299
-32 4 19 -0.5685 0.1999
-32 4 20 -0.4933 -0.3080
-32 5 1 0.7255 -0.0197
-32 5 2 1.5154 -0.0345
-32 5 3 1.8384 -0.0809
-32 5 4 0.6160 0.0374
-32 5 5 0.7686 -0.0578
-32 5 6 -0.2084 -0.0149
-32 5 7 -0.0232 -0.0913
-32 5 8 -0.9094 -0.0010
-32 5 9 -0.1144 -0.0162
-32 5 10 -1.2149 0.0850
-32 5 11 1.6179 -0.0332
-32 5 12 -0.5437 0.0399
-32 5 13 1.3846 -0.0393
-32 5 14 -0.2244 0.0839
-32 5 15 -0.6651 0.1341
-32 5 16 0.3402 -0.0098
-32 5 17 -1.1859 0.0488
-32 5 18 0.0556 -0.0011
-32 5 19 -0.2008 -0.1337
-32 6 1 0.7778 0.0251
-32 6 2 0.0535 0.0140
-32 6 3 1.7220 0.0257
-32 6 4 -0.2109 -0.0341
-32 6 5 1.0244 0.0513
-32 6 6 1.0393 0.0272
-32 6 7 -0.2989 0.0753
-32 6 8 1.5011 0.0345
-32 6 9 1.1329 -0.0085
-32 6 10 1.0632 0.0049
-32 6 11 0.4573 -0.0271
-32 6 12 0.0934 -0.0062
-32 6 13 -0.5907 0.0457
-32 6 14 0.1605 -0.0500
-32 6 15 0.6344 -0.1173
-32 6 16 -0.5019 -0.1312
-32 6 17 0.7155 -0.1361
-32 6 18 -0.4713 -0.0638
-32 6 19 0.4062 0.0470
-32 7 1 0.0331 -0.0102
-32 7 2 -1.0451 0.0004
-32 7 3 -1.7439 -0.0046
-32 7 4 -0.4615 0.0090
-32 7 5 -1.3489 -0.0026
-32 7 6 0.7762 0.0373
-32 7 7 -0.0601 -0.0009
-32 7 8 0.2973 0.0102
-32 7 9 0.4908 0.0522
-32 7 10 -0.4994 0.0184
-32 7 11 1.4665 0.0785
-32 7 12 0.2797 0.0822
-32 7 13 0.3387 -0.1475
-32 7 14 0.7426 0.0130
-32 7 15 -0.9494 -0.1745
-32 7 16 0.6632 0.0181
-32 7 17 -0.6072 0.0724
-32 7 18 0.3690 0.2129
-32 8 1 -0.6286 0.0008
-32 8 2 0.7590 -0.0534
-32 8 3 0.3980 -0.0560
-32 8 4 1.2334 -0.0658
-32 8 5 1.3208 -0.0837
-32 8 6 0.9091 -0.0711
-32 8 7 -0.1843 -0.0801
-32 8 8 0.4975 -0.0909
-32 8 9 -0.9435 -0.1269
-32 8 10 0.6190 -0.0539
-32 8 11 -0.4744 -0.2187
-32 8 12 0.1692 -0.1586
-32 8 13 -0.4248 0.0722
-32 8 14 -0.6849 -0.1705
-32 8 15 0.9780 0.2261
-32 8 16 -0.6039 -0.0108
-32 8 17 0.2541 -0.1271
-32 9 1 2.4959 0.0169
-32 9 2 0.7109 0.0212
-32 9 3 -0.1776 0.0678
-32 9 4 -1.3020 0.0306
-32 9 5 -0.6202 0.1236
-32 9 6 -0.4223 0.0701
-32 9 7 -0.0345 0.1600
-32 9 8 0.2735 0.0905
-32 9 9 0.7448 0.1783
-32 9 10 -0.2158 0.0693
-32 9 11 1.9406 0.1990
-32 9 12 0.1717 0.3156
-32 9 13 0.7851 0.0358
-32 9 14 0.9240 0.1776
-32 9 15 -0.3288 -0.1311
-32 9 16 0.3523 -0.3301
-32 10 1 -1.4061 0.0328
-32 10 2 0.4490 0.0679
-32 10 3 -0.7096 0.0079
-32 10 4 -0.1051 0.0487
-32 10 5 0.5876 -0.0733
-32 10 6 0.3044 -0.0141
-32 10 7 0.2150 -0.1375
-32 10 8 0.8076 -0.0240
-32 10 9 -0.9794 -0.1192
-32 10 10 -0.4623 -0.0327
-32 10 11 -0.6919 -0.1229
-32 10 12 -0.6139 -0.4036
-32 10 13 0.6258 -0.0789
-32 10 14 -0.9886 -0.3241
-32 10 15 1.0360 -0.0875
-32 11 1 2.1407 -0.0164
-32 11 2 1.0271 -0.0554
-32 11 3 0.7611 -0.0710
-32 11 4 -0.0515 -0.1320
-32 11 5 -0.5166 -0.0403
-32 11 6 -1.0119 -0.1226
-32 11 7 -0.4457 0.0461
-32 11 8 -0.9670 -0.0931
-32 11 9 0.0718 -0.0273
-32 11 10 -0.1059 -0.1218
-32 11 11 0.3777 -0.0650
-32 11 12 0.1487 0.1879
-32 11 13 0.1448 0.0761
-32 12 1 0.3365 0.0710
-32 12 2 -0.0938 -0.0907
-32 12 3 -0.0513 0.1988
-32 12 4 -0.5867 0.0809
-32 12 5 -0.4994 0.1894
-32 12 6 -0.2667 0.1583
-32 12 7 -0.6906 0.1314
-32 12 8 0.1953 0.0515
-32 12 9 -0.4271 0.1010
-32 12 10 0.2532 -0.0103
-32 12 11 -0.6815 0.2706
-32 13 5 0.4220 -0.2698
-32 13 6 0.4774 0.0211
-32 13 7 0.2306 -0.2513
-31 0 2 1.9698 -0.0072
-31 0 4 1.6594 0.0112
-31 0 6 -1.1513 -0.0017
-31 0 8 -3.6557 0.0076
-31 0 10 -1.0336 0.0206
-31 0 12 0.2985 0.0258
-31 0 14 -0.1344 -0.0168
-31 0 16 -0.2939 0.0400
-31 0 18 -0.2690 -0.0169
-31 0 20 0.1129 -0.0118
-31 1 1 -1.7044 -0.0192
-31 1 2 -1.8240 -0.0123
-31 1 3 -3.3535 -0.0179
-31 1 4 -2.2394 -0.0243
-31 1 5 -2.3132 -0.0390
-31 1 6 -0.8359 -0.0471
-31 1 7 -0.0310 -0.0472
-31 1 8 -0.8948 -0.0067
-31 1 9 2.0873 -0.0320
-31 1 10 -0.0903 -0.0209
-31 1 11 1.7016 -0.0002
-31 1 12 0.3142 -0.0260
-31 1 13 -0.1146 0.0303
-31 1 14 -0.2577 -0.0030
-31 1 15 0.4409 0.0107
-31 1 16 0.3109 -0.0168
-31 1 17 -0.5462 0.0591
-31 1 18 -0.5839 -0.0420
-31 1 19 -0.8299 0.0232
-31 1 20 -0.6180 -0.0338
-31 1 21 0.4419 -0.0388
-31 2 1 -0.1498 0.0201
-31 2 2 0.7047 0.0368
-31 2 3 0.9050 -0.0077
-31 2 4 2.1256 0.0264
-31 2 5 1.2962 0.0200
-31 2 6 1.0538 0.0262
-31 2 7 0.1515 0.0298
-31 2 8 -1.0066 0.0392
-31 2 9 -1.9719 0.0481
-31 2 10 -0.8352 0.0110
-31 2 11 -1.7035 0.0103
-31 2 12 0.1668 -0.0241
-31 2 13 0.2170 0.0222
-31 2 14 1.1683 -0.0149
-31 2 15 0.4427 0.0395
-31 2 16 0.6533 0.0093
-31 2 17 -0.3160 -0.0218
-31 2 18 -1.1338 -0.1128
-31 2 19 -0.3342 -0.0348
-31 2 20 -0.2472 -0.0813
-31 2 21 0.2613 0.1239
-31 3 1 1.3684 0.0470
-31 3 2 -0.7232 -0.0075
-31 3 3 -0.3712 0.0093
-31 3 4 -2.0905 0.0466
-31 3 5 -2.3838 -0.0058
-31 3 6 -1.0577 -0.0203
-31 3 7 -1.4274 0.0084
-31 3 8 -0.9251 -0.0080
-31 3 9 0.3566 -0.0442
-31 3 10 0.4804 -0.0526
-31 3 11 2.0551 -0.1088
-31 3 12 0.9882 -0.0408
-31 3 13 1.3895 0.0295
-31 3 14 -0.1815 -0.0620
-31 3 15 -0.3137 -0.0059
-31 3 16 0.3331 -0.0253
-31 3 17 -0.5645 -0.0064
-31 3 18 -0.1903 0.2017
-31 3 19 -0.3055 0.1335
-31 3 20 -0.4316 0.0908
-31 3 21 0.2030 0.0500
-31 4 1 -0.7420 -0.0127
-31 4 2 1.0166 -0.0099
-31 4 3 0.9566 0.0217
-31 4 4 1.7425 -0.0394
-31 4 5 1.3081 0.0594
-31 4 6 2.8491 0.0014
-31 4 7 -0.1454 -0.0133
-31 4 8 2.2902 -0.0654
-31 4 9 -0.0587 -0.0141
-31 4 10 -0.2450 -0.0208
-31 4 11 -0.1516 0.0500
-31 4 12 -0.7911 -0.0211
-31 4 13 -0.0573 0.0009
-31 4 14 1.1109 -0.0084
-31 4 15 -0.2729 -0.0320
-31 4 16 1.0291 0.0667
-31 4 17 0.2498 0.1141
-31 4 18 -0.6350 -0.1712
-31 4 19 -0.3890 0.1095
-31 4 20 -0.7227 -0.2348
-31 5 1 0.8983 -0.0207
-31 5 2 0.4960 -0.0208
-31 5 3 1.6108 -0.0840
-31 5 4 -0.0813 0.0193
-31 5 5 0.4956 -0.0753
-31 5 6 -0.5108 -0.0083
-31 5 7 0.3531 -0.0715
-31 5 8 -1.2996 0.0645
-31 5 9 1.1756 0.0108
-31 5 10 -0.8436 0.0936
-31 5 11 1.9678 -0.0109
-31 5 12 -0.6323 0.0597
-31 5 13 0.4533 0.0070
-31 5 14 -0.1719 0.0192
-31 5 15 -1.2766 0.1236
-31 5 16 0.5263 -0.0922
-31 5 17 -1.1178 -0.0142
-31 5 18 -0.5008 0.0613
-31 5 19 0.2425 -0.1176
-31 5 20 -1.4605 0.1433
-31 6 1 0.8873 0.0267
-31 6 2 0.0563 0.0250
-31 6 3 1.8233 0.0564
-31 6 4 0.1913 0.0106
-31 6 5 -0.1350 0.0827
-31 6 6 1.1959 0.0338
-31 6 7 -1.0840 0.0851
-31 6 8 0.9960 -0.0139
-31 6 9 1.1441 -0.0164
-31 6 10 0.5987 -0.0306
-31 6 11 0.5314 -0.0097
-31 6 12 0.2211 -0.0755
-31 6 13 0.0805 0.0009
-31 6 14 0.2586 -0.0692
-31 6 15 1.2633 -0.1737
-31 6 16 -0.8585 -0.0605
-31 6 17 1.2168 -0.0760
-31 6 18 -0.8258 0.0114
-31 6 19 0.6644 0.0683
-31 7 1 -0.6928 -0.0177
-31 7 2 -1.4996 -0.0393
-31 7 3 -2.2533 -0.0546
-31 7 4 -0.1255 -0.0304
-31 7 5 -0.5194 -0.0679
-31 7 6 0.6957 0.0237
-31 7 7 0.8581 -0.0631
-31 7 8 -0.4647 0.0070
-31 7 9 1.0889 -0.0039
-31 7 10 -0.2269 0.0125
-31 7 11 1.1513 0.0005
-31 7 12 0.3794 0.0679
-31 7 13 -0.6872 -0.1175
-31 7 14 0.3593 -0.0082
-31 7 15 -1.2758 -0.0095
-31 7 16 0.7908 0.0814
-31 7 17 -0.4425 0.0920
-31 7 18 0.2853 0.1423
-31 7 19 0.7548 -0.0119
-31 8 1 0.0088 0.0100
-31 8 2 1.2845 -0.0274
-31 8 3 1.0520 -0.0167
-31 8 4 1.1082 -0.0313
-31 8 5 0.6567 -0.0325
-31 8 6 0.7721 -0.0628
-31 8 7 -0.5366 -0.0035
-31 8 8 -0.2138 -0.0576
-31 8 9 -0.8440 -0.0437
-31 8 10 0.3238 -0.0270
-31 8 11 -0.3966 -0.0641
-31 8 12 0.4004 -0.1243
-31 8 13 0.3188 0.1701
-31 8 14 -0.8700 -0.0459
-31 8 15 1.4891 0.0621
-31 8 16 -0.5871 -0.0928
-31 8 17 0.1964 -0.2388
-31 8 18 0.1854 -0.3343
-31 9 1 1.0987 0.0256
-31 9 2 -0.3189 0.0531
-31 9 3 -1.0558 0.0587
-31 9 4 -1.5494 0.0709
-31 9 5 -0.1664 0.0997
-31 9 6 -0.0630 0.1139
-31 9 7 0.7993 0.0865
-31 9 8 0.0877 0.0920
-31 9 9 1.7766 0.0924
-31 9 10 -0.5529 0.1145
-31 9 11 1.8637 0.0953
-31 9 12 0.2549 0.2142
-31 9 13 0.2976 -0.0729
-31 9 14 0.7370 -0.0991
-31 9 15 -0.3504 -0.1495
-31 9 16 0.1772 -0.2154
-31 9 17 0.4554 0.0209
-31 10 1 -0.8217 0.0105
-31 10 2 0.8425 0.0266
-31 10 3 0.0666 -0.0258
-31 10 4 0.0271 -0.0448
-31 10 5 0.2459 -0.1020
-31 10 6 0.5888 -0.0991
-31 10 7 -0.4677 -0.1047
-31 10 8 0.2713 -0.1005
-31 10 9 -1.2395 -0.0679
-31 10 10 -0.9979 -0.1444
-31 10 11 -0.3606 -0.1190
-31 10 12 -0.7714 -0.3699
-31 10 13 0.9524 -0.0484
-31 10 14 -0.9340 -0.0444
-31 10 15 1.0333 0.0311
-31 10 16 0.1847 0.3403
-31 11 1 1.7450 -0.0194
-31 11 2 0.8796 -0.0182
-31 11 3 0.4192 -0.0383
-31 11 4 -0.6400 -0.0657
-31 11 5 -0.2851 0.0404
-31 11 6 -1.0686 -0.0121
-31 11 7 -0.3436 0.0627
-31 11 8 -0.5962 -0.0068
-31 11 9 0.4513 -0.0079
-31 11 10 -0.0342 0.0160
-31 11 11 0.4307 0.0629
-31 11 12 0.1227 0.3067
-31 11 13 0.1835 0.1935
-31 11 14 0.5430 0.0987
-31 11 15 0.4237 0.2903
-31 12 1 0.1439 0.0730
-31 12 2 -0.1660 -0.0369
-31 12 3 -0.2098 0.1485
-31 12 4 -0.4972 0.1140
-31 12 5 -0.4846 0.1264
-31 12 6 -0.0344 0.0749
-31 12 7 -0.9829 0.0789
-31 12 8 0.1226 -0.0675
-31 12 9 -0.5910 0.0416
-31 12 10 -0.1495 -0.1391
-31 12 11 -0.6209 0.1191
-31 12 12 -1.1365 -0.2913
-31 12 13 -0.3290 -0.1327
-31 13 1 0.0560 0.0131
-31 13 2 0.6462 0.1186
-31 13 3 0.6107 -0.1497
-31 13 4 1.3454 0.1575
-31 13 5 0.6421 -0.2491
-31 13 6 0.4993 0.0251
-31 13 7 0.2132 -0.1888
-31 13 8 -0.1751 0.0045
-31 13 9 -0.3881 -0.1696
-31 13 10 0.3333 -0.0410
-30 0 2 1.7653 -0.0195
-30 0 4 -0.0709 -0.0066
-30 0 6 -2.6346 -0.0015
-30 0 8 -3.1374 -0.0028
-30 0 10 0.1007 0.0043
-30 0 12 0.6111 0.0124
-30 0 14 -0.5962 -0.0132
-30 0 16 -0.8058 -0.0015
-30 0 18 -0.5080 -0.0271
-30 0 20 -0.2602 0.0887
-30 1 1 -2.7737 -0.0073
-30 1 2 -1.7977 0.0119
-30 1 3 -3.4907 -0.0016
-30 1 4 -1.6012 -0.0262
-30 1 5 -0.5182 -0.0185
-30 1 6 -0.2592 -0.0243
-30 1 7 1.6943 -0.0171
-30 1 8 -0.0983 0.0088
-30 1 9 2.2190 0.0061
-30 1 10 0.2140 -0.0533
-30 1 11 0.5758 0.0375
-30 1 12 0.3043 -0.0188
-30 1 13 -1.3037 0.0307
-30 1 14 -0.0727 -0.0106
-30 1 15 -0.0234 0.0052
-30 1 16 0.2939 -0.0391
-30 1 17 -0.7506 0.0402
-30 1 18 -0.5967 0.0378
-30 1 19 -0.3345 -0.0430
-30 1 20 -0.3187 -0.0904
-30 1 21 0.8720 0.0101
-30 2 1 1.0757 0.0268
-30 2 2 1.5327 0.0317
-30 2 3 0.8263 0.0248
-30 2 4 1.4577 0.0332
-30 2 5 0.0910 0.0546
-30 2 6 -0.7270 0.0337
-30 2 7 -0.9867 0.0352
-30 2 8 -1.7163 0.0488
-30 2 9 -2.6175 0.0440
-30 2 10 -0.3176 0.0039
-30 2 11 -1.1782 0.0047
-30 2 12 1.0962 -0.0496
-30 2 13 0.9684 0.0181
-30 2 14 1.3361 0.0000
-30 2 15 0.3498 0.0224
-30 2 16 -0.4046 -0.0327
-30 2 17 -0.3493 -0.0002
-30 2 18 -1.6434 -0.0916
-30 2 19 -0.3479 0.0614
-30 2 20 -0.2333 0.0463
-30 2 21 0.4439 0.1125
-30 3 1 0.1733 0.0294
-30 3 2 -1.5256 0.0066
-30 3 3 -1.2462 -0.0075
-30 3 4 -1.7951 0.0112
-30 3 5 -1.8263 0.0035
-30 3 6 -0.5272 -0.0312
-30 3 7 0.1469 0.0176
-30 3 8 0.0370 -0.0201
-30 3 9 2.1143 -0.0601
-30 3 10 1.2085 -0.0615
-30 3 11 1.7656 -0.0619
-30 3 12 1.0704 -0.0395
-30 3 13 0.0484 0.0549
-30 3 14 0.0225 -0.0527
-30 3 15 -0.6744 -0.0095
-30 3 16 0.1999 0.0572
-30 3 17 -0.4488 0.0242
-30 3 18 -0.2451 0.1397
-30 3 19 -0.1838 0.0794
-30 3 20 -0.2017 0.0165
-30 3 21 0.3299 -0.0149
-30 4 1 0.3111 -0.0206
-30 4 2 1.8788 -0.0093
-30 4 3 1.2270 0.0183
-30 4 4 2.1135 -0.0083
-30 4 5 -0.0306 0.0242
-30 4 6 2.0851 -0.0032
-30 4 7 -1.0125 -0.0475
-30 4 8 1.1394 -0.0520
-30 4 9 -0.0626 -0.0015
-30 4 10 -0.9202 0.0300
-30 4 11 0.3817 0.0451
-30 4 12 -0.4184 -0.0004
-30 4 13 0.1784 0.0124
-30 4 14 1.5927 0.0193
-30 4 15 -0.1792 -0.0048
-30 4 16 0.0251 -0.0147
-30 4 17 0.5445 0.0690
-30 4 18 -1.4816 -0.1991
-30 4 19 -0.6915 0.0517
-30 4 20 -0.6613 -0.0635
-30 4 21 -0.6183 -0.0620
-30 5 1 0.8890 -0.0146
-30 5 2 -0.6871 -0.0020
-30 5 3 1.5615 -0.0689
-30 5 4 0.3016 0.0138
-30 5 5 0.7351 -0.0308
-30 5 6 -0.4939 0.0238
-30 5 7 0.9527 -0.0203
-30 5 8 -1.6442 0.0887
-30 5 9 2.0211 0.0250
-30 5 10 -0.4874 0.0672
-30 5 11 1.3355 0.0051
-30 5 12 -0.4408 0.0255
-30 5 13 -0.6657 0.0173
-30 5 14 0.3381 -0.0692
-30 5 15 -1.2194 0.0715
-30 5 16 0.4132 -0.0840
-30 5 17 -0.5393 -0.0599
-30 5 18 -1.0635 0.1195
-30 5 19 0.5737 -0.0820
-30 5 20 -1.5977 0.1245
-30 6 1 1.1833 0.0247
-30 6 2 0.0304 0.0339
-30 6 3 0.9585 0.0498
-30 6 4 0.0457 0.0179
-30 6 5 -1.7605 0.0558
-30 6 6 0.9319 -0.0211
-30 6 7 -1.5401 0.0636
-30 6 8 0.6275 -0.0601
-30 6 9 1.2725 -0.0281
-30 6 10 0.6895 -0.0587
-30 6 11 0.9401 -0.0078
-30 6 12 0.5886 -0.0979
-30 6 13 0.3113 -0.0186
-30 6 14 0.1532 -0.0014
-30 6 15 1.3712 -0.1422
-30 6 16 -1.4016 0.0341
-30 6 17 1.6383 0.0048
-30 6 18 -1.1112 0.0653
-30 6 19 0.6166 0.0567
-30 6 20 -0.5971 0.1153
-30 7 1 -1.3101 -0.0402
-30 7 2 -1.6892 -0.0603
-30 7 3 -2.0448 -0.0849
-30 7 4 0.5609 -0.0312
-30 7 5 0.7643 -0.0884
-30 7 6 0.4061 0.0379
-30 7 7 1.7297 -0.0915
-30 7 8 -0.7699 0.0040
-30 7 9 0.9393 -0.0199
-30 7 10 0.2430 0.0193
-30 7 11 0.2056 -0.0165
-30 7 12 0.2504 0.0743
-30 7 13 -1.4444 -0.0547
-30 7 14 0.2772 -0.0004
-30 7 15 -1.3877 0.0824
-30 7 16 0.9977 0.0662
-30 7 17 0.0831 0.0168
-30 7 18 -0.0857 -0.0321
-30 7 19 1.3305 -0.0755
-30 8 1 0.5351 0.0253
-30 8 2 0.9841 0.0224
-30 8 3 0.7274 0.0206
-30 8 4 0.5073 0.0150
-30 8 5 -0.2073 0.0225
-30 8 6 0.4526 -0.0392
-30 8 7 -0.6648 0.0762
-30 8 8 -0.3960 -0.0077
-30 8 9 -0.6982 0.0252
-30 8 10 0.9471 -0.0139
-30 8 11 0.1457 0.0452
-30 8 12 0.6976 -0.0903
-30 8 13 1.1677 0.1229
-30 8 14 -1.0262 0.0153
-30 8 15 1.5348 -0.1330
-30 8 16 -0.4355 -0.1930
-30 8 17 0.0274 -0.1810
-30 8 18 0.1830 -0.2700
-30 8 19 0.1881 0.1373
-30 9 1 0.1706 -0.0016
-30 9 2 -0.9559 0.0547
-30 9 3 -1.1819 0.0241
-30 9 4 -1.1599 0.0668
-30 9 5 0.4490 0.0185
-30 9 6 -0.0616 0.0905
-30 9 7 1.4496 -0.0234
-30 9 8 -0.1329 0.0498
-30 9 9 1.7519 0.0047
-30 9 10 -0.5505 0.1143
-30 9 11 1.1001 -0.0076
-30 9 12 0.3870 0.0504
-30 9 13 0.0997 -0.1306
-30 9 14 0.4282 -0.1998
-30 9 15 -0.3528 -0.0749
-30 9 16 -0.0691 0.0371
-30 9 17 0.8825 0.0996
-30 9 18 0.0737 0.3055
-30 10 1 0.1276 -0.0101
-30 10 2 0.9222 -0.0093
-30 10 3 0.1713 -0.0264
-30 10 4 0.1407 -0.0812
-30 10 5 -0.4366 -0.0725
-30 10 6 0.5505 -0.0979
-30 10 7 -0.7873 -0.0250
-30 10 8 -0.3327 -0.1143
-30 10 9 -1.0539 -0.0193
-30 10 10 -0.8578 -0.1601
-30 10 11 -0.0366 -0.0687
-30 10 12 -0.5228 -0.1990
-30 10 13 1.1888 0.0272
-30 10 14 -0.5180 0.1828
-30 10 15 0.9155 0.0506
-30 10 16 0.5946 0.2321
-30 10 17 -0.0572 -0.0666
-30 11 1 1.1522 -0.0347
-30 11 2 0.4658 0.0169
-30 11 3 0.4489 0.0022
-30 11 4 -0.7632 -0.0171
-30 11 5 -0.1009 0.0778
-30 11 6 -0.7274 0.0676
-30 11 7 -0.2667 0.0425
-30 11 8 -0.4068 0.0464
-30 11 9 0.6870 0.0050
-30 11 10 -0.1863 0.1204
-30 11 11 0.2121 0.1343
-30 11 12 -0.0074 0.2515
-30 11 13 -0.0249 0.1886
-30 11 14 0.2027 -0.1628
-30 11 15 0.2138 0.0999
-30 12 1 -0.0259 0.0415
-30 12 2 -0.2223 0.0200
-30 12 3 -0.1755 0.0959
-30 12 4 -0.1145 0.0883
-30 12 5 -0.6981 0.0617
-30 12 6 0.3091 -0.0278
-30 12 7 -1.3002 0.0164
-30 12 8 -0.0722 -0.1685
-30 12 9 -0.4879 -0.0434
-30 12 10 -0.6442 -0.2192
-30 12 11 -0.5255 -0.0417
-30 12 12 -1.2497 -0.2862
-30 12 13 -0.1957 -0.1992
-30 12 14 -0.0118 -0.1390
-30 13 1 0.1140 -0.0405
-30 13 2 0.9605 0.1553
-30 13 3 0.7919 -0.1507
-30 13 4 1.1259 0.1193
-30 13 5 0.7071 -0.1470
-30 13 6 0.6445 0.0544
-30 13 7 -0.1188 -0.0712
-30 13 8 -0.0275 0.0799
-30 13 9 -0.7240 -0.0002
-30 13 10 0.5322 0.0610
-30 13 11 0.0776 0.2123
-30 13 12 0.3277 0.2756
-30 14 3 0.1099 -0.1029
-30 14 4 0.2253 0.0796
-30 14 5 0.1798 0.0617
-30 14 6 -1.1112 -0.0313
-30 14 7 -0.6914 0.1105
-30 14 8 -2.0672 -0.0369
-29 0 2 0.6503 -0.0354
-29 0 4 -2.1036 -0.0121
-29 0 6 -2.9125 -0.0091
-29 0 8 -1.1496 -0.0270
-29 0 10 1.4449 -0.0140
-29 0 12 0.3872 0.0067
-29 0 14 -1.7856 -0.0185
-29 0 16 -1.5839 -0.0211
-29 0 18 -0.7926 0.0371
-29 0 20 -0.2208 0.1117
-29 0 22 0.0506 0.0068
-29 1 1 -2.8591 0.0185
-29 1 2 -1.2165 0.0080
-29 1 3 -2.1067 0.0104
-29 1 4 -0.9018 -0.0226
-29 1 5 1.2409 0.0085
-29 1 6 0.1498 0.0148
-29 1 7 2.2477 0.0204
-29 1 8 0.3221 0.0032
-29 1 9 1.2288 0.0391
-29 1 10 0.0887 -0.0576
-29 1 11 -1.2046 0.0383
-29 1 12 0.3069 0.0180
-29 1 13 -1.9789 -0.0094
-29 1 14 0.3225 -0.0167
-29 1 15 -0.1496 0.0028
-29 1 16 0.4085 -0.0169
-29 1 17 -0.8127 -0.0176
-29 1 18 -0.5538 0.0553
-29 1 19 0.2300 -0.0674
-29 1 20 -0.1376 -0.2194
-29 1 21 0.8935 0.1381
-29 1 22 0.3139 -0.4435
-29 2 1 1.3752 0.0321
-29 2 2 1.1104 0.0193
-29 2 3 0.2628 0.0514
-29 2 4 -0.5519 0.0235
-29 2 5 -1.0411 0.0397
-29 2 6 -2.2895 0.0287
-29 2 7 -1.8885 0.0142
-29 2 8 -1.2180 0.0509
-29 2 9 -2.1964 0.0309
-29 2 10 1.1449 -0.0138
-29 2 11 -0.0338 -0.0117
-29 2 12 1.7416 -0.0299
-29 2 13 1.4788 0.0125
-29 2 14 0.3003 0.0349
-29 2 15 0.1645 0.0175
-29 2 16 -1.6461 -0.0476
-29 2 17 -0.5914 0.0472
-29 2 18 -1.6646 -0.0137
-29 2 19 -0.3594 0.1138
-29 2 20 0.1113 0.0750
-29 2 21 0.7072 0.0423
-29 2 22 0.8168 -0.1388
-29 3 1 -0.7819 0.0050
-29 3 2 -1.3254 0.0055
-29 3 3 -0.8221 -0.0138
-29 3 4 -0.9137 -0.0076
-29 3 5 -0.3810 0.0264
-29 3 6 -0.2019 -0.0179
-29 3 7 1.5119 0.0168
-29 3 8 0.6984 -0.0291
-29 3 9 2.5423 -0.0448
-29 3 10 1.5117 -0.0433
-29 3 11 0.2052 0.0005
-29 3 12 1.0415 -0.0281
-29 3 13 -0.9482 0.0494
-29 3 14 0.1187 -0.0268
-29 3 15 -0.3731 -0.0220
-29 3 16 0.0743 0.0811
-29 3 17 -0.2254 -0.0260
-29 3 18 -0.0293 0.0396
-29 3 19 -0.0698 -0.0021
-29 3 20 -0.0039 0.0457
-29 3 21 0.2641 -0.0032
-29 3 22 0.3974 0.3061
-29 4 1 1.0140 -0.0192
-29 4 2 1.9346 -0.0053
-29 4 3 0.0718 0.0131
-29 4 4 1.5718 -0.0006
-29 4 5 -1.3938 -0.0199
-29 4 6 1.1032 -0.0020
-29 4 7 -1.1633 -0.0555
-29 4 8 0.4030 -0.0089
-29 4 9 0.4605 0.0204
-29 4 10 -0.4634 0.0556
-29 4 11 0.8211 0.0473
-29 4 12 0.3404 0.0160
-29 4 13 -0.0403 0.0149
-29 4 14 1.1104 0.0277
-29 4 15 -0.0921 -0.0166
-29 4 16 -1.3047 -0.0773
-29 4 17 0.3801 0.0472
-29 4 18 -1.7888 -0.1033
-29 4 19 -1.1425 -0.0004
-29 4 20 -0.3195 0.0689
-29 4 21 -0.5055 -0.1012
-29 5 1 0.8784 -0.0009
-29 5 2 -0.8365 0.0189
-29 5 3 1.8037 -0.0160
-29 5 4 1.3233 0.0136
-29 5 5 1.0022 0.0367
-29 5 6 -0.9823 0.0330
-29 5 7 1.2062 -0.0018
-29 5 8 -2.0935 0.0594
-29 5 9 1.9791 0.0199
-29 5 10 0.0930 0.0209
-29 5 11 0.1050 0.0093
-29 5 12 0.4286 -0.0356
-29 5 13 -1.2809 0.0005
-29 5 14 0.8160 -0.1025
-29 5 15 -0.6025 0.0180
-29 5 16 -0.1352 -0.0070
-29 5 17 -0.0904 -0.0805
-29 5 18 -1.3123 0.1222
-29 5 19 0.5584 -0.0300
-29 5 20 -1.4849 0.0663
-29 5 21 0.1317 0.1240
-29 6 1 1.1185 0.0037
-29 6 2 -0.4098 0.0166
-29 6 3 -1.0736 0.0045
-29 6 4 -0.4714 -0.0255
-29 6 5 -3.1574 0.0148
-29 6 6 0.7496 -0.0729
-29 6 7 -1.3398 0.0452
-29 6 8 0.7519 -0.0653
-29 6 9 1.6791 -0.0405
-29 6 10 1.1855 -0.0592
-29 6 11 1.2331 -0.0025
-29 6 12 0.8808 -0.0496
-29 6 13 0.0015 0.0070
-29 6 14 -0.2752 0.0986
-29 6 15 1.4159 -0.0604
-29 6 16 -1.9700 0.0885
-29 6 17 1.7055 0.0480
-29 6 18 -0.9616 0.0810
-29 6 19 0.1044 0.0019
-29 6 20 -0.0908 0.0719
-29 7 1 -1.2513 -0.0425
-29 7 2 -1.3840 -0.0368
-29 7 3 -1.2764 -0.0633
-29 7 4 1.2325 -0.0029
-29 7 5 1.7597 -0.0640
-29 7 6 0.0557 0.0533
-29 7 7 1.8107 -0.0862
-29 7 8 -0.6567 0.0073
-29 7 9 -0.0263 0.0062
-29 7 10 0.6571 0.0415
-29 7 11 -0.7009 -0.0086
-29 7 12 0.4000 0.0785
-29 7 13 -1.5903 -0.0145
-29 7 14 0.5758 -0.0194
-29 7 15 -0.8842 0.0853
-29 7 16 0.9971 -0.0313
-29 7 17 0.9420 -0.0879
-29 7 18 -0.5323 -0.1773
-29 7 19 1.3226 -0.0727
-29 7 20 -0.5268 -0.2111
-29 8 1 0.6791 0.0345
-29 8 2 0.3175 0.0564
-29 8 3 0.0528 0.0367
-29 8 4 0.0633 0.0400
-29 8 5 -0.6566 0.0665
-29 8 6 0.4494 -0.0322
-29 8 7 -0.6854 0.1125
-29 8 8 0.1836 0.0147
-29 8 9 -0.4170 0.0366
-29 8 10 1.5742 -0.0248
-29 8 11 0.7752 0.0651
-29 8 12 0.5971 -0.0571
-29 8 13 1.4595 -0.0140
-29 8 14 -0.9700 0.0247
-29 8 15 1.1330 -0.2020
-29 8 16 -0.4418 -0.2229
-29 8 17 -0.0690 0.0077
-29 8 18 0.0939 -0.0717
-29 8 19 0.2313 0.1968
-29 9 1 -0.0811 -0.0286
-29 9 2 -0.7619 0.0293
-29 9 3 -1.0745 -0.0271
-29 9 4 -0.6816 0.0319
-29 9 5 0.8244 -0.0716
-29 9 6 -0.2845 0.0385
-29 9 7 1.4539 -0.0882
-29 9 8 0.0423 0.0178
-29 9 9 0.9831 -0.0349
-29 9 10 -0.3597 0.0934
-29 9 11 0.6328 -0.0645
-29 9 12 0.2714 -0.0581
-29 9 13 0.1443 -0.1065
-29 9 14 0.0626 -0.1125
-29 9 15 -0.3612 0.0343
-29 9 16 -0.3030 0.2198
-29 9 17 1.5653 0.0856
-29 9 18 -0.3023 0.1751
-29 10 1 0.5959 -0.0046
-29 10 2 0.5697 -0.0251
-29 10 3 -0.3361 0.0078
-29 10 4 0.2693 -0.0473
-29 10 5 -0.7865 -0.0104
-29 10 6 0.4549 -0.0512
-29 10 7 -0.6161 0.0496
-29 10 8 -0.2464 -0.0944
-29 10 9 -0.6339 0.0095
-29 10 10 -0.1378 -0.1039
-29 10 11 0.3493 0.0059
-29 10 12 -0.2161 -0.0059
-29 10 13 1.4441 0.0397
-29 10 14 -0.0160 0.2494
-29 10 15 0.6064 -0.0293
-29 10 16 0.7900 0.0138
-29 10 17 -0.1492 -0.1122
-29 11 1 0.8784 -0.0435
-29 11 2 0.3011 0.0166
-29 11 3 0.6387 0.0264
-29 11 4 -0.6037 0.0072
-29 11 5 -0.0217 0.0589
-29 11 6 -0.5709 0.1002
-29 11 7 -0.2985 0.0071
-29 11 8 -0.4437 0.0550
-29 11 9 0.5830 -0.0038
-29 11 10 -0.2799 0.1358
-29 11 11 -0.2665 0.1380
-29 11 12 -0.2069 0.0683
-29 11 13 -0.3539 0.0964
-29 11 14 -0.0458 -0.3218
-29 11 15 0.0685 -0.0777
-29 11 16 -0.3122 -0.2367
-29 12 1 -0.1510 0.0063
-29 12 2 -0.0893 0.0465
-29 12 3 -0.2871 0.0684
-29 12 4 0.5926 0.0315
-29 12 5 -1.1861 0.0012
-29 12 6 0.3666 -0.0934
-29 12 7 -1.2305 -0.0227
-29 12 8 -0.5260 -0.1982
-29 12 9 -0.0927 -0.1031
-29 12 10 -0.8985 -0.1988
-29 12 11 -0.3193 -0.1017
-29 12 12 -0.6696 -0.1668
-29 12 13 0.0352 -0.0852
-29 12 14 0.8280 0.0275
-29 12 15 -0.1627 0.0672
-29 13 1 0.1542 -0.0769
-29 13 2 0.7331 0.1368
-29 13 3 0.7761 -0.0789
-29 13 4 1.0113 0.0638
-29 13 5 0.4483 -0.0314
-29 13 6 0.8761 0.0996
-29 13 7 -0.5931 0.0386
-29 13 8 -0.1309 0.1325
-29 13 9 -0.8269 0.1331
-29 13 10 0.5352 0.1204
-29 13 11 -0.1061 0.2818
-29 13 12 -0.1983 0.2560
-29 13 13 -0.7172 0.2520
-29 14 1 0.0859 -0.1319
-29 14 2 0.1112 0.0377
-29 14 3 0.0340 -0.0505
-29 14 4 0.2154 -0.0275
-29 14 5 -0.1735 0.0711
-29 14 6 -1.6113 -0.1227
-29 14 7 -0.5921 -0.0090
-29 14 8 -1.8267 -0.0959
-29 14 9 -0.0739 -0.2562
-29 14 10 -0.5104 -0.2525
-28 0 2 -0.9894 -0.0320
-28 0 4 -3.3782 -0.0161
-28 0 6 -1.6381 -0.0215
-28 0 8 1.6454 -0.0364
-28 0 10 2.0499 -0.0130
-28 0 12 -1.1275 0.0151
-28 0 14 -3.3054 -0.0202
-28 0 16 -1.9173 0.0010
-28 0 18 -0.5485 0.0803
-28 0 20 0.3854 0.0253
-28 0 22 0.4132 -0.0646
-28 1 1 -1.9426 0.0272
-28 1 2 -0.7058 -0.0081
-28 1 3 -0.3890 0.0081
-28 1 4 -0.6604 0.0007
-28 1 5 1.6603 0.0320
-28 1 6 -0.0387 0.0398
-28 1 7 1.4532 0.0326
-28 1 8 0.0397 -0.0044
-28 1 9 -0.3318 0.0336
-28 1 10 -0.1450 -0.0152
-28 1 11 -2.4987 -0.0107
-28 1 12 0.5007 0.0507
-28 1 13 -1.7149 -0.0437
-28 1 14 0.6451 -0.0126
-28 1 15 -0.2252 0.0109
-28 1 16 0.4057 0.0033
-28 1 17 -0.8184 -0.0718
-28 1 18 -0.5724 -0.0085
-28 1 19 0.4904 0.0088
-28 1 20 0.0810 -0.2896
-28 1 21 0.5698 0.2016
-28 1 22 0.4666 -0.3775
-28 2 1 0.9122 0.0410
-28 2 2 -0.4963 0.0083
-28 2 3 -0.1203 0.0375
-28 2 4 -2.3452 0.0086
-28 2 5 -1.7797 -0.0049
-28 2 6 -2.3511 0.0292
-28 2 7 -2.1682 0.0020
-28 2 8 0.5627 0.0534
-28 2 9 -0.8012 0.0102
-28 2 10 2.6054 -0.0077
-28 2 11 1.0350 -0.0252
-28 2 12 1.0268 0.0237
-28 2 13 1.4501 0.0162
-28 2 14 -1.5893 0.0427
-28 2 15 -0.2093 0.0199
-28 2 16 -2.4240 -0.0316
-28 2 17 -0.8122 0.0800
-28 2 18 -1.1594 0.0289
-28 2 19 -0.1044 0.0944
-28 2 20 0.7347 0.0207
-28 2 21 0.9203 -0.0205
-28 2 22 1.0482 -0.0526
-28 3 1 -0.5481 -0.0120
-28 3 2 -0.4545 0.0030
-28 3 3 0.4807 -0.0069
-28 3 4 -0.4164 0.0030
-28 3 5 0.5631 0.0365
-28 3 6 -0.4140 -0.0115
-28 3 7 1.5693 0.0113
-28 3 8 0.9535 -0.0332
-28 3 9 1.4278 -0.0021
-28 3 10 1.7021 -0.0062
-28 3 11 -1.2138 0.0286
-28 3 12 1.0939 -0.0153
-28 3 13 -0.7143 0.0164
-28 3 14 0.1629 -0.0065
-28 3 15 0.0086 -0.0478
-28 3 16 0.1260 0.0474
-28 3 17 -0.3041 -0.1058
-28 3 18 0.0837 -0.0108
-28 3 19 -0.1906 -0.0079
-28 3 20 0.0232 0.1197
-28 3 21 -0.0672 0.0072
-28 3 22 0.5243 0.2620
-28 4 1 0.2963 -0.0047
-28 4 2 0.9714 -0.0121
-28 4 3 -1.4613 0.0050
-28 4 4 0.9723 0.0079
-28 4 5 -1.4682 -0.0440
-28 4 6 0.8537 0.0248
-28 4 7 -0.4490 -0.0378
-28 4 8 0.5924 0.0208
-28 4 9 1.0233 0.0287
-28 4 10 0.6028 0.0494
-28 4 11 0.8215 0.0357
-28 4 12 0.3891 0.0331
-28 4 13 -0.1565 -0.0144
-28 4 14 -0.1997 0.0185
-28 4 15 0.1165 -0.0292
-28 4 16 -2.0676 -0.0821
-28 4 17 -0.2234 0.0528
-28 4 18 -1.3677 0.0271
-28 4 19 -1.4110 -0.0562
-28 4 20 0.2838 0.0841
-28 4 21 -0.3289 -0.0757
-28 4 22 1.1136 -0.1969
-28 5 1 1.2013 0.0222
-28 5 2 0.4906 0.0241
-28 5 3 1.9050 0.0417
-28 5 4 1.7072 -0.0054
-28 5 5 0.6356 0.0552
-28 5 6 -2.3509 0.0036
-28 5 7 0.6973 -0.0209
-28 5 8 -2.2977 0.0091
-28 5 9 0.9615 0.0196
-28 5 10 1.1823 -0.0169
-28 5 11 -1.0322 0.0047
-28 5 12 1.4531 -0.0733
-28 5 13 -0.9469 -0.0143
-28 5 14 0.5716 -0.0552
-28 5 15 0.2902 -0.0111
-28 5 16 -0.7637 0.0710
-28 5 17 0.0698 -0.0752
-28 5 18 -1.1251 0.0587
-28 5 19 0.3479 0.0370
-28 5 20 -1.2002 -0.0017
-28 5 21 0.1055 0.1341
-28 6 1 -0.0577 -0.0295
-28 6 2 -1.1231 -0.0221
-28 6 3 -3.4194 -0.0328
-28 6 4 -0.7451 -0.0630
-28 6 5 -3.3581 -0.0018
-28 6 6 1.0418 -0.0632
-28 6 7 -0.2435 0.0308
-28 6 8 1.3304 -0.0367
-28 6 9 2.0615 -0.0505
-28 6 10 1.6030 -0.0311
-28 6 11 0.8293 0.0204
-28 6 12 0.6825 0.0340
-28 6 13 -0.5431 0.0568
-28 6 14 -1.0617 0.1536
-28 6 15 1.4517 0.0048
-28 6 16 -2.1108 0.0786
-28 6 17 1.2154 0.0221
-28 6 18 -0.1942 0.0720
-28 6 19 -0.4889 -0.0630
-28 6 20 0.4987 0.0363
-28 6 21 -0.2193 -0.1167
-28 7 1 -0.9130 -0.0135
-28 7 2 -0.6928 0.0070
-28 7 3 -0.6866 -0.0073
-28 7 4 1.6347 0.0158
-28 7 5 2.0842 -0.0278
-28 7 6 -0.1916 0.0632
-28 7 7 1.3003 -0.0596
-28 7 8 -0.2982 0.0162
-28 7 9 -0.9151 0.0453
-28 7 10 1.1166 0.0540
-28 7 11 -0.9743 -0.0131
-28 7 12 0.8196 0.0492
-28 7 13 -1.1326 -0.0055
-28 7 14 0.6677 -0.0732
-28 7 15 -0.0117 0.0355
-28 7 16 0.7214 -0.1198
-28 7 17 1.2605 -0.1485
-28 7 18 -0.7230 -0.1957
-28 7 19 0.4965 -0.0046
-28 7 20 -0.2964 -0.0472
-28 8 1 0.4109 0.0316
-28 8 2 -0.2192 0.0619
-28 8 3 -0.5683 0.0343
-28 8 4 -0.0043 0.0242
-28 8 5 -0.9484 0.0782
-28 8 6 0.7312 -0.0511
-28 8 7 -0.7364 0.0785
-28 8 8 0.9261 0.0117
-28 8 9 0.1671 -0.0028
-28 8 10 1.5645 -0.0325
-28 8 11 1.3175 0.0200
-28 8 12 0.4043 -0.0236
-28 8 13 1.3420 -0.1157
-28 8 14 -0.8889 0.0131
-28 8 15 0.6162 -0.1004
-28 8 16 -0.7482 -0.1468
-28 8 17 -0.2914 0.1594
-28 8 18 0.4149 0.1439
-28 8 19 -0.1290 0.1041
-28 8 20 0.8581 0.3835
-28 9 1 0.0548 -0.0418
-28 9 2 -0.1138 -0.0024
-28 9 3 -1.1814 -0.0713
-28 9 4 -0.6884 -0.0052
-28 9 5 0.6821 -0.1009
-28 9 6 -0.4025 0.0079
-28 9 7 0.7978 -0.0739
-28 9 8 0.5884 0.0189
-28 9 9 0.3298 -0.0257
-28 9 10 -0.1877 0.0765
-28 9 11 0.7685 -0.0642
-28 9 12 0.1590 -0.0628
-28 9 13 0.2776 -0.0263
-28 9 14 -0.0367 0.0220
-28 9 15 0.0345 0.0930
-28 9 16 -0.4559 0.2218
-28 9 17 2.1911 -0.0300
-28 9 18 -0.3595 0.0178
-28 9 19 0.9494 -0.1268
-28 10 1 0.2199 0.0331
-28 10 2 0.3359 -0.0048
-28 10 3 -0.5473 0.0391
-28 10 4 0.5576 0.0134
-28 10 5 -0.4196 0.0425
-28 10 6 0.5391 -0.0167
-28 10 7 -0.2448 0.0782
-28 10 8 0.2451 -0.0624
-28 10 9 -0.1207 0.0138
-28 10 10 0.2973 -0.0297
-28 10 11 0.7290 0.0466
-28 10 12 -0.0398 0.1112
-28 10 13 1.3545 -0.0384
-28 10 14 0.4484 0.1543
-28 10 15 0.0534 -0.0913
-28 10 16 0.7328 -0.1785
-28 10 17 -0.1668 -0.0605
-28 10 18 0.5925 -0.2155
-28 11 1 0.9776 -0.0396
-28 11 2 0.6118 -0.0121
-28 11 3 0.7626 0.0166
-28 11 4 -0.4077 0.0208
-28 11 5 -0.0432 0.0139
-28 11 6 -0.5690 0.0804
-28 11 7 -0.5703 -0.0209
-28 11 8 -0.4466 0.0243
-28 11 9 0.2950 -0.0294
-28 11 10 -0.4622 0.0713
-28 11 11 -0.6416 0.1046
-28 11 12 -0.5201 -0.1015
-28 11 13 -0.4610 -0.0156
-28 11 14 0.0393 -0.3014
-28 11 15 0.1397 -0.1477
-28 11 16 -0.2711 -0.0968
-28 11 17 0.0816 -0.0308
-28 12 1 -0.3187 0.0050
-28 12 2 0.2302 0.0399
-28 12 3 -0.6798 0.0504
-28 12 4 1.1266 -0.0056
-28 12 5 -1.5827 -0.0390
-28 12 6 0.0311 -0.0916
-28 12 7 -0.6612 -0.0098
-28 12 8 -0.7522 -0.1399
-28 12 9 0.3051 -0.1041
-28 12 10 -0.5092 -0.0937
-28 12 11 -0.1221 -0.0355
-28 12 12 0.1747 0.0140
-28 12 13 0.0116 0.0817
-28 12 14 1.0098 0.1656
-28 12 15 -0.7400 0.0842
-28 12 16 0.1494 0.1012
-28 13 1 0.0558 -0.0681
-28 13 2 0.2996 0.0664
-28 13 3 0.5550 0.0099
-28 13 4 1.1228 0.0242
-28 13 5 0.1919 0.0214
-28 13 6 0.6299 0.1152
-28 13 7 -0.8419 0.0889
-28 13 8 -0.5077 0.1139
-28 13 9 -0.7527 0.1517
-28 13 10 0.5688 0.0756
-28 13 11 -0.6486 0.1766
-28 13 12 -0.5808 0.0755
-28 13 13 -1.2139 -0.0193
-28 13 14 -0.6454 -0.2293
-28 14 1 -0.0818 -0.1222
-28 14 2 0.6560 0.0036
-28 14 3 -0.2691 0.0165
-28 14 4 0.1232 -0.1037
-28 14 5 -0.5690 0.0244
-28 14 6 -1.8204 -0.1237
-28 14 7 0.0593 -0.0959
-28 14 8 -1.3634 -0.0742
-28 14 9 0.5862 -0.2700
-28 14 10 -0.5164 -0.2031
-28 14 11 0.5524 -0.2609
-28 14 12 -0.3430 -0.0459
-28 15 2 -0.6721 0.0311
-28 15 3 -0.1275 0.1972
-28 15 4 0.1730 0.0737
-28 15 5 0.3132 0.2816
-28 15 6 0.6602 0.0986
-28 15 7 -0.5827 0.2689
-28 15 8 0.5007 0.1205
-27 0 2 -1.9293 -0.0249
-27 0 4 -3.0073 -0.0288
-27 0 6 0.5599 -0.0137
-27 0 8 3.7676 -0.0228
-27 0 10 0.8385 0.0005
-27 0 12 -3.6604 0.0250
-27 0 14 -4.2232 -0.0154
-27 0 16 -1.5623 0.0306
-27 0 18 0.0988 0.0446
-27 0 20 1.0357 -0.0637
-27 0 22 0.6025 -0.0332
-27 1 1 -0.6070 0.0101
-27 1 2 -0.9425 -0.0085
-27 1 3 0.5545 0.0031
-27 1 4 -0.7559 0.0205
-27 1 5 0.6687 0.0313
-27 1 6 -0.4702 0.0374
-27 1 7 0.1059 0.0043
-27 1 8 -0.4524 0.0129
-27 1 9 -1.3017 -0.0024
-27 1 10 -0.0125 0.0350
-27 1 11 -2.4395 -0.0615
-27 1 12 0.8144 0.0531
-27 1 13 -1.0093 -0.0298
-27 1 14 0.7702 0.0009
-27 1 15 -0.6281 0.0197
-27 1 16 0.2930 -0.0162
-27 1 17 -0.9210 -0.0712
-27 1 18 -0.6415 -0.0725
-27 1 19 0.3260 0.1088
-27 1 20 0.2555 -0.2382
-27 1 21 0.2213 0.0913
-27 1 22 0.4838 -0.2707
-27 1 23 0.2511 -0.3574
-27 2 1 0.4314 0.0295
-27 2 2 -2.3850 0.0035
-27 2 3 0.1046 -0.0048
-27 2 4 -2.7539 0.0017
-27 2 5 -1.8949 -0.0266
-27 2 6 -0.9430 0.0406
-27 2 7 -1.6646 0.0019
-27 2 8 2.5950 0.0573
-27 2 9 0.8593 -0.0123
-27 2 10 2.6288 0.0192
-27 2 11 1.5579 -0.0171
-27 2 12 -1.1984 0.0480
-27 2 13 1.1607 0.0231
-27 2 14 -3.1870 0.0131
-27 2 15 -0.3868 0.0146
-27 2 16 -2.1705 -0.0019
-27 2 17 -0.6418 0.0678
-27 2 18 -0.0569 -0.0022
-27 2 19 0.2600 0.0362
-27 2 20 1.3727 0.0142
-27 2 21 0.9038 -0.0201
-27 2 22 0.9093 0.1426
-27 3 1 0.5683 -0.0178
-27 3 2 0.0672 0.0135
-27 3 3 0.7870 -0.0039
-27 3 4 -0.8502 0.0120
-27 3 5 -0.0902 0.0286
-27 3 6 -0.9660 -0.0253
-27 3 7 0.5813 0.0174
-27 3 8 1.1241 -0.0161
-27 3 9 0.1483 0.0362
-27 3 10 2.0873 0.0294
-27 3 11 -1.1176 0.0106
-27 3 12 1.0064 -0.0129
-27 3 13 0.2300 -0.0128
-27 3 14 -0.0168 -0.0088
-27 3 15 -0.1868 -0.0729
-27 3 16 0.0726 -0.0013
-27 3 17 -0.5075 -0.1341
-27 3 18 -0.0982 0.0083
-27 3 19 -0.4470 0.0428
-27 3 20 0.1496 0.1378
-27 3 21 -0.4141 -0.0851
-27 3 22 0.7226 0.1084
-27 4 1 -1.2834 0.0155
-27 4 2 -0.1816 -0.0114
-27 4 3 -1.7973 0.0009
-27 4 4 1.4879 0.0377
-27 4 5 -0.3172 -0.0365
-27 4 6 1.6157 0.0418
-27 4 7 0.2748 -0.0269
-27 4 8 1.1478 0.0094
-27 4 9 1.1388 0.0074
-27 4 10 0.9315 0.0350
-27 4 11 0.7163 0.0066
-27 4 12 -0.7184 0.0423
-27 4 13 0.1092 -0.0501
-27 4 14 -1.4616 0.0015
-27 4 15 0.0274 -0.0094
-27 4 16 -1.9364 -0.0420
-27 4 17 -0.9746 0.0632
-27 4 18 -0.5251 0.1004
-27 4 19 -1.2314 -0.0875
-27 4 20 0.9708 0.0236
-27 4 21 -0.1534 0.0328
-27 4 22 1.3537 -0.2184
-27 5 1 1.6967 0.0360
-27 5 2 1.9178 -0.0005
-27 5 3 1.2624 0.0482
-27 5 4 0.2361 -0.0397
-27 5 5 -0.5729 0.0197
-27 5 6 -4.0925 -0.0357
-27 5 7 -0.4462 -0.0269
-27 5 8 -1.6337 -0.0210
-27 5 9 -0.2562 0.0332
-27 5 10 2.5424 -0.0256
-27 5 11 -1.0280 -0.0013
-27 5 12 1.7059 -0.0620
-27 5 13 0.2270 -0.0054
-27 5 14 -0.3379 0.0295
-27 5 15 0.7252 -0.0152
-27 5 16 -1.0651 0.0881
-27 5 17 -0.2866 -0.0517
-27 5 18 -0.7780 -0.0462
-27 5 19 -0.0539 0.0981
-27 5 20 -0.8380 -0.0547
-27 5 21 -0.0234 0.0851
-27 5 22 -0.1299 0.0786
-27 6 1 -2.1915 -0.0386
-27 6 2 -1.6439 -0.0426
-27 6 3 -4.7718 -0.0330
-27 6 4 -0.5265 -0.0424
-27 6 5 -1.9911 -0.0006
-27 6 6 1.6328 -0.0068
-27 6 7 1.3318 0.0141
-27 6 8 1.8801 -0.0078
-27 6 9 1.9125 -0.0498
-27 6 10 1.4581 0.0075
-27 6 11 0.1421 0.0528
-27 6 12 -0.0763 0.0899
-27 6 13 -0.4556 0.0860
-27 6 14 -1.7172 0.1306
-27 6 15 1.3888 0.0117
-27 6 16 -1.3422 0.0308
-27 6 17 0.2822 -0.0393
-27 6 18 0.8717 0.0674
-27 6 19 -0.9557 -0.0881
-27 6 20 0.8998 0.0320
-27 6 21 -0.4465 -0.0486
-27 7 1 -0.6159 0.0237
-27 7 2 0.3295 0.0237
-27 7 3 -0.3795 0.0395
-27 7 4 1.7209 0.0169
-27 7 5 1.9824 -0.0093
-27 7 6 -0.4308 0.0676
-27 7 7 0.6242 -0.0248
-27 7 8 0.0710 0.0070
-27 7 9 -1.3954 0.0659
-27 7 10 1.5237 0.0348
-27 7 11 -0.7911 -0.0298
-27 7 12 1.0177 -0.0090
-27 7 13 -0.1677 -0.0062
-27 7 14 0.4147 -0.1053
-27 7 15 0.8765 -0.0184
-27 7 16 0.5319 -0.1168
-27 7 17 0.7388 -0.1272
-27 7 18 -0.5893 -0.1158
-27 7 19 -0.5662 0.0750
-27 7 20 0.1892 0.0855
-27 7 21 -0.8963 0.0082
-27 8 1 -0.0923 0.0243
-27 8 2 -0.2243 0.0419
-27 8 3 -0.8800 0.0176
-27 8 4 0.1384 -0.0227
-27 8 5 -1.1477 0.0428
-27 8 6 0.8288 -0.0655
-27 8 7 -0.4931 0.0045
-27 8 8 1.1101 0.0127
-27 8 9 0.9754 -0.0469
-27 8 10 0.9714 -0.0196
-27 8 11 1.4247 -0.0247
-27 8 12 0.2899 -0.0001
-27 8 13 0.8255 -0.1025
-27 8 14 -1.0318 0.0134
-27 8 15 -0.0599 0.0600
-27 8 16 -0.7451 -0.0078
-27 8 17 -0.6931 0.1478
-27 8 18 1.3370 0.2496
-27 8 19 -0.5440 -0.0349
-27 8 20 1.2715 0.2657
-27 9 1 -0.1022 -0.0495
-27 9 2 0.2492 -0.0166
-27 9 3 -1.6375 -0.0693
-27 9 4 -0.8645 -0.0217
-27 9 5 0.3431 -0.0536
-27 9 6 0.0858 0.0175
-27 9 7 0.3680 -0.0166
-27 9 8 1.2559 0.0344
-27 9 9 0.5558 0.0072
-27 9 10 -0.1272 0.0710
-27 9 11 1.1666 -0.0218
-27 9 12 0.1368 -0.0172
-27 9 13 0.4278 0.0502
-27 9 14 -0.0231 0.0673
-27 9 15 0.5874 0.0529
-27 9 16 -0.4265 0.1131
-27 9 17 1.9367 -0.1635
-27 9 18 0.2051 -0.0421
-27 9 19 -0.1824 -0.1342
-27 10 1 -0.4649 0.0686
-27 10 2 0.2333 0.0391
-27 10 3 0.0509 0.0333
-27 10 4 0.8545 0.0394
-27 10 5 0.1076 0.0628
-27 10 6 0.8052 -0.0084
-27 10 7 0.0021 0.0504
-27 10 8 0.5905 -0.0320
-27 10 9 0.5552 -0.0054
-27 10 10 0.2748 0.0132
-27 10 11 0.9514 0.0269
-27 10 12 0.1436 0.1211
-27 10 13 0.8888 -0.1212
-27 10 14 0.5620 -0.0128
-27 10 15 -0.3941 -0.0496
-27 10 16 0.4405 -0.2319
-27 10 17 -0.2712 0.0249
-27 10 18 0.6620 -0.0633
-27 11 1 1.1298 -0.0376
-27 11 2 0.9562 -0.0268
-27 11 3 0.7859 -0.0142
-27 11 4 -0.5679 0.0212
-27 11 5 -0.2977 -0.0144
-27 11 6 -0.7007 0.0250
-27 11 7 -1.0477 -0.0321
-27 11 8 -0.4213 -0.0142
-27 11 9 0.2126 -0.0466
-27 11 10 -0.5874 -0.0046
-27 11 11 -0.6597 0.0708
-27 11 12 -0.3176 -0.1502
-27 11 13 -0.2494 -0.0797
-27 11 14 0.5483 -0.1793
-27 11 15 0.3000 -0.0992
-27 11 16 -0.4375 -0.0552
-27 11 17 -0.1490 0.0429
-27 12 1 -0.6636 0.0323
-27 12 2 0.7181 0.0307
-27 12 3 -1.2450 0.0178
-27 12 4 1.1626 0.0002
-27 12 5 -1.5780 -0.0324
-27 12 6 -0.4301 -0.0376
-27 12 7 0.1477 0.0398
-27 12 8 -0.6900 -0.0311
-27 12 9 0.4968 -0.0614
-27 12 10 0.0400 0.0258
-27 12 11 -0.0619 0.0792
-27 12 12 0.5251 0.1650
-27 12 13 -0.3942 0.1555
-27 12 14 0.4900 0.1642
-27 12 15 -1.1537 -0.0252
-27 12 16 -0.3576 -0.0542
-27 13 1 -0.1612 -0.0223
-27 13 2 0.1511 -0.0093
-27 13 3 0.5126 0.0397
-27 13 4 1.1768 0.0042
-27 13 5 0.1157 -0.0033
-27 13 6 -0.1488 0.0636
-27 13 7 -0.9399 0.0715
-27 13 8 -0.5595 0.0351
-27 13 9 -0.7071 0.0613
-27 13 10 0.8620 -0.0520
-27 13 11 -1.1607 -0.0224
-27 13 12 -0.6445 -0.1246
-27 13 13 -0.9725 -0.2567
-27 13 14 -0.1249 -0.2522
-27 13 15 0.5624 -0.3293
-27 14 1 -0.1062 -0.0693
-27 14 2 1.0717 -0.0300
-27 14 3 -0.8300 0.0540
-27 14 4 -0.1817 -0.0855
-27 14 5 -0.3494 -0.0281
-27 14 6 -1.7866 -0.0356
-27 14 7 1.0135 -0.0728
-27 14 8 -0.8868 0.0317
-27 14 9 0.7664 -0.1434
-27 14 10 -0.5444 -0.0448
-27 14 11 0.4589 -0.0379
-27 14 12 -0.4417 0.1656
-27 14 13 0.0874 0.1327
-27 15 1 -0.7010 0.0183
-27 15 2 -0.3125 0.0329
-27 15 3 0.4239 0.2049
-27 15 4 0.6895 0.0790
-27 15 5 0.1276 0.2167
-27 15 6 0.2364 0.0771
-27 15 7 -0.9976 0.2110
-27 15 8 0.3709 0.0370
-27 15 9 -0.7278 0.2284
-27 15 10 0.1229 -0.0695
-26 0 2 -2.2449 -0.0378
-26 0 4 -2.1349 -0.0311
-26 0 6 2.0940 0.0167
-26 0 8 4.0631 -0.0130
-26 0 10 -1.9607 0.0105
-26 0 12 -5.9029 0.0264
-26 0 14 -3.9705 -0.0074
-26 0 16 -0.5833 0.0302
-26 0 18 0.9532 -0.0241
-26 0 20 1.3998 -0.0587
-26 0 22 0.6758 0.0146
-26 1 1 0.0974 -0.0075
-26 1 2 -1.5407 0.0007
-26 1 3 0.2557 -0.0012
-26 1 4 -0.8900 0.0110
-26 1 5 -0.8621 -0.0027
-26 1 6 -1.1282 0.0287
-26 1 7 -0.5948 -0.0332
-26 1 8 -0.9487 0.0446
-26 1 9 -0.7198 -0.0268
-26 1 10 0.4824 0.0431
-26 1 11 -1.3949 -0.0677
-26 1 12 0.9654 0.0379
-26 1 13 -0.9054 0.0166
-26 1 14 0.5343 0.0104
-26 1 15 -1.3740 0.0190
-26 1 16 -0.0097 -0.0557
-26 1 17 -1.0025 -0.0229
-26 1 18 -0.6676 -0.0569
-26 1 19 0.0987 0.1081
-26 1 20 0.4595 -0.1311
-26 1 21 0.0506 -0.1021
-26 1 22 0.4508 -0.1822
-26 1 23 0.0227 -0.3108
-26 2 1 0.8025 -0.0057
-26 2 2 -2.8556 0.0029
-26 2 3 0.6577 -0.0238
-26 2 4 -1.3299 0.0055
-26 2 5 -1.8917 -0.0158
-26 2 6 0.8472 0.0478
-26 2 7 -1.0833 -0.0025
-26 2 8 3.1971 0.0505
-26 2 9 1.9581 -0.0128
-26 2 10 0.5000 0.0302
-26 2 11 1.7546 0.0090
-26 2 12 -3.6475 0.0129
-26 2 13 1.0470 0.0170
-26 2 14 -3.4152 -0.0178
-26 2 15 -0.2702 -0.0085
-26 2 16 -1.0724 0.0199
-26 2 17 -0.2537 0.0181
-26 2 18 1.0474 -0.0459
-26 2 19 0.4689 0.0019
-26 2 20 1.4122 0.1159
-26 2 21 0.7738 0.0345
-26 2 22 0.3883 0.2632
-26 2 23 -0.2933 0.2139
-26 3 1 1.2691 -0.0225
-26 3 2 -0.7364 0.0211
-26 3 3 -0.6805 -0.0054
-26 3 4 -1.6693 -0.0032
-26 3 5 -1.3254 0.0225
-26 3 6 -0.9013 -0.0306
-26 3 7 0.0683 0.0315
-26 3 8 1.7706 0.0168
-26 3 9 0.0906 0.0436
-26 3 10 2.5182 0.0347
-26 3 11 0.3079 -0.0241
-26 3 12 0.4747 -0.0252
-26 3 13 0.6478 -0.0197
-26 3 14 -0.3543 -0.0280
-26 3 15 -1.0284 -0.0750
-26 3 16 -0.1520 -0.0263
-26 3 17 -0.7095 -0.0918
-26 3 18 -0.3577 0.0482
-26 3 19 -0.7683 0.0498
-26 3 20 0.4097 0.0663
-26 3 21 -0.3953 -0.2551
-26 3 22 0.8087 -0.0453
-26 3 23 0.5825 -0.6204
-26 4 1 -2.2294 0.0288
-26 4 2 -0.1038 0.0107
-26 4 3 -0.4868 0.0054
-26 4 4 3.1138 0.0553
-26 4 5 1.1494 -0.0205
-26 4 6 2.3430 0.0135
-26 4 7 0.5419 -0.0487
-26 4 8 0.7779 -0.0185
-26 4 9 1.0429 -0.0247
-26 4 10 -0.2795 0.0297
-26 4 11 1.0124 -0.0158
-26 4 12 -2.1525 0.0318
-26 4 13 0.5669 -0.0536
-26 4 14 -1.7255 -0.0089
-26 4 15 -0.3461 0.0357
-26 4 16 -1.0109 0.0071
-26 4 17 -1.3637 0.0618
-26 4 18 0.5369 0.1002
-26 4 19 -0.8136 -0.0699
-26 4 20 1.4216 -0.0219
-26 4 21 -0.1294 0.1782
-26 4 22 0.9450 -0.1438
-26 5 1 1.6377 0.0141
-26 5 2 1.8148 -0.0343
-26 5 3 -0.6733 0.0074
-26 5 4 -2.7000 -0.0584
-26 5 5 -2.3442 -0.0043
-26 5 6 -4.9923 -0.0499
-26 5 7 -1.3344 0.0039
-26 5 8 0.0347 -0.0164
-26 5 9 -0.4577 0.0429
-26 5 10 3.2691 -0.0092
-26 5 11 0.2674 -0.0002
-26 5 12 0.8207 -0.0218
-26 5 13 1.2074 0.0206
-26 5 14 -1.1882 0.0819
-26 5 15 0.3367 -0.0132
-26 5 16 -0.9822 0.0299
-26 5 17 -0.7092 -0.0300
-26 5 18 -0.4487 -0.1406
-26 5 19 -0.3175 0.1211
-26 5 20 -0.4195 -0.0736
-26 5 21 0.0349 -0.0366
-26 5 22 -0.2377 0.0541
-26 6 1 -4.0263 -0.0090
-26 6 2 -1.8775 -0.0191
-26 6 3 -4.2000 -0.0198
-26 6 4 0.0351 0.0165
-26 6 5 0.3129 0.0020
-26 6 6 2.2589 0.0386
-26 6 7 2.4988 -0.0001
-26 6 8 1.9811 0.0028
-26 6 9 1.2765 -0.0408
-26 6 10 0.5194 0.0291
-26 6 11 -0.0805 0.0711
-26 6 12 -1.1579 0.0851
-26 6 13 -0.0180 0.0681
-26 6 14 -1.6775 0.0609
-26 6 15 0.6438 -0.0183
-26 6 16 0.1754 -0.0060
-26 6 17 -0.6932 -0.0723
-26 6 18 1.5770 0.0892
-26 6 19 -1.0250 -0.0635
-26 6 20 0.9446 0.0615
-26 6 21 -0.5460 0.0200
-26 6 22 0.8551 0.0234
-26 7 1 -0.4757 0.0421
-26 7 2 1.1420 0.0061
-26 7 3 0.0559 0.0484
-26 7 4 1.1668 0.0165
-26 7 5 1.8280 -0.0098
-26 7 6 -0.8886 0.0468
-26 7 7 -0.0378 0.0100
-26 7 8 0.4514 -0.0314
-26 7 9 -1.4908 0.0604
-26 7 10 1.7192 -0.0019
-26 7 11 -0.1487 -0.0351
-26 7 12 0.8088 -0.0512
-26 7 13 1.0433 -0.0035
-26 7 14 0.1434 -0.0627
-26 7 15 0.9404 -0.0416
-26 7 16 0.4613 -0.0413
-26 7 17 -0.5818 -0.0436
-26 7 18 -0.3690 -0.0399
-26 7 19 -1.2892 0.0947
-26 7 20 0.7016 0.1302
-26 7 21 -0.7348 -0.1345
-26 8 1 -0.6453 0.0194
-26 8 2 0.0029 0.0048
-26 8 3 -1.0822 -0.0168
-26 8 4 -0.1302 -0.0570
-26 8 5 -1.2294 -0.0155
-26 8 6 0.3012 -0.0436
-26 8 7 0.1917 -0.0455
-26 8 8 0.7623 0.0272
-26 8 9 1.7195 -0.0594
-26 8 10 0.4317 0.0021
-26 8 11 1.2133 -0.0223
-26 8 12 0.2480 0.0087
-26 8 13 0.3143 -0.0119
-26 8 14 -1.1572 0.0381
-26 8 15 -0.6783 0.1309
-26 8 16 -0.0137 0.0982
-26 8 17 -0.9709 0.0128
-26 8 18 2.1790 0.2056
-26 8 19 -0.6428 -0.0774
-26 8 20 1.1847 0.1333
-26 9 1 -0.5811 -0.0461
-26 9 2 0.2100 -0.0085
-26 9 3 -1.9260 -0.0126
-26 9 4 -0.6094 -0.0168
-26 9 5 0.3491 0.0134
-26 9 6 0.9561 0.0427
-26 9 7 0.5376 0.0351
-26 9 8 1.5894 0.0320
-26 9 9 1.0844 0.0432
-26 9 10 -0.0525 0.0618
-26 9 11 1.1660 0.0310
-26 9 12 0.3266 -0.0031
-26 9 13 0.6768 0.0678
-26 9 14 0.1258 0.0211
-26 9 15 0.8685 -0.0523
-26 9 16 -0.0795 0.0311
-26 9 17 0.8315 -0.1971
-26 9 18 0.9347 -0.0091
-26 9 19 -1.0944 -0.0333
-26 9 20 1.2311 0.1668
-26 10 1 -0.4082 0.0613
-26 10 2 0.4316 0.0639
-26 10 3 1.2411 -0.0013
-26 10 4 1.1948 0.0178
-26 10 5 0.3194 0.0475
-26 10 6 0.8735 -0.0037
-26 10 7 0.2738 -0.0133
-26 10 8 0.1834 -0.0202
-26 10 9 1.2091 -0.0341
-26 10 10 -0.1109 0.0114
-26 10 11 0.6385 -0.0119
-26 10 12 0.2752 0.0606
-26 10 13 0.2390 -0.1146
-26 10 14 0.4457 -0.1329
-26 10 15 -0.6191 0.0532
-26 10 16 0.4186 -0.1400
-26 10 17 -0.5965 0.0584
-26 10 18 0.7279 0.0165
-26 10 19 -0.1779 -0.0197
-26 11 1 1.0869 -0.0469
-26 11 2 0.8502 -0.0085
-26 11 3 0.6853 -0.0285
-26 11 4 -0.7451 -0.0039
-26 11 5 -0.8563 -0.0108
-26 11 6 -0.6198 -0.0203
-26 11 7 -1.2174 -0.0245
-26 11 8 -0.2356 -0.0257
-26 11 9 0.6816 -0.0354
-26 11 10 -0.3885 -0.0307
-26 11 11 -0.3745 0.0553
-26 11 12 0.2436 -0.0907
-26 11 13 0.0974 -0.0687
-26 11 14 0.7093 -0.0855
-26 11 15 0.2698 -0.0185
-26 11 16 -0.7728 -0.1077
-26 11 17 -0.5172 -0.0001
-26 11 18 0.1385 -0.2695
-26 12 1 -1.1312 0.0439
-26 12 2 0.6976 0.0430
-26 12 3 -1.6459 -0.0176
-26 12 4 0.6930 0.0218
-26 12 5 -1.0941 0.0160
-26 12 6 -0.6329 0.0259
-26 12 7 0.7901 0.0694
-26 12 8 -0.4619 0.0582
-26 12 9 0.3519 -0.0204
-26 12 10 0.4909 0.0903
-26 12 11 -0.2674 0.1414
-26 12 12 0.3335 0.2092
-26 12 13 -0.8907 0.1017
-26 12 14 -0.2393 0.0159
-26 12 15 -0.9848 -0.1503
-26 12 16 -0.5955 -0.1597
-26 12 17 0.1381 -0.1501
-26 13 1 -0.3567 0.0152
-26 13 2 0.3561 -0.0429
-26 13 3 0.8583 -0.0064
-26 13 4 0.5102 -0.0217
-26 13 5 0.0834 -0.0506
-26 13 6 -1.1069 -0.0279
-26 13 7 -0.8428 0.0212
-26 13 8 0.0624 -0.0368
-26 13 9 -0.5042 -0.0554
-26 13 10 1.3031 -0.1702
-26 13 11 -1.1537 -0.1818
-26 13 12 -0.3812 -0.1865
-26 13 13 -0.1724 -0.3027
-26 13 14 0.3341 -0.1214
-26 13 15 0.8940 -0.1286
-26 14 1 -0.4403 -0.0043
-26 14 2 1.1874 -0.0250
-26 14 3 -1.1787 0.0469
-26 14 4 -0.4691 0.0042
-26 14 5 0.5179 -0.0282
-26 14 6 -1.5372 0.0766
-26 14 7 1.3604 0.0336
-26 14 8 -0.6004 0.1555
-26 14 9 0.2842 0.0301
-26 14 10 -0.7997 0.1001
-26 14 11 0.2374 0.1420
-26 14 12 -0.9761 0.2616
-26 14 13 -0.4666 0.1100
-26 14 14 -0.9079 0.1458
-26 15 1 -0.3940 0.0158
-26 15 2 0.4448 0.0324
-26 15 3 0.9558 0.1462
-26 15 4 0.5564 0.0623
-26 15 5 -0.2638 0.1035
-26 15 6 -0.3825 -0.0347
-26 15 7 -1.1172 0.0964
-26 15 8 0.6006 -0.0942
-26 15 9 -0.5586 0.0469
-26 15 10 0.3246 -0.2140
-26 15 11 -0.2008 -0.2516
-26 16 3 -0.2787 0.0267
-26 16 4 0.1665 0.0453
-26 16 5 -0.3145 -0.1498
-26 16 6 -0.2581 -0.0323
-26 16 7 0.1431 -0.0759
-25 0 2 -2.1753 -0.0536
-25 0 4 -1.1981 -0.0102
-25 0 6 2.4951 0.0335
-25 0 8 2.3358 -0.0224
-25 0 10 -5.2321 0.0173
-25 0 12 -6.7771 0.0198
-25 0 14 -2.7102 -0.0032
-25 0 16 0.6174 0.0026
-25 0 18 1.4174 -0.0453
-25 0 20 1.2078 0.0082
-25 0 22 0.5203 -0.0146
-25 1 1 -0.2614 -0.0089
-25 1 2 -2.4393 -0.0067
-25 1 3 -0.3257 -0.0144
-25 1 4 -0.7455 -0.0146
-25 1 5 -1.4772 -0.0401
-25 1 6 -1.2806 0.0302
-25 1 7 0.1499 -0.0348
-25 1 8 -0.7889 0.0514
-25 1 9 0.9733 -0.0208
-25 1 10 1.1491 0.0104
-25 1 11 -0.9385 -0.0370
-25 1 12 0.6848 0.0316
-25 1 13 -1.9355 0.0487
-25 1 14 0.0400 0.0047
-25 1 15 -1.9848 0.0105
-25 1 16 -0.2017 -0.0626
-25 1 17 -0.8150 0.0131
-25 1 18 -0.4657 0.0220
-25 1 19 0.0839 0.0003
-25 1 20 0.5480 -0.0630
-25 1 21 -0.0190 -0.1815
-25 1 22 0.1985 -0.0773
-25 1 23 -0.1338 -0.1112
-25 2 1 1.5019 -0.0260
-25 2 2 -1.6927 0.0019
-25 2 3 0.4834 -0.0035
-25 2 4 0.1010 0.0094
-25 2 5 -2.1383 -0.0087
-25 2 6 1.1757 0.0304
-25 2 7 -0.5836 -0.0021
-25 2 8 1.7157 0.0238
-25 2 9 2.6826 0.0181
-25 2 10 -2.3338 0.0079
-25 2 11 2.1816 0.0208
-25 2 12 -4.4544 -0.0449
-25 2 13 1.1291 -0.0077
-25 2 14 -2.2336 -0.0161
-25 2 15 -0.1091 -0.0427
-25 2 16 0.2383 0.0320
-25 2 17 0.0148 -0.0274
-25 2 18 1.6920 -0.0343
-25 2 19 0.4353 0.0215
-25 2 20 0.8212 0.2212
-25 2 21 0.5864 0.0760
-25 2 22 -0.2726 0.1875
-25 2 23 -0.2933 0.1477
-25 3 1 -0.0838 -0.0247
-25 3 2 -2.2040 0.0062
-25 3 3 -3.4319 0.0069
-25 3 4 -1.6640 -0.0176
-25 3 5 -1.6139 0.0220
-25 3 6 0.1309 -0.0082
-25 3 7 1.1684 0.0320
-25 3 8 2.5374 0.0283
-25 3 9 1.3960 0.0239
-25 3 10 2.4369 0.0066
-25 3 11 1.5298 -0.0465
-25 3 12 -0.3403 -0.0391
-25 3 13 -0.2948 -0.0090
-25 3 14 -0.6074 -0.0440
-25 3 15 -2.0510 -0.0464
-25 3 16 -0.4513 -0.0243
-25 3 17 -0.6825 -0.0337
-25 3 18 -0.3917 0.0591
-25 3 19 -0.6755 -0.0258
-25 3 20 0.7862 -0.0388
-25 3 21 0.1770 -0.3643
-25 3 22 0.8346 -0.1027
-25 3 23 0.8668 -0.4873
-25 4 1 -1.0993 0.0263
-25 4 2 1.7724 0.0220
-25 4 3 1.5311 0.0092
-25 4 4 4.5375 0.0253
-25 4 5 1.5673 -0.0239
-25 4 6 1.6634 -0.0329
-25 4 7 -0.0151 -0.0833
-25 4 8 -1.2399 -0.0254
-25 4 9 1.0701 -0.0301
-25 4 10 -2.4029 0.0265
-25 4 11 1.6994 -0.0103
-25 4 12 -2.5501 0.0068
-25 4 13 0.6867 -0.0194
-25 4 14 -0.8010 -0.0015
-25 4 15 -0.9069 0.0692
-25 4 16 0.1815 0.0426
-25 4 17 -1.4442 0.0473
-25 4 18 1.3304 0.0650
-25 4 19 -0.4059 -0.0164
-25 4 20 1.0771 -0.0143
-25 4 21 -0.0710 0.2874
-25 4 22 -0.0646 -0.0609
-25 4 23 -0.0732 0.5132
-25 5 1 0.4843 -0.0284
-25 5 2 -0.2950 -0.0394
-25 5 3 -3.0591 -0.0141
-25 5 4 -5.6104 -0.0441
-25 5 5 -3.2516 0.0184
-25 5 6 -4.2285 -0.0318
-25 5 7 -0.8569 0.0365
-25 5 8 2.1579 0.0050
-25 5 9 0.5511 0.0356
-25 5 10 2.9129 0.0082
-25 5 11 1.6946 0.0063
-25 5 12 -0.3476 0.0052
-25 5 13 1.0488 0.0355
-25 5 14 -1.3249 0.0654
-25 5 15 -0.5995 -0.0257
-25 5 16 -0.7852 -0.0574
-25 5 17 -0.9486 -0.0265
-25 5 18 -0.2115 -0.1700
-25 5 19 -0.3916 0.0963
-25 5 20 -0.2274 -0.0576
-25 5 21 0.4786 -0.1857
-25 5 22 -0.6596 0.0307
-25 6 1 -4.4969 0.0222
-25 6 2 -1.6045 0.0203
-25 6 3 -2.0824 -0.0208
-25 6 4 0.8533 0.0517
-25 6 5 2.5461 0.0109
-25 6 6 2.5711 0.0457
-25 6 7 2.9967 -0.0134
-25 6 8 1.1856 -0.0026
-25 6 9 0.7802 -0.0352
-25 6 10 -1.0872 0.0183
-25 6 11 0.1380 0.0641
-25 6 12 -1.8005 0.0421
-25 6 13 -0.0366 0.0227
-25 6 14 -0.4923 0.0037
-25 6 15 -0.4516 -0.0303
-25 6 16 1.7978 -0.0001
-25 6 17 -1.0751 -0.0551
-25 6 18 1.5175 0.1304
-25 6 19 -0.7238 -0.0280
-25 6 20 0.6393 0.0945
-25 6 21 -0.4437 0.0527
-25 6 22 0.6493 0.0293
-25 7 1 -0.0664 0.0361
-25 7 2 1.2079 -0.0126
-25 7 3 0.7325 0.0245
-25 7 4 0.0265 0.0089
-25 7 5 1.3009 -0.0084
-25 7 6 -1.2630 -0.0083
-25 7 7 -0.8641 0.0395
-25 7 8 0.9680 -0.0672
-25 7 9 -1.1770 0.0418
-25 7 10 1.5596 -0.0211
-25 7 11 0.8854 -0.0207
-25 7 12 0.5147 -0.0386
-25 7 13 1.7400 0.0000
-25 7 14 0.1418 0.0326
-25 7 15 0.0186 -0.0241
-25 7 16 0.2569 0.0177
-25 7 17 -1.5771 0.0360
-25 7 18 -0.2237 -0.0239
-25 7 19 -1.1232 0.0312
-25 7 20 0.9752 0.1200
-25 7 21 -0.2449 -0.2300
-25 8 1 -0.9806 0.0102
-25 8 2 -0.1813 -0.0245
-25 8 3 -1.0893 -0.0580
-25 8 4 -1.0563 -0.0412
-25 8 5 -0.9363 -0.0424
-25 8 6 -0.4470 0.0013
-25 8 7 1.0949 -0.0427
-25 8 8 0.5616 0.0393
-25 8 9 2.0488 -0.0425
-25 8 10 0.1720 0.0152
-25 8 11 0.7301 0.0175
-25 8 12 0.0663 0.0118
-25 8 13 -0.2904 0.0528
-25 8 14 -0.8125 0.0616
-25 8 15 -1.2312 0.0781
-25 8 16 1.1567 0.1031
-25 8 17 -0.7809 -0.1009
-25 8 18 2.2561 0.0892
-25 8 19 -0.1853 0.0079
-25 8 20 0.7127 0.0596
-25 8 21 0.1688 0.3088
-25 9 1 -1.2455 -0.0171
-25 9 2 0.0431 0.0032
-25 9 3 -1.5439 0.0488
-25 9 4 0.1764 -0.0092
-25 9 5 0.9270 0.0423
-25 9 6 1.6221 0.0450
-25 9 7 0.9679 0.0680
-25 9 8 1.6020 0.0010
-25 9 9 1.1952 0.0668
-25 9 10 0.2269 0.0322
-25 9 11 0.8471 0.0596
-25 9 12 0.4756 -0.0342
-25 9 13 0.9665 0.0169
-25 9 14 0.1517 -0.0223
-25 9 15 0.3787 -0.1237
-25 9 16 0.2362 0.0270
-25 9 17 -0.6301 -0.0888
-25 9 18 1.1733 0.0362
-25 9 19 -1.3963 0.0695
-25 9 20 0.7088 0.1322
-25 10 1 0.6066 0.0163
-25 10 2 0.7458 0.0457
-25 10 3 1.9998 -0.0333
-25 10 4 1.2799 -0.0088
-25 10 5 0.0784 0.0059
-25 10 6 0.2694 0.0067
-25 10 7 0.6242 -0.0706
-25 10 8 -0.7662 -0.0342
-25 10 9 1.4995 -0.0452
-25 10 10 -0.2110 -0.0089
-25 10 11 0.1056 -0.0098
-25 10 12 0.5199 -0.0006
-25 10 13 0.0718 -0.0281
-25 10 14 0.4216 -0.1389
-25 10 15 -0.5406 0.1109
-25 10 16 0.5193 -0.0124
-25 10 17 -0.7488 0.0279
-25 10 18 0.3189 -0.0555
-25 10 19 0.2562 -0.0565
-25 11 1 0.9061 -0.0525
-25 11 2 0.4865 0.0123
-25 11 3 0.2973 -0.0058
-25 11 4 -0.7473 -0.0383
-25 11 5 -1.5015 0.0065
-25 11 6 -0.5004 -0.0169
-25 11 7 -0.6488 0.0014
-25 11 8 0.1079 -0.0071
-25 11 9 1.3140 -0.0050
-25 11 10 0.1806 -0.0052
-25 11 11 -0.2503 0.0544
-25 11 12 0.7130 -0.0141
-25 11 13 0.2291 -0.0190
-25 11 14 0.4475 -0.0725
-25 11 15 -0.1009 -0.0036
-25 11 16 -0.7600 -0.1709
-25 11 17 -0.8200 -0.0967
-25 11 18 0.6709 -0.2251
-25 12 1 -1.3788 0.0172
-25 12 2 0.2634 0.0601
-25 12 3 -1.5918 -0.0256
-25 12 4 0.4302 0.0187
-25 12 5 -0.3981 0.0525
-25 12 6 -0.7091 0.0616
-25 12 7 0.9238 0.0388
-25 12 8 -0.5764 0.0761
-25 12 9 -0.0310 -0.0092
-25 12 10 0.6128 0.0802
-25 12 11 -0.4896 0.1203
-25 12 12 -0.1738 0.1367
-25 12 13 -0.9402 -0.0023
-25 12 14 -0.5752 -0.1540
-25 12 15 -0.3588 -0.2027
-25 12 16 -0.3991 -0.1067
-25 12 17 0.1572 -0.0944
-25 13 1 -0.0647 0.0064
-25 13 2 0.2797 -0.0338
-25 13 3 1.4222 -0.0632
-25 13 4 -0.7632 -0.0613
-25 13 5 -0.0241 -0.0603
-25 13 6 -1.2172 -0.0787
-25 13 7 -0.4814 -0.0135
-25 13 8 1.3044 -0.0442
-25 13 9 -0.2005 -0.1136
-25 13 10 1.5124 -0.1972
-25 13 11 -0.7179 -0.2145
-25 13 12 -0.1957 -0.0821
-25 13 13 0.5283 -0.1472
-25 13 14 0.2441 0.0250
-25 13 15 0.6525 0.0577
-25 13 16 -0.4173 -0.0570
-25 14 1 -1.0508 0.0298
-25 14 2 0.8490 0.0150
-25 14 3 -0.6386 0.0202
-25 14 4 -0.6841 0.0770
-25 14 5 1.3874 0.0201
-25 14 6 -1.3032 0.1403
-25 14 7 0.7200 0.1194
-25 14 8 -0.5352 0.2069
-25 14 9 -0.3276 0.1338
-25 14 10 -1.1748 0.1305
-25 14 11 0.0937 0.1346
-25 14 12 -1.4790 0.1801
-25 14 13 -0.9428 -0.0972
-25 14 14 -0.9577 -0.0776
-25 15 1 0.1339 0.0150
-25 15 2 1.0498 0.0389
-25 15 3 1.1832 0.0664
-25 15 4 -0.2480 0.0051
-25 15 5 -0.6267 0.0146
-25 15 6 -0.5300 -0.1581
-25 15 7 -0.9574 -0.0065
-25 15 8 1.0401 -0.1498
-25 15 9 -0.2833 -0.0612
-25 15 10 0.4734 -0.2308
-25 15 11 0.3034 -0.2273
-25 15 12 0.1037 -0.1146
-25 16 1 -0.1672 0.0361
-25 16 2 0.6272 0.0867
-25 16 3 -0.3728 0.0049
-25 16 4 0.1015 0.0595
-25 16 5 -0.2545 -0.1026
-25 16 6 -0.3019 0.0035
-25 16 7 0.2271 0.0917
-25 16 8 0.3386 0.1582
-25 16 9 1.3918 0.3612
-24 0 2 -2.4960 -0.0419
-24 0 4 -1.1548 0.0051
-24 0 6 1.2694 0.0162
-24 0 8 -0.5452 -0.0285
-24 0 10 -6.9929 0.0242
-24 0 12 -5.7796 0.0070
-24 0 14 -1.0935 -0.0068
-24 0 16 1.5100 -0.0191
-24 0 18 1.3089 -0.0072
-24 0 20 0.7764 0.0348
-24 0 22 -0.0458 -0.0916
-24 1 1 -1.2023 -0.0086
-24 1 2 -2.4510 -0.0268
-24 1 3 -0.2154 -0.0278
-24 1 4 0.2500 -0.0277
-24 1 5 -0.8469 -0.0393
-24 1 6 -0.9391 0.0273
-24 1 7 1.6778 -0.0022
-24 1 8 -0.6589 0.0235
-24 1 9 2.0100 -0.0076
-24 1 10 1.2276 -0.0194
-24 1 11 -2.2185 -0.0072
-24 1 12 0.1892 0.0367
-24 1 13 -3.4367 0.0459
-24 1 14 -0.1467 -0.0088
-24 1 15 -1.8862 -0.0008
-24 1 16 -0.0545 -0.0173
-24 1 17 -0.2127 0.0040
-24 1 18 -0.1959 0.0814
-24 1 19 0.2883 -0.0886
-24 1 20 0.4560 -0.0438
-24 1 21 -0.0396 -0.0842
-24 1 22 -0.1627 0.0899
-24 1 23 -0.0270 0.0424
-24 2 1 1.9367 -0.0085
-24 2 2 -0.0045 -0.0027
-24 2 3 -0.8195 0.0142
-24 2 4 0.3354 0.0017
-24 2 5 -2.5785 -0.0179
-24 2 6 0.0461 -0.0118
-24 2 7 -0.1432 0.0245
-24 2 8 -0.6267 -0.0090
-24 2 9 3.2875 0.0437
-24 2 10 -3.9302 -0.0249
-24 2 11 2.7926 -0.0047
-24 2 12 -3.3397 -0.0726
-24 2 13 0.9912 -0.0332
-24 2 14 -0.6304 0.0158
-24 2 15 -0.2961 -0.0659
-24 2 16 1.1578 0.0438
-24 2 17 -0.0906 -0.0316
-24 2 18 1.5530 0.0082
-24 2 19 0.2850 0.0625
-24 2 20 -0.2080 0.1959
-24 2 21 0.5424 0.0436
-24 2 22 -0.8822 0.0030
-24 2 23 0.0653 0.0150
-24 3 1 -3.3534 -0.0086
-24 3 2 -3.3046 -0.0139
-24 3 3 -4.8049 0.0279
-24 3 4 -0.2399 -0.0012
-24 3 5 0.7349 0.0068
-24 3 6 2.0187 0.0122
-24 3 7 3.7951 0.0138
-24 3 8 3.1434 0.0020
-24 3 9 2.3105 -0.0011
-24 3 10 1.9168 -0.0198
-24 3 11 0.6594 -0.0514
-24 3 12 -0.9249 -0.0397
-24 3 13 -2.3204 0.0099
-24 3 14 -0.6439 -0.0461
-24 3 15 -2.5253 -0.0039
-24 3 16 -0.5444 -0.0160
-24 3 17 -0.2297 -0.0106
-24 3 18 -0.0578 0.0409
-24 3 19 -0.0485 -0.1121
-24 3 20 1.0534 -0.0959
-24 3 21 0.8100 -0.3165
-24 3 22 0.5710 -0.0379
-24 3 23 0.7299 -0.2482
-24 4 1 0.9439 0.0068
-24 4 2 4.2677 -0.0101
-24 4 3 2.2510 0.0020
-24 4 4 3.8099 -0.0200
-24 4 5 0.6544 -0.0390
-24 4 6 -1.0151 -0.0469
-24 4 7 -0.4580 -0.0849
-24 4 8 -4.0046 -0.0127
-24 4 9 1.8290 -0.0000
-24 4 10 -3.5221 0.0157
-24 4 11 2.1911 0.0146
-24 4 12 -1.0470 -0.0128
-24 4 13 0.0609 0.0196
-24 4 14 0.7526 0.0225
-24 4 15 -1.4337 0.0608
-24 4 16 1.1238 0.0576
-24 4 17 -1.3169 0.0257
-24 4 18 1.4842 0.0256
-24 4 19 -0.0135 0.0367
-24 4 20 0.0114 0.0152
-24 4 21 -0.0284 0.3060
-24 4 22 -0.9896 -0.0506
-24 4 23 -0.1361 0.3710
-24 5 1 -1.6722 -0.0355
-24 5 2 -3.2507 -0.0083
-24 5 3 -4.9657 0.0156
-24 5 4 -6.9318 -0.0106
-24 5 5 -2.7295 0.0444
-24 5 6 -1.8573 -0.0000
-24 5 7 0.9321 0.0369
-24 5 8 4.0095 0.0141
-24 5 9 1.9085 0.0180
-24 5 10 1.9727 0.0062
-24 5 11 2.0160 0.0010
-24 5 12 -0.8337 -0.0036
-24 5 13 -0.3425 0.0192
-24 5 14 -0.9876 0.0059
-24 5 15 -1.4589 -0.0539
-24 5 16 -0.7826 -0.1018
-24 5 17 -0.7154 -0.0334
-24 5 18 -0.1188 -0.1206
-24 5 19 0.0927 0.0490
-24 5 20 -0.3876 -0.0245
-24 5 21 1.2711 -0.2825
-24 5 22 -1.0559 0.0484
-24 5 23 0.8526 -0.4333
-24 6 1 -3.1224 0.0168
-24 6 2 -0.8286 0.0260
-24 6 3 0.6568 -0.0227
-24 6 4 1.5433 0.0399
-24 6 5 3.6851 0.0256
-24 6 6 2.1075 0.0337
-24 6 7 2.5368 -0.0375
-24 6 8 -0.5009 -0.0185
-24 6 9 0.3239 -0.0317
-24 6 10 -2.5181 -0.0102
-24 6 11 -0.0553 0.0457
-24 6 12 -1.1753 0.0100
-24 6 13 -0.7500 -0.0076
-24 6 14 1.4021 -0.0068
-24 6 15 -1.2184 -0.0035
-24 6 16 2.5641 0.0387
-24 6 17 -0.8432 -0.0245
-24 6 18 0.6446 0.1526
-24 6 19 -0.1218 -0.0220
-24 6 20 0.0579 0.0892
-24 6 21 -0.0501 0.0269
-24 6 22 0.2569 -0.0290
-24 7 1 0.6334 0.0176
-24 7 2 0.3786 -0.0174
-24 7 3 1.3716 -0.0028
-24 7 4 -1.3268 -0.0214
-24 7 5 0.3560 0.0102
-24 7 6 -1.2813 -0.0565
-24 7 7 -1.5451 0.0558
-24 7 8 1.5789 -0.0604
-24 7 9 -0.3305 0.0213
-24 7 10 1.3943 -0.0085
-24 7 11 1.7682 -0.0017
-24 7 12 0.6991 0.0173
-24 7 13 1.2870 0.0030
-24 7 14 0.1597 0.0998
-24 7 15 -1.1951 0.0117
-24 7 16 -0.3700 0.0107
-24 7 17 -1.6362 0.0523
-24 7 18 -0.1358 -0.0378
-24 7 19 -0.4906 -0.0561
-24 7 20 0.9104 0.1177
-24 7 21 0.3339 -0.1981
-24 7 22 0.2145 0.1163
-24 8 1 -1.0962 -0.0080
-24 8 2 -0.7677 -0.0169
-24 8 3 -1.0349 -0.0719
-24 8 4 -1.9077 0.0059
-24 8 5 -0.3431 -0.0161
-24 8 6 -0.6416 0.0278
-24 8 7 1.8732 -0.0200
-24 8 8 0.5693 0.0380
-24 8 9 1.9327 -0.0197
-24 8 10 -0.1730 0.0159
-24 8 11 0.1216 0.0459
-24 8 12 -0.0098 0.0124
-24 8 13 -0.7888 0.0375
-24 8 14 0.1992 0.0448
-24 8 15 -1.1869 -0.0074
-24 8 16 1.8521 0.0326
-24 8 17 0.0964 -0.1048
-24 8 18 1.3607 0.0103
-24 8 19 0.5098 0.1279
-24 8 20 0.1564 0.0248
-24 8 21 0.4440 0.2924
-24 9 1 -1.4061 0.0221
-24 9 2 0.1726 -0.0033
-24 9 3 -0.3677 0.0597
-24 9 4 1.1090 -0.0164
-24 9 5 1.4526 0.0378
-24 9 6 1.9121 0.0149
-24 9 7 0.7715 0.0857
-24 9 8 1.6092 -0.0386
-24 9 9 0.5656 0.0625
-24 9 10 0.4988 -0.0078
-24 9 11 0.4433 0.0498
-24 9 12 0.3442 -0.0548
-24 9 13 0.9853 -0.0515
-24 9 14 0.1139 -0.0079
-24 9 15 -0.5761 -0.0843
-24 9 16 0.2961 0.0510
-24 9 17 -1.4963 0.0713
-24 9 18 0.7572 0.0497
-24 9 19 -1.0164 0.0728
-24 9 20 -0.1266 0.0742
-24 10 1 1.8653 -0.0214
-24 10 2 1.0190 0.0125
-24 10 3 2.0010 -0.0490
-24 10 4 0.8034 -0.0053
-24 10 5 -0.1183 -0.0374
-24 10 6 -1.0277 0.0059
-24 10 7 0.9176 -0.0838
-24 10 8 -1.5423 -0.0529
-24 10 9 1.4163 -0.0237
-24 10 10 0.1944 -0.0101
-24 10 11 -0.0918 0.0378
-24 10 12 0.6968 -0.0115
-24 10 13 0.3158 0.0457
-24 10 14 0.5317 -0.0646
-24 10 15 -0.4668 0.0826
-24 10 16 0.4365 0.0276
-24 10 17 -0.3497 -0.0198
-24 10 18 -0.4090 -0.2059
-24 10 19 1.3474 -0.0873
-24 10 20 -0.7448 -0.3590
-24 11 1 0.3948 -0.0355
-24 11 2 0.2573 0.0055
-24 11 3 -0.4638 0.0325
-24 11 4 -0.6148 -0.0419
-24 11 5 -1.5517 0.0140
-24 11 6 -0.2640 0.0201
-24 11 7 0.5854 0.0353
-24 11 8 0.7363 0.0145
-24 11 9 1.3990 0.0114
-24 11 10 0.6667 0.0277
-24 11 11 -0.4570 0.0500
-24 11 12 0.4412 0.0169
-24 11 13 0.1057 0.0047
-24 11 14 -0.1265 -0.0985
-24 11 15 -0.5379 -0.0584
-24 11 16 -0.5128 -0.1809
-24 11 17 -0.7664 -0.1314
-24 11 18 0.5764 -0.1152
-24 11 19 0.2218 -0.1127
-24 12 1 -1.3496 -0.0186
-24 12 2 -0.1898 0.0463
-24 12 3 -1.1928 -0.0086
-24 12 4 0.3508 -0.0120
-24 12 5 0.0864 0.0288
-24 12 6 -1.2287 0.0559
-24 12 7 0.6067 -0.0273
-24 12 8 -0.7934 0.0300
-24 12 9 -0.2546 -0.0145
-24 12 10 0.9605 0.0300
-24 12 11 -0.3876 0.0637
-24 12 12 -0.2995 0.0189
-24 12 13 -0.5042 -0.0690
-24 12 14 -0.1893 -0.1955
-24 12 15 0.1867 -0.1724
-24 12 16 -0.1261 0.0461
-24 12 17 -0.0694 -0.0453
-24 12 18 -0.9484 0.1262
-24 13 1 0.6308 -0.0325
-24 13 2 -0.4102 -0.0168
-24 13 3 1.5556 -0.0576
-24 13 4 -1.8735 -0.0791
-24 13 5 -0.1071 -0.0273
-24 13 6 -0.3365 -0.0405
-24 13 7 0.0652 -0.0069
-24 13 8 2.1513 0.0035
-24 13 9 0.0530 -0.0983
-24 13 10 1.0998 -0.1322
-24 13 11 -0.1174 -0.1289
-24 13 12 -0.2583 0.0756
-24 13 13 0.6025 0.0622
-24 13 14 -0.1694 0.0593
-24 13 15 -0.0429 0.0477
-24 13 16 -0.5319 -0.1636
-24 14 1 -1.1216 0.0169
-24 14 2 0.4881 0.0366
-24 14 3 0.5601 0.0051
-24 14 4 -0.5855 0.0724
-24 14 5 1.1989 0.0518
-24 14 6 -1.0981 0.1271
-24 14 7 -0.4864 0.1157
-24 14 8 -0.6030 0.1507
-24 14 9 -0.5266 0.1200
-24 14 10 -1.5603 0.0511
-24 14 11 0.1003 -0.0431
-24 14 12 -1.5115 -0.0005
-24 14 13 -1.0559 -0.2720
-24 14 14 -0.3883 -0.2115
-24 14 15 -0.5077 -0.2909
-24 15 1 0.7814 0.0152
-24 15 2 0.7213 0.0475
-24 15 3 1.2226 0.0288
-24 15 4 -1.0114 -0.0659
-24 15 5 -0.8042 -0.0123
-24 15 6 0.0761 -0.1817
-24 15 7 -0.7948 -0.0380
-24 15 8 1.2860 -0.0788
-24 15 9 0.0487 -0.0195
-24 15 10 0.4974 -0.0862
-24 15 11 0.8337 -0.0392
-24 15 12 0.1253 0.1493
-24 15 13 0.3368 0.2453
-24 16 1 -0.5006 0.0762
-24 16 2 0.2355 0.0433
-24 16 3 -0.0127 -0.0121
-24 16 4 -0.1460 0.0409
-24 16 5 -0.1758 -0.0379
-24 16 6 -0.1369 -0.0015
-24 16 7 0.3664 0.1471
-24 16 8 0.4470 0.1591
-24 16 9 1.1005 0.2699
-24 16 10 -0.7059 0.0969
-23 0 2 -3.4761 -0.0198
-23 0 4 -1.4207 -0.0128
-23 0 6 -0.2089 -0.0018
-23 0 8 -2.5640 -0.0124
-23 0 10 -6.6141 0.0190
-23 0 12 -4.3252 -0.0090
-23 0 14 -0.1116 -0.0133
-23 0 16 1.8634 -0.0160
-23 0 18 0.8538 0.0304
-23 0 20 0.1215 -0.0105
-23 0 22 -1.1458 -0.1145
-23 0 24 -1.7835 -0.0041
-23 1 1 -1.7867 -0.0162
-23 1 2 -1.6499 -0.0295
-23 1 3 1.0232 -0.0162
-23 1 4 1.6089 -0.0292
-23 1 5 0.4731 -0.0047
-23 1 6 -0.4724 0.0080
-23 1 7 2.4750 0.0195
-23 1 8 -0.6548 -0.0041
-23 1 9 0.7551 -0.0090
-23 1 10 1.2075 -0.0212
-23 1 11 -4.8666 0.0041
-23 1 12 0.2060 0.0362
-23 1 13 -4.2219 0.0245
-23 1 14 0.0775 -0.0128
-23 1 15 -0.8906 -0.0113
-23 1 16 0.1441 0.0445
-23 1 17 0.6812 -0.0141
-23 1 18 -0.0489 0.0731
-23 1 19 0.4755 -0.0636
-23 1 20 0.1827 -0.0179
-23 1 21 -0.0242 0.0518
-23 1 22 -0.7428 0.2719
-23 1 23 0.1305 0.0418
-23 1 24 -1.0821 0.5695
-23 2 1 0.8283 0.0140
-23 2 2 0.4988 -0.0091
-23 2 3 -3.4127 0.0013
-23 2 4 -1.1607 -0.0164
-23 2 5 -2.6878 -0.0162
-23 2 6 -1.7435 -0.0528
-23 2 7 0.9076 0.0560
-23 2 8 -2.0021 -0.0223
-23 2 9 4.1909 0.0200
-23 2 10 -3.1158 -0.0396
-23 2 11 3.1763 -0.0437
-23 2 12 -1.1187 -0.0566
-23 2 13 0.1763 -0.0360
-23 2 14 0.5472 0.0507
-23 2 15 -1.0282 -0.0596
-23 2 16 1.3614 0.0458
-23 2 17 -0.4070 0.0008
-23 2 18 0.8257 0.0041
-23 2 19 0.3178 0.0677
-23 2 20 -1.0095 0.0564
-23 2 21 0.7813 -0.0527
-23 2 22 -1.1481 -0.1075
-23 2 23 0.5994 -0.0931
-23 2 24 -0.4206 -0.1535
-23 3 1 -6.0645 0.0189
-23 3 2 -2.6759 -0.0092
-23 3 3 -3.1769 0.0230
-23 3 4 2.4594 0.0263
-23 3 5 4.5806 -0.0252
-23 3 6 3.8529 0.0007
-23 3 7 5.5630 -0.0037
-23 3 8 2.9140 -0.0219
-23 3 9 0.7350 -0.0179
-23 3 10 1.0941 -0.0140
-23 3 11 -2.2112 -0.0438
-23 3 12 -0.9677 -0.0308
-23 3 13 -3.8518 0.0331
-23 3 14 -0.3293 -0.0386
-23 3 15 -1.9166 0.0278
-23 3 16 -0.2730 -0.0135
-23 3 17 0.6710 -0.0141
-23 3 18 0.3381 0.0276
-23 3 19 0.8484 -0.1247
-23 3 20 1.0073 -0.0716
-23 3 21 0.9606 -0.1545
-23 3 22 0.0081 0.0950
-23 3 23 0.0589 -0.0312
-23 4 1 2.5770 -0.0188
-23 4 2 5.3003 -0.0509
-23 4 3 1.4681 -0.0068
-23 4 4 0.5577 -0.0215
-23 4 5 -0.6902 -0.0314
-23 4 6 -4.3128 -0.0310
-23 4 7 -0.3786 -0.0436
-23 4 8 -5.4695 -0.0053
-23 4 9 2.5649 0.0316
-23 4 10 -2.4439 0.0047
-23 4 11 1.6573 0.0327
-23 4 12 1.5444 -0.0169
-23 4 13 -0.9473 0.0263
-23 4 14 1.8503 0.0468
-23 4 15 -1.6310 0.0134
-23 4 16 1.3349 0.0465
-23 4 17 -1.0790 0.0070
-23 4 18 0.7579 -0.0105
-23 4 19 0.3556 0.0624
-23 4 20 -1.2522 0.0258
-23 4 21 0.0219 0.2226
-23 4 22 -1.2377 -0.1139
-23 4 23 -0.0202 0.1326
-23 5 1 -4.0765 0.0115
-23 5 2 -5.4546 0.0256
-23 5 3 -4.9848 0.0432
-23 5 4 -5.9914 0.0195
-23 5 5 -0.2382 0.0274
-23 5 6 1.5111 0.0210
-23 5 7 3.2927 0.0194
-23 5 8 5.4546 -0.0018
-23 5 9 2.0206 -0.0063
-23 5 10 1.3902 -0.0118
-23 5 11 0.2741 -0.0262
-23 5 12 -0.6793 -0.0314
-23 5 13 -2.3522 -0.0156
-23 5 14 -0.8974 -0.0348
-23 5 15 -1.5524 -0.0742
-23 5 16 -0.9750 -0.0709
-23 5 17 0.1123 -0.0270
-23 5 18 -0.2046 -0.0364
-23 5 19 0.9181 0.0108
-23 5 20 -0.7017 0.0095
-23 5 21 1.6585 -0.2756
-23 5 22 -1.1723 0.1183
-23 5 23 0.2644 -0.2676
-23 6 1 -1.2310 -0.0078
-23 6 2 0.3581 -0.0077
-23 6 3 2.3987 -0.0057
-23 6 4 1.7278 0.0144
-23 6 5 3.3213 0.0223
-23 6 6 0.8068 0.0230
-23 6 7 1.6706 -0.0642
-23 6 8 -2.3904 -0.0393
-23 6 9 -0.0172 -0.0146
-23 6 10 -2.6700 -0.0241
-23 6 11 -0.8473 0.0343
-23 6 12 0.8123 0.0105
-23 6 13 -1.4216 -0.0040
-23 6 14 2.9185 0.0179
-23 6 15 -1.1423 0.0305
-23 6 16 2.0811 0.0657
-23 6 17 -0.1330 -0.0184
-23 6 18 -0.5742 0.1204
-23 6 19 0.6298 -0.0496
-23 6 20 -0.4347 0.0383
-23 6 21 0.1485 -0.0475
-23 6 22 0.1672 -0.1180
-23 7 1 1.3505 0.0018
-23 7 2 -1.1226 -0.0254
-23 7 3 1.2806 -0.0084
-23 7 4 -2.2571 -0.0492
-23 7 5 -1.1144 0.0358
-23 7 6 -0.5539 -0.0445
-23 7 7 -1.8088 0.0505
-23 7 8 2.5346 -0.0202
-23 7 9 0.8528 0.0003
-23 7 10 1.6588 0.0183
-23 7 11 1.8630 0.0090
-23 7 12 1.0469 0.0635
-23 7 13 -0.0082 0.0078
-23 7 14 -0.4735 0.0870
-23 7 15 -1.6325 0.0261
-23 7 16 -1.2217 -0.0268
-23 7 17 -0.7154 0.0120
-23 7 18 0.1054 -0.0298
-23 7 19 0.3451 -0.0777
-23 7 20 0.6712 0.1465
-23 7 21 0.9158 -0.0615
-23 7 22 -0.1077 0.1519
-23 8 1 -1.0645 -0.0204
-23 8 2 -1.4280 0.0211
-23 8 3 -0.8041 -0.0412
-23 8 4 -2.1967 0.0283
-23 8 5 0.3015 0.0207
-23 8 6 -0.4215 0.0217
-23 8 7 2.0700 -0.0194
-23 8 8 0.3042 0.0291
-23 8 9 1.2403 -0.0066
-23 8 10 -0.4569 0.0063
-23 8 11 -0.6447 0.0298
-23 8 12 0.4595 0.0002
-23 8 13 -1.0137 -0.0144
-23 8 14 1.2110 -0.0104
-23 8 15 -0.5882 -0.0325
-23 8 16 1.4531 -0.0236
-23 8 17 0.9814 -0.0331
-23 8 18 0.1418 -0.0013
-23 8 19 0.8738 0.1769
-23 8 20 -0.1274 -0.0313
-23 8 21 0.4647 0.1589
-23 9 1 -0.8701 0.0340
-23 9 2 0.7742 -0.0288
-23 9 3 0.9781 0.0272
-23 9 4 1.7481 -0.0343
-23 9 5 1.3360 0.0346
-23 9 6 1.8698 -0.0178
-23 9 7 -0.1285 0.0783
-23 9 8 1.4335 -0.0559
-23 9 9 -0.2972 0.0323
-23 9 10 0.3686 -0.0257
-23 9 11 0.2368 0.0222
-23 9 12 0.0502 -0.0265
-23 9 13 0.7812 -0.0699
-23 9 14 -0.0494 0.0262
-23 9 15 -1.3110 0.0354
-23 9 16 -0.1409 0.0537
-23 9 17 -1.6610 0.1437
-23 9 18 0.0967 0.0448
-23 9 19 -0.5128 -0.0118
-23 9 20 -0.6344 0.0196
-23 9 21 0.3327 -0.0443
-23 10 1 2.4332 -0.0253
-23 10 2 0.9924 0.0066
-23 10 3 1.4033 -0.0543
-23 10 4 -0.2877 0.0125
-23 10 5 -0.2528 -0.0504
-23 10 6 -2.3692 -0.0122
-23 10 7 0.9743 -0.0529
-23 10 8 -1.4800 -0.0435
-23 10 9 1.5008 0.0139
-23 10 10 0.8888 0.0198
-23 10 11 0.3013 0.0778
-23 10 12 0.7407 0.0231
-23 10 13 0.5634 0.0466
-23 10 14 0.6662 -0.0035
-23 10 15 -0.2417 0.0176
-23 10 16 -0.1392 -0.0325
-23 10 17 0.7725 -0.0487
-23 10 18 -1.2049 -0.2840
-23 10 19 2.3516 -0.0944
-23 10 20 -0.5038 -0.2561
-23 11 1 -0.2657 -0.0036
-23 11 2 0.3403 -0.0111
-23 11 3 -1.0115 0.0478
-23 11 4 -0.5522 -0.0076
-23 11 5 -0.6739 0.0065
-23 11 6 0.1876 0.0376
-23 11 7 1.4107 0.0517
-23 11 8 1.2402 0.0172
-23 11 9 0.4249 -0.0106
-23 11 10 0.4390 0.0332
-23 11 11 -0.7557 0.0278
-23 11 12 -0.3330 0.0141
-23 11 13 -0.0786 -0.0169
-23 11 14 -0.2623 -0.1096
-23 11 15 -0.6330 -0.0998
-23 11 16 -0.0961 -0.1324
-23 11 17 -0.4103 -0.0782
-23 11 18 -0.0682 0.0026
-23 11 19 0.1775 -0.0154
-23 12 1 -1.0819 -0.0280
-23 12 2 -0.0792 -0.0004
-23 12 3 -0.5581 -0.0004
-23 12 4 -0.0635 -0.0379
-23 12 5 0.2423 -0.0342
-23 12 6 -2.1444 0.0203
-23 12 7 0.2707 -0.0650
-23 12 8 -0.5263 -0.0215
-23 12 9 -0.0564 -0.0045
-23 12 10 1.5045 -0.0104
-23 12 11 -0.0112 0.0269
-23 12 12 -0.1472 -0.0461
-23 12 13 -0.0126 -0.0732
-23 12 14 0.3851 -0.0834
-23 12 15 0.3835 -0.0976
-23 12 16 -0.2533 0.1324
-23 12 17 -0.1401 -0.0436
-23 12 18 -1.1706 0.0081
-23 13 1 1.0272 -0.0481
-23 13 2 -1.4716 -0.0125
-23 13 3 1.1889 0.0058
-23 13 4 -1.9865 -0.0413
-23 13 5 0.1844 0.0093
-23 13 6 0.9301 0.0420
-23 13 7 0.4108 0.0224
-23 13 8 2.0305 0.0454
-23 13 9 0.0636 -0.0582
-23 13 10 0.3168 -0.0433
-23 13 11 0.2555 -0.0048
-23 13 12 -0.5658 0.1543
-23 13 13 -0.0102 0.1464
-23 13 14 -0.6782 -0.0256
-23 13 15 -0.5348 -0.1375
-23 13 16 -0.3780 -0.2340
-23 13 17 -0.1069 -0.3224
-23 14 1 -0.4293 -0.0204
-23 14 2 0.4186 0.0008
-23 14 3 1.2632 0.0043
-23 14 4 -0.4358 0.0169
-23 14 5 0.0132 0.0225
-23 14 6 -0.9639 0.0619
-23 14 7 -1.0300 0.0552
-23 14 8 -0.6746 0.0431
-23 14 9 -0.1848 0.0282
-23 14 10 -1.5254 -0.0511
-23 14 11 0.1795 -0.2295
-23 14 12 -0.6222 -0.1268
-23 14 13 -0.8219 -0.2353
-23 14 14 0.4897 -0.1354
-23 14 15 -0.0904 -0.0965
-23 15 1 1.2424 0.0253
-23 15 2 -0.1285 0.0410
-23 15 3 0.8530 0.0471
-23 15 4 -0.8672 -0.0932
-23 15 5 -1.1207 0.0017
-23 15 6 0.8372 -0.0850
-23 15 7 -0.7055 0.0096
-23 15 8 0.9416 0.0568
-23 15 9 0.6242 0.1139
-23 15 10 0.3001 0.1183
-23 15 11 1.1054 0.1363
-23 15 12 -0.2712 0.2645
-23 15 13 -0.1493 0.2264
-23 15 14 -1.3401 -0.0383
-23 16 1 -0.1393 0.0750
-23 16 2 -0.3874 -0.0010
-23 16 3 0.4830 -0.0161
-23 16 4 -0.1727 -0.0132
-23 16 5 -0.2077 -0.0322
-23 16 6 0.4741 -0.0478
-23 16 7 0.4129 0.0821
-23 16 8 0.4205 0.0545
-23 16 9 0.3518 0.0649
-23 16 10 -0.9116 -0.1011
-23 16 11 -1.1761 -0.3138
-23 17 1 0.2851 0.2160
-23 17 2 -0.0042 -0.0581
-23 17 3 1.4929 0.0881
-23 17 4 0.2841 -0.1753
-23 17 5 1.0435 -0.1276
-23 17 6 -0.0888 -0.1522
-23 17 7 -0.4139 -0.0528
-22 0 2 -4.6784 -0.0283
-22 0 4 -1.3535 -0.0367
-22 0 6 -0.9719 0.0143
-22 0 8 -3.1713 0.0018
-22 0 10 -5.3494 -0.0047
-22 0 12 -3.4496 -0.0169
-22 0 14 0.4526 -0.0150
-22 0 16 1.8802 -0.0019
-22 0 18 0.3213 0.0228
-22 0 20 -0.6786 -0.0605
-22 0 22 -2.1494 -0.0501
-22 0 24 -1.7411 0.0707
-22 1 1 -1.0291 -0.0131
-22 1 2 0.2188 -0.0097
-22 1 3 2.7216 0.0170
-22 1 4 2.9821 -0.0374
-22 1 5 0.8613 0.0157
-22 1 6 -0.2943 -0.0065
-22 1 7 0.8051 0.0091
-22 1 8 -0.9743 -0.0047
-22 1 9 -2.8354 -0.0146
-22 1 10 1.1878 -0.0140
-22 1 11 -6.9979 0.0035
-22 1 12 0.7229 0.0239
-22 1 13 -3.3465 0.0066
-22 1 14 0.5183 -0.0024
-22 1 15 0.7731 -0.0145
-22 1 16 0.2412 0.0770
-22 1 17 1.5131 0.0056
-22 1 18 -0.0985 0.0223
-22 1 19 0.4936 0.0219
-22 1 20 -0.2448 0.0354
-22 1 21 0.0113 0.0728
-22 1 22 -1.2360 0.3550
-22 1 23 -0.0656 -0.0270
-22 1 24 -0.9022 0.3797
-22 2 1 -1.9118 0.0059
-22 2 2 -0.9293 -0.0122
-22 2 3 -5.8748 -0.0157
-22 2 4 -2.9507 -0.0306
-22 2 5 -1.3889 0.0003
-22 2 6 -2.1326 -0.0639
-22 2 7 2.8348 0.0432
-22 2 8 -0.9809 -0.0090
-22 2 9 4.7844 -0.0357
-22 2 10 -0.9379 -0.0327
-22 2 11 2.4808 -0.0492
-22 2 12 0.1321 -0.0191
-22 2 13 -1.3443 -0.0129
-22 2 14 0.5070 0.0637
-22 2 15 -1.8557 -0.0267
-22 2 16 0.8882 0.0161
-22 2 17 -0.4522 0.0310
-22 2 18 0.0931 -0.0565
-22 2 19 0.7098 0.0211
-22 2 20 -1.3111 -0.0515
-22 2 21 1.2569 -0.1348
-22 2 22 -1.1079 -0.0781
-22 2 23 0.8391 -0.0970
-22 2 24 -0.0813 -0.0937
-22 3 1 -6.0667 0.0188
-22 3 2 -0.5154 0.0094
-22 3 3 0.9250 -0.0146
-22 3 4 5.1902 0.0274
-22 3 5 7.8161 -0.0404
-22 3 6 4.8325 -0.0146
-22 3 7 4.6083 -0.0061
-22 3 8 2.1667 -0.0007
-22 3 9 -3.4633 -0.0238
-22 3 10 0.7081 0.0075
-22 3 11 -5.3672 -0.0232
-22 3 12 -0.4569 -0.0257
-22 3 13 -3.7587 0.0545
-22 3 14 0.0707 -0.0285
-22 3 15 -0.3361 0.0377
-22 3 16 -0.0302 -0.0107
-22 3 17 1.7718 -0.0094
-22 3 18 0.4358 0.0382
-22 3 19 1.3735 -0.0671
-22 3 20 0.6176 0.0002
-22 3 21 0.2515 0.0047
-22 3 22 -0.7634 0.1934
-22 3 23 -0.9769 0.0912
-22 3 24 -0.7441 0.3090
-22 4 1 2.3328 -0.0286
-22 4 2 3.7687 -0.0370
-22 4 3 -0.5450 0.0034
-22 4 4 -3.9133 0.0119
-22 4 5 -1.6472 0.0074
-22 4 6 -6.2984 -0.0282
-22 4 7 0.4843 -0.0029
-22 4 8 -4.2844 -0.0057
-22 4 9 3.1392 0.0327
-22 4 10 0.4872 0.0011
-22 4 11 0.6756 0.0295
-22 4 12 3.7895 -0.0158
-22 4 13 -1.6488 -0.0068
-22 4 14 1.8219 0.0514
-22 4 15 -1.5867 -0.0379
-22 4 16 0.6489 0.0122
-22 4 17 -0.7229 0.0015
-22 4 18 -0.4408 -0.0320
-22 4 19 0.7057 0.0553
-22 4 20 -1.7319 0.0116
-22 4 21 0.0594 0.0805
-22 4 22 -0.5655 -0.1811
-22 4 23 0.0236 -0.0659
-22 5 1 -5.1028 0.0542
-22 5 2 -6.0014 0.0340
-22 5 3 -2.9364 0.0131
-22 5 4 -3.0863 0.0355
-22 5 5 2.6490 -0.0079
-22 5 6 4.9732 0.0192
-22 5 7 3.9883 0.0099
-22 5 8 6.4017 -0.0267
-22 5 9 -0.2328 -0.0407
-22 5 10 1.0270 -0.0240
-22 5 11 -2.5695 -0.0532
-22 5 12 -0.9920 -0.0424
-22 5 13 -3.2699 -0.0363
-22 5 14 -1.3924 -0.0218
-22 5 15 -0.3879 -0.0620
-22 5 16 -1.1804 -0.0038
-22 5 17 1.3310 -0.0040
-22 5 18 -0.3963 0.0220
-22 5 19 1.6098 -0.0083
-22 5 20 -0.7445 0.0387
-22 5 21 1.2683 -0.1788
-22 5 22 -0.9664 0.1853
-22 5 23 -0.6448 -0.0988
-22 6 1 0.2547 -0.0100
-22 6 2 1.3064 -0.0363
-22 6 3 2.9771 0.0108
-22 6 4 1.0266 0.0063
-22 6 5 2.0435 -0.0059
-22 6 6 -0.9223 0.0098
-22 6 7 0.5434 -0.0607
-22 6 8 -3.3761 -0.0497
-22 6 9 -0.7516 0.0165
-22 6 10 -0.9427 -0.0124
-22 6 11 -1.8096 0.0316
-22 6 12 3.1284 0.0245
-22 6 13 -1.1777 0.0146
-22 6 14 2.9401 0.0389
-22 6 15 -0.3475 0.0367
-22 6 16 0.6125 0.0405
-22 6 17 0.5831 -0.0299
-22 6 18 -1.5914 0.0475
-22 6 19 0.9926 -0.0873
-22 6 20 -0.4645 -0.0180
-22 6 21 -0.1074 -0.1197
-22 6 22 0.5482 -0.1702
-22 6 23 -0.0298 -0.1311
-22 7 1 1.5520 -0.0011
-22 7 2 -2.3778 -0.0346
-22 7 3 0.6250 0.0053
-22 7 4 -2.0556 -0.0249
-22 7 5 -1.9877 0.0439
-22 7 6 0.8916 0.0141
-22 7 7 -1.1089 0.0254
-22 7 8 3.5915 0.0065
-22 7 9 1.6546 -0.0191
-22 7 10 1.9142 0.0355
-22 7 11 0.7629 0.0151
-22 7 12 0.6904 0.0568
-22 7 13 -1.2046 0.0058
-22 7 14 -1.7668 0.0229
-22 7 15 -0.8955 0.0039
-22 7 16 -1.6681 -0.0358
-22 7 17 0.4421 -0.0196
-22 7 18 0.6404 0.0063
-22 7 19 0.7800 -0.0136
-22 7 20 0.6167 0.1747
-22 7 21 1.0279 0.0698
-22 7 22 0.0278 0.1278
-22 8 1 -1.4178 -0.0116
-22 8 2 -1.7538 0.0438
-22 8 3 -0.8084 0.0016
-22 8 4 -1.7209 0.0032
-22 8 5 0.6242 0.0162
-22 8 6 -0.1427 0.0059
-22 8 7 1.8570 -0.0365
-22 8 8 -0.2528 0.0150
-22 8 9 0.4359 -0.0053
-22 8 10 -0.2767 -0.0151
-22 8 11 -1.1768 -0.0122
-22 8 12 1.1490 -0.0245
-22 8 13 -0.6488 -0.0297
-22 8 14 1.4157 -0.0511
-22 8 15 0.2650 0.0033
-22 8 16 0.3333 -0.0176
-22 8 17 1.3595 0.0315
-22 8 18 -0.7218 -0.0026
-22 8 19 0.7316 0.1300
-22 8 20 -0.1554 -0.1100
-22 8 21 0.0673 0.0066
-22 8 22 -0.4123 -0.2434
-22 9 1 0.4871 0.0142
-22 9 2 1.3767 -0.0507
-22 9 3 1.7026 0.0027
-22 9 4 1.8348 -0.0379
-22 9 5 0.2720 0.0348
-22 9 6 1.6895 -0.0174
-22 9 7 -1.5224 0.0418
-22 9 8 0.9822 -0.0383
-22 9 9 -1.0091 0.0036
-22 9 10 0.0293 -0.0073
-22 9 11 0.3010 0.0109
-22 9 12 -0.1441 0.0176
-22 9 13 0.6130 -0.0250
-22 9 14 -0.4031 0.0257
-22 9 15 -1.5235 0.1211
-22 9 16 -0.5937 0.0420
-22 9 17 -1.4437 0.0872
-22 9 18 -0.0082 0.0339
-22 9 19 0.0142 -0.0820
-22 9 20 -0.5656 -0.0348
-22 9 21 0.6523 -0.0108
-22 10 1 2.0545 -0.0138
-22 10 2 0.3829 0.0269
-22 10 3 0.7781 -0.0476
-22 10 4 -1.9023 0.0116
-22 10 5 -0.3144 -0.0264
-22 10 6 -3.1714 -0.0251
-22 10 7 1.2004 -0.0159
-22 10 8 -0.6220 -0.0022
-22 10 9 2.0256 0.0355
-22 10 10 1.3439 0.0576
-22 10 11 0.5784 0.0674
-22 10 12 0.4865 0.0532
-22 10 13 0.3170 0.0038
-22 10 14 0.4808 -0.0062
-22 10 15 0.1737 -0.0249
-22 10 16 -1.0299 -0.0938
-22 10 17 1.9242 -0.0485
-22 10 18 -1.4929 -0.2255
-22 10 19 2.4229 -0.0493
-22 10 20 0.0036 -0.1224
-22 11 1 -0.8973 0.0159
-22 11 2 0.5831 -0.0038
-22 11 3 -0.8575 0.0273
-22 11 4 -0.3599 0.0198
-22 11 5 0.4983 -0.0090
-22 11 6 0.7566 0.0111
-22 11 7 0.9558 0.0300
-22 11 8 0.9901 0.0050
-22 11 9 -0.8818 -0.0586
-22 11 10 -0.4100 0.0175
-22 11 11 -0.5174 -0.0021
-22 11 12 -0.8662 0.0168
-22 11 13 0.0019 -0.0367
-22 11 14 0.0508 -0.0963
-22 11 15 -0.1877 -0.0724
-22 11 16 -0.0495 -0.0519
-22 11 17 -0.1229 -0.0172
-22 11 18 -0.8458 0.0619
-22 11 19 -0.1413 0.0137
-22 12 1 -0.6859 -0.0152
-22 12 2 0.0662 -0.0375
-22 12 3 -0.0468 -0.0104
-22 12 4 -1.3128 -0.0365
-22 12 5 0.0679 -0.0673
-22 12 6 -2.5688 -0.0154
-22 12 7 0.2507 -0.0406
-22 12 8 0.4538 -0.0254
-22 12 9 0.3877 0.0291
-22 12 10 1.9634 -0.0198
-22 12 11 0.2586 0.0163
-22 12 12 0.2452 -0.0187
-22 12 13 0.1028 -0.0350
-22 12 14 0.6839 0.0605
-22 12 15 0.3142 -0.0272
-22 12 16 -0.8099 0.0642
-22 12 17 0.0046 -0.0966
-22 12 18 -1.0961 -0.0752
-22 13 1 0.7538 -0.0201
-22 13 2 -2.0130 -0.0114
-22 13 3 0.8712 0.0546
-22 13 4 -1.2321 0.0267
-22 13 5 0.5830 0.0167
-22 13 6 1.4496 0.0773
-22 13 7 0.1203 0.0285
-22 13 8 0.9571 0.0376
-22 13 9 0.0179 -0.0372
-22 13 10 -0.5650 0.0054
-22 13 11 0.4059 0.0705
-22 13 12 -1.0019 0.1165
-22 13 13 -0.6081 0.0558
-22 13 14 -0.8706 -0.1338
-22 13 15 -0.2246 -0.3023
-22 13 16 0.0266 -0.2019
-22 13 17 0.3689 -0.2358
-22 14 1 0.5415 -0.0468
-22 14 2 0.7786 -0.0579
-22 14 3 0.8974 0.0023
-22 14 4 -0.2945 -0.0207
-22 14 5 -1.0305 -0.0317
-22 14 6 -0.6973 -0.0016
-22 14 7 -0.5744 0.0157
-22 14 8 -0.6618 -0.0242
-22 14 9 0.0336 -0.0640
-22 14 10 -0.8785 -0.0953
-22 14 11 0.3090 -0.2647
-22 14 12 0.6605 -0.0960
-22 14 13 -0.2911 -0.0196
-22 14 14 0.7252 0.0626
-22 14 15 0.3253 0.0189
-22 14 16 0.0540 0.0477
-22 15 1 1.2305 0.0478
-22 15 2 -0.6358 0.0117
-22 15 3 0.1434 0.0683
-22 15 4 -0.0326 -0.0532
-22 15 5 -1.3993 0.0148
-22 15 6 0.9941 0.0358
-22 15 7 -0.2969 0.0831
-22 15 8 0.2971 0.1576
-22 15 9 1.2181 0.2043
-22 15 10 -0.0463 0.2208
-22 15 11 0.6920 0.1462
-22 15 12 -0.9582 0.1161
-22 15 13 -0.6749 0.0014
-22 15 14 -1.8439 -0.2277
-22 16 1 0.5515 0.0546
-22 16 2 -0.7969 -0.0308
-22 16 3 0.5169 -0.0171
-22 16 4 0.3120 -0.0683
-22 16 5 -0.1924 -0.0843
-22 16 6 1.0394 -0.1079
-22 16 7 0.4034 -0.0005
-22 16 8 0.0089 -0.0654
-22 16 9 -0.4122 -0.1036
-22 16 10 -0.6655 -0.1687
-22 16 11 -1.0269 -0.2820
-22 16 12 1.2825 -0.1332
-22 17 1 0.8848 0.2289
-22 17 2 -0.1726 -0.0797
-22 17 3 1.5701 0.0444
-22 17 4 0.3306 -0.1262
-22 17 5 0.4434 -0.0801
-22 17 6 -0.1865 -0.0171
-22 17 7 -0.7175 0.1390
-22 17 8 -0.0948 0.1774
-22 17 9 0.0018 0.3766
-21 0 2 -5.5709 -0.0568
-21 0 4 -0.0235 -0.0248
-21 0 6 -0.3352 0.0405
-21 0 8 -3.0887 -0.0135
-21 0 10 -5.0169 -0.0229
-21 0 12 -3.6357 -0.0069
-21 0 14 0.5842 -0.0124
-21 0 16 1.5809 0.0032
-21 0 18 -0.0829 -0.0069
-21 0 20 -1.5063 -0.0508
-21 0 22 -2.5741 0.0316
-21 0 24 -1.0956 0.0623
-21 1 1 0.9744 0.0078
-21 1 2 2.3023 0.0059
-21 1 3 3.3158 0.0316
-21 1 4 3.5420 -0.0444
-21 1 5 -1.1405 0.0017
-21 1 6 -0.6435 0.0045
-21 1 7 -3.3270 -0.0043
-21 1 8 -1.1359 0.0014
-21 1 9 -6.5444 -0.0112
-21 1 10 1.8647 -0.0191
-21 1 11 -6.7697 -0.0039
-21 1 12 1.8166 0.0127
-21 1 13 -1.0556 0.0006
-21 1 14 0.7215 0.0109
-21 1 15 2.4111 -0.0072
-21 1 16 -0.1894 0.0714
-21 1 17 1.9013 0.0460
-21 1 18 -0.3828 -0.0277
-21 1 19 0.3783 0.0488
-21 1 20 -0.5902 0.0723
-21 1 21 -0.1149 -0.0101
-21 1 22 -1.3306 0.2872
-21 1 23 -0.6582 -0.0298
-21 1 24 -0.3532 0.1202
-21 2 1 -5.5169 -0.0143
-21 2 2 -3.1605 -0.0093
-21 2 3 -6.7751 -0.0128
-21 2 4 -3.3491 -0.0280
-21 2 5 1.4765 -0.0064
-21 2 6 -0.4038 -0.0415
-21 2 7 5.1110 -0.0096
-21 2 8 1.2630 0.0130
-21 2 9 4.5409 -0.0565
-21 2 10 0.1428 -0.0139
-21 2 11 0.8758 -0.0126
-21 2 12 -0.3599 0.0161
-21 2 13 -2.8140 0.0148
-21 2 14 -0.0981 0.0471
-21 2 15 -2.1969 0.0098
-21 2 16 0.3876 -0.0374
-21 2 17 -0.0646 0.0302
-21 2 18 -0.1823 -0.0933
-21 2 19 1.3344 -0.0341
-21 2 20 -1.0969 -0.0354
-21 2 21 1.5322 -0.1306
-21 2 22 -0.6784 -0.0006
-21 2 23 0.2125 -0.0062
-21 2 24 0.4309 -0.0891
-21 3 1 -2.7357 -0.0227
-21 3 2 2.4050 0.0071
-21 3 3 5.2427 -0.0370
-21 3 4 6.9977 0.0142
-21 3 5 8.0930 -0.0172
-21 3 6 4.6694 0.0116
-21 3 7 0.0700 -0.0009
-21 3 8 1.0861 0.0419
-21 3 9 -8.5777 -0.0162
-21 3 10 0.3547 0.0083
-21 3 11 -6.4613 0.0054
-21 3 12 -0.1310 -0.0243
-21 3 13 -1.3725 0.0610
-21 3 14 0.3029 -0.0175
-21 3 15 1.8764 0.0280
-21 3 16 -0.0378 0.0001
-21 3 17 2.4989 0.0073
-21 3 18 0.1762 0.0552
-21 3 19 1.0313 -0.0060
-21 3 20 0.0245 0.0558
-21 3 21 -1.0089 0.0890
-21 3 22 -1.1677 0.1779
-21 3 23 -1.8601 0.1193
-21 3 24 -0.2467 0.1312
-21 4 1 0.6569 -0.0086
-21 4 2 0.5122 0.0196
-21 4 3 -2.1203 0.0302
-21 4 4 -7.2564 0.0149
-21 4 5 -1.2146 0.0404
-21 4 6 -5.4602 -0.0453
-21 4 7 1.9921 -0.0027
-21 4 8 -0.6998 0.0015
-21 4 9 3.2899 0.0124
-21 4 10 3.3203 -0.0046
-21 4 11 -0.4069 0.0092
-21 4 12 3.9325 -0.0200
-21 4 13 -1.9886 -0.0518
-21 4 14 0.2645 0.0328
-21 4 15 -1.2362 -0.0542
-21 4 16 -0.6421 -0.0178
-21 4 17 -0.1160 0.0091
-21 4 18 -1.2707 -0.0218
-21 4 19 0.8976 0.0280
-21 4 20 -1.0823 -0.0087
-21 4 21 0.0649 -0.0407
-21 4 22 0.4282 -0.1799
-21 4 23 -0.2207 -0.1211
-21 4 24 0.0855 -0.1674
-21 5 1 -4.3578 0.0341
-21 5 2 -4.8820 0.0228
-21 5 3 0.1714 -0.0440
-21 5 4 0.9348 0.0353
-21 5 5 4.4175 -0.0107
-21 5 6 7.7464 0.0051
-21 5 7 2.2416 0.0029
-21 5 8 6.5893 -0.0321
-21 5 9 -3.8945 -0.0693
-21 5 10 0.0168 -0.0142
-21 5 11 -4.6587 -0.0443
-21 5 12 -2.3636 -0.0214
-21 5 13 -2.3375 -0.0272
-21 5 14 -2.0337 0.0192
-21 5 15 1.5061 -0.0247
-21 5 16 -1.1695 0.0327
-21 5 17 2.3354 0.0076
-21 5 18 -0.3328 0.0311
-21 5 19 1.4811 -0.0110
-21 5 20 -0.3307 0.0539
-21 5 21 0.0322 -0.0552
-21 5 22 -0.7227 0.1709
-21 5 23 -1.4189 -0.0233
-21 6 1 0.5220 0.0078
-21 6 2 1.1542 -0.0282
-21 6 3 2.2896 0.0007
-21 6 4 -0.2476 0.0043
-21 6 5 0.5150 -0.0227
-21 6 6 -1.9965 -0.0095
-21 6 7 -0.2762 -0.0174
-21 6 8 -2.5337 -0.0393
-21 6 9 -0.8635 0.0347
-21 6 10 1.9636 -0.0009
-21 6 11 -1.4562 0.0280
-21 6 12 4.1045 0.0251
-21 6 13 0.1207 0.0239
-21 6 14 1.2777 0.0253
-21 6 15 0.4283 0.0225
-21 6 16 -0.9244 -0.0266
-21 6 17 0.8809 -0.0292
-21 6 18 -1.8058 -0.0053
-21 6 19 0.7347 -0.1079
-21 6 20 0.2192 -0.0367
-21 6 21 -0.5617 -0.1263
-21 6 22 1.1601 -0.1458
-21 6 23 0.0925 -0.0321
-21 7 1 1.7624 0.0084
-21 7 2 -3.0094 -0.0106
-21 7 3 -0.1461 0.0141
-21 7 4 -0.9112 0.0447
-21 7 5 -2.2276 0.0256
-21 7 6 2.4627 0.0469
-21 7 7 -0.5638 -0.0052
-21 7 8 4.2039 0.0001
-21 7 9 1.1665 -0.0268
-21 7 10 1.3845 0.0330
-21 7 11 -0.5673 0.0200
-21 7 12 -0.7996 0.0039
-21 7 13 -1.1002 -0.0150
-21 7 14 -3.0791 -0.0237
-21 7 15 0.5218 -0.0216
-21 7 16 -1.2788 -0.0076
-21 7 17 1.0977 0.0004
-21 7 18 1.4868 0.0373
-21 7 19 0.7429 0.0632
-21 7 20 0.9196 0.1494
-21 7 21 0.8850 0.1104
-21 7 22 0.3441 0.0103
-21 8 1 -2.0795 0.0032
-21 8 2 -1.7892 0.0242
-21 8 3 -0.6903 0.0114
-21 8 4 -1.1515 -0.0349
-21 8 5 0.9203 -0.0198
-21 8 6 -0.3496 -0.0031
-21 8 7 1.4486 -0.0369
-21 8 8 -0.6993 -0.0098
-21 8 9 -0.5614 -0.0112
-21 8 10 0.5149 -0.0398
-21 8 11 -1.4838 -0.0323
-21 8 12 1.4562 -0.0342
-21 8 13 0.1166 0.0043
-21 8 14 0.7939 -0.0384
-21 8 15 0.6198 0.0399
-21 8 16 -0.7084 0.0074
-21 8 17 0.7922 0.0502
-21 8 18 -0.9316 -0.0359
-21 8 19 0.0335 0.0363
-21 8 20 0.0873 -0.1484
-21 8 21 -0.6032 -0.0602
-21 8 22 -0.3719 -0.1653
-21 9 1 2.0327 0.0014
-21 9 2 1.9069 -0.0439
-21 9 3 1.3378 0.0040
-21 9 4 1.7114 -0.0084
-21 9 5 -1.1674 0.0163
-21 9 6 1.2352 0.0176
-21 9 7 -2.6907 0.0046
-21 9 8 0.0109 -0.0030
-21 9 9 -1.0774 0.0009
-21 9 10 -0.3398 0.0196
-21 9 11 0.7948 0.0244
-21 9 12 -0.3412 0.0227
-21 9 13 0.6329 0.0264
-21 9 14 -0.8895 -0.0030
-21 9 15 -1.4346 0.0998
-21 9 16 -0.6014 0.0362
-21 9 17 -1.2183 -0.0046
-21 9 18 0.4404 0.0090
-21 9 19 0.4546 -0.0723
-21 9 20 -0.1851 -0.0886
-21 9 21 0.8483 0.0265
-21 10 1 1.2150 -0.0128
-21 10 2 -0.8517 0.0376
-21 10 3 0.1472 -0.0201
-21 10 4 -3.2112 -0.0097
-21 10 5 -0.3146 0.0019
-21 10 6 -2.6379 -0.0164
-21 10 7 1.9577 -0.0049
-21 10 8 0.6512 0.0379
-21 10 9 2.4311 0.0286
-21 10 10 1.1641 0.0689
-21 10 11 0.1175 0.0221
-21 10 12 -0.0144 0.0423
-21 10 13 -0.0902 -0.0218
-21 10 14 0.1272 -0.0314
-21 10 15 0.8880 -0.0332
-21 10 16 -1.6420 -0.0765
-21 10 17 2.5723 -0.0078
-21 10 18 -1.2933 -0.1078
-21 10 19 1.6335 0.0412
-21 10 20 0.3033 -0.0554
-21 10 21 -0.3304 0.0867
-21 11 1 -0.7716 0.0115
-21 11 2 0.8168 0.0203
-21 11 3 0.0298 -0.0067
-21 11 4 -0.0333 0.0026
-21 11 5 0.8075 -0.0254
-21 11 6 0.8939 -0.0282
-21 11 7 -0.6287 -0.0175
-21 11 8 -0.0006 -0.0055
-21 11 9 -1.4611 -0.0904
-21 11 10 -1.0584 0.0082
-21 11 11 0.2390 -0.0085
-21 11 12 -0.7644 0.0321
-21 11 13 0.2984 -0.0083
-21 11 14 0.5090 -0.0720
-21 11 15 0.4290 -0.0177
-21 11 16 -0.1064 0.0240
-21 11 17 -0.3336 -0.0110
-21 11 18 -0.9274 0.0201
-21 11 19 -0.5071 0.0346
-21 11 20 -0.4730 -0.2461
-21 12 1 -0.3630 -0.0028
-21 12 2 -0.4790 -0.0297
-21 12 3 0.1606 -0.0056
-21 12 4 -2.7134 -0.0201
-21 12 5 -0.0132 -0.0377
-21 12 6 -1.8682 -0.0221
-21 12 7 0.6093 0.0189
-21 12 8 1.3115 0.0115
-21 12 9 0.5663 0.0574
-21 12 10 1.8984 -0.0153
-21 12 11 0.0643 0.0081
-21 12 12 0.3948 0.0531
-21 12 13 -0.1967 0.0218
-21 12 14 0.0958 0.1014
-21 12 15 0.2678 -0.0052
-21 12 16 -1.4699 -0.0816
-21 12 17 0.1176 -0.1634
-21 12 18 -0.5421 -0.0359
-21 12 19 -0.5620 -0.1631
-21 13 1 0.1001 0.0109
-21 13 2 -1.7714 -0.0055
-21 13 3 0.8517 0.0416
-21 13 4 -0.3860 0.0589
-21 13 5 0.4682 -0.0059
-21 13 6 1.0617 0.0281
-21 13 7 -0.4241 -0.0088
-21 13 8 -0.2113 -0.0038
-21 13 9 0.3110 -0.0289
-21 13 10 -1.2365 0.0059
-21 13 11 0.4662 0.0597
-21 13 12 -1.2627 0.0240
-21 13 13 -0.5488 -0.0885
-21 13 14 -0.6561 -0.1595
-21 13 15 0.6806 -0.2899
-21 13 16 0.4292 -0.0722
-21 13 17 0.5654 -0.0844
-21 13 18 0.1824 -0.0178
-21 14 1 0.8445 -0.0455
-21 14 2 1.0461 -0.0666
-21 14 3 -0.0860 -0.0007
-21 14 4 -0.3066 -0.0112
-21 14 5 -1.0489 -0.0412
-21 14 6 -0.3433 -0.0188
-21 14 7 0.2275 0.0232
-21 14 8 -0.4776 -0.0169
-21 14 9 -0.0766 -0.0998
-21 14 10 0.3699 -0.0652
-21 14 11 0.7375 -0.1312
-21 14 12 1.5399 0.0531
-21 14 13 0.2287 0.1712
-21 14 14 0.0809 0.1641
-21 14 15 0.4621 -0.0519
-21 14 16 -0.4304 -0.0864
-21 15 1 0.6615 0.0580
-21 15 2 -0.2250 -0.0265
-21 15 3 -0.7719 0.0386
-21 15 4 0.5511 0.0103
-21 15 5 -1.4324 0.0081
-21 15 6 0.4570 0.0780
-21 15 7 0.4272 0.1102
-21 15 8 -0.2975 0.1728
-21 15 9 1.3549 0.1691
-21 15 10 -0.7463 0.1339
-21 15 11 -0.0132 -0.0053
-21 15 12 -1.6701 -0.1440
-21 15 13 -0.5138 -0.2361
-21 15 14 -1.8260 -0.1966
-21 15 15 0.2495 -0.3434
-21 16 1 1.0975 0.0511
-21 16 2 -0.6822 -0.0320
-21 16 3 0.3102 -0.0264
-21 16 4 0.9788 -0.0936
-21 16 5 0.0811 -0.1156
-21 16 6 1.0000 -0.1369
-21 16 7 0.1848 -0.0132
-21 16 8 -0.3709 -0.0770
-21 16 9 -0.9618 -0.1299
-21 16 10 0.1727 -0.0448
-21 16 11 -0.5329 -0.0194
-21 16 12 1.9670 0.0604
-21 16 13 0.0573 0.4003
-21 17 1 1.1303 0.1832
-21 17 2 0.0787 -0.0805
-21 17 3 0.9705 -0.0042
-21 17 4 0.4145 -0.0392
-21 17 5 -0.1435 0.0054
-21 17 6 -0.3642 0.0459
-21 17 7 -0.4206 0.2793
-21 17 8 -0.3183 0.1827
-21 17 9 0.2224 0.2710
-21 17 10 0.2826 0.1980
-20 0 2 -5.0755 -0.0540
-20 0 4 3.0135 0.0052
-20 0 6 0.6889 0.0343
-20 0 8 -4.5934 -0.0353
-20 0 10 -6.7185 -0.0088
-20 0 12 -3.8752 0.0114
-20 0 14 1.1426 -0.0101
-20 0 16 1.5240 0.0022
-20 0 18 -0.2759 -0.0121
-20 0 20 -2.0547 0.0011
-20 0 22 -2.1990 0.0571
-20 0 24 -0.4795 0.0149
-20 1 1 2.9988 0.0142
-20 1 2 3.6465 0.0082
-20 1 3 1.1622 0.0111
-20 1 4 2.9851 -0.0296
-20 1 5 -5.6755 -0.0127
-20 1 6 -1.2377 0.0176
-20 1 7 -7.8655 0.0034
-20 1 8 -0.6617 -0.0131
-20 1 9 -7.8426 -0.0126
-20 1 10 2.9226 -0.0244
-20 1 11 -4.0300 -0.0160
-20 1 12 2.4445 0.0123
-20 1 13 1.6467 0.0040
-20 1 14 0.1435 0.0168
-20 1 15 3.4381 -0.0038
-20 1 16 -0.8436 0.0479
-20 1 17 1.6908 0.0494
-20 1 18 -0.4525 -0.0649
-20 1 19 0.1958 -0.0096
-20 1 20 -0.5711 0.0588
-20 1 21 -0.4893 -0.0694
-20 1 22 -0.8636 0.1396
-20 1 23 -1.0886 0.0445
-20 1 24 0.3460 -0.0594
-20 2 1 -8.2937 -0.0148
-20 2 2 -4.3414 -0.0039
-20 2 3 -5.2176 -0.0141
-20 2 4 -1.5281 -0.0070
-20 2 5 5.3547 -0.0434
-20 2 6 2.4835 -0.0072
-20 2 7 7.1371 -0.0338
-20 2 8 2.3566 0.0290
-20 2 9 3.2902 -0.0164
-20 2 10 -1.3413 0.0135
-20 2 11 -1.3057 0.0250
-20 2 12 -2.1774 0.0359
-20 2 13 -3.7208 0.0267
-20 2 14 -0.8152 0.0142
-20 2 15 -1.7405 0.0289
-20 2 16 0.1938 -0.0683
-20 2 17 0.6506 0.0081
-20 2 18 0.0985 -0.0450
-20 2 19 1.8154 -0.0475
-20 2 20 -0.6366 0.0467
-20 2 21 1.0688 -0.0497
-20 2 22 -0.2571 0.0199
-20 2 23 -1.0746 0.0785
-20 2 24 0.5791 -0.1026
-20 3 1 1.8481 -0.0560
-20 3 2 4.9584 -0.0120
-20 3 3 7.4167 -0.0059
-20 3 4 7.4282 0.0280
-20 3 5 4.6000 0.0178
-20 3 6 3.4560 0.0593
-20 3 7 -6.3391 0.0023
-20 3 8 -0.1246 0.0454
-20 3 9 -11.3096 0.0028
-20 3 10 -0.0271 -0.0097
-20 3 11 -4.0912 0.0230
-20 3 12 0.1291 -0.0162
-20 3 13 2.3344 0.0432
-20 3 14 0.2919 -0.0067
-20 3 15 3.4336 0.0021
-20 3 16 -0.5433 0.0126
-20 3 17 2.1687 0.0148
-20 3 18 -0.2769 0.0493
-20 3 19 -0.0915 0.0191
-20 3 20 -0.3117 0.0576
-20 3 21 -2.2289 0.1043
-20 3 22 -0.7583 0.0618
-20 3 23 -2.1274 0.0879
-20 3 24 0.5012 -0.0420
-20 4 1 -1.3268 0.0251
-20 4 2 -2.6993 0.0369
-20 4 3 -2.2727 0.0424
-20 4 4 -8.1046 -0.0274
-20 4 5 0.6041 0.0333
-20 4 6 -2.2709 -0.0445
-20 4 7 3.7834 -0.0273
-20 4 8 3.0424 0.0124
-20 4 9 3.4520 0.0004
-20 4 10 3.8936 -0.0197
-20 4 11 -0.9887 -0.0145
-20 4 12 1.7227 -0.0220
-20 4 13 -1.9474 -0.0687
-20 4 14 -1.8127 0.0098
-20 4 15 -0.6137 -0.0294
-20 4 16 -1.5033 -0.0114
-20 4 17 0.4232 0.0164
-20 4 18 -1.0208 0.0124
-20 4 19 0.8497 0.0014
-20 4 20 0.4075 -0.0182
-20 4 21 -0.0570 -0.0829
-20 4 22 1.1377 -0.0958
-20 4 23 -0.9510 -0.0578
-20 4 24 -0.1979 -0.0685
-20 5 1 -2.0838 -0.0197
-20 5 2 -2.5408 0.0094
-20 5 3 2.7816 -0.0580
-20 5 4 4.8272 0.0217
-20 5 5 3.5991 0.0157
-20 5 6 8.9406 0.0030
-20 5 7 -1.9061 -0.0127
-20 5 8 5.1518 -0.0093
-20 5 9 -7.1349 -0.0571
-20 5 10 -2.4767 0.0100
-20 5 11 -4.1803 -0.0000
-20 5 12 -4.2577 0.0098
-20 5 13 0.5614 -0.0075
-20 5 14 -2.0691 0.0376
-20 5 15 3.3709 -0.0008
-20 5 16 -0.7076 0.0149
-20 5 17 2.4435 -0.0109
-20 5 18 0.1670 0.0115
-20 5 19 0.3407 0.0067
-20 5 20 0.1451 0.0396
-20 5 21 -1.2310 0.0276
-20 5 22 -0.5829 0.0639
-20 5 23 -1.4315 -0.0441
-20 6 1 0.1328 0.0112
-20 6 2 0.1278 -0.0035
-20 6 3 1.7327 -0.0160
-20 6 4 -0.9322 -0.0135
-20 6 5 0.0695 0.0014
-20 6 6 -1.5777 -0.0207
-20 6 7 -0.2586 0.0245
-20 6 8 -0.2922 -0.0235
-20 6 9 -0.0443 0.0199
-20 6 10 4.1021 -0.0148
-20 6 11 -0.2274 0.0234
-20 6 12 2.7700 0.0103
-20 6 13 1.2636 0.0232
-20 6 14 -1.0518 -0.0208
-20 6 15 0.6018 0.0167
-20 6 16 -1.5949 -0.0738
-20 6 17 0.5626 -0.0097
-20 6 18 -1.0549 0.0025
-20 6 19 -0.0107 -0.0944
-20 6 20 1.2298 -0.0175
-20 6 21 -0.6659 -0.0536
-20 6 22 1.4344 -0.0615
-20 6 23 0.4598 0.0915
-20 7 1 1.9785 0.0167
-20 7 2 -2.8918 0.0483
-20 7 3 -0.9826 0.0032
-20 7 4 0.7921 0.0849
-20 7 5 -2.0111 -0.0023
-20 7 6 3.5342 0.0191
-20 7 7 -0.5481 -0.0246
-20 7 8 3.5790 -0.0117
-20 7 9 0.2213 -0.0170
-20 7 10 -0.5648 0.0123
-20 7 11 -0.8119 0.0129
-20 7 12 -2.9196 -0.0476
-20 7 13 -0.0681 -0.0433
-20 7 14 -3.4082 -0.0178
-20 7 15 1.4244 -0.0106
-20 7 16 0.0527 0.0219
-20 7 17 0.9149 0.0375
-20 7 18 2.4365 0.0351
-20 7 19 0.2685 0.0757
-20 7 20 1.2405 0.0488
-20 7 21 0.5721 0.0743
-20 7 22 0.3932 -0.1370
-20 7 23 -0.3042 0.0861
-20 8 1 -2.7483 -0.0036
-20 8 2 -1.9318 -0.0091
-20 8 3 -0.5076 -0.0065
-20 8 4 -0.6678 -0.0503
-20 8 5 1.2270 -0.0334
-20 8 6 -0.2704 -0.0147
-20 8 7 1.0038 -0.0121
-20 8 8 -0.2880 -0.0364
-20 8 9 -1.3844 -0.0153
-20 8 10 1.3130 -0.0438
-20 8 11 -1.0877 -0.0114
-20 8 12 0.8683 -0.0058
-20 8 13 1.0085 0.0357
-20 8 14 -0.0688 -0.0034
-20 8 15 0.1075 0.0417
-20 8 16 -1.0840 -0.0074
-20 8 17 -0.2353 0.0334
-20 8 18 -0.5834 -0.0640
-20 8 19 -0.6037 -0.0377
-20 8 20 0.3403 -0.1137
-20 8 21 -1.0226 -0.0070
-20 8 22 -0.3992 -0.0713
-20 9 1 3.2723 0.0168
-20 9 2 1.9201 -0.0074
-20 9 3 -0.0957 0.0012
-20 9 4 1.0592 0.0422
-20 9 5 -2.7766 -0.0137
-20 9 6 0.2309 0.0532
-20 9 7 -3.5835 -0.0011
-20 9 8 -0.8613 0.0181
-20 9 9 -0.4389 0.0144
-20 9 10 -0.3193 0.0161
-20 9 11 1.5426 0.0366
-20 9 12 -0.7290 -0.0105
-20 9 13 0.5425 0.0246
-20 9 14 -1.2325 -0.0180
-20 9 15 -1.4439 0.0192
-20 9 16 0.0193 0.0292
-20 9 17 -1.0278 -0.0249
-20 9 18 1.1488 -0.0214
-20 9 19 0.9320 -0.0189
-20 9 20 0.2090 -0.1312
-20 9 21 1.0211 0.0454
-20 9 22 0.2580 -0.1788
-20 10 1 0.4491 -0.0176
-20 10 2 -2.1109 0.0222
-20 10 3 -0.2741 0.0175
-20 10 4 -3.5439 -0.0292
-20 10 5 0.3254 -0.0001
-20 10 6 -1.2456 -0.0014
-20 10 7 2.9761 -0.0116
-20 10 8 1.2807 0.0462
-20 10 9 1.7833 0.0083
-20 10 10 0.3814 0.0417
-20 10 11 -0.9212 -0.0137
-20 10 12 -0.4081 0.0112
-20 10 13 -0.1910 -0.0129
-20 10 14 -0.1536 -0.0143
-20 10 15 1.5552 -0.0194
-20 10 16 -1.8120 -0.0145
-20 10 17 2.4525 0.0725
-20 10 18 -0.8964 -0.0353
-20 10 19 0.4826 0.1059
-20 10 20 0.4980 -0.0568
-20 10 21 -0.7745 0.0185
-20 11 1 0.0747 -0.0006
-20 11 2 1.3580 0.0245
-20 11 3 0.5169 -0.0255
-20 11 4 0.3997 -0.0361
-20 11 5 -0.2738 -0.0358
-20 11 6 0.3947 -0.0410
-20 11 7 -1.9472 -0.0501
-20 11 8 -1.1014 -0.0057
-20 11 9 -0.7140 -0.0732
-20 11 10 -1.1264 0.0165
-20 11 11 1.0991 0.0234
-20 11 12 -0.3941 0.0400
-20 11 13 0.6626 0.0466
-20 11 14 0.7132 -0.0400
-20 11 15 0.6701 -0.0045
-20 11 16 -0.1968 0.0507
-20 11 17 -0.9935 -0.0248
-20 11 18 -0.6022 -0.0861
-20 11 19 -0.5848 0.0992
-20 11 20 -0.0991 -0.2490
-20 12 1 -0.1244 0.0111
-20 12 2 -1.7987 0.0069
-20 12 3 0.0850 0.0333
-20 12 4 -3.0839 -0.0121
-20 12 5 0.1266 0.0145
-20 12 6 -0.4416 0.0013
-20 12 7 0.7312 0.0596
-20 12 8 1.3801 0.0334
-20 12 9 0.0414 0.0459
-20 12 10 1.6013 -0.0215
-20 12 11 -0.4824 -0.0004
-20 12 12 0.1638 0.0912
-20 12 13 -0.5478 0.0724
-20 12 14 -0.8665 0.0281
-20 12 15 0.3506 -0.0437
-20 12 16 -1.3635 -0.1678
-20 12 17 -0.0892 -0.1694
-20 12 18 0.3696 0.0775
-20 12 19 -1.1662 -0.0436
-20 13 1 -0.1453 -0.0002
-20 13 2 -1.0270 -0.0064
-20 13 3 0.8119 -0.0033
-20 13 4 -0.0882 0.0272
-20 13 5 -0.1797 -0.0389
-20 13 6 0.2789 -0.0524
-20 13 7 -0.3917 -0.0514
-20 13 8 -1.0837 -0.0285
-20 13 9 0.8518 -0.0063
-20 13 10 -1.8107 -0.0088
-20 13 11 0.6573 -0.0055
-20 13 12 -1.1766 -0.0390
-20 13 13 0.3507 -0.1254
-20 13 14 -0.1623 -0.0691
-20 13 15 1.3688 -0.1429
-20 13 16 0.8784 0.0674
-20 13 17 0.1791 0.0048
-20 13 18 0.3940 -0.0590
-20 14 1 0.4517 -0.0243
-20 14 2 0.9436 -0.0094
-20 14 3 -0.6175 0.0100
-20 14 4 -0.1624 0.0166
-20 14 5 -0.2856 0.0038
-20 14 6 0.1114 0.0114
-20 14 7 0.5244 0.0365
-20 14 8 0.0496 0.0157
-20 14 9 -0.3147 -0.0703
-20 14 10 1.6010 0.0007
-20 14 11 1.2174 0.0399
-20 14 12 1.1553 0.1687
-20 14 13 0.3151 0.1687
-20 14 14 -1.0995 0.0549
-20 14 15 0.2855 -0.2277
-20 14 16 -0.6154 -0.2148
-20 14 17 -0.1479 -0.4167
-20 15 1 -0.2607 0.0300
-20 15 2 0.3368 -0.0517
-20 15 3 -1.4017 -0.0296
-20 15 4 0.2631 0.0356
-20 15 5 -0.8576 -0.0130
-20 15 6 -0.0819 0.0397
-20 15 7 1.1845 0.0653
-20 15 8 -0.6863 0.1130
-20 15 9 0.8978 0.0486
-20 15 10 -1.6062 -0.0673
-20 15 11 -0.4000 -0.1716
-20 15 12 -1.7644 -0.2476
-20 15 13 0.1626 -0.2857
-20 15 14 -1.1272 0.0488
-20 15 15 0.3589 -0.1484
-20 16 1 0.9745 0.0681
-20 16 2 -0.2200 -0.0102
-20 16 3 0.1459 -0.0351
-20 16 4 1.1358 -0.0878
-20 16 5 0.3943 -0.0698
-20 16 6 0.4263 -0.0915
-20 16 7 -0.1091 0.0341
-20 16 8 -0.1598 0.0442
-20 16 9 -0.9378 -0.0221
-20 16 10 1.0880 0.1258
-20 16 11 0.0710 0.2374
-20 16 12 1.9447 0.1186
-20 16 13 0.1534 0.3165
-20 17 1 0.9276 0.1203
-20 17 2 0.6282 -0.0404
-20 17 3 0.1611 -0.0462
-20 17 4 0.2520 0.0082
-20 17 5 -0.2740 0.0855
-20 17 6 -0.7036 0.0063
-20 17 7 0.0822 0.2429
-20 17 8 -0.6957 0.1170
-20 17 9 0.2396 -0.0162
-20 17 10 -0.0863 0.0323
-20 17 11 -0.0870 -0.2818
-20 18 1 0.3884 0.1712
-20 18 2 -0.0074 -0.0088
-20 18 3 -0.9451 0.0149
-20 18 4 0.8479 -0.2280
-20 18 5 -0.0891 -0.0011
-20 18 6 0.7016 -0.2136
-20 18 7 0.1225 0.0799
-19 0 2 -1.6185 -0.0183
-19 0 4 6.7562 0.0021
-19 0 6 -0.6306 0.0105
-19 0 8 -9.0677 -0.0237
-19 0 10 -9.0093 0.0213
-19 0 12 -2.7251 0.0173
-19 0 14 2.1004 -0.0072
-19 0 16 1.5266 0.0095
-19 0 18 -0.3568 0.0117
-19 0 20 -2.0660 0.0342
-19 0 22 -1.5944 0.0299
-19 0 24 -0.4011 -0.0115
-19 1 1 2.8157 -0.0162
-19 1 2 4.0131 0.0164
-19 1 3 -4.3508 -0.0075
-19 1 4 2.0497 -0.0076
-19 1 5 -10.9785 -0.0008
-19 1 6 -1.5351 -0.0007
-19 1 7 -9.9038 0.0113
-19 1 8 0.5526 -0.0299
-19 1 9 -5.7130 -0.0310
-19 1 10 4.0170 -0.0103
-19 1 11 -0.1581 -0.0199
-19 1 12 2.4620 0.0149
-19 1 13 3.5632 0.0071
-19 1 14 -0.8362 0.0178
-19 1 15 3.2584 -0.0234
-19 1 16 -1.3369 0.0224
-19 1 17 0.8702 0.0034
-19 1 18 -0.2574 -0.0921
-19 1 19 -0.0030 -0.0680
-19 1 20 -0.1522 0.0264
-19 1 21 -0.8932 -0.0373
-19 1 22 -0.1457 0.0293
-19 1 23 -0.8239 0.1013
-19 1 24 0.6288 -0.0954
-19 2 1 -8.6823 -0.0104
-19 2 2 -3.4822 0.0014
-19 2 3 -1.4399 -0.0349
-19 2 4 1.6751 0.0247
-19 2 5 9.4839 -0.0554
-19 2 6 4.2224 0.0174
-19 2 7 8.3580 0.0056
-19 2 8 0.1825 0.0444
-19 2 9 1.0057 0.0322
-19 2 10 -5.0561 0.0435
-19 2 11 -3.4496 0.0283
-19 2 12 -3.6854 0.0335
-19 2 13 -3.4538 0.0216
-19 2 14 -0.4186 -0.0089
-19 2 15 -0.6079 0.0273
-19 2 16 0.9433 -0.0469
-19 2 17 1.0872 -0.0076
-19 2 18 0.7077 0.0455
-19 2 19 1.6284 -0.0205
-19 2 20 -0.2680 0.0819
-19 2 21 -0.1900 0.0238
-19 2 22 -0.1121 -0.0201
-19 2 23 -2.1783 0.0614
-19 2 24 0.3335 -0.0855
-19 3 1 5.2515 -0.0302
-19 3 2 6.5240 -0.0110
-19 3 3 6.4128 0.0436
-19 3 4 6.3357 0.0588
-19 3 5 -1.6095 0.0276
-19 3 6 1.2543 0.0622
-19 3 7 -11.5174 0.0065
-19 3 8 -1.3530 0.0046
-19 3 9 -9.6989 0.0158
-19 3 10 -0.4746 -0.0099
-19 3 11 0.7759 0.0149
-19 3 12 0.1614 -0.0035
-19 3 13 5.5878 0.0081
-19 3 14 -0.1747 0.0008
-19 3 15 3.4948 -0.0316
-19 3 16 -1.1159 0.0138
-19 3 17 0.8322 0.0129
-19 3 18 -0.3757 0.0171
-19 3 19 -1.4384 0.0226
-19 3 20 -0.0457 0.0244
-19 3 21 -2.7220 0.0852
-19 3 22 0.2527 -0.0563
-19 3 23 -1.4403 0.0368
-19 3 24 0.8486 -0.0910
-19 4 1 -2.3887 0.0364
-19 4 2 -4.4913 -0.0117
-19 4 3 -0.5371 0.0195
-19 4 4 -6.3591 -0.0523
-19 4 5 3.4274 0.0027
-19 4 6 1.3772 -0.0120
-19 4 7 5.5877 -0.0318
-19 4 8 4.5288 0.0094
-19 4 9 3.4118 0.0051
-19 4 10 1.5604 -0.0262
-19 4 11 -1.9422 -0.0246
-19 4 12 -1.7166 -0.0091
-19 4 13 -2.1020 -0.0442
-19 4 14 -3.2325 0.0019
-19 4 15 0.1602 0.0046
-19 4 16 -1.2702 0.0266
-19 4 17 0.7738 0.0103
-19 4 18 0.2869 0.0348
-19 4 19 0.6653 -0.0116
-19 4 20 1.8009 -0.0074
-19 4 21 -0.4759 -0.0589
-19 4 22 0.8504 0.0173
-19 4 23 -1.7029 0.0093
-19 4 24 -0.9815 -0.0366
-19 5 1 0.1056 -0.0337
-19 5 2 0.0693 -0.0045
-19 5 3 3.5079 -0.0231
-19 5 4 7.5064 0.0099
-19 5 5 0.2560 0.0292
-19 5 6 8.2897 0.0229
-19 5 7 -6.2139 -0.0172
-19 5 8 2.0186 0.0200
-19 5 9 -7.2495 -0.0013
-19 5 10 -5.4589 0.0248
-19 5 11 -0.7090 0.0349
-19 5 12 -5.0071 0.0188
-19 5 13 3.6223 -0.0060
-19 5 14 -0.9957 0.0195
-19 5 15 3.6900 -0.0168
-19 5 16 0.2348 -0.0247
-19 5 17 1.2188 -0.0305
-19 5 18 0.8708 -0.0067
-19 5 19 -1.2771 0.0444
-19 5 20 0.3192 -0.0005
-19 5 21 -1.7819 0.0372
-19 5 22 -0.4528 -0.0580
-19 5 23 -0.6882 -0.0888
-19 5 24 0.1598 -0.1510
-19 6 1 0.0207 0.0006
-19 6 2 -0.7733 0.0027
-19 6 3 2.2026 -0.0042
-19 6 4 -0.3488 -0.0384
-19 6 5 0.8035 0.0354
-19 6 6 -0.1163 -0.0149
-19 6 7 0.4280 0.0219
-19 6 8 1.6484 -0.0281
-19 6 9 1.5651 -0.0100
-19 6 10 3.9236 -0.0388
-19 6 11 1.1815 0.0264
-19 6 12 -0.0145 -0.0034
-19 6 13 1.6329 0.0238
-19 6 14 -2.4581 -0.0633
-19 6 15 0.0221 0.0246
-19 6 16 -0.9807 -0.0507
-19 6 17 -0.2204 0.0116
-19 6 18 0.3286 0.0405
-19 6 19 -0.4255 -0.0500
-19 6 20 1.9662 0.0112
-19 6 21 -0.0159 0.0343
-19 6 22 1.1785 0.0315
-19 6 23 0.7867 0.1374
-19 7 1 1.8843 0.0092
-19 7 2 -2.3894 0.0828
-19 7 3 -2.3440 -0.0143
-19 7 4 2.2207 0.0513
-19 7 5 -2.2240 -0.0199
-19 7 6 3.4065 -0.0224
-19 7 7 -1.2867 -0.0273
-19 7 8 1.3722 -0.0039
-19 7 9 -0.1608 -0.0008
-19 7 10 -3.3414 -0.0174
-19 7 11 0.2380 -0.0130
-19 7 12 -4.2878 -0.0537
-19 7 13 0.9192 -0.0473
-19 7 14 -2.1974 0.0185
-19 7 15 1.3746 0.0242
-19 7 16 1.7685 0.0255
-19 7 17 0.1181 0.0310
-19 7 18 2.9243 -0.0020
-19 7 19 -0.1920 0.0295
-19 7 20 1.0527 -0.0811
-19 7 21 0.5545 0.0313
-19 7 22 0.0160 -0.1955
-19 7 23 -0.3783 0.0600
-19 8 1 -2.5262 -0.0243
-19 8 2 -1.6641 -0.0158
-19 8 3 0.3938 -0.0056
-19 8 4 0.1814 -0.0494
-19 8 5 1.9211 -0.0051
-19 8 6 0.4374 -0.0312
-19 8 7 0.3756 0.0122
-19 8 8 0.2033 -0.0382
-19 8 9 -2.2128 -0.0094
-19 8 10 1.1825 -0.0134
-19 8 11 -0.4692 0.0174
-19 8 12 -0.0741 0.0379
-19 8 13 1.1696 0.0227
-19 8 14 -0.3262 -0.0069
-19 8 15 -1.1876 0.0207
-19 8 16 -0.7824 -0.0444
-19 8 17 -1.1165 0.0010
-19 8 18 -0.0973 -0.0347
-19 8 19 -0.8992 -0.0501
-19 8 20 0.3853 -0.0556
-19 8 21 -0.9125 0.1029
-19 8 22 -0.3923 -0.0195
-19 9 1 3.2067 0.0299
-19 9 2 1.5818 0.0318
-19 9 3 -2.4413 -0.0217
-19 9 4 0.1828 0.0779
-19 9 5 -4.0376 -0.0226
-19 9 6 -0.7264 0.0563
-19 9 7 -3.3598 0.0135
-19 9 8 -1.1942 0.0074
-19 9 9 1.2665 0.0135
-19 9 10 -0.6128 -0.0170
-19 9 11 2.1231 0.0209
-19 9 12 -1.5852 -0.0316
-19 9 13 0.0090 -0.0199
-19 9 14 -1.0531 -0.0094
-19 9 15 -1.5416 -0.0207
-19 9 16 0.8970 0.0153
-19 9 17 -0.6785 0.0222
-19 9 18 1.4191 -0.0263
-19 9 19 1.3714 0.0109
-19 9 20 0.0888 -0.1625
-19 9 21 1.0278 0.0627
-19 9 22 0.1187 -0.1985
-19 10 1 0.1288 -0.0092
-19 10 2 -2.7609 -0.0001
-19 10 3 -0.3011 0.0355
-19 10 4 -2.5292 -0.0385
-19 10 5 1.4427 -0.0228
-19 10 6 0.5111 0.0000
-19 10 7 3.1438 -0.0069
-19 10 8 1.2865 0.0266
-19 10 9 0.0731 -0.0067
-19 10 10 -0.2549 -0.0019
-19 10 11 -1.5447 -0.0214
-19 10 12 -0.4865 0.0116
-19 10 13 0.2157 0.0069
-19 10 14 -0.1941 0.0385
-19 10 15 2.0496 0.0115
-19 10 16 -1.4874 0.0094
-19 10 17 2.0584 0.1413
-19 10 18 -0.4590 -0.0196
-19 10 19 -0.2552 0.0781
-19 10 20 0.5855 -0.0728
-19 10 21 -0.5898 -0.0678
-19 11 1 0.8730 -0.0009
-19 11 2 1.8652 0.0040
-19 11 3 -0.1631 -0.0189
-19 11 4 0.0971 -0.0472
-19 11 5 -1.7615 -0.0307
-19 11 6 -0.5671 -0.0275
-19 11 7 -1.8686 -0.0390
-19 11 8 -1.6280 0.0038
-19 11 9 0.5601 -0.0170
-19 11 10 -0.7889 0.0268
-19 11 11 1.3599 0.0634
-19 11 12 -0.1890 0.0338
-19 11 13 0.6616 0.0669
-19 11 14 0.5822 -0.0054
-19 11 15 0.1187 -0.0314
-19 11 16 -0.1514 0.0072
-19 11 17 -1.6933 0.0025
-19 11 18 -0.0921 -0.1395
-19 11 19 -0.3936 0.1656
-19 11 20 -0.0426 -0.1012
-19 12 1 -0.2273 0.0391
-19 12 2 -2.6923 0.0256
-19 12 3 -0.1073 0.0701
-19 12 4 -2.1511 -0.0163
-19 12 5 0.3762 0.0333
-19 12 6 0.3560 0.0229
-19 12 7 0.2598 0.0517
-19 12 8 0.7215 0.0034
-19 12 9 -0.8550 -0.0014
-19 12 10 1.3520 -0.0383
-19 12 11 -0.9351 0.0114
-19 12 12 -0.6014 0.0695
-19 12 13 -0.6621 0.0872
-19 12 14 -1.5522 -0.0605
-19 12 15 0.4901 -0.0954
-19 12 16 -0.5428 -0.1458
-19 12 17 -0.4108 -0.0843
-19 12 18 1.1242 0.1686
-19 12 19 -1.2684 0.0166
-19 13 1 -0.0229 -0.0381
-19 13 2 -0.3870 -0.0192
-19 13 3 0.1327 -0.0208
-19 13 4 -0.0857 -0.0257
-19 13 5 -0.6491 -0.0584
-19 13 6 -0.1036 -0.0864
-19 13 7 0.4790 -0.0412
-19 13 8 -1.6272 -0.0098
-19 13 9 1.2130 0.0256
-19 13 10 -2.0531 -0.0124
-19 13 11 1.1774 -0.0551
-19 13 12 -0.5051 -0.0339
-19 13 13 1.2759 -0.0221
-19 13 14 0.3871 0.0722
-19 13 15 0.8987 -0.0295
-19 13 16 1.1878 0.1039
-19 13 17 -0.5486 0.0307
-19 13 18 0.3106 -0.1434
-19 14 1 0.0330 -0.0023
-19 14 2 0.5260 0.0468
-19 14 3 -0.5223 0.0302
-19 14 4 0.1010 0.0257
-19 14 5 0.2290 0.0412
-19 14 6 0.5941 0.0414
-19 14 7 0.2390 0.0171
-19 14 8 0.9478 0.0106
-19 14 9 -0.3564 -0.0118
-19 14 10 2.0610 0.0506
-19 14 11 1.3660 0.1022
-19 14 12 -0.1654 0.1312
-19 14 13 -0.0505 0.0003
-19 14 14 -1.5962 -0.1431
-19 14 15 -0.1466 -0.3203
-19 14 16 -0.1355 -0.1837
-19 14 17 -0.5218 -0.2991
-19 15 1 -0.8698 -0.0173
-19 15 2 0.3741 -0.0540
-19 15 3 -1.4344 -0.0775
-19 15 4 -0.3929 0.0175
-19 15 5 -0.0124 -0.0360
-19 15 6 -0.1975 -0.0059
-19 15 7 1.3586 -0.0028
-19 15 8 -1.1439 0.0201
-19 15 9 0.2055 -0.0485
-19 15 10 -2.2002 -0.2005
-19 15 11 -0.1075 -0.2088
-19 15 12 -1.0247 -0.1012
-19 15 13 0.8042 -0.1415
-19 15 14 -0.0962 0.2638
-19 15 15 0.0488 0.0199
-19 15 16 0.9535 0.0250
-19 16 1 0.7031 0.0761
-19 16 2 -0.0279 0.0047
-19 16 3 0.3980 -0.0266
-19 16 4 0.6948 -0.0594
-19 16 5 0.4957 0.0142
-19 16 6 0.1165 0.0246
-19 16 7 -0.3121 0.0776
-19 16 8 0.6689 0.1743
-19 16 9 -0.6533 0.1119
-19 16 10 1.4028 0.1571
-19 16 11 0.2335 0.2674
-19 16 12 1.4422 0.0176
-19 16 13 -0.0276 0.0856
-19 16 14 0.1891 -0.0115
-19 17 1 0.4320 0.0759
-19 17 2 0.9662 0.0289
-19 17 3 -0.2458 -0.0712
-19 17 4 -0.3144 -0.0215
-19 17 5 0.0450 0.1059
-19 17 6 -1.1281 -0.0425
-19 17 7 0.4679 0.0375
-19 17 8 -0.9003 0.0676
-19 17 9 0.2622 -0.2306
-19 17 10 -0.1335 -0.0502
-19 17 11 -0.1250 -0.1681
-19 18 1 -0.1058 0.1619
-19 18 2 0.1738 -0.0407
-19 18 3 -1.1382 0.0183
-19 18 4 0.7820 -0.1925
-19 18 5 0.0284 0.1052
-19 18 6 0.5045 -0.0311
-19 18 7 0.3528 0.0823
-19 18 8 0.0456 0.2959
-18 0 2 3.8074 -0.0062
-18 0 4 7.7843 -0.0288
-18 0 6 -6.1002 0.0154
-18 0 8 -14.9273 0.0060
-18 0 10 -9.4448 0.0245
-18 0 12 0.3784 0.0074
-18 0 14 3.6307 0.0007
-18 0 16 1.9113 0.0222
-18 0 18 -0.2344 0.0297
-18 0 20 -1.6235 0.0253
-18 0 22 -1.1898 0.0001
-18 0 24 -0.4455 -0.0067
-18 1 1 -1.6729 -0.0473
-18 1 2 3.6491 0.0309
-18 1 3 -11.9035 0.0058
-18 1 4 0.3880 -0.0123
-18 1 5 -13.9402 0.0126
-18 1 6 -1.8236 -0.0313
-18 1 7 -7.6161 -0.0026
-18 1 8 2.5623 -0.0128
-18 1 9 -1.5215 -0.0437
-18 1 10 4.8361 0.0111
-18 1 11 2.6839 -0.0048
-18 1 12 1.4789 0.0105
-18 1 13 3.7720 -0.0022
-18 1 14 -2.0600 0.0205
-18 1 15 1.8167 -0.0575
-18 1 16 -1.2475 -0.0028
-18 1 17 -0.1336 -0.0364
-18 1 18 0.3581 -0.0943
-18 1 19 -0.1006 -0.0537
-18 1 20 0.4724 0.0279
-18 1 21 -0.9578 0.0300
-18 1 22 0.2973 0.0027
-18 1 23 0.0576 0.0781
-18 1 24 0.5294 -0.0412
-18 2 1 -6.3114 -0.0244
-18 2 2 -0.1232 0.0126
-18 2 3 3.4214 -0.0340
-18 2 4 4.4773 0.0546
-18 2 5 13.0048 -0.0119
-18 2 6 2.2123 0.0255
-18 2 7 8.0845 0.0523
-18 2 8 -5.3572 0.0633
-18 2 9 -2.1658 0.0347
-18 2 10 -8.4804 0.0540
-18 2 11 -4.9829 0.0087
-18 2 12 -3.1159 0.0114
-18 2 13 -2.1325 0.0093
-18 2 14 1.2750 -0.0063
-18 2 15 0.4130 0.0168
-18 2 16 1.9801 -0.0033
-18 2 17 0.8627 -0.0086
-18 2 18 0.9943 0.0870
-18 2 19 0.8266 -0.0017
-18 2 20 -0.2665 0.0399
-18 2 21 -1.5532 0.0191
-18 2 22 -0.4659 -0.0578
-18 2 23 -2.2458 -0.0447
-18 2 24 -0.0579 -0.0391
-18 3 1 6.3753 0.0243
-18 3 2 7.0411 0.0066
-18 3 3 2.7636 0.0489
-18 3 4 4.1644 0.0520
-18 3 5 -8.1794 0.0172
-18 3 6 -1.1790 0.0093
-18 3 7 -12.8896 0.0115
-18 3 8 -1.8101 -0.0205
-18 3 9 -4.1155 0.0066
-18 3 10 -0.2816 0.0178
-18 3 11 5.8595 -0.0062
-18 3 12 0.3504 -0.0012
-18 3 13 6.5632 -0.0225
-18 3 14 -0.6816 0.0036
-18 3 15 1.5355 -0.0501
-18 3 16 -1.2307 0.0011
-18 3 17 -1.0611 0.0243
-18 3 18 -0.0560 -0.0110
-18 3 19 -2.2646 0.0249
-18 3 20 0.7257 0.0052
-18 3 21 -2.0979 0.0551
-18 3 22 1.1020 -0.0904
-18 3 23 -0.1870 -0.0033
-18 3 24 0.3737 -0.0313
-18 4 1 -1.7034 0.0118
-18 4 2 -4.8741 -0.0510
-18 4 3 2.8842 -0.0166
-18 4 4 -3.4921 -0.0205
-18 4 5 6.4947 -0.0068
-18 4 6 2.8780 0.0179
-18 4 7 6.5634 -0.0068
-18 4 8 2.5561 0.0004
-18 4 9 2.1235 0.0117
-18 4 10 -2.3441 -0.0050
-18 4 11 -3.6253 -0.0097
-18 4 12 -4.0746 0.0104
-18 4 13 -1.8781 -0.0072
-18 4 14 -2.6058 0.0053
-18 4 15 1.0604 0.0128
-18 4 16 0.3408 0.0520
-18 4 17 0.7266 -0.0092
-18 4 18 1.9452 0.0250
-18 4 19 0.3035 -0.0166
-18 4 20 2.1614 0.0224
-18 4 21 -1.0641 -0.0284
-18 4 22 -0.3801 0.0810
-18 4 23 -1.8159 0.0072
-18 4 24 -1.6563 -0.0742
-18 5 1 0.8756 -0.0011
-18 5 2 2.2268 -0.0183
-18 5 3 1.9975 0.0054
-18 5 4 8.7826 0.0150
-18 5 5 -4.0490 0.0220
-18 5 6 6.1888 0.0429
-18 5 7 -8.1765 0.0101
-18 5 8 -2.0105 0.0282
-18 5 9 -3.7691 0.0461
-18 5 10 -7.3322 0.0143
-18 5 11 3.6596 0.0256
-18 5 12 -3.8748 0.0033
-18 5 13 4.9600 -0.0264
-18 5 14 0.8868 -0.0032
-18 5 15 2.3458 -0.0495
-18 5 16 1.3673 -0.0464
-18 5 17 -0.6808 -0.0035
-18 5 18 1.2231 -0.0081
-18 5 19 -2.4000 0.0728
-18 5 20 0.0475 -0.0360
-18 5 21 -1.1002 -0.0056
-18 5 22 -0.3461 -0.1106
-18 5 23 0.6617 -0.0875
-18 5 24 0.1287 -0.0868
-18 6 1 1.2561 0.0085
-18 6 2 -0.3943 -0.0105
-18 6 3 3.9755 0.0186
-18 6 4 1.2021 -0.0452
-18 6 5 2.0052 0.0284
-18 6 6 0.9189 -0.0052
-18 6 7 1.1247 -0.0128
-18 6 8 1.6450 -0.0484
-18 6 9 2.6223 -0.0213
-18 6 10 1.6727 -0.0356
-18 6 11 1.1286 0.0364
-18 6 12 -2.2340 -0.0064
-18 6 13 0.5734 0.0242
-18 6 14 -2.0825 -0.0637
-18 6 15 -1.0763 0.0274
-18 6 16 0.5090 0.0179
-18 6 17 -0.7122 0.0213
-18 6 18 1.5485 0.0458
-18 6 19 0.0009 -0.0073
-18 6 20 1.8826 0.0356
-18 6 21 0.9361 0.0574
-18 6 22 0.4558 0.0800
-18 6 23 0.8906 0.0914
-18 7 1 -0.0172 -0.0106
-18 7 2 -1.9478 0.0508
-18 7 3 -4.4975 -0.0156
-18 7 4 3.1869 -0.0070
-18 7 5 -2.4994 -0.0254
-18 7 6 2.3285 -0.0223
-18 7 7 -1.0682 -0.0193
-18 7 8 -1.7349 0.0100
-18 7 9 1.2588 0.0033
-18 7 10 -5.6634 -0.0362
-18 7 11 1.5968 -0.0397
-18 7 12 -3.8834 -0.0119
-18 7 13 0.6967 -0.0178
-18 7 14 0.2685 0.0444
-18 7 15 0.3487 0.0305
-18 7 16 3.0835 0.0061
-18 7 17 -0.7708 -0.0176
-18 7 18 2.5342 -0.0508
-18 7 19 -0.2039 -0.0128
-18 7 20 0.2543 -0.1481
-18 7 21 0.6104 0.0213
-18 7 22 -0.4824 -0.1153
-18 7 23 -0.6365 0.0642
-18 8 1 -1.1461 -0.0193
-18 8 2 -0.5789 -0.0004
-18 8 3 1.5884 0.0277
-18 8 4 1.3700 -0.0492
-18 8 5 2.1573 0.0263
-18 8 6 1.2713 -0.0292
-18 8 7 -0.9676 0.0166
-18 8 8 -0.0123 -0.0041
-18 8 9 -2.8139 0.0008
-18 8 10 0.4502 0.0287
-18 8 11 0.2462 0.0111
-18 8 12 -0.5260 0.0465
-18 8 13 0.4968 -0.0193
-18 8 14 0.0142 -0.0507
-18 8 15 -2.4602 -0.0040
-18 8 16 -0.2610 -0.0359
-18 8 17 -1.1877 -0.0285
-18 8 18 0.1372 0.0282
-18 8 19 -0.4474 -0.0065
-18 8 20 0.1716 -0.0395
-18 8 21 -0.1473 0.1589
-18 8 22 -0.2558 0.0057
-18 9 1 1.5685 0.0098
-18 9 2 0.8499 0.0429
-18 9 3 -5.0284 -0.0373
-18 9 4 -0.9563 0.0751
-18 9 5 -4.4200 -0.0079
-18 9 6 -1.3338 0.0268
-18 9 7 -1.7535 0.0094
-18 9 8 -1.2444 -0.0217
-18 9 9 3.1571 -0.0105
-18 9 10 -1.4438 -0.0380
-18 9 11 1.7079 -0.0137
-18 9 12 -2.0557 -0.0137
-18 9 13 -0.9182 -0.0447
-18 9 14 -0.1697 -0.0013
-18 9 15 -1.5307 0.0054
-18 9 16 1.4250 0.0177
-18 9 17 -0.1495 0.0542
-18 9 18 1.0845 -0.0027
-18 9 19 1.7347 0.0084
-18 9 20 -0.4258 -0.1852
-18 9 21 0.9617 0.0796
-18 9 22 -0.1795 -0.1425
-18 10 1 0.5528 0.0106
-18 10 2 -1.9780 -0.0113
-18 10 3 0.4924 0.0233
-18 10 4 -0.7221 -0.0426
-18 10 5 2.4522 -0.0262
-18 10 6 1.4650 -0.0027
-18 10 7 2.0337 0.0143
-18 10 8 0.6052 0.0037
-18 10 9 -1.6259 -0.0156
-18 10 10 -0.5330 -0.0255
-18 10 11 -1.3514 -0.0163
-18 10 12 -0.3616 0.0570
-18 10 13 0.6682 0.0214
-18 10 14 0.0277 0.0592
-18 10 15 2.3075 0.0428
-18 10 16 -1.0153 -0.0150
-18 10 17 1.6311 0.1290
-18 10 18 -0.1825 -0.0069
-18 10 19 -0.4768 -0.0114
-18 10 20 0.6494 -0.0654
-18 10 21 -0.0680 -0.1072
-18 11 1 0.4719 0.0109
-18 11 2 1.9776 -0.0056
-18 11 3 -1.6802 0.0038
-18 11 4 -0.6003 -0.0251
-18 11 5 -2.2140 -0.0098
-18 11 6 -0.9439 -0.0124
-18 11 7 -0.5994 0.0014
-18 11 8 -1.6355 0.0177
-18 11 9 1.3067 0.0310
-18 11 10 -0.7207 0.0200
-18 11 11 1.0412 0.0623
-18 11 12 -0.3023 0.0295
-18 11 13 0.1636 0.0371
-18 11 14 0.2744 0.0089
-18 11 15 -0.9279 -0.0422
-18 11 16 -0.0611 -0.0593
-18 11 17 -1.9359 0.0553
-18 11 18 0.0286 -0.0529
-18 11 19 -0.1321 0.1604
-18 11 20 -0.4979 0.0695
-18 12 1 -0.3993 0.0623
-18 12 2 -2.5698 0.0070
-18 12 3 -0.0838 0.0588
-18 12 4 -1.0174 -0.0188
-18 12 5 0.3828 0.0116
-18 12 6 0.2945 0.0134
-18 12 7 -0.7936 0.0069
-18 12 8 0.5829 -0.0507
-18 12 9 -1.7031 -0.0384
-18 12 10 1.2303 -0.0436
-18 12 11 -1.1077 0.0460
-18 12 12 -1.4797 0.0267
-18 12 13 -0.4516 0.0585
-18 12 14 -1.1700 -0.0806
-18 12 15 0.6162 -0.0910
-18 12 16 0.7173 -0.0721
-18 12 17 -0.5527 0.0199
-18 12 18 1.6614 0.2100
-18 12 19 -0.8349 -0.0317
-18 13 1 -0.2176 -0.0473
-18 13 2 -0.0084 -0.0243
-18 13 3 -0.7417 0.0045
-18 13 4 -0.0682 -0.0440
-18 13 5 -0.0170 -0.0462
-18 13 6 -0.2401 -0.0528
-18 13 7 1.6080 0.0241
-18 13 8 -2.1191 0.0305
-18 13 9 1.1664 0.0320
-18 13 10 -1.7365 -0.0079
-18 13 11 1.7872 -0.0429
-18 13 12 0.3989 0.0148
-18 13 13 1.1100 0.1016
-18 13 14 0.5802 0.1478
-18 13 15 -0.4877 -0.0380
-18 13 16 1.1447 0.0123
-18 13 17 -0.8396 0.0783
-18 13 18 -0.1675 -0.1723
-18 14 1 -0.1617 0.0026
-18 14 2 0.2417 0.0348
-18 14 3 -0.5045 0.0304
-18 14 4 0.5411 0.0103
-18 14 5 0.0816 0.0209
-18 14 6 1.3820 0.0209
-18 14 7 -0.1149 -0.0217
-18 14 8 1.9325 -0.0307
-18 14 9 -0.4402 0.0263
-18 14 10 1.3687 0.0524
-18 14 11 0.8190 0.0327
-18 14 12 -1.3406 -0.0215
-18 14 13 -0.7332 -0.1541
-18 14 14 -0.9688 -0.2127
-18 14 15 -0.6585 -0.2197
-18 14 16 0.4048 -0.0405
-18 14 17 -0.5065 -0.0923
-18 15 1 -0.9635 -0.0310
-18 15 2 -0.2261 -0.0376
-18 15 3 -1.0756 -0.0744
-18 15 4 -0.7197 0.0046
-18 15 5 0.6073 -0.0440
-18 15 6 -0.0393 -0.0153
-18 15 7 1.0701 -0.0233
-18 15 8 -1.4559 -0.0528
-18 15 9 -0.0492 -0.0589
-18 15 10 -1.8091 -0.1516
-18 15 11 0.3965 -0.1093
-18 15 12 0.4178 0.1113
-18 15 13 0.6510 0.0170
-18 15 14 0.8995 0.2423
-18 15 15 -0.6306 0.0500
-18 15 16 1.2486 -0.1302
-18 16 1 0.6496 0.0554
-18 16 2 -0.2880 -0.0080
-18 16 3 0.5044 -0.0076
-18 16 4 0.2704 -0.0100
-18 16 5 0.1024 0.0552
-18 16 6 0.4764 0.1322
-18 16 7 -0.2917 0.0841
-18 16 8 1.3601 0.1642
-18 16 9 -0.3705 0.1535
-18 16 10 0.9252 0.0391
-18 16 11 0.0295 0.0926
-18 16 12 0.9866 -0.0821
-18 16 13 -0.2735 -0.0007
-18 16 14 0.2159 -0.0221
-18 17 1 0.3627 0.0564
-18 17 2 0.6545 0.0820
-18 17 3 -0.1584 -0.0830
-18 17 4 -1.0476 -0.0738
-18 17 5 0.1766 0.0480
-18 17 6 -1.2650 -0.0039
-18 17 7 0.5142 -0.1711
-18 17 8 -0.5557 0.0557
-18 17 9 0.3738 -0.1968
-18 17 10 0.0937 -0.0276
-18 17 11 -0.1274 0.0070
-18 17 12 -0.4040 0.1478
-18 18 1 -0.4973 0.1103
-18 18 2 0.0729 -0.0564
-18 18 3 -0.9033 0.0586
-18 18 4 0.4822 -0.0904
-18 18 5 0.3795 0.1377
-18 18 6 0.3353 0.1844
-18 18 7 0.4588 -0.0569
-18 18 8 0.1523 0.3316
-18 18 9 -0.4433 -0.1693
-17 0 2 9.2457 -0.0335
-17 0 4 3.7144 -0.0341
-17 0 6 -15.1821 0.0368
-17 0 8 -19.2738 0.0007
-17 0 10 -6.2035 -0.0066
-17 0 12 5.2385 -0.0014
-17 0 14 5.2114 0.0086
-17 0 16 1.8761 0.0216
-17 0 18 -0.3364 0.0214
-17 0 20 -1.0570 0.0006
-17 0 22 -1.0912 -0.0064
-17 0 24 -0.2583 0.0062
-17 1 1 -9.8948 -0.0349
-17 1 2 2.5959 0.0257
-17 1 3 -17.6371 0.0223
-17 1 4 -1.2982 -0.0304
-17 1 5 -11.9615 0.0012
-17 1 6 -0.6210 -0.0245
-17 1 7 -2.0491 -0.0147
-17 1 8 5.6399 0.0280
-17 1 9 1.7944 -0.0231
-17 1 10 4.8057 0.0105
-17 1 11 3.0521 0.0158
-17 1 12 -0.2296 0.0034
-17 1 13 2.2430 -0.0226
-17 1 14 -2.6075 0.0224
-17 1 15 -0.2529 -0.0668
-17 1 16 -0.4326 -0.0239
-17 1 17 -0.8150 -0.0217
-17 1 18 0.8295 -0.0563
-17 1 19 0.0179 0.0060
-17 1 20 0.7323 0.0626
-17 1 21 -0.5478 0.0507
-17 1 22 0.2184 0.0151
-17 1 23 0.8500 0.0057
-17 1 24 0.3018 0.0090
-17 1 25 1.3850 -0.0602
-17 2 1 -2.2192 -0.0249
-17 2 2 3.3085 0.0346
-17 2 3 8.8268 0.0151
-17 2 4 3.5385 0.0638
-17 2 5 15.5189 0.0265
-17 2 6 -4.2137 0.0176
-17 2 7 5.5735 0.0421
-17 2 8 -11.2359 0.0694
-17 2 9 -5.9026 0.0078
-17 2 10 -8.7458 0.0274
-17 2 11 -5.3244 -0.0029
-17 2 12 0.0641 -0.0134
-17 2 13 -0.1155 -0.0042
-17 2 14 3.8348 0.0094
-17 2 15 0.7856 0.0087
-17 2 16 2.7610 0.0070
-17 2 17 0.1085 -0.0112
-17 2 18 0.7278 0.0508
-17 2 19 -0.2307 -0.0240
-17 2 20 -0.6860 -0.0196
-17 2 21 -2.2361 -0.0459
-17 2 22 -0.9042 -0.0590
-17 2 23 -1.2676 -0.1306
-17 2 24 0.0610 0.0097
-17 3 1 4.6203 0.0318
-17 3 2 6.6259 -0.0051
-17 3 3 -2.7501 0.0125
-17 3 4 0.9053 0.0021
-17 3 5 -12.4241 0.0156
-17 3 6 -3.0189 -0.0327
-17 3 7 -9.6301 0.0050
-17 3 8 -0.6788 0.0042
-17 3 9 2.7854 -0.0123
-17 3 10 0.5641 0.0390
-17 3 11 8.3537 -0.0115
-17 3 12 0.1469 -0.0117
-17 3 13 4.4424 -0.0288
-17 3 14 -1.1407 0.0007
-17 3 15 -1.4310 -0.0331
-17 3 16 -0.6888 -0.0117
-17 3 17 -2.2199 0.0512
-17 3 18 0.5426 -0.0040
-17 3 19 -1.9209 0.0206
-17 3 20 1.4869 0.0206
-17 3 21 -0.6092 0.0276
-17 3 22 1.0493 -0.0500
-17 3 23 0.8287 -0.0225
-17 3 24 -0.4867 0.0261
-17 4 1 1.0008 -0.0197
-17 4 2 -4.0116 -0.0211
-17 4 3 6.5767 -0.0288
-17 4 4 -1.3660 0.0242
-17 4 5 8.0608 0.0158
-17 4 6 0.7342 0.0232
-17 4 7 5.4206 0.0138
-17 4 8 -1.4989 0.0104
-17 4 9 -0.9555 0.0150
-17 4 10 -4.8817 0.0248
-17 4 11 -5.4465 0.0210
-17 4 12 -3.5818 0.0127
-17 4 13 -1.0704 0.0013
-17 4 14 -0.2499 -0.0010
-17 4 15 1.6435 -0.0053
-17 4 16 2.1885 0.0346
-17 4 17 0.5012 -0.0317
-17 4 18 2.7410 0.0060
-17 4 19 -0.0255 -0.0242
-17 4 20 1.0239 0.0499
-17 4 21 -1.3709 -0.0253
-17 4 22 -1.9704 0.0589
-17 4 23 -1.0299 -0.0301
-17 4 24 -1.6788 -0.1104
-17 5 1 0.1635 0.0181
-17 5 2 3.7769 -0.0167
-17 5 3 -0.4404 0.0049
-17 5 4 9.5036 0.0261
-17 5 5 -6.9064 0.0215
-17 5 6 3.6176 0.0346
-17 5 7 -6.6339 0.0439
-17 5 8 -5.3476 0.0118
-17 5 9 1.6457 0.0372
-17 5 10 -6.7162 -0.0135
-17 5 11 6.4640 -0.0075
-17 5 12 -0.9442 -0.0069
-17 5 13 3.7568 -0.0427
-17 5 14 3.0794 -0.0028
-17 5 15 -0.2521 -0.0484
-17 5 16 2.1323 -0.0420
-17 5 17 -2.4384 0.0658
-17 5 18 0.9272 0.0081
-17 5 19 -2.2337 0.0525
-17 5 20 -0.3266 -0.0439
-17 5 21 0.5652 -0.0427
-17 5 22 -0.2701 -0.0875
-17 5 23 1.7806 -0.0367
-17 5 24 -0.0853 -0.0095
-17 6 1 3.8937 0.0275
-17 6 2 0.8993 -0.0200
-17 6 3 5.6130 0.0037
-17 6 4 1.8110 -0.0291
-17 6 5 2.2649 -0.0122
-17 6 6 -0.2244 -0.0042
-17 6 7 0.8487 -0.0323
-17 6 8 -0.4170 -0.0482
-17 6 9 2.0181 -0.0068
-17 6 10 -0.5841 0.0006
-17 6 11 -0.2988 0.0386
-17 6 12 -2.2563 -0.0017
-17 6 13 -0.8185 0.0153
-17 6 14 -0.3176 -0.0227
-17 6 15 -1.6854 0.0184
-17 6 16 1.9238 0.0549
-17 6 17 -0.3555 0.0178
-17 6 18 1.8453 0.0076
-17 6 19 1.0372 -0.0032
-17 6 20 1.0058 0.0583
-17 6 21 1.7054 0.0124
-17 6 22 -0.3343 0.0558
-17 6 23 0.7401 0.0291
-17 7 1 -3.8100 -0.0226
-17 7 2 -1.2098 -0.0023
-17 7 3 -6.3524 0.0014
-17 7 4 4.1886 -0.0205
-17 7 5 -1.7117 -0.0276
-17 7 6 0.6721 0.0073
-17 7 7 0.9160 -0.0092
-17 7 8 -4.9542 0.0084
-17 7 9 3.0160 -0.0067
-17 7 10 -6.4049 -0.0273
-17 7 11 1.3204 -0.0406
-17 7 12 -1.4432 0.0393
-17 7 13 -0.6220 0.0104
-17 7 14 2.9888 0.0385
-17 7 15 -0.6395 -0.0072
-17 7 16 3.1580 -0.0207
-17 7 17 -1.0350 -0.0469
-17 7 18 1.2197 -0.0715
-17 7 19 0.2574 -0.0206
-17 7 20 -0.7191 -0.0995
-17 7 21 0.5627 0.0388
-17 7 22 -0.6759 0.0181
-17 7 23 -0.7363 0.0785
-17 8 1 1.2075 0.0188
-17 8 2 1.2294 0.0049
-17 8 3 2.7165 0.0494
-17 8 4 2.1257 -0.0391
-17 8 5 1.5518 0.0245
-17 8 6 1.1031 0.0030
-17 8 7 -2.7557 0.0088
-17 8 8 -1.2251 0.0369
-17 8 9 -3.1601 -0.0027
-17 8 10 -0.1284 0.0410
-17 8 11 0.1019 -0.0273
-17 8 12 -0.2189 0.0083
-17 8 13 -1.0886 -0.0474
-17 8 14 0.6613 -0.0714
-17 8 15 -2.9915 -0.0264
-17 8 16 0.0536 0.0287
-17 8 17 -0.4383 -0.0336
-17 8 18 -0.1651 0.0479
-17 8 19 0.3008 0.0408
-17 8 20 -0.0672 -0.0605
-17 8 21 0.5235 0.1129
-17 8 22 0.1250 0.0401
-17 8 23 0.3925 0.0119
-17 9 1 -1.5397 -0.0227
-17 9 2 0.0945 0.0225
-17 9 3 -6.7593 -0.0251
-17 9 4 -1.5737 0.0444
-17 9 5 -2.9171 -0.0054
-17 9 6 -1.1752 -0.0074
-17 9 7 1.3984 -0.0197
-17 9 8 -1.4929 -0.0375
-17 9 9 4.4364 -0.0331
-17 9 10 -2.5242 -0.0190
-17 9 11 0.3894 -0.0329
-17 9 12 -1.6393 0.0138
-17 9 13 -1.7355 -0.0194
-17 9 14 0.8824 -0.0021
-17 9 15 -1.1644 0.0322
-17 9 16 1.3628 0.0513
-17 9 17 0.7132 0.0347
-17 9 18 0.2981 0.0101
-17 9 19 2.0164 0.0053
-17 9 20 -1.1283 -0.1776
-17 9 21 0.6855 0.0619
-17 9 22 -0.3054 -0.0151
-17 10 1 1.7102 0.0211
-17 10 2 -0.5361 -0.0139
-17 10 3 1.4737 0.0040
-17 10 4 0.5449 -0.0336
-17 10 5 2.2057 0.0040
-17 10 6 1.5143 0.0095
-17 10 7 0.1334 0.0271
-17 10 8 0.2769 -0.0097
-17 10 9 -2.4437 -0.0257
-17 10 10 -0.2106 -0.0124
-17 10 11 -0.8689 -0.0127
-17 10 12 -0.1906 0.1006
-17 10 13 0.8536 0.0326
-17 10 14 0.3742 0.0184
-17 10 15 2.4498 0.0362
-17 10 16 -0.5924 -0.0232
-17 10 17 1.2986 0.0399
-17 10 18 0.0597 0.0215
-17 10 19 -0.2597 -0.0609
-17 10 20 0.6198 -0.0192
-17 10 21 0.3532 -0.1010
-17 11 1 -1.1365 0.0226
-17 11 2 1.1713 0.0133
-17 11 3 -2.4767 0.0236
-17 11 4 -1.4569 -0.0075
-17 11 5 -1.1206 0.0096
-17 11 6 -0.9211 -0.0029
-17 11 7 0.6399 0.0313
-17 11 8 -1.8430 0.0250
-17 11 9 1.1611 0.0292
-17 11 10 -0.7650 -0.0012
-17 11 11 0.3557 0.0121
-17 11 12 -0.3092 0.0360
-17 11 13 -0.9638 0.0053
-17 11 14 -0.0167 -0.0096
-17 11 15 -1.8949 -0.0193
-17 11 16 0.0879 -0.0637
-17 11 17 -1.6081 0.0659
-17 11 18 -0.0488 0.1121
-17 11 19 0.0766 0.0798
-17 11 20 -0.7617 0.1098
-17 11 21 0.1111 -0.1325
-17 12 1 -0.4763 0.0441
-17 12 2 -1.6578 -0.0211
-17 12 3 0.0343 0.0112
-17 12 4 -0.5028 -0.0094
-17 12 5 -0.1053 -0.0168
-17 12 6 0.2143 -0.0160
-17 12 7 -1.8762 -0.0365
-17 12 8 1.1217 -0.0696
-17 12 9 -2.0855 -0.0251
-17 12 10 0.5586 -0.0231
-17 12 11 -0.8621 0.0721
-17 12 12 -1.9356 0.0093
-17 12 13 -0.0201 0.0217
-17 12 14 -0.0666 -0.0401
-17 12 15 0.5523 -0.0274
-17 12 16 1.4448 -0.0110
-17 12 17 -0.4457 0.0414
-17 12 18 1.7822 0.2343
-17 12 19 -0.2339 -0.0991
-17 12 20 0.9959 0.2936
-17 13 1 -0.8149 -0.0082
-17 13 2 0.1249 -0.0078
-17 13 3 -0.8312 0.0378
-17 13 4 0.1622 -0.0229
-17 13 5 1.3097 -0.0063
-17 13 6 -0.2212 0.0059
-17 13 7 2.0052 0.0777
-17 13 8 -2.1657 0.0488
-17 13 9 0.8831 0.0011
-17 13 10 -0.6945 -0.0095
-17 13 11 1.8780 0.0105
-17 13 12 1.1574 0.0475
-17 13 13 -0.4086 0.1183
-17 13 14 0.4630 0.0945
-17 13 15 -1.6876 -0.0930
-17 13 16 0.7449 -0.0972
-17 13 17 -0.4651 0.1719
-17 13 18 -0.8295 -0.0887
-17 13 19 0.5670 0.3849
-17 14 1 -0.4127 -0.0140
-17 14 2 0.1661 -0.0325
-17 14 3 -0.8262 -0.0029
-17 14 4 0.9505 -0.0142
-17 14 5 -0.2278 -0.0328
-17 14 6 2.4427 -0.0434
-17 14 7 -0.3854 -0.0432
-17 14 8 2.3742 -0.0521
-17 14 9 -0.9873 0.0259
-17 14 10 0.0052 0.0116
-17 14 11 -0.0975 -0.0620
-17 14 12 -1.2922 -0.1318
-17 14 13 -1.3026 -0.1543
-17 14 14 0.3309 -0.0951
-17 14 15 -0.9247 -0.0024
-17 14 16 0.5738 0.0414
-17 14 17 -0.1125 0.0468
-17 15 1 -0.7093 0.0107
-17 15 2 -0.6267 -0.0129
-17 15 3 -0.6678 -0.0438
-17 15 4 -0.5485 0.0254
-17 15 5 0.8197 -0.0186
-17 15 6 0.0000 -0.0122
-17 15 7 0.8010 0.0138
-17 15 8 -1.2205 -0.0612
-17 15 9 0.0702 -0.0153
-17 15 10 -0.5361 0.0041
-17 15 11 0.2712 0.0095
-17 15 12 1.7566 0.1442
-17 15 13 -0.1444 0.0402
-17 15 14 1.2905 0.0481
-17 15 15 -0.9676 0.0383
-17 15 16 0.9394 -0.1808
-17 16 1 0.7266 0.0218
-17 16 2 -0.4889 -0.0311
-17 16 3 0.1392 -0.0068
-17 16 4 0.5120 0.0438
-17 16 5 -0.4259 0.0346
-17 16 6 1.1183 0.1324
-17 16 7 -0.0815 0.0659
-17 16 8 1.3388 0.0154
-17 16 9 -0.4324 0.0780
-17 16 10 0.2105 -0.0609
-17 16 11 -0.5515 -0.0607
-17 16 12 0.8772 -0.0544
-17 16 13 -0.6789 0.1470
-17 16 14 0.2154 0.0143
-17 17 1 0.5162 0.0437
-17 17 2 -0.0776 0.0852
-17 17 3 -0.1845 -0.0941
-17 17 4 -1.4161 -0.0647
-17 17 5 0.0084 -0.0318
-17 17 6 -0.8156 0.0936
-17 17 7 0.7067 -0.2170
-17 17 8 0.2684 0.0317
-17 17 9 0.6773 -0.0155
-17 17 10 0.3204 0.0173
-17 17 11 -0.1002 0.0069
-17 17 12 -0.4998 0.0941
-17 18 1 -0.5367 0.0623
-17 18 2 -0.1697 -0.0390
-17 18 3 -0.5092 0.0917
-17 18 4 0.3696 0.0395
-17 18 5 0.5132 0.0339
-17 18 6 0.3033 0.2996
-17 18 7 0.2312 -0.1980
-17 18 8 0.2171 0.1588
-17 18 9 -0.4907 -0.1328
-17 18 10 -0.4729 -0.1238
-17 19 3 0.4765 -0.1278
-17 19 4 -0.7590 0.1234
-16 0 2 8.7399 -0.0437
-16 0 4 -7.5442 -0.0141
-16 0 6 -24.6324 0.0179
-16 0 8 -18.0407 -0.0391
-16 0 10 1.2716 -0.0321
-16 0 12 10.3261 0.0017
-16 0 14 5.7568 0.0052
-16 0 16 1.0869 0.0030
-16 0 18 -0.5110 0.0028
-16 0 20 -0.5294 -0.0128
-16 0 22 -0.9571 0.0003
-16 0 24 0.4196 0.0144
-16 1 1 -18.3260 -0.0009
-16 1 2 1.2482 0.0086
-16 1 3 -18.0567 0.0077
-16 1 4 -2.7483 -0.0111
-16 1 5 -5.3746 -0.0095
-16 1 6 2.0362 0.0155
-16 1 7 3.5608 0.0043
-16 1 8 8.5471 0.0433
-16 1 9 1.9232 0.0133
-16 1 10 3.4676 -0.0138
-16 1 11 0.9497 0.0173
-16 1 12 -2.1039 0.0016
-16 1 13 -0.1035 -0.0336
-16 1 14 -2.3869 0.0144
-16 1 15 -1.6959 -0.0283
-16 1 16 0.4459 -0.0333
-16 1 17 -0.6731 0.0242
-16 1 18 0.8223 0.0011
-16 1 19 0.4568 0.0361
-16 1 20 0.5863 0.0792
-16 1 21 0.0475 0.0151
-16 1 22 -0.1359 0.0078
-16 1 23 0.9243 -0.0530
-16 1 24 0.3164 0.0136
-16 1 25 0.7806 -0.0371
-16 2 1 3.3134 0.0217
-16 2 2 4.9082 0.0504
-16 2 3 14.3250 0.0493
-16 2 4 -1.9377 0.0355
-16 2 5 15.0254 -0.0047
-16 2 6 -12.5505 -0.0045
-16 2 7 0.0847 0.0009
-16 2 8 -13.8481 0.0459
-16 2 9 -8.7721 0.0018
-16 2 10 -4.7315 -0.0180
-16 2 11 -3.7313 -0.0024
-16 2 12 4.8623 -0.0216
-16 2 13 1.8309 -0.0152
-16 2 14 5.6637 0.0137
-16 2 15 0.3036 0.0066
-16 2 16 2.0634 -0.0264
-16 2 17 -0.5843 -0.0251
-16 2 18 -0.4000 -0.0085
-16 2 19 -0.9397 -0.0626
-16 2 20 -1.2988 -0.0403
-16 2 21 -1.8371 -0.0885
-16 2 22 -0.8969 -0.0392
-16 2 23 0.0636 -0.1112
-16 2 24 0.5977 0.0496
-16 2 25 1.1157 0.0312
-16 3 1 1.0635 -0.0150
-16 3 2 4.9056 -0.0445
-16 3 3 -7.0749 -0.0060
-16 3 4 -1.9063 -0.0262
-16 3 5 -12.2098 0.0228
-16 3 6 -2.0741 -0.0191
-16 3 7 -4.1561 -0.0148
-16 3 8 2.2011 0.0382
-16 3 9 7.2141 -0.0108
-16 3 10 1.1294 0.0266
-16 3 11 7.0915 0.0062
-16 3 12 -0.4774 -0.0208
-16 3 13 0.4688 -0.0112
-16 3 14 -0.8518 -0.0111
-16 3 15 -3.7289 0.0070
-16 3 16 0.2822 -0.0068
-16 3 17 -1.9613 0.0616
-16 3 18 0.8504 0.0311
-16 3 19 -0.5828 0.0020
-16 3 20 1.6389 0.0391
-16 3 21 0.7924 0.0120
-16 3 22 0.2143 -0.0102
-16 3 23 0.8290 -0.0312
-16 3 24 -0.9779 0.0138
-16 4 1 4.2283 -0.0255
-16 4 2 -3.3674 0.0273
-16 4 3 8.8509 -0.0124
-16 4 4 -2.4674 0.0312
-16 4 5 7.5573 0.0369
-16 4 6 -4.1907 0.0246
-16 4 7 2.1646 0.0054
-16 4 8 -4.3645 0.0321
-16 4 9 -4.9243 0.0250
-16 4 10 -3.9259 0.0227
-16 4 11 -6.0017 0.0380
-16 4 12 -0.4717 -0.0074
-16 4 13 0.6067 -0.0238
-16 4 14 2.4939 -0.0228
-16 4 15 2.0765 -0.0215
-16 4 16 3.1867 -0.0021
-16 4 17 0.3741 -0.0452
-16 4 18 2.0346 0.0087
-16 4 19 -0.3622 -0.0278
-16 4 20 -1.0805 0.0422
-16 4 21 -1.1110 -0.0295
-16 4 22 -2.7280 -0.0119
-16 4 23 0.1309 -0.0301
-16 4 24 -0.6743 -0.0811
-16 5 1 -1.5325 0.0039
-16 5 2 5.9632 0.0048
-16 5 3 -2.5760 0.0051
-16 5 4 10.4069 0.0125
-16 5 5 -7.1222 0.0292
-16 5 6 0.9602 0.0025
-16 5 7 -2.7559 0.0418
-16 5 8 -7.1696 -0.0114
-16 5 9 5.9266 -0.0083
-16 5 10 -4.1097 -0.0345
-16 5 11 6.0705 -0.0177
-16 5 12 2.3430 0.0084
-16 5 13 0.8724 -0.0313
-16 5 14 4.5539 0.0085
-16 5 15 -2.4980 0.0002
-16 5 16 1.9486 -0.0251
-16 5 17 -2.7089 0.1106
-16 5 18 0.1529 0.0272
-16 5 19 -0.5674 -0.0112
-16 5 20 -0.6296 -0.0377
-16 5 21 2.3222 -0.0301
-16 5 22 -0.3115 -0.0433
-16 5 23 2.0614 0.0085
-16 5 24 -0.1653 0.0120
-16 6 1 6.7711 0.0081
-16 6 2 1.1892 -0.0179
-16 6 3 5.0608 -0.0406
-16 6 4 -0.1227 -0.0044
-16 6 5 0.8610 -0.0322
-16 6 6 -3.2373 -0.0018
-16 6 7 -0.6370 -0.0210
-16 6 8 -2.3351 -0.0121
-16 6 9 -0.1688 0.0111
-16 6 10 -0.6669 0.0335
-16 6 11 -2.3161 0.0239
-16 6 12 -0.3053 0.0076
-16 6 13 -1.8445 0.0027
-16 6 14 1.4635 0.0151
-16 6 15 -1.3609 0.0104
-16 6 16 2.3599 0.0231
-16 6 17 0.7380 0.0002
-16 6 18 1.0019 -0.0229
-16 6 19 1.9693 -0.0315
-16 6 20 -0.2134 0.0658
-16 6 21 1.7914 -0.0270
-16 6 22 -0.8595 -0.0209
-16 6 23 0.1583 0.0115
-16 6 24 -0.4761 -0.1322
-16 7 1 -7.6314 -0.0135
-16 7 2 0.4124 -0.0062
-16 7 3 -6.0250 0.0196
-16 7 4 5.3164 0.0036
-16 7 5 1.0511 -0.0259
-16 7 6 -1.5130 0.0185
-16 7 7 3.9848 -0.0007
-16 7 8 -7.4209 -0.0025
-16 7 9 3.2783 -0.0129
-16 7 10 -4.9796 -0.0003
-16 7 11 -0.5803 -0.0173
-16 7 12 2.1223 0.0556
-16 7 13 -1.8421 0.0030
-16 7 14 4.5273 0.0059
-16 7 15 -0.9795 -0.0374
-16 7 16 1.8678 -0.0382
-16 7 17 -0.5595 -0.0257
-16 7 18 -0.2442 -0.0355
-16 7 19 0.8221 -0.0164
-16 7 20 -1.1701 0.0082
-16 7 21 0.3097 0.0708
-16 7 22 -0.3194 0.0738
-16 7 23 -0.6578 0.0801
-16 8 1 3.5106 0.0408
-16 8 2 2.2779 -0.0043
-16 8 3 2.6828 0.0232
-16 8 4 1.1093 -0.0051
-16 8 5 -0.2793 0.0027
-16 8 6 -0.4390 0.0354
-16 8 7 -4.6656 0.0019
-16 8 8 -2.2268 0.0455
-16 8 9 -3.5265 -0.0243
-16 8 10 0.3534 0.0121
-16 8 11 -0.9290 -0.0517
-16 8 12 0.5157 -0.0287
-16 8 13 -2.2394 -0.0442
-16 8 14 0.9664 -0.0314
-16 8 15 -2.1301 -0.0386
-16 8 16 -0.3798 0.0777
-16 8 17 0.6888 -0.0103
-16 8 18 -0.8181 -0.0005
-16 8 19 0.8921 0.0409
-16 8 20 0.0191 -0.0655
-16 8 21 0.7753 0.0329
-16 8 22 0.4276 0.0713
-16 8 23 0.1641 -0.0192
-16 9 1 -4.0712 -0.0274
-16 9 2 -0.1568 -0.0046
-16 9 3 -6.0626 -0.0072
-16 9 4 -1.5268 0.0146
-16 9 5 0.5661 -0.0273
-16 9 6 -1.1076 -0.0204
-16 9 7 4.5635 -0.0358
-16 9 8 -2.2872 -0.0236
-16 9 9 3.8121 -0.0305
-16 9 10 -2.7391 0.0163
-16 9 11 -1.5762 -0.0193
-16 9 12 -0.1198 0.0139
-16 9 13 -2.1356 0.0176
-16 9 14 1.6074 0.0048
-16 9 15 -0.2804 0.0093
-16 9 16 0.8574 0.0814
-16 9 17 1.7848 0.0078
-16 9 18 -0.5233 -0.0123
-16 9 19 1.9453 0.0042
-16 9 20 -1.2975 -0.1158
-16 9 21 0.2663 0.0053
-16 9 22 0.1394 0.1032
-16 10 1 3.0554 0.0121
-16 10 2 0.6131 -0.0085
-16 10 3 1.9820 0.0015
-16 10 4 0.7342 -0.0005
-16 10 5 0.9405 0.0382
-16 10 6 1.1548 0.0265
-16 10 7 -1.2623 0.0135
-16 10 8 0.2453 -0.0172
-16 10 9 -2.5472 -0.0342
-16 10 10 -0.1471 0.0187
-16 10 11 -0.8355 -0.0066
-16 10 12 -0.1628 0.0936
-16 10 13 0.8375 0.0338
-16 10 14 0.6877 -0.0334
-16 10 15 2.3861 -0.0209
-16 10 16 -0.5191 0.0154
-16 10 17 0.8615 -0.0311
-16 10 18 0.0428 0.0358
-16 10 19 -0.1903 -0.0253
-16 10 20 0.3748 0.0715
-16 10 21 0.1219 -0.1025
-16 11 1 -2.7248 0.0246
-16 11 2 0.0192 0.0310
-16 11 3 -1.6116 0.0236
-16 11 4 -1.4811 -0.0132
-16 11 5 0.5685 0.0100
-16 11 6 -0.5101 0.0111
-16 11 7 1.0596 0.0282
-16 11 8 -2.0192 0.0152
-16 11 9 0.6864 -0.0190
-16 11 10 -0.4188 -0.0154
-16 11 11 -0.4769 -0.0378
-16 11 12 -0.2406 0.0400
-16 11 13 -2.2095 0.0117
-16 11 14 -0.1108 -0.0321
-16 11 15 -1.9446 -0.0062
-16 11 16 0.4163 0.0116
-16 11 17 -0.7742 0.0171
-16 11 18 -0.1970 0.1922
-16 11 19 0.3307 -0.0136
-16 11 20 -0.7075 0.0180
-16 11 21 0.2753 -0.1435
-16 12 1 -0.2765 -0.0100
-16 12 2 -1.3765 -0.0211
-16 12 3 0.0914 -0.0170
-16 12 4 -0.5048 0.0094
-16 12 5 -0.8647 -0.0284
-16 12 6 1.0328 -0.0276
-16 12 7 -2.5012 -0.0433
-16 12 8 1.6994 -0.0335
-16 12 9 -2.1141 0.0256
-16 12 10 -0.5501 0.0106
-16 12 11 -0.4263 0.0619
-16 12 12 -1.5010 0.0192
-16 12 13 0.2360 0.0163
-16 12 14 0.8922 0.0018
-16 12 15 0.2041 0.0176
-16 12 16 1.6051 0.0261
-16 12 17 -0.2314 -0.0152
-16 12 18 1.8402 0.2495
-16 12 19 0.0117 -0.0609
-16 12 20 0.5579 0.2809
-16 13 1 -1.2435 0.0361
-16 13 2 -0.0160 0.0072
-16 13 3 0.1143 0.0443
-16 13 4 0.2599 0.0016
-16 13 5 2.2900 0.0270
-16 13 6 -0.2885 0.0379
-16 13 7 1.8586 0.0620
-16 13 8 -1.6925 0.0248
-16 13 9 0.8038 -0.0343
-16 13 10 0.4692 -0.0206
-16 13 11 0.9607 0.0439
-16 13 12 1.3366 0.0223
-16 13 13 -2.2959 0.0335
-16 13 14 0.0307 -0.0251
-16 13 15 -1.6301 -0.0779
-16 13 16 0.0876 -0.0919
-16 13 17 0.3500 0.2337
-16 13 18 -1.1046 0.0271
-16 13 19 0.7502 0.2358
-16 14 1 -1.0116 -0.0352
-16 14 2 0.1677 -0.0842
-16 14 3 -1.1680 -0.0401
-16 14 4 1.5604 -0.0323
-16 14 5 -0.4791 -0.0597
-16 14 6 3.5797 -0.0878
-16 14 7 -0.9675 -0.0341
-16 14 8 1.9844 -0.0209
-16 14 9 -1.8398 0.0168
-16 14 10 -1.0501 -0.0314
-16 14 11 -0.8080 -0.0757
-16 14 12 -0.1206 -0.0969
-16 14 13 -1.6843 -0.0361
-16 14 14 1.0982 0.0560
-16 14 15 -0.9412 0.1495
-16 14 16 0.1857 -0.0038
-16 14 17 0.2634 0.0431
-16 14 18 0.4885 0.0843
-16 15 1 -0.4850 0.0661
-16 15 2 -0.7479 0.0057
-16 15 3 -0.2930 -0.0187
-16 15 4 -0.4955 0.0495
-16 15 5 0.9449 0.0342
-16 15 6 -0.0112 -0.0273
-16 15 7 0.9187 0.0453
-16 15 8 -0.1036 -0.0080
-16 15 9 0.0728 0.0116
-16 15 10 1.0054 0.0850
-16 15 11 -0.5687 0.0422
-16 15 12 2.4336 -0.0243
-16 15 13 -0.7805 -0.0282
-16 15 14 0.9481 -0.0727
-16 15 15 -0.7234 0.1252
-16 15 16 0.3503 -0.0643
-16 16 1 0.4129 0.0039
-16 16 2 -0.0516 -0.0330
-16 16 3 -0.6371 -0.0329
-16 16 4 1.0840 0.0598
-16 16 5 -0.8030 0.0118
-16 16 6 1.1889 0.0189
-16 16 7 0.0858 0.0379
-16 16 8 0.7195 -0.1135
-16 16 9 -0.7022 -0.0250
-16 16 10 -0.2042 -0.0160
-16 16 11 -1.0532 -0.0343
-16 16 12 0.8594 0.0336
-16 16 13 -0.8784 0.3179
-16 16 14 0.0238 -0.0375
-16 16 15 -0.1363 0.3407
-16 17 1 0.5154 0.0210
-16 17 2 -0.6297 0.0510
-16 17 3 -0.4246 -0.0990
-16 17 4 -1.2011 0.0104
-16 17 5 -0.0583 -0.0463
-16 17 6 0.0386 0.1296
-16 17 7 1.0219 -0.1131
-16 17 8 1.1799 -0.0351
-16 17 9 0.7290 0.0729
-16 17 10 0.4385 0.0120
-16 17 11 -0.0810 -0.1606
-16 17 12 -0.4088 -0.0388
-16 17 13 0.9034 -0.3999
-16 18 1 -0.4372 0.0547
-16 18 2 0.0071 0.0015
-16 18 3 -0.2057 0.0622
-16 18 4 0.5253 0.1289
-16 18 5 0.4335 -0.1039
-16 18 6 0.1077 0.2341
-16 18 7 -0.0107 -0.1676
-16 18 8 0.0840 -0.0598
-16 18 9 -0.3247 0.0032
-16 18 10 -0.5155 -0.0231
-16 19 1 0.9892 -0.0878
-16 19 2 0.2071 0.2781
-16 19 3 0.3022 -0.1593
-16 19 4 -0.8758 0.2460
-16 19 5 -0.4266 -0.2340
-16 19 6 -0.0776 0.4864
-15 0 2 0.1681 -0.0102
-15 0 4 -21.3446 -0.0284
-15 0 6 -28.6382 -0.0321
-15 0 8 -9.7584 -0.0483
-15 0 10 10.3938 -0.0250
-15 0 12 13.1713 0.0078
-15 0 14 4.1495 -0.0084
-15 0 16 -0.7744 -0.0148
-15 0 18 -1.0163 -0.0042
-15 0 20 -0.2326 -0.0140
-15 0 22 -0.6104 0.0071
-15 0 24 1.0851 0.0162
-15 1 1 -21.7350 0.0008
-15 1 2 -1.3864 0.0296
-15 1 3 -11.6439 -0.0121
-15 1 4 -2.1520 0.0433
-15 1 5 2.8354 0.0079
-15 1 6 7.0961 0.0260
-15 1 7 5.3711 0.0283
-15 1 8 10.4514 0.0178
-15 1 9 -1.8414 0.0212
-15 1 10 0.8636 -0.0339
-15 1 11 -2.0809 -0.0001
-15 1 12 -3.5391 0.0002
-15 1 13 -1.4432 -0.0187
-15 1 14 -1.4860 -0.0051
-15 1 15 -1.4248 0.0288
-15 1 16 0.9588 -0.0319
-15 1 17 0.1615 0.0395
-15 1 18 0.2725 0.0339
-15 1 19 0.9701 0.0113
-15 1 20 0.0838 0.0483
-15 1 21 0.3058 -0.0279
-15 1 22 -0.3944 -0.0220
-15 1 23 0.2415 -0.0700
-15 1 24 0.6331 0.0024
-15 1 25 0.1259 0.0122
-15 2 1 9.2865 0.0588
-15 2 2 0.9455 0.0276
-15 2 3 17.8497 0.0021
-15 2 4 -12.0251 -0.0203
-15 2 5 10.2239 -0.0621
-15 2 6 -18.5503 -0.0291
-15 2 7 -6.1790 -0.0024
-15 2 8 -10.2469 0.0077
-15 2 9 -8.6587 0.0203
-15 2 10 2.5923 -0.0397
-15 2 11 -0.6826 -0.0058
-15 2 12 8.7989 -0.0088
-15 2 13 2.8044 -0.0157
-15 2 14 5.1304 0.0022
-15 2 15 -0.4310 0.0087
-15 2 16 -0.0425 -0.0597
-15 2 17 -0.6939 -0.0350
-15 2 18 -1.6062 -0.0323
-15 2 19 -1.2551 -0.0673
-15 2 20 -1.4295 -0.0258
-15 2 21 -0.8269 -0.0566
-15 2 22 -0.1690 -0.0215
-15 2 23 0.8578 -0.0168
-15 2 24 1.1989 0.0800
-15 2 25 0.5856 0.0751
-15 3 1 -2.6568 -0.0415
-15 3 2 2.8668 -0.0427
-15 3 3 -8.6219 0.0132
-15 3 4 -2.5542 -0.0011
-15 3 5 -9.3604 0.0138
-15 3 6 1.1874 0.0103
-15 3 7 -0.3223 -0.0266
-15 3 8 4.4105 0.0319
-15 3 9 7.7353 0.0128
-15 3 10 0.2072 -0.0001
-15 3 11 3.4798 0.0216
-15 3 12 -1.2324 -0.0223
-15 3 13 -3.0390 0.0090
-15 3 14 -0.0965 -0.0318
-15 3 15 -3.8775 0.0300
-15 3 16 0.8043 0.0184
-15 3 17 -0.1008 0.0326
-15 3 18 0.6458 0.0518
-15 3 19 1.0429 -0.0166
-15 3 20 1.1675 0.0216
-15 3 21 1.1257 0.0056
-15 3 22 -0.7023 -0.0126
-15 3 23 -0.0587 -0.0367
-15 3 24 -0.7297 -0.0290
-15 4 1 7.0163 -0.0132
-15 4 2 -4.2580 0.0198
-15 4 3 8.8677 0.0065
-15 4 4 -6.5016 0.0193
-15 4 5 4.6200 0.0263
-15 4 6 -8.0577 0.0342
-15 4 7 -2.5959 -0.0161
-15 4 8 -3.3018 0.0270
-15 4 9 -7.7504 0.0403
-15 4 10 0.3155 -0.0135
-15 4 11 -4.2026 0.0232
-15 4 12 3.2886 -0.0225
-15 4 13 2.6650 -0.0457
-15 4 14 3.7575 -0.0379
-15 4 15 2.3089 -0.0156
-15 4 16 2.2991 -0.0129
-15 4 17 0.3415 -0.0379
-15 4 18 -0.0493 0.0250
-15 4 19 -0.5516 -0.0107
-15 4 20 -2.8201 -0.0077
-15 4 21 -0.3433 -0.0113
-15 4 22 -1.9724 -0.0574
-15 4 23 0.8247 0.0219
-15 4 24 0.7191 0.0042
-15 5 1 -2.2704 0.0031
-15 5 2 9.5892 0.0179
-15 5 3 -2.2705 0.0140
-15 5 4 10.7831 -0.0288
-15 5 5 -4.9981 0.0191
-15 5 6 -1.9100 -0.0186
-15 5 7 0.5104 0.0107
-15 5 8 -7.5043 -0.0265
-15 5 9 6.9093 -0.0321
-15 5 10 -0.7432 -0.0314
-15 5 11 3.4577 0.0064
-15 5 12 5.0323 0.0313
-15 5 13 -1.6559 0.0020
-15 5 14 4.9227 0.0055
-15 5 15 -3.3304 0.0482
-15 5 16 0.9462 -0.0077
-15 5 17 -1.4197 0.0792
-15 5 18 -0.5794 0.0231
-15 5 19 1.5556 -0.0604
-15 5 20 -0.6544 -0.0398
-15 5 21 2.9984 0.0157
-15 5 22 -0.1152 -0.0194
-15 5 23 1.2297 0.0028
-15 5 24 0.0998 -0.0178
-15 6 1 7.0211 -0.0519
-15 6 2 -1.2184 -0.0116
-15 6 3 1.6678 -0.0485
-15 6 4 -4.3713 0.0200
-15 6 5 -0.8254 -0.0155
-15 6 6 -5.9372 0.0136
-15 6 7 -2.5116 -0.0052
-15 6 8 -1.9793 0.0273
-15 6 9 -2.8980 0.0158
-15 6 10 1.3934 0.0341
-15 6 11 -3.4589 0.0028
-15 6 12 1.8558 0.0195
-15 6 13 -1.2171 0.0040
-15 6 14 2.0947 0.0091
-15 6 15 0.3005 0.0098
-15 6 16 1.4775 -0.0293
-15 6 17 1.8812 -0.0246
-15 6 18 -0.5963 -0.0099
-15 6 19 2.1766 -0.0403
-15 6 20 -1.1414 0.0358
-15 6 21 1.1698 -0.0088
-15 6 22 -0.8009 -0.0859
-15 6 23 -0.7352 0.0186
-15 6 24 0.1334 -0.0770
-15 7 1 -8.5423 0.0087
-15 7 2 3.4130 0.0284
-15 7 3 -3.0913 0.0294
-15 7 4 5.9187 0.0074
-15 7 5 4.6178 -0.0131
-15 7 6 -4.3260 0.0018
-15 7 7 5.6669 0.0069
-15 7 8 -8.6006 -0.0064
-15 7 9 0.6954 -0.0016
-15 7 10 -1.9348 0.0117
-15 7 11 -3.1000 0.0001
-15 7 12 5.0741 0.0257
-15 7 13 -2.0140 -0.0230
-15 7 14 4.0740 -0.0307
-15 7 15 -0.2830 -0.0122
-15 7 16 -0.0517 -0.0285
-15 7 17 0.4589 0.0045
-15 7 18 -1.1756 0.0341
-15 7 19 1.0318 -0.0171
-15 7 20 -0.9274 0.0603
-15 7 21 0.0189 0.1056
-15 7 22 0.4907 0.0264
-15 7 23 -0.3571 0.0458
-15 8 1 4.8894 0.0079
-15 8 2 0.9704 -0.0064
-15 8 3 1.5036 -0.0237
-15 8 4 -1.6840 0.0287
-15 8 5 -2.3874 -0.0056
-15 8 6 -1.9080 0.0308
-15 8 7 -6.0158 -0.0036
-15 8 8 -1.6612 0.0175
-15 8 9 -4.0901 -0.0386
-15 8 10 1.4410 -0.0225
-15 8 11 -2.2147 -0.0316
-15 8 12 0.8235 -0.0182
-15 8 13 -2.0906 -0.0249
-15 8 14 0.5604 0.0226
-15 8 15 -0.4624 -0.0292
-15 8 16 -1.3576 0.0538
-15 8 17 1.3898 0.0122
-15 8 18 -1.1675 -0.0599
-15 8 19 0.7981 0.0082
-15 8 20 0.3611 -0.0382
-15 8 21 0.3042 0.0167
-15 8 22 0.4012 0.0647
-15 8 23 -0.3537 -0.0108
-15 9 1 -4.2582 -0.0044
-15 9 2 0.3527 -0.0156
-15 9 3 -2.9132 -0.0070
-15 9 4 -1.2297 0.0013
-15 9 5 4.7065 -0.0371
-15 9 6 -1.5391 -0.0083
-15 9 7 6.1296 -0.0130
-15 9 8 -2.6418 0.0031
-15 9 9 1.5543 -0.0087
-15 9 10 -1.5712 0.0244
-15 9 11 -3.0834 0.0075
-15 9 12 1.2110 -0.0077
-15 9 13 -1.6520 0.0194
-15 9 14 1.4054 0.0200
-15 9 15 1.3045 -0.0306
-15 9 16 0.2580 0.0634
-15 9 17 2.7643 0.0118
-15 9 18 -0.9142 -0.0396
-15 9 19 1.4491 -0.0175
-15 9 20 -0.7360 -0.0256
-15 9 21 -0.0636 -0.0260
-15 9 22 0.7415 0.1346
-15 10 1 3.4885 -0.0061
-15 10 2 0.2660 0.0145
-15 10 3 1.3414 0.0102
-15 10 4 0.0339 0.0351
-15 10 5 -0.7899 0.0442
-15 10 6 1.0907 0.0186
-15 10 7 -2.0214 -0.0137
-15 10 8 0.4427 -0.0224
-15 10 9 -2.8642 -0.0300
-15 10 10 -0.1697 0.0337
-15 10 11 -1.1229 0.0049
-15 10 12 0.0775 0.0453
-15 10 13 0.9562 0.0117
-15 10 14 0.5653 -0.0402
-15 10 15 2.0644 -0.0757
-15 10 16 -0.8861 0.0518
-15 10 17 0.3385 -0.0094
-15 10 18 0.0229 0.0266
-15 10 19 -0.5277 0.0318
-15 10 20 0.1817 0.1753
-15 10 21 -0.5390 -0.1256
-15 10 22 0.0880 0.3830
-15 11 1 -2.7276 0.0146
-15 11 2 -0.5875 0.0173
-15 11 3 0.4829 0.0038
-15 11 4 -1.0265 -0.0181
-15 11 5 1.6777 -0.0028
-15 11 6 -0.5332 0.0272
-15 11 7 0.9458 0.0048
-15 11 8 -1.9422 -0.0067
-15 11 9 0.3695 -0.0687
-15 11 10 0.3029 -0.0089
-15 11 11 -1.4717 -0.0365
-15 11 12 -0.1830 0.0297
-15 11 13 -2.8656 0.0344
-15 11 14 0.1353 -0.0216
-15 11 15 -0.9724 -0.0316
-15 11 16 0.6810 0.0768
-15 11 17 0.1466 -0.0377
-15 11 18 -0.2129 0.1133
-15 11 19 0.6192 -0.0679
-15 11 20 -0.0926 -0.0621
-15 11 21 0.3181 -0.0888
-15 12 1 -0.0664 -0.0456
-15 12 2 -1.5294 0.0115
-15 12 3 -0.2166 -0.0014
-15 12 4 0.2678 0.0275
-15 12 5 -1.6453 -0.0267
-15 12 6 2.3346 -0.0065
-15 12 7 -2.5920 -0.0097
-15 12 8 1.0928 0.0187
-15 12 9 -1.8558 0.0594
-15 12 10 -1.7315 0.0312
-15 12 11 0.1969 0.0256
-15 12 12 -0.6707 0.0245
-15 12 13 0.1759 0.0318
-15 12 14 0.9025 0.0107
-15 12 15 -0.2591 -0.0121
-15 12 16 1.3786 0.0510
-15 12 17 -0.0814 -0.0347
-15 12 18 1.4957 0.2219
-15 12 19 -0.1481 0.0664
-15 12 20 -0.1697 0.1990
-15 13 1 -0.5887 0.0370
-15 13 2 -0.5552 -0.0100
-15 13 3 1.3796 0.0226
-15 13 4 0.3876 0.0103
-15 13 5 2.4009 0.0200
-15 13 6 -0.0056 0.0263
-15 13 7 1.8552 0.0001
-15 13 8 -0.7208 -0.0189
-15 13 9 0.5910 -0.0380
-15 13 10 1.2543 -0.0314
-15 13 11 -0.7694 0.0257
-15 13 12 1.1351 -0.0428
-15 13 13 -3.0423 -0.0408
-15 13 14 -0.3711 -0.0806
-15 13 15 -0.3896 0.0149
-15 13 16 -0.3484 0.0218
-15 13 17 0.9094 0.1929
-15 13 18 -0.8117 0.0454
-15 13 19 0.7748 0.0942
-15 14 1 -1.4676 -0.0344
-15 14 2 0.1297 -0.0775
-15 14 3 -0.9457 -0.0436
-15 14 4 2.2328 -0.0312
-15 14 5 -0.7674 -0.0405
-15 14 6 3.9984 -0.0635
-15 14 7 -1.7470 -0.0078
-15 14 8 0.8854 0.0340
-15 14 9 -2.2589 0.0355
-15 14 10 -1.2802 -0.0354
-15 14 11 -1.0506 -0.0187
-15 14 12 1.0616 0.0217
-15 14 13 -1.7822 0.0495
-15 14 14 0.8309 0.0802
-15 14 15 -0.6728 0.1388
-15 14 16 -0.0793 -0.0628
-15 14 17 0.2913 -0.0257
-15 14 18 0.8477 0.1749
-15 15 1 -0.3286 0.0805
-15 15 2 -0.8730 0.0039
-15 15 3 0.2082 -0.0046
-15 15 4 -0.6461 0.0369
-15 15 5 1.2154 0.0697
-15 15 6 0.2872 -0.0481
-15 15 7 1.1740 0.0149
-15 15 8 1.3467 0.0457
-15 15 9 -0.4242 -0.0005
-15 15 10 1.7987 0.0128
-15 15 11 -1.4853 0.0005
-15 15 12 2.0139 -0.1794
-15 15 13 -0.6452 -0.0386
-15 15 14 -0.1472 0.0159
-15 15 15 -0.0538 0.2768
-15 15 16 -0.1739 0.1035
-15 15 17 0.7936 0.4243
-15 16 1 -0.3292 0.0080
-15 16 2 0.6782 -0.0135
-15 16 3 -1.1076 -0.0545
-15 16 4 1.3002 0.0162
-15 16 5 -0.8009 0.0353
-15 16 6 0.6995 -0.0942
-15 16 7 0.1634 -0.0014
-15 16 8 0.2017 -0.0951
-15 16 9 -0.8500 -0.0514
-15 16 10 -0.2896 0.1021
-15 16 11 -1.2632 0.0850
-15 16 12 0.6336 0.0243
-15 16 13 -0.8439 0.2753
-15 16 14 -0.2168 -0.1811
-15 16 15 -0.0386 0.1181
-15 17 1 -0.1502 -0.0052
-15 17 2 -0.7995 0.0140
-15 17 3 -0.5194 -0.0713
-15 17 4 -0.6685 0.0653
-15 17 5 0.3079 0.0182
-15 17 6 0.9214 0.0483
-15 17 7 1.2279 -0.0225
-15 17 8 1.8516 -0.1015
-15 17 9 0.6002 -0.0093
-15 17 10 0.3446 -0.0235
-15 17 11 0.1841 -0.2631
-15 17 12 -0.3702 -0.0668
-15 17 13 1.2072 -0.2416
-15 18 1 -0.3930 0.0744
-15 18 2 0.5736 0.0338
-15 18 3 -0.0810 -0.0138
-15 18 4 0.5167 0.1177
-15 18 5 0.2748 -0.1088
-15 18 6 -0.3443 0.0545
-15 18 7 -0.1022 0.0171
-15 18 8 -0.0239 -0.1285
-15 18 9 -0.0849 0.0786
-15 18 10 -0.3495 0.1503
-15 18 11 0.2169 0.1016
-15 19 1 0.7583 -0.1026
-15 19 2 0.0244 0.2201
-15 19 3 -0.1400 -0.1594
-15 19 4 -0.6252 0.3165
-15 19 5 -0.5781 -0.1594
-15 19 6 0.5189 0.2382
-15 19 7 0.5297 0.0857
-14 0 2 -15.3441 0.0128
-14 0 4 -32.6564 -0.0761
-14 0 6 -23.9190 -0.0279
-14 0 8 4.1540 0.0016
-14 0 10 17.7913 -0.0083
-14 0 12 11.9451 0.0086
-14 0 14 0.3088 -0.0167
-14 0 16 -2.8743 -0.0140
-14 0 18 -1.3057 0.0003
-14 0 20 0.2140 -0.0123
-14 0 22 -0.0563 0.0118
-14 0 24 1.3821 0.0068
-14 1 1 -17.1433 -0.0237
-14 1 2 -2.5773 0.0916
-14 1 3 -1.6546 0.0010
-14 1 4 2.0385 0.0582
-14 1 5 7.2664 0.0176
-14 1 6 11.7441 -0.0179
-14 1 7 1.1693 0.0100
-14 1 8 9.0176 -0.0072
-14 1 9 -7.1257 -0.0051
-14 1 10 -2.4540 -0.0350
-14 1 11 -3.1338 -0.0114
-14 1 12 -3.9258 -0.0111
-14 1 13 -0.3208 0.0083
-14 1 14 -0.5121 -0.0238
-14 1 15 0.4083 0.0533
-14 1 16 0.7248 -0.0286
-14 1 17 1.0803 0.0038
-14 1 18 -0.4784 0.0271
-14 1 19 1.2730 -0.0282
-14 1 20 -0.3130 0.0005
-14 1 21 -0.0056 -0.0412
-14 1 22 -0.2144 -0.0342
-14 1 23 -0.6392 -0.0508
-14 1 24 1.0417 0.0188
-14 1 25 -0.1521 0.0753
-14 2 1 15.3769 0.0053
-14 2 2 -8.3161 -0.0351
-14 2 3 17.2909 -0.0675
-14 2 4 -20.6589 -0.0585
-14 2 5 2.1185 -0.0556
-14 2 6 -16.7590 -0.0353
-14 2 7 -10.1619 0.0316
-14 2 8 -1.2383 -0.0103
-14 2 9 -5.2826 0.0240
-14 2 10 9.1903 -0.0170
-14 2 11 2.4961 -0.0133
-14 2 12 9.1101 0.0135
-14 2 13 2.7646 -0.0020
-14 2 14 1.8564 -0.0055
-14 2 15 -0.7375 0.0128
-14 2 16 -2.7200 -0.0538
-14 2 17 -0.4408 -0.0205
-14 2 18 -2.3193 -0.0193
-14 2 19 -1.3877 -0.0252
-14 2 20 -0.8799 -0.0092
-14 2 21 0.2111 0.0158
-14 2 22 0.7867 -0.0102
-14 2 23 0.7745 0.0512
-14 2 24 1.2207 0.0893
-14 2 25 -0.0781 0.0375
-14 3 1 -3.8691 -0.0093
-14 3 2 1.1689 0.0214
-14 3 3 -6.8156 0.0215
-14 3 4 -0.0993 0.0209
-14 3 5 -7.0614 -0.0120
-14 3 6 5.0526 0.0031
-14 3 7 -0.3593 -0.0201
-14 3 8 4.2840 -0.0026
-14 3 9 5.2652 0.0209
-14 3 10 -1.7103 -0.0099
-14 3 11 -0.0273 0.0109
-14 3 12 -1.2756 -0.0272
-14 3 13 -4.0899 0.0109
-14 3 14 0.8307 -0.0487
-14 3 15 -1.7782 0.0129
-14 3 16 0.7908 0.0455
-14 3 17 2.0703 -0.0140
-14 3 18 0.2126 0.0291
-14 3 19 1.5218 -0.0168
-14 3 20 0.4252 -0.0232
-14 3 21 0.0546 -0.0050
-14 3 22 -0.9413 -0.0258
-14 3 23 -1.0326 -0.0222
-14 3 24 0.1108 -0.0343
-14 4 1 7.0733 -0.0103
-14 4 2 -8.3520 -0.0198
-14 4 3 6.4716 0.0109
-14 4 4 -11.1259 0.0250
-14 4 5 1.0017 -0.0084
-14 4 6 -7.3843 0.0252
-14 4 7 -5.9673 -0.0237
-14 4 8 1.5013 -0.0101
-14 4 9 -7.3828 0.0415
-14 4 10 5.2171 -0.0363
-14 4 11 -0.5494 -0.0035
-14 4 12 5.1484 -0.0056
-14 4 13 4.4849 -0.0329
-14 4 14 2.6527 -0.0248
-14 4 15 2.6277 0.0050
-14 4 16 0.0148 0.0078
-14 4 17 0.2685 -0.0057
-14 4 18 -2.0030 0.0206
-14 4 19 -0.7157 0.0209
-14 4 20 -2.9111 -0.0606
-14 4 21 0.3011 0.0241
-14 4 22 -0.1018 -0.0394
-14 4 23 0.6534 0.0761
-14 4 24 1.6822 0.0786
-14 5 1 -0.8809 0.0315
-14 5 2 13.7316 -0.0024
-14 5 3 -0.9732 0.0002
-14 5 4 8.6751 -0.0543
-14 5 5 -4.0290 -0.0031
-14 5 6 -5.3517 -0.0109
-14 5 7 0.9839 -0.0038
-14 5 8 -7.0707 -0.0321
-14 5 9 5.4455 -0.0180
-14 5 10 2.0734 -0.0102
-14 5 11 0.9791 0.0314
-14 5 12 6.2584 0.0296
-14 5 13 -2.5166 0.0273
-14 5 14 3.8603 -0.0085
-14 5 15 -2.3795 0.0395
-14 5 16 -0.4130 -0.0001
-14 5 17 0.9537 0.0030
-14 5 18 -0.9325 -0.0139
-14 5 19 2.8912 -0.0503
-14 5 20 -0.3959 -0.0405
-14 5 21 2.1454 0.0357
-14 5 22 0.3199 -0.0154
-14 5 23 -0.0443 -0.0349
-14 5 24 0.2656 -0.0553
-14 6 1 4.1513 -0.0788
-14 6 2 -6.1914 0.0012
-14 6 3 -2.0652 0.0009
-14 6 4 -8.3052 0.0399
-14 6 5 -1.5513 -0.0038
-14 6 6 -5.5402 0.0278
-14 6 7 -4.6169 -0.0031
-14 6 8 1.1581 0.0306
-14 6 9 -4.9860 0.0117
-14 6 10 3.9533 0.0162
-14 6 11 -2.7075 -0.0078
-14 6 12 2.7340 0.0260
-14 6 13 0.9644 0.0191
-14 6 14 1.3173 -0.0273
-14 6 15 2.1016 0.0073
-14 6 16 -0.2576 -0.0344
-14 6 17 2.1192 -0.0318
-14 6 18 -1.9386 0.0176
-14 6 19 1.5796 0.0006
-14 6 20 -1.1675 -0.0168
-14 6 21 -0.0196 0.0320
-14 6 22 -0.1312 -0.0876
-14 6 23 -1.6554 0.0029
-14 6 24 0.7546 -0.0054
-14 7 1 -5.3866 0.0278
-14 7 2 6.8056 0.0303
-14 7 3 1.2502 0.0366
-14 7 4 4.2960 -0.0201
-14 7 5 7.0013 0.0074
-14 7 6 -7.6979 -0.0140
-14 7 7 4.2609 0.0147
-14 7 8 -8.2349 -0.0083
-14 7 9 -3.4877 0.0173
-14 7 10 1.4847 -0.0086
-14 7 11 -4.0832 -0.0047
-14 7 12 5.9064 -0.0205
-14 7 13 -0.6117 -0.0206
-14 7 14 1.9828 -0.0420
-14 7 15 1.0349 0.0410
-14 7 16 -1.5525 0.0089
-14 7 17 1.1550 -0.0045
-14 7 18 -1.2605 0.0676
-14 7 19 0.6702 -0.0074
-14 7 20 -0.0541 0.0169
-14 7 21 -0.1890 0.1135
-14 7 22 1.4490 -0.0279
-14 7 23 -0.1787 -0.0208
-14 8 1 4.6761 -0.0456
-14 8 2 -2.0005 -0.0008
-14 8 3 -0.3609 -0.0401
-14 8 4 -4.3057 0.0268
-14 8 5 -4.0482 0.0042
-14 8 6 -1.5279 -0.0026
-14 8 7 -6.9483 -0.0070
-14 8 8 0.3802 -0.0141
-14 8 9 -4.7280 -0.0198
-14 8 10 2.1188 -0.0215
-14 8 11 -2.2792 0.0111
-14 8 12 0.3857 0.0207
-14 8 13 -0.1369 -0.0089
-14 8 14 -0.5791 0.0237
-14 8 15 1.2444 -0.0077
-14 8 16 -2.3419 -0.0085
-14 8 17 1.3803 0.0089
-14 8 18 -0.8714 -0.0745
-14 8 19 0.1646 0.0083
-14 8 20 0.6319 -0.0122
-14 8 21 -0.3645 0.0599
-14 8 22 0.1815 0.0290
-14 8 23 -0.6591 -0.0442
-14 9 1 -1.1724 0.0155
-14 9 2 1.2245 -0.0143
-14 9 3 1.2460 -0.0075
-14 9 4 -1.3827 0.0002
-14 9 5 7.3816 -0.0071
-14 9 6 -2.2499 0.0138
-14 9 7 4.9833 0.0240
-14 9 8 -2.0220 0.0105
-14 9 9 -1.6426 0.0083
-14 9 10 -0.1498 -0.0008
-14 9 11 -3.7208 0.0183
-14 9 12 1.2934 -0.0200
-14 9 13 -0.2849 -0.0054
-14 9 14 0.7630 0.0181
-14 9 15 3.1153 -0.0323
-14 9 16 -0.0465 0.0110
-14 9 17 2.8374 0.0224
-14 9 18 -0.7360 -0.0350
-14 9 19 0.4972 -0.0436
-14 9 20 0.2873 0.0311
-14 9 21 -0.1996 0.0214
-14 9 22 1.1891 0.0958
-14 10 1 2.2395 -0.0197
-14 10 2 -0.9031 0.0466
-14 10 3 0.1796 0.0110
-14 10 4 -0.2716 0.0301
-14 10 5 -1.9886 0.0252
-14 10 6 1.6665 -0.0148
-14 10 7 -2.3906 -0.0298
-14 10 8 0.3556 -0.0229
-14 10 9 -3.2553 -0.0108
-14 10 10 -0.3836 0.0200
-14 10 11 -0.7517 0.0102
-14 10 12 0.0638 0.0051
-14 10 13 1.3479 -0.0217
-14 10 14 -0.3327 -0.0148
-14 10 15 1.6244 -0.0634
-14 10 16 -1.2610 0.0376
-14 10 17 -0.2752 0.0628
-14 10 18 0.1341 0.0211
-14 10 19 -1.3310 0.0334
-14 10 20 -0.0273 0.2163
-14 10 21 -1.1300 -0.1225
-14 10 22 0.0959 0.2260
-14 11 1 -1.2546 -0.0026
-14 11 2 -0.2562 -0.0118
-14 11 3 2.1869 -0.0132
-14 11 4 -0.4000 -0.0001
-14 11 5 1.8729 -0.0072
-14 11 6 -0.4077 0.0296
-14 11 7 0.9068 -0.0121
-14 11 8 -0.9462 -0.0193
-14 11 9 -0.0088 -0.0781
-14 11 10 0.8636 0.0092
-14 11 11 -2.3743 0.0090
-14 11 12 -0.4163 0.0128
-14 11 13 -2.2179 0.0298
-14 11 14 0.4145 0.0093
-14 11 15 0.6479 -0.0634
-14 11 16 0.6553 0.0425
-14 11 17 0.8967 -0.0537
-14 11 18 0.0468 -0.0171
-14 11 19 0.8135 -0.0711
-14 11 20 0.5300 -0.0326
-14 11 21 0.1464 0.0240
-14 12 1 -0.3023 -0.0283
-14 12 2 -1.6118 0.0458
-14 12 3 -0.9092 0.0240
-14 12 4 1.5735 0.0313
-14 12 5 -2.0434 -0.0211
-14 12 6 2.6042 0.0205
-14 12 7 -2.0447 0.0309
-14 12 8 -0.5334 0.0398
-14 12 9 -1.2465 0.0411
-14 12 10 -2.0862 0.0264
-14 12 11 0.7498 -0.0053
-14 12 12 -0.0807 0.0048
-14 12 13 -0.2259 0.0238
-14 12 14 0.1917 -0.0038
-14 12 15 -0.4664 -0.0670
-14 12 16 1.3246 0.0598
-14 12 17 0.0266 0.0454
-14 12 18 0.9454 0.1364
-14 12 19 -0.4172 0.1302
-14 12 20 -0.5909 0.0943
-14 13 1 0.5651 -0.0016
-14 13 2 -1.0125 -0.0458
-14 13 3 1.7744 -0.0061
-14 13 4 0.7077 0.0163
-14 13 5 2.1446 -0.0167
-14 13 6 0.2733 -0.0097
-14 13 7 2.4505 -0.0349
-14 13 8 -0.1020 -0.0384
-14 13 9 -0.0387 -0.0130
-14 13 10 1.2750 -0.0322
-14 13 11 -2.1182 -0.0121
-14 13 12 0.6822 -0.0832
-14 13 13 -2.1044 -0.0295
-14 13 14 -0.8531 -0.0204
-14 13 15 0.9728 0.0915
-14 13 16 -0.5834 0.1042
-14 13 17 1.0582 0.0801
-14 13 18 -0.3867 -0.0367
-14 13 19 0.8536 0.0307
-14 14 1 -1.1266 -0.0063
-14 14 2 0.2970 -0.0321
-14 14 3 -0.5707 -0.0171
-14 14 4 2.7728 -0.0040
-14 14 5 -1.5447 -0.0078
-14 14 6 3.4513 0.0040
-14 14 7 -2.2816 0.0205
-14 14 8 -0.1453 0.0639
-14 14 9 -1.9106 0.0704
-14 14 10 -0.8384 -0.0008
-14 14 11 -0.9783 0.0119
-14 14 12 1.3725 0.0846
-14 14 13 -1.5718 0.0162
-14 14 14 0.1224 0.0002
-14 14 15 -0.4861 0.0416
-14 14 16 0.2074 -0.0192
-14 14 17 -0.0622 -0.0389
-14 14 18 1.0578 0.2241
-14 15 1 0.1449 0.0494
-14 15 2 -1.3564 -0.0179
-14 15 3 0.9937 0.0031
-14 15 4 -0.8062 -0.0014
-14 15 5 1.5687 0.0458
-14 15 6 0.7514 -0.0467
-14 15 7 1.2498 -0.0524
-14 15 8 2.2671 0.0424
-14 15 9 -1.0652 -0.0144
-14 15 10 1.4828 -0.1028
-14 15 11 -1.6324 -0.0292
-14 15 12 0.6990 -0.1384
-14 15 13 0.2264 0.0533
-14 15 14 -1.4152 0.1949
-14 15 15 0.4757 0.3193
-14 15 16 -0.2062 0.1651
-14 15 17 0.4494 0.1749
-14 16 1 -0.8838 0.0154
-14 16 2 1.0674 -0.0013
-14 16 3 -0.9081 -0.0391
-14 16 4 1.0096 -0.0426
-14 16 5 -0.6721 0.0767
-14 16 6 0.1061 -0.0949
-14 16 7 0.2162 -0.0478
-14 16 8 -0.0995 0.0162
-14 16 9 -0.5163 0.0015
-14 16 10 -0.4612 0.1280
-14 16 11 -0.9601 0.0978
-14 16 12 0.1874 -0.1083
-14 16 13 -0.4195 0.0506
-14 16 14 -0.3858 -0.2590
-14 16 15 0.1751 -0.0133
-14 17 1 -0.8028 -0.0112
-14 17 2 -0.7876 -0.0129
-14 17 3 0.1375 -0.0070
-14 17 4 -0.1298 0.0351
-14 17 5 0.7726 0.0767
-14 17 6 1.5263 -0.0640
-14 17 7 0.8748 -0.0455
-14 17 8 1.9758 -0.1012
-14 17 9 0.3618 -0.1032
-14 17 10 -0.1297 -0.0193
-14 17 11 0.4563 -0.1559
-14 17 12 -0.5465 0.0646
-14 17 13 1.1185 -0.0225
-14 18 1 -0.3876 0.0800
-14 18 2 1.0510 0.0284
-14 18 3 0.1662 -0.0526
-14 18 4 0.1643 0.0150
-14 18 5 0.4088 0.0443
-14 18 6 -0.8190 -0.0777
-14 18 7 0.0685 0.1515
-14 18 8 -0.0256 -0.0368
-14 18 9 0.2269 -0.0014
-14 18 10 -0.0640 0.1622
-14 18 11 0.1862 0.0105
-14 19 1 -0.0865 -0.0796
-14 19 2 -0.1639 0.1688
-14 19 3 -0.5048 -0.1221
-14 19 4 -0.0778 0.2262
-14 19 5 -0.5112 -0.0055
-14 19 6 1.0058 -0.1370
-14 19 7 0.7490 0.2018
-14 19 8 1.0751 -0.5170
-13 0 2 -30.9090 -0.0002
-13 0 4 -33.4922 -0.0675
-13 0 6 -8.7478 0.0546
-13 0 8 18.6259 0.0491
-13 0 10 18.8461 -0.0125
-13 0 12 5.9642 0.0109
-13 0 14 -4.3406 -0.0108
-13 0 16 -4.1508 -0.0002
-13 0 18 -1.3385 0.0027
-13 0 20 0.6753 -0.0087
-13 0 22 0.2078 0.0106
-13 0 24 1.0080 -0.0131
-13 1 1 -7.2504 -0.0243
-13 1 2 -1.7205 0.1109
-13 1 3 5.6360 0.0148
-13 1 4 7.8659 0.0000
-13 1 5 4.2441 -0.0259
-13 1 6 13.6300 -0.0596
-13 1 7 -7.0351 -0.0353
-13 1 8 5.5839 0.0002
-13 1 9 -9.6469 -0.0230
-13 1 10 -4.5246 -0.0314
-13 1 11 -0.5032 -0.0036
-13 1 12 -3.3177 -0.0260
-13 1 13 2.7312 0.0169
-13 1 14 -0.0052 -0.0250
-13 1 15 2.3882 0.0318
-13 1 16 0.2353 -0.0235
-13 1 17 1.2908 -0.0418
-13 1 18 -0.8633 0.0110
-13 1 19 0.9705 -0.0381
-13 1 20 -0.4339 -0.0162
-13 1 21 -0.7887 -0.0270
-13 1 22 0.2953 -0.0081
-13 1 23 -1.1286 -0.0081
-13 1 24 1.2821 0.0591
-13 1 25 -0.0718 0.1301
-13 2 1 18.6364 -0.0878
-13 2 2 -19.1779 -0.0829
-13 2 3 11.2296 -0.0421
-13 2 4 -22.3412 -0.0395
-13 2 5 -5.2364 0.0039
-13 2 6 -7.0747 -0.0177
-13 2 7 -9.3339 0.0389
-13 2 8 8.4388 0.0025
-13 2 9 -0.1003 0.0019
-13 2 10 11.4240 0.0268
-13 2 11 4.4479 -0.0096
-13 2 12 5.3684 0.0309
-13 2 13 1.9976 0.0143
-13 2 14 -2.4887 0.0026
-13 2 15 -0.6070 0.0169
-13 2 16 -4.2313 -0.0188
-13 2 17 -0.3515 0.0119
-13 2 18 -1.6860 -0.0057
-13 2 19 -1.5538 0.0233
-13 2 20 0.3481 -0.0056
-13 2 21 0.6744 0.0546
-13 2 22 1.3349 -0.0036
-13 2 23 -0.0162 0.0396
-13 2 24 0.6905 0.0655
-13 2 25 -0.4720 -0.0231
-13 3 1 -1.2389 0.0201
-13 3 2 2.0324 0.0594
-13 3 3 -5.9570 -0.0138
-13 3 4 3.8660 -0.0089
-13 3 5 -9.5569 -0.0264
-13 3 6 5.7834 -0.0239
-13 3 7 -3.3140 -0.0203
-13 3 8 1.0741 -0.0204
-13 3 9 3.3498 -0.0104
-13 3 10 -3.3579 -0.0050
-13 3 11 -0.6993 -0.0142
-13 3 12 -0.4586 -0.0387
-13 3 13 -2.2688 -0.0040
-13 3 14 1.2502 -0.0450
-13 3 15 1.0946 -0.0218
-13 3 16 0.3885 0.0534
-13 3 17 3.0748 -0.0368
-13 3 18 -0.1845 -0.0157
-13 3 19 0.5600 -0.0031
-13 3 20 -0.1118 -0.0469
-13 3 21 -1.3962 -0.0223
-13 3 22 -0.3622 -0.0065
-13 3 23 -1.2146 0.0367
-13 3 24 0.8508 -0.0029
-13 3 25 -0.2432 0.3195
-13 4 1 5.7169 -0.0148
-13 4 2 -13.3745 -0.0190
-13 4 3 4.1805 0.0049
-13 4 4 -10.7942 0.0276
-13 4 5 -1.4382 -0.0394
-13 4 6 -1.0581 -0.0120
-13 4 7 -7.0326 -0.0159
-13 4 8 6.9844 -0.0303
-13 4 9 -4.5376 0.0212
-13 4 10 7.7577 -0.0118
-13 4 11 3.4065 -0.0059
-13 4 12 4.0730 0.0329
-13 4 13 5.6931 0.0008
-13 4 14 -0.0515 0.0053
-13 4 15 2.6501 0.0222
-13 4 16 -2.2452 0.0213
-13 4 17 -0.3923 0.0339
-13 4 18 -2.4244 -0.0102
-13 4 19 -0.9208 0.0359
-13 4 20 -1.3924 -0.0659
-13 4 21 0.5546 0.0504
-13 4 22 1.6047 0.0114
-13 4 23 -0.0054 0.0870
-13 4 24 1.6805 0.0920
-13 5 1 2.2573 0.0324
-13 5 2 14.9896 -0.0302
-13 5 3 -0.7496 -0.0337
-13 5 4 3.0554 -0.0286
-13 5 5 -5.3881 0.0011
-13 5 6 -8.5866 0.0040
-13 5 7 -0.2370 0.0083
-13 5 8 -6.1566 -0.0288
-13 5 9 3.7535 -0.0046
-13 5 10 3.9427 0.0068
-13 5 11 0.1602 0.0291
-13 5 12 6.1267 0.0031
-13 5 13 -1.5842 0.0215
-13 5 14 2.2330 -0.0096
-13 5 15 -0.3897 -0.0206
-13 5 16 -1.1632 -0.0111
-13 5 17 2.6415 -0.0406
-13 5 18 -0.7456 -0.0508
-13 5 19 2.2061 -0.0058
-13 5 20 0.1520 -0.0152
-13 5 21 0.2804 0.0021
-13 5 22 0.7179 -0.0217
-13 5 23 -0.9081 -0.0457
-13 5 24 -0.0696 -0.0718
-13 6 1 -0.8417 -0.0284
-13 6 2 -10.9302 0.0231
-13 6 3 -3.7471 0.0422
-13 6 4 -8.6664 0.0408
-13 6 5 -1.2481 -0.0222
-13 6 6 -1.5219 0.0191
-13 6 7 -6.2832 -0.0043
-13 6 8 4.8596 0.0045
-13 6 9 -5.1252 0.0062
-13 6 10 4.7356 0.0100
-13 6 11 0.1315 -0.0075
-13 6 12 1.7692 0.0192
-13 6 13 3.8684 0.0257
-13 6 14 -0.3689 -0.0431
-13 6 15 3.1674 0.0028
-13 6 16 -1.8996 0.0068
-13 6 17 1.4824 -0.0050
-13 6 18 -2.2324 0.0174
-13 6 19 0.4995 0.0499
-13 6 20 -0.3490 -0.0403
-13 6 21 -1.2460 0.0337
-13 6 22 0.6809 -0.0452
-13 6 23 -1.8060 -0.0319
-13 6 24 0.9656 0.0253
-13 7 1 -0.1230 0.0363
-13 7 2 8.0855 -0.0146
-13 7 3 3.8335 0.0423
-13 7 4 0.0669 -0.0341
-13 7 5 5.9265 0.0201
-13 7 6 -10.1630 -0.0161
-13 7 7 0.0130 0.0210
-13 7 8 -6.3472 -0.0193
-13 7 9 -6.8367 0.0227
-13 7 10 3.7205 -0.0372
-13 7 11 -2.8698 -0.0125
-13 7 12 4.3142 -0.0398
-13 7 13 1.4310 0.0167
-13 7 14 -0.2458 -0.0146
-13 7 15 2.0525 0.0556
-13 7 16 -1.9454 0.0403
-13 7 17 1.0306 -0.0379
-13 7 18 -0.7517 0.0276
-13 7 19 -0.0806 0.0165
-13 7 20 0.9860 -0.0392
-13 7 21 -0.4390 0.0695
-13 7 22 1.9341 -0.0129
-13 7 23 -0.1994 -0.0728
-13 8 1 3.6021 -0.0546
-13 8 2 -4.4967 -0.0099
-13 8 3 -1.5801 -0.0219
-13 8 4 -4.9884 -0.0002
-13 8 5 -4.9996 0.0129
-13 8 6 1.0356 -0.0241
-13 8 7 -7.5449 0.0006
-13 8 8 2.5289 -0.0196
-13 8 9 -4.3147 0.0185
-13 8 10 1.5883 0.0134
-13 8 11 -0.2286 0.0315
-13 8 12 -0.8622 0.0307
-13 8 13 2.3613 -0.0039
-13 8 14 -1.9289 -0.0213
-13 8 15 1.8647 -0.0011
-13 8 16 -2.2992 -0.0362
-13 8 17 0.7099 -0.0009
-13 8 18 0.1014 -0.0536
-13 8 19 -0.6792 0.0604
-13 8 20 0.7069 -0.0061
-13 8 21 -0.8474 0.0631
-13 8 22 0.1529 0.0043
-13 8 23 -0.5840 -0.1181
-13 9 1 2.7713 0.0230
-13 9 2 1.7943 -0.0179
-13 9 3 3.7807 0.0126
-13 9 4 -2.1332 0.0035
-13 9 5 7.1832 0.0326
-13 9 6 -2.5513 0.0277
-13 9 7 1.7024 0.0353
-13 9 8 -0.8342 -0.0107
-13 9 9 -4.2481 0.0079
-13 9 10 0.0546 -0.0222
-13 9 11 -2.7803 0.0109
-13 9 12 0.0373 -0.0135
-13 9 13 1.9569 -0.0139
-13 9 14 0.0884 -0.0076
-13 9 15 4.2141 -0.0028
-13 9 16 -0.1217 -0.0187
-13 9 17 1.7170 0.0076
-13 9 18 -0.1247 -0.0127
-13 9 19 -0.3480 -0.0253
-13 9 20 1.1245 0.0368
-13 9 21 -0.1529 0.0978
-13 9 22 1.0968 0.0655
-13 10 1 -0.1629 -0.0224
-13 10 2 -1.5359 0.0530
-13 10 3 -0.8712 0.0013
-13 10 4 0.4314 -0.0197
-13 10 5 -2.8510 0.0051
-13 10 6 2.4396 -0.0382
-13 10 7 -2.7713 -0.0263
-13 10 8 -0.0980 -0.0193
-13 10 9 -2.8220 0.0100
-13 10 10 -0.3552 -0.0025
-13 10 11 0.6606 0.0004
-13 10 12 -0.3099 -0.0029
-13 10 13 1.6805 -0.0306
-13 10 14 -1.4798 -0.0074
-13 10 15 1.1784 0.0036
-13 10 16 -1.0067 -0.0050
-13 10 17 -1.0308 0.0837
-13 10 18 0.4826 0.0251
-13 10 19 -2.0427 -0.0083
-13 10 20 -0.1119 0.1562
-13 10 21 -1.0590 -0.0655
-13 10 22 0.0421 0.0629
-13 11 1 0.5385 -0.0123
-13 11 2 0.6310 -0.0197
-13 11 3 2.7489 -0.0045
-13 11 4 -0.1065 0.0250
-13 11 5 1.6753 0.0035
-13 11 6 -0.0809 0.0157
-13 11 7 0.8827 -0.0107
-13 11 8 -0.0891 -0.0103
-13 11 9 -0.7728 -0.0485
-13 11 10 0.2266 0.0197
-13 11 11 -2.4369 0.0471
-13 11 12 -0.9182 0.0011
-13 11 13 -0.3943 -0.0031
-13 11 14 0.4260 0.0115
-13 11 15 1.8699 -0.0608
-13 11 16 0.3460 -0.0562
-13 11 17 1.0744 -0.0403
-13 11 18 0.4550 -0.0482
-13 11 19 0.6878 -0.0285
-13 11 20 0.7503 0.0415
-13 11 21 -0.0645 0.1301
-13 12 1 -1.1258 0.0106
-13 12 2 -0.6154 0.0482
-13 12 3 -1.6813 0.0219
-13 12 4 2.7417 0.0126
-13 12 5 -1.7971 -0.0139
-13 12 6 1.5331 0.0244
-13 12 7 -0.9947 0.0386
-13 12 8 -1.9917 0.0244
-13 12 9 -0.4170 -0.0074
-13 12 10 -1.7444 0.0072
-13 12 11 1.1736 -0.0168
-13 12 12 -0.2554 -0.0294
-13 12 13 -0.3334 -0.0156
-13 12 14 -0.4362 -0.0202
-13 12 15 -0.0765 -0.0606
-13 12 16 1.4583 0.0451
-13 12 17 0.0425 0.1330
-13 12 18 0.1452 0.0287
-13 12 19 -0.4863 0.0496
-13 12 20 -0.6765 0.0178
-13 13 1 1.2765 -0.0353
-13 13 2 -0.8800 -0.0513
-13 13 3 1.5214 -0.0210
-13 13 4 1.1005 0.0298
-13 13 5 2.4519 -0.0355
-13 13 6 0.2276 -0.0382
-13 13 7 3.0289 -0.0114
-13 13 8 0.0974 -0.0113
-13 13 9 -1.2915 0.0110
-13 13 10 0.9246 -0.0233
-13 13 11 -2.3333 -0.0181
-13 13 12 0.1380 -0.0577
-13 13 13 -0.3855 0.0286
-13 13 14 -1.2626 0.0696
-13 13 15 1.6110 0.0857
-13 13 16 -0.4726 0.0656
-13 13 17 0.9659 -0.0154
-13 13 18 -0.1567 -0.0850
-13 13 19 0.7582 0.0162
-13 14 1 -0.5444 0.0208
-13 14 2 0.7617 0.0096
-13 14 3 -0.7324 0.0021
-13 14 4 2.5515 0.0351
-13 14 5 -2.2597 0.0062
-13 14 6 2.0335 0.0461
-13 14 7 -1.7963 0.0389
-13 14 8 -0.6660 0.0577
-13 14 9 -0.9518 0.0714
-13 14 10 -0.4172 0.0298
-13 14 11 -0.7524 -0.0353
-13 14 12 0.8428 0.0437
-13 14 13 -1.0682 -0.0693
-13 14 14 -0.1216 -0.0427
-13 14 15 -0.4452 -0.0044
-13 14 16 0.8901 0.0831
-13 14 17 -0.1715 0.0144
-13 14 18 0.8709 0.1468
-13 15 1 0.8826 0.0114
-13 15 2 -1.6037 -0.0383
-13 15 3 1.5318 -0.0037
-13 15 4 -0.5318 -0.0203
-13 15 5 1.5668 -0.0190
-13 15 6 1.0133 -0.0255
-13 15 7 1.0546 -0.0814
-13 15 8 2.1958 -0.0026
-13 15 9 -1.3228 0.0019
-13 15 10 0.1872 -0.1119
-13 15 11 -0.9717 -0.0075
-13 15 12 -1.0865 0.0365
-13 15 13 1.0658 0.1351
-13 15 14 -2.2823 0.2486
-13 15 15 0.4690 0.1790
-13 15 16 0.0141 0.0874
-13 15 17 -0.0406 -0.0392
-13 16 1 -0.7540 0.0066
-13 16 2 0.7414 -0.0064
-13 16 3 -0.2235 0.0000
-13 16 4 0.7196 -0.0451
-13 16 5 -0.5856 0.0757
-13 16 6 -0.2058 -0.0043
-13 16 7 0.5204 -0.0801
-13 16 8 -0.3391 0.0668
-13 16 9 0.3714 0.0439
-13 16 10 -0.7417 0.0228
-13 16 11 -0.3613 -0.0419
-13 16 12 -0.2101 -0.2155
-13 16 13 0.0260 -0.1099
-13 16 14 -0.3871 -0.1503
-13 16 15 0.2211 0.0333
-13 17 1 -0.7743 0.0108
-13 17 2 -0.8675 -0.0372
-13 17 3 1.0766 0.0470
-13 17 4 0.2836 -0.0357
-13 17 5 0.7109 0.0532
-13 17 6 1.6973 -0.0843
-13 17 7 0.2271 -0.1022
-13 17 8 1.4055 -0.0317
-13 17 9 0.3988 -0.0556
-13 17 10 -0.9037 0.0401
-13 17 11 0.6605 0.0368
-13 17 12 -0.8732 0.2162
-13 17 13 0.9243 0.0527
-13 17 14 -0.0813 0.3715
-13 18 1 0.0128 0.0526
-13 18 2 0.7913 -0.0155
-13 18 3 0.6140 -0.0079
-13 18 4 -0.3781 -0.0925
-13 18 5 0.6522 0.1936
-13 18 6 -1.0774 -0.0664
-13 18 7 0.3172 0.0913
-13 18 8 0.1242 0.0540
-13 18 9 0.6883 -0.1410
-13 18 10 0.4212 -0.0243
-13 18 11 0.3524 -0.0312
-13 19 1 -0.8739 -0.0349
-13 19 2 -0.2590 0.1094
-13 19 3 -0.4477 -0.0508
-13 19 4 0.4396 0.0133
-13 19 5 -0.2820 0.1308
-13 19 6 1.0811 -0.3462
-13 19 7 0.7278 0.1697
-13 19 8 0.6936 -0.2851
-12 0 2 -37.7765 0.0212
-12 0 4 -21.0371 0.0222
-12 0 6 10.8539 0.1144
-12 0 8 26.0455 0.0319
-12 0 10 12.6848 -0.0269
-12 0 12 -1.4627 0.0191
-12 0 14 -7.0888 -0.0018
-12 0 16 -3.7535 0.0087
-12 0 18 -0.7299 -0.0021
-12 0 20 1.3702 -0.0024
-12 0 22 0.0334 -0.0012
-12 0 24 0.3184 -0.0253
-12 1 1 1.1216 -0.0063
-12 1 2 2.2109 0.0344
-12 1 3 4.5802 -0.0199
-12 1 4 12.5310 -0.0544
-12 1 5 -5.4650 -0.0795
-12 1 6 11.8220 -0.0478
-12 1 8 1.5054 0.0171
-12 1 9 -5.7115 -0.0054
-12 1 10 -5.3431 -0.0327
-12 1 11 5.0707 0.0082
-12 1 12 -2.4912 -0.0237
-12 1 13 5.6369 0.0002
-12 1 14 0.0978 -0.0022
-12 1 15 2.9555 0.0008
-12 1 16 -0.0540 -0.0063
-12 1 17 0.4933 -0.0494
-12 1 18 -0.9084 0.0156
-12 1 19 0.1693 -0.0171
-12 1 20 -0.2900 0.0024
-12 1 21 -1.4425 -0.0042
-12 1 22 0.9019 0.0302
-12 1 23 -0.9573 0.0415
-12 1 24 1.0948 0.0790
-12 1 25 0.1344 0.1446
-12 2 1 17.5568 -0.0752
-12 2 2 -24.0149 -0.0594
-12 2 3 3.3589 0.0606
-12 2 4 -12.6314 0.0162
-12 2 5 -7.5073 0.0174
-12 2 6 6.6699 -0.0016
-12 2 7 -5.4370 0.0016
-12 2 8 13.0911 0.0173
-12 2 9 3.6868 -0.0146
-12 2 10 7.5610 0.0534
-12 2 11 4.6232 0.0032
-12 2 12 -0.6830 0.0337
-12 2 13 1.1460 0.0164
-12 2 14 -5.3945 0.0128
-12 2 15 -0.4414 0.0176
-12 2 16 -3.5585 0.0088
-12 2 17 -0.7923 0.0321
-12 2 18 -0.1048 -0.0117
-12 2 19 -1.8049 0.0348
-12 2 20 1.2776 -0.0063
-12 2 21 0.5141 0.0314
-12 2 22 0.9731 -0.0071
-12 2 23 -0.7948 -0.0073
-12 2 24 -0.0545 0.0222
-12 2 25 -0.3685 -0.0299
-12 3 1 1.1705 -0.0172
-12 3 2 3.7163 0.0029
-12 3 3 -11.0983 -0.0524
-12 3 4 5.2639 -0.0429
-12 3 5 -15.3856 -0.0197
-12 3 6 2.8814 -0.0250
-12 3 7 -4.2157 -0.0486
-12 3 8 -2.1732 -0.0134
-12 3 9 4.7023 -0.0475
-12 3 10 -2.9521 -0.0059
-12 3 11 1.0881 -0.0188
-12 3 12 0.9568 -0.0361
-12 3 13 0.2893 -0.0141
-12 3 14 1.3306 -0.0207
-12 3 15 2.5696 -0.0351
-12 3 16 0.3843 0.0402
-12 3 17 1.9756 -0.0234
-12 3 18 -0.2790 -0.0353
-12 3 19 -1.3576 0.0040
-12 3 20 -0.2059 -0.0233
-12 3 21 -2.2532 -0.0280
-12 3 22 0.5365 0.0337
-12 3 23 -0.6178 0.1333
-12 3 24 0.9833 0.0054
-12 3 25 0.0333 0.3780
-12 4 1 4.0462 -0.0008
-12 4 2 -14.6327 0.0115
-12 4 3 2.9118 -0.0086
-12 4 4 -4.0013 -0.0044
-12 4 5 -2.1184 -0.0491
-12 4 6 6.5064 -0.0316
-12 4 7 -5.5599 -0.0082
-12 4 8 9.1188 -0.0030
-12 4 9 -0.1733 0.0011
-12 4 10 6.5148 0.0300
-12 4 11 6.6016 0.0203
-12 4 12 0.8653 0.0528
-12 4 13 5.9382 0.0170
-12 4 14 -2.5689 0.0184
-12 4 15 1.9344 0.0262
-12 4 16 -2.8433 0.0010
-12 4 17 -1.4026 0.0472
-12 4 18 -0.8989 -0.0302
-12 4 19 -0.9060 0.0202
-12 4 20 0.4749 -0.0190
-12 4 21 0.4814 0.0574
-12 4 22 2.0980 0.0365
-12 4 23 -0.5004 0.0588
-12 4 24 0.9334 0.0591
-12 5 1 4.5533 -0.0213
-12 5 2 11.1860 -0.0166
-12 5 3 -4.8869 -0.0324
-12 5 4 -4.4299 0.0220
-12 5 5 -8.9790 0.0310
-12 5 6 -10.5553 0.0028
-12 5 7 -1.0034 0.0084
-12 5 8 -4.9593 -0.0152
-12 5 9 3.7876 -0.0173
-12 5 10 4.9390 0.0048
-12 5 11 1.2983 0.0085
-12 5 12 5.0968 -0.0139
-12 5 13 0.1976 -0.0088
-12 5 14 0.9616 0.0069
-12 5 15 1.2072 -0.0693
-12 5 16 -1.0584 -0.0322
-12 5 17 2.5115 -0.0226
-12 5 18 -0.3605 -0.0420
-12 5 19 0.2382 0.0140
-12 5 20 0.5667 0.0245
-12 5 21 -1.0801 -0.0446
-12 5 22 0.4015 -0.0390
-12 5 23 -0.8778 -0.0070
-12 5 24 -1.0077 -0.0662
-12 6 1 -3.2639 0.0358
-12 6 2 -11.8008 0.0325
-12 6 3 -2.1574 0.0224
-12 6 4 -4.3934 0.0140
-12 6 5 -1.5711 -0.0400
-12 6 6 3.7925 -0.0050
-12 6 7 -7.5974 -0.0026
-12 6 8 6.6203 -0.0124
-12 6 9 -3.2909 -0.0023
-12 6 10 3.3688 0.0177
-12 6 11 3.8839 -0.0114
-12 6 12 -0.0428 0.0053
-12 6 13 5.6755 0.0120
-12 6 14 -1.8317 -0.0162
-12 6 15 2.5518 0.0123
-12 6 16 -2.3361 0.0350
-12 6 17 0.0655 0.0279
-12 6 18 -1.1516 0.0016
-12 6 19 -0.6716 0.0463
-12 6 20 0.8281 -0.0155
-12 6 21 -1.7313 0.0012
-12 6 22 1.0987 -0.0233
-12 6 23 -0.9507 -0.0430
-12 6 24 0.7272 0.0180
-12 7 1 3.3471 0.0335
-12 7 2 6.0642 -0.0413
-12 7 3 3.5174 0.0336
-12 7 4 -4.9842 -0.0136
-12 7 5 2.4714 0.0182
-12 7 6 -10.7636 -0.0172
-12 7 7 -4.2690 0.0199
-12 7 8 -4.1559 -0.0269
-12 7 9 -7.3248 0.0114
-12 7 10 3.8830 -0.0370
-12 7 11 0.0818 -0.0002
-12 7 12 1.6812 -0.0167
-12 7 13 3.2334 0.0417
-12 7 14 -1.2284 0.0277
-12 7 15 2.1146 0.0187
-12 7 16 -1.5310 0.0275
-12 7 17 -0.0161 -0.0497
-12 7 18 -0.0641 -0.0336
-12 7 19 -1.0165 0.0259
-12 7 20 1.7226 -0.0185
-12 7 21 -0.7305 0.0016
-12 7 22 1.5263 0.0271
-12 7 23 -0.1903 -0.0657
-12 8 1 2.4589 -0.0133
-12 8 2 -4.0750 -0.0299
-12 8 3 -2.4292 -0.0070
-12 8 4 -2.8153 -0.0069
-12 8 5 -5.9371 0.0139
-12 8 6 4.4912 -0.0163
-12 8 7 -7.4416 0.0162
-12 8 8 3.0340 -0.0011
-12 8 9 -2.0208 0.0337
-12 8 10 -0.2262 0.0423
-12 8 11 3.0038 0.0148
-12 8 12 -2.3392 -0.0045
-12 8 13 3.7438 -0.0097
-12 8 14 -2.4085 -0.0443
-12 8 15 1.4330 -0.0149
-12 8 16 -0.9924 -0.0156
-12 8 17 -0.0621 0.0155
-12 8 18 1.0028 -0.0341
-12 8 19 -1.2676 0.0941
-12 8 20 0.6675 -0.0004
-12 8 21 -0.6671 -0.0161
-12 8 22 0.3978 -0.0061
-12 8 23 0.0874 -0.1371
-12 9 1 4.8305 0.0315
-12 9 2 1.1251 -0.0274
-12 9 3 3.7576 0.0292
-12 9 4 -3.0204 0.0101
-12 9 5 4.4227 0.0367
-12 9 6 -2.1702 0.0250
-12 9 7 -2.1555 0.0162
-12 9 8 -0.4245 -0.0357
-12 9 9 -5.2009 -0.0016
-12 9 10 -1.4906 -0.0094
-12 9 11 -0.4650 0.0063
-12 9 12 -1.3480 -0.0041
-12 9 13 3.8235 0.0027
-12 9 14 0.0629 -0.0243
-12 9 15 3.4168 0.0096
-12 9 16 0.2012 -0.0060
-12 9 17 -0.2075 -0.0114
-12 9 18 0.6211 -0.0079
-12 9 19 -0.8395 0.0365
-12 9 20 1.3205 0.0403
-12 9 21 -0.2901 0.1057
-12 9 22 0.6442 0.0669
-12 10 1 -2.6856 -0.0126
-12 10 2 -0.5113 0.0180
-12 10 3 -1.3416 -0.0077
-12 10 4 1.8616 -0.0629
-12 10 5 -3.2657 -0.0042
-12 10 6 2.8439 -0.0265
-12 10 7 -2.2899 -0.0128
-12 10 8 -0.8271 -0.0154
-12 10 9 -0.6924 0.0174
-12 10 10 -0.4591 -0.0087
-12 10 11 2.4767 -0.0120
-12 10 12 -1.3756 0.0005
-12 10 13 1.6364 -0.0057
-12 10 14 -2.0225 -0.0255
-12 10 15 0.7648 0.0446
-12 10 16 0.0914 -0.0287
-12 10 17 -1.8276 0.0271
-12 10 18 0.7504 0.0102
-12 10 19 -2.0786 -0.0257
-12 10 20 -0.2749 0.0627
-12 10 21 -0.4355 -0.0008
-12 10 22 -0.1455 0.0108
-12 11 1 1.1127 -0.0001
-12 11 2 1.1902 -0.0025
-12 11 3 2.1174 0.0207
-12 11 4 -0.0271 0.0288
-12 11 5 1.2612 0.0120
-12 11 6 0.5061 0.0013
-12 11 7 0.3694 0.0002
-12 11 8 -0.0649 0.0062
-12 11 9 -1.6597 -0.0175
-12 11 10 -1.2080 0.0144
-12 11 11 -1.2859 0.0467
-12 11 12 -1.3215 -0.0083
-12 11 13 1.4854 -0.0284
-12 11 14 0.0897 -0.0239
-12 11 15 2.0151 -0.0324
-12 11 16 0.2286 -0.0988
-12 11 17 0.8223 -0.0183
-12 11 18 0.8379 0.0242
-12 11 19 0.4230 0.0341
-12 11 20 0.4391 0.0444
-12 11 21 -0.0538 0.1393
-12 12 1 -2.2781 0.0201
-12 12 2 0.5890 0.0148
-12 12 3 -2.0544 0.0002
-12 12 4 2.5491 -0.0178
-12 12 5 -0.7910 -0.0087
-12 12 6 -0.2690 0.0114
-12 12 7 0.4524 0.0111
-12 12 8 -2.4476 0.0028
-12 12 9 0.5413 -0.0355
-12 12 10 -1.1291 -0.0076
-12 12 11 1.5407 -0.0169
-12 12 12 -0.5782 -0.0557
-12 12 13 0.0421 -0.0436
-12 12 14 -0.3015 -0.0275
-12 12 15 0.4444 0.0014
-12 12 16 1.5697 0.0177
-12 12 17 -0.1071 0.1046
-12 12 18 -0.4250 -0.0529
-12 12 19 -0.2258 -0.0650
-12 12 20 -0.3259 -0.0125
-12 13 1 0.9587 -0.0341
-12 13 2 0.1555 -0.0082
-12 13 3 1.1349 -0.0133
-12 13 4 0.9432 0.0369
-12 13 5 2.8666 -0.0109
-12 13 6 -0.3891 -0.0384
-12 13 7 2.4974 0.0300
-12 13 8 -0.0377 0.0405
-12 13 9 -2.5246 0.0192
-12 13 10 0.2370 -0.0150
-12 13 11 -1.2542 0.0136
-12 13 12 -0.5912 0.0037
-12 13 13 0.9165 0.0502
-12 13 14 -1.4547 0.0804
-12 13 15 1.4703 0.0283
-12 13 16 -0.3016 -0.0200
-12 13 17 0.8457 -0.0493
-12 13 18 -0.3265 -0.0189
-12 13 19 0.4629 -0.0071
-12 14 1 -0.4663 0.0169
-12 14 2 1.2707 0.0277
-12 14 3 -1.2628 -0.0043
-12 14 4 1.5031 0.0536
-12 14 5 -2.3188 0.0019
-12 14 6 0.6929 0.0336
-12 14 7 -0.7555 0.0354
-12 14 8 -0.3265 0.0400
-12 14 9 -0.1870 0.0197
-12 14 10 -0.2032 0.0227
-12 14 11 -0.4860 -0.1004
-12 14 12 0.3894 -0.0225
-12 14 13 -0.5119 -0.0872
-12 14 14 0.4771 0.0079
-12 14 15 -0.5508 0.0303
-12 14 16 1.3413 0.1119
-12 14 17 0.1155 0.0436
-12 14 18 0.2266 0.0064
-12 15 1 1.4683 -0.0071
-12 15 2 -1.0094 -0.0351
-12 15 3 1.6015 -0.0281
-12 15 4 -0.1619 -0.0024
-12 15 5 1.4034 -0.0562
-12 15 6 0.5866 -0.0076
-12 15 7 0.9094 -0.0443
-12 15 8 1.2444 -0.0256
-12 15 9 -1.0202 0.0277
-12 15 10 -1.5085 -0.0128
-12 15 11 -0.0304 0.0169
-12 15 12 -2.5265 0.1361
-12 15 13 1.3898 0.1024
-12 15 14 -2.3127 0.1164
-12 15 15 0.1556 -0.0125
-12 15 16 0.1208 -0.0210
-12 15 17 -0.3068 -0.0851
-12 16 1 -0.2818 -0.0210
-12 16 2 0.4572 -0.0040
-12 16 3 0.3108 0.0189
-12 16 4 0.9342 0.0160
-12 16 5 -0.6627 0.0247
-12 16 6 -0.4989 0.0585
-12 16 7 1.1290 -0.0807
-12 16 8 -0.7224 0.0064
-12 16 9 1.3948 0.0172
-12 16 10 -0.9431 -0.0832
-12 16 11 0.0331 -0.1732
-12 16 12 -0.4454 -0.1632
-12 16 13 0.2103 -0.0526
-12 16 14 -0.2643 0.0662
-12 16 15 0.2767 0.1388
-12 16 16 -0.1945 0.2773
-12 17 1 0.0457 0.0346
-12 17 2 -0.7745 -0.0538
-12 17 3 1.5190 0.0390
-12 17 4 0.7792 -0.0512
-12 17 5 0.1693 -0.0158
-12 17 6 1.3604 -0.0011
-12 17 7 -0.2690 -0.0677
-12 17 8 0.2284 0.0360
-12 17 9 0.5382 0.0680
-12 17 10 -1.5568 0.0896
-12 17 11 0.5975 0.1002
-12 17 12 -1.0305 0.2282
-12 17 13 0.7642 -0.0253
-12 17 14 -0.3694 0.1876
-12 18 1 0.6756 0.0077
-12 18 2 -0.0272 -0.0620
-12 18 3 0.9701 0.0635
-12 18 4 -0.5456 -0.1159
-12 18 5 0.9268 0.1843
-12 18 6 -1.0196 0.0344
-12 18 7 0.8094 -0.0736
-12 18 8 0.3135 0.0264
-12 18 9 1.2979 -0.1768
-12 18 10 0.8778 -0.2132
-12 18 11 0.5374 0.0107
-12 18 12 1.1234 -0.3740
-12 19 1 -0.9913 0.0035
-12 19 2 -0.3205 0.0344
-12 19 3 -0.2087 0.0136
-12 19 4 0.7657 -0.1598
-12 19 5 -0.1462 0.1408
-12 19 6 0.8779 -0.2731
-12 19 7 0.4094 0.0413
-12 19 8 0.1746 -0.0272
-12 19 9 -0.0110 -0.0604
-11 0 2 -31.2824 0.1125
-11 0 4 1.1371 0.0740
-11 0 6 25.6445 0.0666
-11 0 8 22.7208 -0.0190
-11 0 10 2.8126 -0.0230
-11 0 12 -6.8974 0.0195
-11 0 14 -6.9842 -0.0027
-11 0 16 -2.0025 0.0058
-11 0 18 0.1886 -0.0079
-11 0 20 1.5861 0.0025
-11 0 22 -0.7885 -0.0155
-11 0 24 -0.2659 -0.0127
-11 1 1 0.2651 -0.0197
-11 1 2 5.8454 -0.0525
-11 1 3 -5.4791 -0.0537
-11 1 4 13.2062 -0.0240
-11 1 5 -14.6091 -0.0556
-11 1 6 8.5862 -0.0177
-11 1 7 -10.6905 0.0088
-11 1 8 -0.7400 0.0119
-11 1 9 3.9624 0.0231
-11 1 10 -4.5805 -0.0232
-11 1 11 9.5851 0.0091
-11 1 12 -1.5009 0.0023
-11 1 13 5.8125 -0.0172
-11 1 14 0.1675 0.0329
-11 1 15 1.4558 -0.0009
-11 1 16 0.1172 0.0213
-11 1 17 -0.9498 -0.0154
-11 1 18 -0.5201 0.0290
-11 1 19 -0.7851 0.0054
-11 1 20 0.1089 0.0188
-11 1 21 -1.6299 0.0144
-11 1 22 1.1747 0.0403
-11 1 23 -0.4714 0.0725
-11 1 24 0.5350 0.0487
-11 1 25 0.1620 0.1049
-11 2 1 13.9806 0.0507
-11 2 2 -16.7220 0.0128
-11 2 3 -1.5981 0.0907
-11 2 4 4.3417 0.0412
-11 2 5 -5.3970 -0.0373
-11 2 6 15.1343 -0.0169
-11 2 7 -2.3230 -0.0262
-11 2 8 8.9317 0.0051
-11 2 9 5.3220 -0.0087
-11 2 10 0.2109 0.0491
-11 2 11 4.1132 0.0046
-11 2 12 -4.9330 0.0178
-11 2 13 0.4392 0.0052
-11 2 14 -4.7906 0.0068
-11 2 15 -0.8060 0.0112
-11 2 16 -0.9974 0.0119
-11 2 17 -1.4808 0.0222
-11 2 18 1.5983 -0.0241
-11 2 19 -1.8982 0.0106
-11 2 20 1.5162 -0.0025
-11 2 21 0.0836 -0.0147
-11 2 22 0.1454 -0.0234
-11 2 23 -0.9474 -0.0177
-11 2 24 -0.4820 -0.0043
-11 2 25 0.1918 0.0163
-11 3 1 -2.6283 -0.0796
-11 3 2 3.8152 -0.0691
-11 3 3 -22.4745 -0.0438
-11 3 4 2.7125 -0.0167
-11 3 5 -18.6286 -0.0101
-11 3 6 -0.9322 -0.0063
-11 3 7 0.6883 -0.0752
-11 3 8 -3.4723 -0.0073
-11 3 9 9.0987 -0.0373
-11 3 10 -1.2124 -0.0097
-11 3 11 3.3992 0.0113
-11 3 12 2.1058 -0.0039
-11 3 13 1.5915 -0.0053
-11 3 14 1.3991 0.0017
-11 3 15 1.7469 -0.0170
-11 3 16 0.6782 0.0236
-11 3 17 -0.4331 0.0025
-11 3 18 -0.5010 -0.0121
-11 3 19 -2.5614 -0.0028
-11 3 20 -0.0890 0.0197
-11 3 21 -1.7429 -0.0026
-11 3 22 0.9802 0.0429
-11 3 23 0.3274 0.2174
-11 3 24 0.2898 -0.0378
-11 3 25 0.1987 0.3173
-11 4 1 4.6265 0.0257
-11 4 2 -7.5341 -0.0000
-11 4 3 3.5079 -0.0303
-11 4 4 6.4546 -0.0338
-11 4 5 -1.6554 -0.0333
-11 4 6 10.4807 -0.0007
-11 4 7 -3.2345 -0.0045
-11 4 8 6.6786 0.0305
-11 4 9 3.4523 0.0043
-11 4 10 2.6188 0.0344
-11 4 11 7.7720 0.0407
-11 4 12 -2.1803 0.0303
-11 4 13 4.8112 0.0031
-11 4 14 -3.0056 0.0006
-11 4 15 0.3756 0.0156
-11 4 16 -1.2902 -0.0306
-11 4 17 -2.3485 0.0224
-11 4 18 1.2687 -0.0083
-11 4 19 -0.6087 0.0004
-11 4 20 1.1825 0.0321
-11 4 21 0.4475 0.0528
-11 4 22 1.3669 0.0162
-11 4 23 -0.4086 0.0261
-11 4 24 -0.0057 0.0336
-11 5 1 1.7725 -0.0582
-11 5 2 2.7848 0.0341
-11 5 3 -12.2950 0.0177
-11 5 4 -10.8583 0.0405
-11 5 5 -10.2242 0.0347
-11 5 6 -10.7188 -0.0043
-11 5 7 1.5057 -0.0188
-11 5 8 -3.4883 0.0010
-11 5 9 5.8270 -0.0302
-11 5 10 5.5327 -0.0080
-11 5 11 2.8749 -0.0067
-11 5 12 4.1868 0.0014
-11 5 13 1.2600 -0.0336
-11 5 14 0.8985 0.0198
-11 5 15 1.2560 -0.0598
-11 5 16 -0.3767 -0.0363
-11 5 17 0.6387 0.0120
-11 5 18 -0.2419 0.0081
-11 5 19 -1.6564 -0.0041
-11 5 20 0.3968 0.0343
-11 5 21 -1.2850 -0.0486
-11 5 22 -0.6926 -0.0591
-11 5 23 -0.3245 0.0384
-11 5 24 -1.9350 -0.0482
-11 6 1 -2.2094 0.0313
-11 6 2 -7.4748 0.0039
-11 6 3 -1.1008 -0.0186
-11 6 4 2.0573 -0.0187
-11 6 5 -3.8787 -0.0293
-11 6 6 7.0409 -0.0163
-11 6 7 -7.1951 -0.0096
-11 6 8 5.3399 -0.0059
-11 6 9 0.5151 -0.0114
-11 6 10 0.5888 0.0173
-11 6 11 6.8537 -0.0259
-11 6 12 -1.7824 -0.0003
-11 6 13 5.1650 -0.0009
-11 6 14 -2.2712 0.0181
-11 6 15 0.8574 0.0358
-11 6 16 -1.3100 0.0197
-11 6 17 -1.0948 0.0178
-11 6 18 0.3922 0.0109
-11 6 19 -1.0784 -0.0024
-11 6 20 1.3041 0.0098
-11 6 21 -1.0046 -0.0070
-11 6 22 0.7473 -0.0436
-11 6 23 0.3949 -0.0217
-11 6 24 0.2660 0.0195
-11 7 1 3.3227 0.0172
-11 7 2 1.5256 -0.0113
-11 7 3 0.9761 0.0050
-11 7 4 -8.5385 0.0106
-11 7 5 -1.7897 0.0115
-11 7 6 -9.5481 -0.0172
-11 7 7 -6.6258 0.0071
-11 7 8 -2.3766 -0.0104
-11 7 9 -4.9608 0.0024
-11 7 10 2.9303 -0.0043
-11 7 11 3.2250 0.0207
-11 7 12 0.0679 0.0210
-11 7 13 3.5875 0.0216
-11 7 14 -0.5842 0.0415
-11 7 15 0.7917 -0.0153
-11 7 16 -0.7457 -0.0168
-11 7 17 -1.4580 -0.0347
-11 7 18 0.6449 -0.0340
-11 7 19 -1.6585 0.0082
-11 7 20 1.6735 0.0483
-11 7 21 -0.7981 -0.0284
-11 7 22 0.3912 0.0116
-11 7 23 -0.0447 -0.0181
-11 8 1 2.1205 0.0216
-11 8 2 -0.9541 -0.0271
-11 8 3 -3.2435 -0.0134
-11 8 4 0.2519 0.0172
-11 8 5 -6.6835 0.0150
-11 8 6 6.0782 -0.0004
-11 8 7 -5.9196 0.0183
-11 8 8 1.1488 0.0189
-11 8 9 1.7193 0.0092
-11 8 10 -2.4839 0.0379
-11 8 11 5.3632 -0.0124
-11 8 12 -3.1947 -0.0390
-11 8 13 3.0800 -0.0198
-11 8 14 -1.4407 -0.0148
-11 8 15 0.3606 -0.0222
-11 8 16 0.8696 0.0069
-11 8 17 -0.8185 0.0416
-11 8 18 1.4789 -0.0204
-11 8 19 -1.3566 0.0456
-11 8 20 0.8111 0.0078
-11 8 21 0.2237 -0.0872
-11 8 22 0.5760 -0.0363
-11 8 23 0.9143 -0.0597
-11 9 1 3.3952 0.0336
-11 9 2 -0.1247 -0.0258
-11 9 3 1.8724 0.0049
-11 9 4 -3.2280 0.0176
-11 9 5 0.6601 0.0108
-11 9 6 -1.8596 0.0121
-11 9 7 -4.7266 -0.0085
-11 9 8 -1.5687 -0.0354
-11 9 9 -3.9189 -0.0060
-11 9 10 -3.3314 0.0246
-11 9 11 2.5153 0.0131
-11 9 12 -1.4619 0.0000
-11 9 13 4.0478 0.0116
-11 9 14 0.5654 -0.0074
-11 9 15 0.9963 -0.0039
-11 9 16 0.6130 0.0096
-11 9 17 -1.7085 0.0003
-11 9 18 1.0407 -0.0140
-11 9 19 -0.8655 0.0737
-11 9 20 0.8671 0.0717
-11 9 21 -0.5278 0.0412
-11 9 22 0.0277 0.0462
-11 10 1 -3.9880 0.0052
-11 10 2 1.5596 -0.0225
-11 10 3 -1.3057 -0.0131
-11 10 4 3.1498 -0.0544
-11 10 5 -3.1482 -0.0063
-11 10 6 2.3685 0.0029
-11 10 7 -0.5103 -0.0003
-11 10 8 -1.8819 -0.0106
-11 10 9 2.1784 0.0112
-11 10 10 -0.8312 0.0017
-11 10 11 3.2112 -0.0104
-11 10 12 -2.0648 -0.0061
-11 10 13 0.8683 0.0147
-11 10 14 -0.9833 -0.0330
-11 10 15 0.0785 0.0175
-11 10 16 1.3984 -0.0328
-11 10 17 -2.4271 -0.0339
-11 10 18 0.5596 -0.0205
-11 10 19 -1.2756 0.0006
-11 10 20 -0.4039 0.0319
-11 10 21 0.3031 0.0130
-11 10 22 -0.2604 0.0211
-11 11 1 0.5467 0.0259
-11 11 2 0.9811 0.0101
-11 11 3 1.1332 0.0270
-11 11 4 -0.0954 0.0087
-11 11 5 0.6093 0.0050
-11 11 6 0.6624 -0.0059
-11 11 7 -0.6655 0.0052
-11 11 8 -1.3476 0.0074
-11 11 9 -1.9127 -0.0146
-11 11 10 -2.7396 0.0023
-11 11 11 0.7099 0.0264
-11 11 12 -1.3817 -0.0199
-11 11 13 2.3043 -0.0295
-11 11 14 -0.0150 -0.0445
-11 11 15 1.1486 -0.0096
-11 11 16 0.6521 -0.0394
-11 11 17 0.4090 0.0122
-11 11 18 0.7670 0.0738
-11 11 19 0.2499 0.0582
-11 11 20 -0.0518 -0.0210
-11 11 21 0.2302 0.0460
-11 12 1 -3.1368 -0.0015
-11 12 2 1.3560 -0.0253
-11 12 3 -1.5352 -0.0087
-11 12 4 1.6444 -0.0324
-11 12 5 0.7029 -0.0099
-11 12 6 -1.3518 0.0083
-11 12 7 1.7440 -0.0130
-11 12 8 -1.8376 -0.0018
-11 12 9 1.1274 -0.0212
-11 12 10 -0.6023 -0.0100
-11 12 11 1.7468 -0.0135
-11 12 12 -0.4527 -0.0626
-11 12 13 0.5948 -0.0326
-11 12 14 0.3516 -0.0234
-11 12 15 0.5869 0.0287
-11 12 16 1.4443 -0.0062
-11 12 17 -0.3099 -0.0130
-11 12 18 -0.7001 -0.0867
-11 12 19 0.1370 -0.0627
-11 12 20 -0.1054 -0.0055
-11 13 1 0.1182 -0.0092
-11 13 2 1.0099 0.0409
-11 13 3 1.0168 0.0102
-11 13 4 -0.2088 0.0221
-11 13 5 2.6114 0.0282
-11 13 6 -0.9984 -0.0145
-11 13 7 0.8588 0.0376
-11 13 8 -0.0302 0.0711
-11 13 9 -3.0207 0.0217
-11 13 10 -0.5112 -0.0183
-11 13 11 0.1198 0.0426
-11 13 12 -1.0261 0.0387
-11 13 13 1.0874 0.0140
-11 13 14 -0.9816 0.0168
-11 13 15 1.0532 -0.0116
-11 13 16 0.0025 -0.0316
-11 13 17 0.6702 -0.0452
-11 13 18 -0.3970 0.0724
-11 13 19 -0.0785 -0.0456
-11 14 1 -1.4993 -0.0102
-11 14 2 1.3346 0.0254
-11 14 3 -1.5503 -0.0158
-11 14 4 0.0237 0.0353
-11 14 5 -1.7075 -0.0062
-11 14 6 0.1042 0.0012
-11 14 7 0.2588 0.0117
-11 14 8 0.4860 0.0285
-11 14 9 0.3371 -0.0360
-11 14 10 -0.2064 -0.0092
-11 14 11 -0.1893 -0.0936
-11 14 12 0.5364 -0.0331
-11 14 13 -0.2309 -0.0181
-11 14 14 1.2711 0.0663
-11 14 15 -0.5327 0.0535
-11 14 16 1.0819 0.0311
-11 14 17 0.6591 0.0059
-11 14 18 -0.4427 -0.0756
-11 15 1 1.4514 -0.0129
-11 15 2 0.2032 -0.0129
-11 15 3 1.1417 -0.0460
-11 15 4 -0.0321 0.0242
-11 15 5 1.0361 -0.0285
-11 15 6 -0.2216 -0.0013
-11 15 7 0.5795 0.0048
-11 15 8 0.0710 -0.0062
-11 15 9 -0.5113 0.0206
-11 15 10 -2.8809 0.0624
-11 15 11 0.6080 -0.0078
-11 15 12 -2.9731 0.0657
-11 15 13 1.0580 0.0015
-11 15 14 -1.7103 -0.0607
-11 15 15 -0.1319 -0.0861
-11 15 16 -0.1343 -0.0460
-11 15 17 -0.1887 -0.0265
-11 16 1 -0.0476 -0.0531
-11 16 2 0.6079 0.0222
-11 16 3 0.5489 0.0025
-11 16 4 1.1703 0.0711
-11 16 5 -0.6342 -0.0212
-11 16 6 -1.0377 0.0338
-11 16 7 1.8945 -0.0518
-11 16 8 -0.8699 -0.0617
-11 16 9 1.8696 -0.0337
-11 16 10 -0.8331 -0.0713
-11 16 11 -0.1775 -0.1432
-11 16 12 -0.5367 0.0013
-11 16 13 0.0884 0.1170
-11 16 14 -0.0470 0.1990
-11 16 15 0.3743 0.1491
-11 16 16 -0.2978 0.1405
-11 17 1 0.6619 0.0272
-11 17 2 -0.0892 -0.0445
-11 17 3 0.9886 -0.0188
-11 17 4 1.2470 0.0090
-11 17 5 -0.2707 -0.0334
-11 17 6 0.4182 0.0811
-11 17 7 -0.3636 0.0392
-11 17 8 -0.9099 0.0357
-11 17 9 0.6725 0.0881
-11 17 10 -1.4396 0.0666
-11 17 11 0.5385 0.0066
-11 17 12 -0.8436 0.0999
-11 17 13 0.8052 -0.0986
-11 17 14 -0.3604 0.0039
-11 18 1 1.1652 -0.0310
-11 18 2 -0.6627 -0.0709
-11 18 3 0.9148 0.0764
-11 18 4 -0.3194 -0.0496
-11 18 5 1.1369 0.0531
-11 18 6 -0.9940 0.1094
-11 18 7 1.3124 -0.1437
-11 18 8 0.3988 -0.0633
-11 18 9 1.4876 -0.0815
-11 18 10 1.1605 -0.2286
-11 18 11 0.3815 0.0637
-11 18 12 0.9571 -0.1642
-11 19 1 -0.6036 0.0109
-11 19 2 -0.0774 -0.0304
-11 19 3 -0.1570 0.0101
-11 19 4 0.8999 -0.1857
-11 19 5 -0.1423 0.0185
-11 19 6 0.3743 -0.0817
-11 19 7 -0.1031 -0.0603
-11 19 8 -0.4821 0.0265
-11 19 9 -0.5946 -0.0141
-11 20 1 0.1568 -0.0516
-11 20 2 -0.5320 -0.3917
-11 20 3 0.7017 -0.0333
-11 20 4 -0.6021 -0.3651
-10 0 2 -13.7920 0.1616
-10 0 4 22.4451 -0.0003
-10 0 6 27.1795 -0.0213
-10 0 8 11.5118 -0.0277
-10 0 10 -4.4830 -0.0049
-10 0 12 -7.5174 -0.0008
-10 0 14 -4.0310 -0.0077
-10 0 16 0.2773 -0.0021
-10 0 18 0.9862 -0.0089
-10 0 20 1.2853 0.0034
-10 0 22 -1.4945 -0.0162
-10 0 24 -0.3386 0.0145
-10 1 1 -11.3515 -0.0354
-10 1 2 5.9004 -0.0313
-10 1 3 -16.2538 0.0092
-10 1 4 11.5102 0.0468
-10 1 5 -12.5219 0.0302
-10 1 6 7.0964 -0.0305
-10 1 7 2.2568 0.0497
-10 1 8 -1.6683 -0.0011
-10 1 9 13.1927 0.0264
-10 1 10 -4.1632 0.0078
-10 1 11 9.3843 0.0058
-10 1 12 -1.1286 0.0290
-10 1 13 3.1313 -0.0139
-10 1 14 0.3808 0.0573
-10 1 15 -1.0266 0.0265
-10 1 16 0.6106 0.0350
-10 1 17 -2.0999 0.0236
-10 1 18 -0.1353 0.0183
-10 1 19 -1.2789 0.0062
-10 1 20 0.2516 0.0068
-10 1 21 -1.2116 0.0238
-10 1 22 0.8529 0.0149
-10 1 23 -0.0834 0.0649
-10 1 24 -0.1282 -0.0110
-10 1 25 0.0310 0.0319
-10 2 1 11.6664 0.1035
-10 2 2 1.0615 0.0455
-10 2 3 -2.9723 0.0009
-10 2 4 18.2596 0.0036
-10 2 5 -3.6295 -0.0647
-10 2 6 12.2324 -0.0566
-10 2 7 -1.9484 -0.0139
-10 2 8 -0.7527 -0.0237
-10 2 9 5.6128 -0.0019
-10 2 10 -5.2678 0.0299
-10 2 11 3.1911 -0.0086
-10 2 12 -5.0890 -0.0097
-10 2 13 -0.4299 -0.0006
-10 2 14 -1.4857 -0.0104
-10 2 15 -1.5993 -0.0020
-10 2 16 1.7496 0.0045
-10 2 17 -1.9691 -0.0021
-10 2 18 2.3456 -0.0212
-10 2 19 -1.8629 -0.0138
-10 2 20 0.7847 0.0012
-10 2 21 -0.1386 -0.0333
-10 2 22 -0.7027 -0.0400
-10 2 23 -0.3199 0.0171
-10 2 24 -0.4548 0.0121
-10 2 25 0.7313 0.0431
-10 3 1 -16.1338 -0.0778
-10 3 2 -0.7081 -0.0376
-10 3 3 -33.1977 -0.0008
-10 3 4 -1.6204 0.0334
-10 3 5 -12.3693 0.0022
-10 3 6 -2.0827 -0.0045
-10 3 7 11.7269 -0.0525
-10 3 8 -2.3542 -0.0087
-10 3 9 13.4801 0.0191
-10 3 10 1.1887 0.0027
-10 3 11 3.0272 0.0510
-10 3 12 3.1301 0.0360
-10 3 13 0.0224 0.0100
-10 3 14 1.7660 0.0004
-10 3 15 -0.8235 0.0085
-10 3 16 0.8548 0.0175
-10 3 17 -2.4523 0.0153
-10 3 18 -0.8103 0.0249
-10 3 19 -2.3117 -0.0103
-10 3 20 0.0865 0.0365
-10 3 21 -0.6186 0.0469
-10 3 22 0.5590 -0.0015
-10 3 23 0.8942 0.2287
-10 3 24 -0.7190 -0.0835
-10 4 1 7.6122 0.0243
-10 4 2 5.8421 -0.0464
-10 4 3 3.9995 -0.0402
-10 4 4 12.5216 -0.0057
-10 4 5 -1.6595 0.0021
-10 4 6 7.3626 0.0333
-10 4 7 -0.7516 0.0040
-10 4 8 0.7493 0.0161
-10 4 9 6.1329 0.0226
-10 4 10 -1.5450 -0.0063
-10 4 11 7.2757 0.0283
-10 4 12 -3.0384 -0.0155
-10 4 13 2.7433 -0.0167
-10 4 14 -1.0526 -0.0244
-10 4 15 -1.1585 -0.0069
-10 4 16 1.0507 -0.0345
-10 4 17 -2.2028 -0.0091
-10 4 18 2.2547 0.0362
-10 4 19 0.3423 0.0061
-10 4 20 0.4199 0.0407
-10 4 21 0.7440 0.0395
-10 4 22 0.1830 -0.0159
-10 4 23 0.0941 0.0098
-10 4 24 -0.7778 0.0462
-10 5 1 -6.3980 -0.0171
-10 5 2 -5.7727 0.0601
-10 5 3 -18.3026 0.0461
-10 5 4 -14.1274 0.0164
-10 5 5 -6.7177 -0.0046
-10 5 6 -9.8325 0.0037
-10 5 7 6.2961 -0.0335
-10 5 8 -1.7276 0.0027
-10 5 9 8.0791 -0.0134
-10 5 10 6.4852 -0.0108
-10 5 11 3.3086 -0.0127
-10 5 12 4.1614 0.0296
-10 5 13 0.8534 -0.0286
-10 5 14 1.6398 0.0161
-10 5 15 -0.2414 -0.0116
-10 5 16 -0.1266 -0.0119
-10 5 17 -1.4402 0.0141
-10 5 18 -0.8062 0.0418
-10 5 19 -1.9060 -0.0160
-10 5 20 -0.3994 0.0018
-10 5 21 -0.3331 -0.0116
-10 5 22 -1.9294 -0.0570
-10 5 23 0.2269 0.0387
-10 5 24 -2.2382 -0.0256
-10 6 1 0.8850 -0.0188
-10 6 2 -0.0049 -0.0432
-10 6 3 -2.5016 -0.0160
-10 6 4 6.8543 -0.0242
-10 6 5 -6.2690 -0.0117
-10 6 6 6.5351 -0.0086
-10 6 7 -4.4703 -0.0221
-10 6 8 1.9873 0.0006
-10 6 9 4.1362 -0.0096
-10 6 10 -1.9441 0.0010
-10 6 11 6.8439 -0.0361
-10 6 12 -2.2559 0.0036
-10 6 13 2.3897 0.0110
-10 6 14 -1.1718 0.0162
-10 6 15 -0.8506 0.0417
-10 6 16 0.4759 -0.0048
-10 6 17 -1.6349 -0.0356
-10 6 18 1.2413 0.0401
-10 6 19 -0.6106 -0.0253
-10 6 20 0.8229 -0.0132
-10 6 21 0.3451 0.0257
-10 6 22 0.0776 -0.0562
-10 6 23 1.1865 -0.0077
-10 6 24 -0.0292 0.0450
-10 7 1 0.6016 -0.0097
-10 7 2 -2.2316 0.0294
-10 7 3 -1.0280 -0.0240
-10 7 4 -9.6561 0.0164
-10 7 5 -3.9079 0.0096
-10 7 6 -7.9208 -0.0024
-10 7 7 -5.5508 -0.0124
-10 7 8 -1.3823 0.0196
-10 7 9 -0.8539 0.0099
-10 7 10 2.3010 0.0261
-10 7 11 5.1307 0.0198
-10 7 12 0.3742 0.0306
-10 7 13 2.2590 -0.0118
-10 7 14 0.7553 0.0146
-10 7 15 -1.0293 -0.0060
-10 7 16 -0.2533 -0.0353
-10 7 17 -2.2998 -0.0248
-10 7 18 0.8442 0.0241
-10 7 19 -1.6983 0.0001
-10 7 20 0.7039 0.0581
-10 7 21 -0.5240 -0.0075
-10 7 22 -0.5649 -0.0368
-10 7 23 0.1461 0.0097
-10 8 1 1.6072 0.0153
-10 8 2 2.4238 0.0040
-10 8 3 -5.1864 -0.0210
-10 8 4 2.3465 0.0330
-10 8 5 -6.8813 0.0152
-10 8 6 4.8720 0.0036
-10 8 7 -3.0136 -0.0037
-10 8 8 -2.0350 0.0234
-10 8 9 5.1311 -0.0223
-10 8 10 -4.0595 0.0149
-10 8 11 5.0968 -0.0184
-10 8 12 -2.6349 -0.0326
-10 8 13 0.8059 -0.0204
-10 8 14 0.7011 0.0241
-10 8 15 -0.6711 -0.0082
-10 8 16 2.1250 0.0041
-10 8 17 -1.2676 0.0279
-10 8 18 1.3361 -0.0027
-10 8 19 -0.6261 -0.0358
-10 8 20 0.8687 -0.0159
-10 8 21 1.4298 -0.0554
-10 8 22 0.3502 -0.0810
-10 8 23 1.2988 0.0194
-10 9 1 0.5184 0.0051
-10 9 2 -1.9594 -0.0073
-10 9 3 0.2179 -0.0426
-10 9 4 -3.3216 0.0184
-10 9 5 -2.3736 -0.0027
-10 9 6 -2.2561 0.0027
-10 9 7 -5.0650 -0.0238
-10 9 8 -3.1437 -0.0121
-10 9 9 -1.0160 0.0002
-10 9 10 -3.5415 0.0460
-10 9 11 4.5206 0.0155
-10 9 12 -0.1189 0.0072
-10 9 13 1.9061 -0.0027
-10 9 14 1.3241 0.0172
-10 9 15 -1.6898 -0.0057
-10 9 16 1.2094 -0.0028
-10 9 17 -2.1153 0.0249
-10 9 18 1.0772 0.0004
-10 9 19 -0.7284 0.0492
-10 9 20 0.1031 0.0847
-10 9 21 -0.6629 0.0042
-10 9 22 -0.4142 -0.0178
-10 10 1 -4.2067 0.0173
-10 10 2 3.5277 -0.0245
-10 10 3 -0.9301 -0.0197
-10 10 4 3.2407 -0.0123
-10 10 5 -2.0449 -0.0029
-10 10 6 0.5358 0.0190
-10 10 7 2.1708 0.0073
-10 10 8 -3.1329 -0.0014
-10 10 9 4.0175 0.0030
-10 10 10 -1.1160 0.0093
-10 10 11 2.1635 -0.0000
-10 10 12 -1.6151 -0.0132
-10 10 13 -0.4025 -0.0020
-10 10 14 0.8222 -0.0159
-10 10 15 -0.6697 -0.0267
-10 10 16 1.7250 -0.0419
-10 10 17 -2.2772 -0.0357
-10 10 18 -0.0732 -0.0157
-10 10 19 0.0280 0.0262
-10 10 20 -0.4852 0.0488
-10 10 21 0.8381 -0.0178
-10 10 22 -0.3614 -0.0181
-10 11 1 -0.4390 0.0344
-10 11 2 0.0376 0.0001
-10 11 3 -0.1179 -0.0007
-10 11 4 -0.0659 -0.0167
-10 11 5 -0.4045 -0.0066
-10 11 6 0.2088 -0.0147
-10 11 7 -1.6087 -0.0035
-10 11 8 -2.8457 -0.0071
-10 11 9 -1.2043 -0.0306
-10 11 10 -2.9188 -0.0023
-10 11 11 2.3167 0.0173
-10 11 12 -0.5230 -0.0223
-10 11 13 1.5497 -0.0223
-10 11 14 0.6041 -0.0124
-10 11 15 -0.0147 0.0052
-10 11 16 1.2116 0.0369
-10 11 17 0.2960 0.0395
-10 11 18 0.2266 0.0283
-10 11 19 0.3925 0.0075
-10 11 20 -0.1630 -0.0499
-10 11 21 0.5807 -0.0317
-10 12 1 -3.0506 -0.0122
-10 12 2 1.2949 -0.0375
-10 12 3 -0.2457 0.0037
-10 12 4 0.5961 -0.0154
-10 12 5 1.8966 -0.0109
-10 12 6 -1.7670 0.0220
-10 12 7 2.4270 -0.0020
-10 12 8 -1.0980 0.0059
-10 12 9 1.2439 0.0130
-10 12 10 -0.1276 -0.0063
-10 12 11 1.6841 -0.0068
-10 12 12 0.4049 -0.0517
-10 12 13 0.5870 -0.0132
-10 12 14 0.9634 -0.0136
-10 12 15 0.0820 -0.0150
-10 12 16 1.0778 -0.0225
-10 12 17 -0.3809 -0.0734
-10 12 18 -0.7863 -0.0734
-10 12 19 0.3425 0.0378
-10 12 20 -0.0736 0.0074
-10 13 1 -0.5741 0.0108
-10 13 2 0.8552 0.0450
-10 13 3 0.5406 0.0298
-10 13 4 -1.6806 -0.0074
-10 13 5 0.9344 0.0361
-10 13 6 -0.9756 0.0080
-10 13 7 -1.2791 0.0101
-10 13 8 0.0567 0.0571
-10 13 9 -2.5828 0.0282
-10 13 10 -1.1702 -0.0327
-10 13 11 1.1032 0.0387
-10 13 12 -0.6893 0.0312
-10 13 13 0.6352 -0.0318
-10 13 14 0.1503 -0.0276
-10 13 15 0.7291 -0.0091
-10 13 16 0.2769 0.0247
-10 13 17 0.3091 -0.0373
-10 13 18 -0.2388 0.0639
-10 13 19 -0.5549 -0.0679
-10 14 1 -2.3052 -0.0227
-10 14 2 0.8437 0.0105
-10 14 3 -0.7685 -0.0100
-10 14 4 -1.0792 0.0024
-10 14 5 -0.9366 -0.0113
-10 14 6 0.5076 -0.0088
-10 14 7 0.7353 -0.0058
-10 14 8 1.3221 0.0166
-10 14 9 0.3722 -0.0375
-10 14 10 -0.1026 -0.0292
-10 14 11 -0.3564 -0.0132
-10 14 12 1.2495 -0.0049
-10 14 13 -0.2858 0.0425
-10 14 14 1.5849 0.0457
-10 14 15 -0.3179 0.0006
-10 14 16 0.3873 -0.0636
-10 14 17 0.7389 -0.0261
-10 14 18 -0.7261 -0.0660
-10 15 1 0.8410 -0.0185
-10 15 2 1.1967 0.0019
-10 15 3 0.6877 -0.0306
-10 15 4 -0.2317 0.0288
-10 15 5 0.6255 0.0239
-10 15 6 -1.1356 -0.0000
-10 15 7 0.1369 0.0037
-10 15 8 -0.9223 0.0084
-10 15 9 0.1423 -0.0193
-10 15 10 -3.4136 0.0322
-10 15 11 0.7328 -0.0570
-10 15 12 -2.3511 -0.0632
-10 15 13 0.4712 -0.0445
-10 15 14 -1.0050 -0.1226
-10 15 15 0.0795 -0.0349
-10 15 16 -0.4255 0.0103
-10 15 17 0.1526 0.0028
-10 16 1 -0.3076 -0.0689
-10 16 2 1.0230 0.0480
-10 16 3 0.5286 -0.0158
-10 16 4 1.0894 0.0653
-10 16 5 -0.4780 -0.0138
-10 16 6 -1.4028 -0.0130
-10 16 7 2.2465 -0.0080
-10 16 8 -0.5422 -0.0396
-10 16 9 1.2757 -0.0350
-10 16 10 -0.5953 0.0177
-10 16 11 -0.9354 0.0042
-10 16 12 -0.4785 0.1182
-10 16 13 -0.1057 0.1888
-10 16 14 0.1918 0.1640
-10 16 15 0.5657 0.0434
-10 16 16 -0.5254 -0.0240
-10 17 1 0.4246 -0.0085
-10 17 2 1.0148 -0.0141
-10 17 3 0.2353 -0.0587
-10 17 4 1.3849 0.0676
-10 17 5 -0.0474 0.0217
-10 17 6 -0.7169 0.0762
-10 17 7 -0.3238 0.0844
-10 17 8 -1.1768 -0.0243
-10 17 9 0.6924 -0.0298
-10 17 10 -0.6093 -0.0081
-10 17 11 0.5148 -0.0775
-10 17 12 -0.5314 -0.0357
-10 17 13 0.6974 -0.0608
-10 17 14 0.0032 -0.0680
-10 18 1 0.8961 -0.0484
-10 18 2 -0.7724 -0.0388
-10 18 3 0.5020 0.0297
-10 18 4 -0.0879 0.0356
-10 18 5 1.4495 -0.0359
-10 18 6 -1.0452 0.1151
-10 18 7 1.4666 -0.0608
-10 18 8 0.4839 -0.0954
-10 18 9 0.9098 0.0192
-10 18 10 1.0734 -0.1101
-10 18 11 -0.0592 0.0541
-10 18 12 0.3325 -0.0195
-10 19 1 -0.5238 -0.0203
-10 19 2 0.2593 -0.0610
-10 19 3 -0.4347 -0.0726
-10 19 4 0.6597 -0.1202
-10 19 5 -0.1851 -0.1208
-10 19 6 -0.2044 0.0117
-10 19 7 -0.6325 -0.0603
-10 19 8 -0.7110 -0.0751
-10 19 9 -0.9997 0.0101
-10 20 1 0.3325 -0.0915
-10 20 2 -0.7482 -0.3109
-10 20 3 0.2566 -0.0881
-10 20 4 -0.9200 -0.0725
-10 20 5 -0.2249 -0.1900
-9 0 2 4.8609 0.0718
-9 0 4 30.9219 -0.0876
-9 0 6 16.2286 -0.0285
-9 0 8 2.3866 0.0152
-9 0 10 -4.8368 -0.0017
-9 0 12 -4.7742 -0.0269
-9 0 14 -0.9327 -0.0008
-9 0 16 1.6058 -0.0075
-9 0 18 1.2055 -0.0043
-9 0 20 0.3921 0.0035
-9 0 22 -1.8406 -0.0024
-9 0 24 -0.1361 0.0275
-9 1 1 -25.2081 0.0408
-9 1 2 4.3001 0.0623
-9 1 3 -14.4971 0.1230
-9 1 4 12.5134 0.0531
-9 1 5 5.2666 0.0549
-9 1 6 7.9772 -0.0717
-9 1 7 17.6106 0.0292
-9 1 8 -2.9418 0.0086
-9 1 9 14.7555 0.0060
-9 1 10 -3.9364 0.0366
-9 1 11 4.2170 0.0099
-9 1 12 -0.2358 0.0279
-9 1 13 -0.7160 0.0007
-9 1 14 1.2045 0.0533
-9 1 15 -3.0260 0.0524
-9 1 16 1.1738 0.0142
-9 1 17 -2.2098 0.0315
-9 1 18 0.2792 -0.0184
-9 1 19 -1.1593 -0.0116
-9 1 20 0.2414 -0.0172
-9 1 21 -0.6865 0.0224
-9 1 22 0.2563 -0.0172
-9 1 23 -0.0687 0.0228
-9 1 24 -0.4058 -0.0529
-9 1 25 -0.0152 -0.0357
-9 2 1 13.1113 -0.0237
-9 2 2 18.0265 0.0012
-9 2 3 -4.5882 -0.0601
-9 2 4 18.6356 -0.0469
-9 2 5 -5.3139 -0.0126
-9 2 6 -0.4214 -0.0776
-9 2 7 -2.2873 -0.0007
-9 2 8 -8.7374 -0.0321
-9 2 9 6.3772 -0.0075
-9 2 10 -5.4043 0.0161
-9 2 11 2.5477 -0.0118
-9 2 12 -1.5225 -0.0285
-9 2 13 -1.1070 0.0092
-9 2 14 2.5311 -0.0181
-9 2 15 -2.3470 -0.0167
-9 2 16 3.0853 0.0073
-9 2 17 -1.9101 -0.0129
-9 2 18 1.7732 0.0007
-9 2 19 -1.3729 -0.0166
-9 2 20 -0.2380 -0.0047
-9 2 21 0.2810 -0.0184
-9 2 22 -0.8903 -0.0361
-9 2 23 0.5645 0.0403
-9 2 24 -0.1335 0.0602
-9 2 25 0.8875 0.0014
-9 3 1 -33.9868 -0.0081
-9 3 2 -7.4798 0.0579
-9 3 3 -32.2670 0.0318
-9 3 4 -2.9020 0.0274
-9 3 5 5.4351 0.0403
-9 3 6 0.0298 -0.0116
-9 3 7 23.8646 0.0037
-9 3 8 -0.7056 -0.0012
-9 3 9 13.1747 0.0627
-9 3 10 2.9255 0.0263
-9 3 11 -1.2782 0.0627
-9 3 12 3.4852 0.0425
-9 3 13 -2.8831 0.0090
-9 3 14 1.8747 -0.0202
-9 3 15 -2.7998 0.0186
-9 3 16 0.3544 0.0177
-9 3 17 -2.6761 0.0124
-9 3 18 -1.2813 0.0407
-9 3 19 -0.7767 -0.0036
-9 3 20 -0.1433 0.0146
-9 3 21 0.5453 0.0850
-9 3 22 -0.5016 -0.0601
-9 3 23 1.0323 0.1483
-9 3 24 -1.3100 -0.0633
-9 4 1 10.6246 -0.0095
-9 4 2 17.3622 -0.0411
-9 4 3 2.2675 -0.0101
-9 4 4 9.3365 0.0446
-9 4 5 -2.1458 0.0351
-9 4 6 -0.4980 0.0107
-9 4 7 1.8326 0.0190
-9 4 8 -4.7836 -0.0286
-9 4 9 6.8101 0.0282
-9 4 10 -3.0452 -0.0467
-9 4 11 4.6114 -0.0011
-9 4 12 -1.0232 -0.0445
-9 4 13 0.3373 -0.0180
-9 4 14 1.9447 -0.0253
-9 4 15 -1.5931 -0.0296
-9 4 16 2.3132 -0.0071
-9 4 17 -0.9957 -0.0077
-9 4 18 1.3890 0.0561
-9 4 19 1.1836 0.0233
-9 4 20 -0.9768 0.0099
-9 4 21 0.9574 0.0154
-9 4 22 -0.6944 -0.0184
-9 4 23 0.4598 0.0002
-9 4 24 -1.1204 0.0772
-9 5 1 -15.9200 0.0393
-9 5 2 -12.0579 0.0266
-9 5 3 -17.6263 0.0055
-9 5 4 -15.7026 -0.0060
-9 5 5 1.6386 -0.0292
-9 5 6 -8.9998 0.0181
-9 5 7 12.0179 -0.0059
-9 5 9 9.1092 0.0164
-9 5 10 8.3111 0.0035
-9 5 11 1.4853 -0.0209
-9 5 12 4.5749 0.0367
-9 5 13 -1.0715 0.0028
-9 5 14 1.8214 0.0076
-9 5 15 -1.9821 0.0211
-9 5 16 -0.9715 0.0115
-9 5 17 -1.9106 -0.0066
-9 5 18 -1.7891 0.0223
-9 5 19 -0.6324 0.0092
-9 5 20 -1.2056 -0.0283
-9 5 21 0.5263 0.0151
-9 5 22 -2.4715 -0.0222
-9 5 23 0.3124 0.0004
-9 5 24 -1.7049 -0.0028
-9 6 1 1.3187 -0.0270
-9 6 2 6.0322 -0.0574
-9 6 3 -6.5249 0.0176
-9 6 4 7.4538 -0.0042
-9 6 5 -6.6055 -0.0116
-9 6 6 3.1332 -0.0045
-9 6 7 -0.2070 -0.0122
-9 6 8 -1.3695 -0.0115
-9 6 9 5.8588 0.0072
-9 6 10 -2.9176 -0.0137
-9 6 11 4.0096 -0.0246
-9 6 12 -1.2289 -0.0007
-9 6 13 -0.6879 0.0341
-9 6 14 0.6601 -0.0150
-9 6 15 -1.2768 0.0087
-9 6 16 1.5002 0.0002
-9 6 17 -0.9785 -0.0700
-9 6 18 0.6828 0.0397
-9 6 19 0.7295 0.0096
-9 6 20 -0.2349 -0.0582
-9 6 21 1.2746 0.0453
-9 6 22 -0.4391 -0.0199
-9 6 23 0.9075 -0.0236
-9 6 24 -0.0931 0.0563
-9 7 1 -0.7034 -0.0308
-9 7 2 -3.9814 0.0297
-9 7 3 -0.6120 -0.0298
-9 7 4 -10.3325 0.0212
-9 7 5 -3.7821 0.0074
-9 7 6 -6.7788 0.0160
-9 7 7 -2.7230 -0.0243
-9 7 8 0.1407 0.0282
-9 7 9 2.5437 0.0238
-9 7 10 3.5965 0.0231
-9 7 11 4.7708 -0.0041
-9 7 12 2.0532 0.0016
-9 7 13 -0.2403 -0.0064
-9 7 14 1.6047 -0.0147
-9 7 15 -2.3651 0.0194
-9 7 16 -0.1881 -0.0041
-9 7 17 -2.1690 -0.0255
-9 7 18 0.5424 0.0520
-9 7 19 -1.1146 0.0307
-9 7 20 -0.2963 -0.0063
-9 7 21 -0.0324 0.0058
-9 7 22 -0.4121 -0.0183
-9 7 23 0.1021 0.0007
-9 8 1 0.1507 -0.0039
-9 8 2 4.0663 0.0199
-9 8 3 -6.9020 -0.0129
-9 8 4 1.8757 0.0153
-9 8 5 -5.3766 0.0069
-9 8 6 0.8232 0.0011
-9 8 7 0.3424 -0.0264
-9 8 8 -5.0888 0.0123
-9 8 9 6.3968 -0.0204
-9 8 10 -4.0423 0.0048
-9 8 11 2.3162 0.0002
-9 8 12 -0.6574 -0.0047
-9 8 13 -1.5440 -0.0051
-9 8 14 2.4411 0.0260
-9 8 15 -1.2108 0.0021
-9 8 16 1.8424 -0.0039
-9 8 17 -1.2174 -0.0242
-9 8 18 0.8310 -0.0004
-9 8 19 0.6889 -0.0455
-9 8 20 0.7358 -0.0774
-9 8 21 2.1415 0.0299
-9 8 22 -0.0910 -0.0769
-9 8 23 0.9624 -0.0011
-9 9 1 -1.1821 -0.0424
-9 9 2 -3.3232 0.0098
-9 9 3 -0.2605 -0.0542
-9 9 4 -2.9902 0.0103
-9 9 5 -3.7998 0.0085
-9 9 6 -2.7369 0.0033
-9 9 7 -3.3519 -0.0335
-9 9 8 -3.5921 0.0052
-9 9 9 2.0769 0.0115
-9 9 10 -1.5806 0.0430
-9 9 11 4.2951 0.0005
-9 9 12 1.8491 0.0168
-9 9 13 -1.4241 -0.0126
-9 9 14 1.9124 0.0095
-9 9 15 -2.7817 0.0156
-9 9 16 1.4737 -0.0203
-9 9 17 -1.4522 0.0188
-9 9 18 0.4215 0.0232
-9 9 19 -0.5026 0.0170
-9 9 20 -0.6242 0.0336
-9 9 21 -0.4869 0.0451
-9 9 22 -0.4404 -0.0543
-9 10 1 -3.5186 0.0126
-9 10 2 3.9335 0.0036
-9 10 3 -0.1967 -0.0245
-9 10 4 1.5984 0.0120
-9 10 5 -0.3838 0.0070
-9 10 6 -2.0993 0.0167
-9 10 7 4.0941 0.0090
-9 10 8 -3.8961 0.0077
-9 10 9 3.4740 -0.0005
-9 10 10 -0.6085 0.0048
-9 10 11 -0.2414 0.0004
-9 10 12 0.1309 -0.0044
-9 10 13 -1.7053 -0.0313
-9 10 14 2.1800 -0.0002
-9 10 15 -1.0556 -0.0209
-9 10 16 0.8624 -0.0423
-9 10 17 -1.3121 0.0000
-9 10 18 -0.7336 0.0366
-9 10 19 1.2064 0.0200
-9 10 20 -0.4609 0.0123
-9 10 21 1.1386 -0.0466
-9 10 22 -0.2030 -0.0759
-9 11 1 -1.1959 0.0087
-9 11 2 -1.1554 -0.0192
-9 11 3 -1.2228 -0.0315
-9 11 4 0.0949 -0.0344
-9 11 5 -1.1004 -0.0052
-9 11 6 -0.6049 -0.0277
-9 11 7 -1.8745 -0.0205
-9 11 8 -3.3611 -0.0168
-9 11 9 -0.0469 -0.0349
-9 11 10 -1.5841 0.0078
-9 11 11 2.7221 0.0217
-9 11 12 0.8642 -0.0050
-9 11 13 0.0820 -0.0185
-9 11 14 1.4861 0.0343
-9 11 15 -0.5553 0.0240
-9 11 16 1.2591 0.0388
-9 11 17 0.5894 0.0284
-9 11 18 -0.4131 -0.0441
-9 11 19 0.6848 -0.0620
-9 11 20 0.0803 0.0049
-9 11 21 0.7834 0.0061
-9 12 1 -2.0729 0.0078
-9 12 2 1.1102 -0.0166
-9 12 3 1.0266 0.0190
-9 12 4 -0.2790 0.0162
-9 12 5 2.2523 0.0004
-9 12 6 -1.9461 0.0334
-9 12 7 2.3222 0.0298
-9 12 8 -0.4541 0.0093
-9 12 9 0.5876 0.0336
-9 12 10 0.6374 -0.0043
-9 12 11 0.8506 -0.0021
-9 12 12 1.4531 -0.0301
-9 12 13 -0.2145 -0.0212
-9 12 14 0.9375 -0.0108
-9 12 15 -0.3816 -0.0549
-9 12 16 0.5563 -0.0268
-9 12 17 -0.1275 -0.0165
-9 12 18 -0.8655 -0.0285
-9 12 19 0.2409 0.0844
-9 12 20 -0.1845 -0.0160
-9 13 1 -1.2931 0.0125
-9 13 2 -0.6519 0.0063
-9 13 3 -0.6621 0.0285
-9 13 4 -2.5822 -0.0319
-9 13 5 -1.3196 0.0073
-9 13 6 -0.4207 0.0102
-9 13 7 -2.4589 -0.0159
-9 13 8 0.1850 0.0191
-9 13 9 -1.2770 0.0346
-9 13 10 -1.1230 -0.0424
-9 13 11 1.3844 0.0160
-9 13 12 0.6706 0.0212
-9 13 13 -0.0149 -0.0423
-9 13 14 1.4617 -0.0116
-9 13 15 0.4024 0.0100
-9 13 16 0.4376 0.0414
-9 13 17 -0.1160 -0.0304
-9 13 18 0.1680 -0.0203
-9 13 19 -0.8287 -0.0618
-9 14 1 -1.9077 -0.0022
-9 14 2 0.0567 -0.0081
-9 14 3 0.3215 0.0060
-9 14 4 -1.4084 -0.0111
-9 14 5 -0.7187 -0.0104
-9 14 6 1.2457 -0.0001
-9 14 7 0.7682 0.0074
-9 14 8 1.4825 -0.0052
-9 14 9 0.0577 0.0080
-9 14 10 0.1201 -0.0269
-9 14 11 -0.8789 0.0538
-9 14 12 1.9373 -0.0033
-9 14 13 -0.2955 0.0190
-9 14 14 1.1134 -0.0239
-9 14 15 -0.0937 -0.0672
-9 14 16 -0.2648 -0.0801
-9 14 17 0.2834 0.0205
-9 14 18 -0.5789 -0.0236
-9 15 1 0.4491 -0.0208
-9 15 2 1.2429 -0.0059
-9 15 3 0.4526 0.0071
-9 15 4 -0.5557 0.0127
-9 15 5 -0.2579 0.0374
-9 15 6 -1.7918 -0.0037
-9 15 7 -0.4770 -0.0381
-9 15 8 -1.2252 -0.0176
-9 15 9 0.7634 -0.0446
-9 15 10 -2.9507 -0.0369
-9 15 11 0.3546 -0.0671
-9 15 12 -1.2263 -0.0981
-9 15 13 0.0892 -0.0036
-9 15 14 -0.4964 -0.0614
-9 15 15 0.6122 0.0181
-9 15 16 -0.2687 0.0528
-9 15 17 0.2361 -0.0251
-9 16 1 -0.5032 -0.0551
-9 16 2 0.9801 0.0415
-9 16 3 0.7387 -0.0011
-9 16 4 0.6803 0.0269
-9 16 5 -0.0241 0.0359
-9 16 6 -1.2672 -0.0012
-9 16 7 1.8593 0.0317
-9 16 8 0.0274 0.0327
-9 16 9 -0.1805 0.0063
-9 16 10 -0.3147 0.0571
-9 16 11 -1.6501 0.1013
-9 16 12 -0.2739 0.1101
-9 16 13 -0.0105 0.0935
-9 16 14 0.2181 0.0542
-9 16 15 0.6945 -0.0741
-9 16 16 -0.7018 -0.0856
-9 17 1 -0.4502 -0.0347
-9 17 2 2.0585 0.0024
-9 17 3 -0.0204 -0.0435
-9 17 4 1.0511 0.0560
-9 17 5 0.5071 0.0688
-9 17 6 -1.4122 0.0096
-9 17 7 -0.4424 0.0161
-9 17 8 -0.4152 -0.0780
-9 17 9 0.7427 -0.1325
-9 17 10 0.2922 -0.0563
-9 17 11 0.3784 -0.0310
-9 17 12 -0.2447 -0.0770
-9 17 13 0.3210 0.0319
-9 17 14 0.4890 -0.0476
-9 18 1 0.1983 -0.0338
-9 18 2 -0.7244 -0.0000
-9 18 3 0.1552 -0.0027
-9 18 4 -0.1878 0.0770
-9 18 5 1.6127 -0.0071
-9 18 6 -1.0891 0.0911
-9 18 7 0.6921 0.0467
-9 18 8 0.4757 -0.0548
-9 18 9 -0.2287 0.0198
-9 18 10 0.5793 -0.0176
-9 18 11 -0.5330 -0.0064
-9 18 12 -0.2509 0.0011
-9 19 1 -1.0513 -0.0687
-9 19 2 0.5323 -0.0710
-9 19 3 -0.5805 -0.1632
-9 19 4 0.2147 -0.0801
-9 19 5 -0.1597 -0.1541
-9 19 6 -0.4087 -0.0150
-9 19 7 -1.1210 0.0124
-9 19 8 -0.3621 -0.1323
-9 19 9 -1.0606 -0.0017
-9 19 10 0.0729 -0.1655
-9 20 1 0.2167 -0.0909
-9 20 2 -0.9276 -0.1317
-9 20 3 -0.4328 -0.1102
-9 20 4 -1.0975 0.1995
-9 20 5 -0.4183 -0.1362
-9 20 6 -0.5152 0.4092
-8 0 2 9.9160 -0.0272
-8 0 4 24.2738 -0.0293
-8 0 6 6.0395 0.0315
-8 0 8 3.5915 0.0514
-8 0 10 -0.9209 -0.0198
-8 0 12 -1.9941 -0.0285
-8 0 14 0.9020 0.0183
-8 0 16 1.7585 -0.0101
-8 0 18 0.8867 0.0030
-8 0 20 -0.4878 0.0043
-8 0 22 -1.4935 0.0089
-8 0 24 -0.0304 0.0150
-8 1 1 -26.7718 0.1709
-8 1 2 5.0448 0.0734
-8 1 3 8.0117 0.1042
-8 1 4 16.0596 -0.0025
-8 1 5 30.8681 -0.0292
-8 1 6 7.4744 -0.0782
-8 1 7 23.1526 -0.0216
-8 1 8 -5.7862 0.0281
-8 1 9 6.7390 -0.0117
-8 1 10 -4.0346 0.0317
-8 1 11 -2.1409 0.0143
-8 1 12 0.4881 -0.0007
-8 1 13 -3.0003 0.0044
-8 1 14 1.9796 0.0240
-8 1 15 -3.1728 0.0520
-8 1 16 1.4804 -0.0259
-8 1 17 -1.1944 0.0040
-8 1 18 0.3565 -0.0432
-8 1 19 -0.7573 -0.0258
-8 1 20 -0.3058 -0.0227
-8 1 21 -0.3200 0.0110
-8 1 22 -0.2887 -0.0274
-8 1 23 -0.0823 -0.0277
-8 1 24 -0.1490 -0.0548
-8 1 25 0.2115 -0.0703
-8 2 1 12.8084 -0.1578
-8 2 2 22.5063 -0.0448
-8 2 3 -13.1978 0.0221
-8 2 4 4.9940 -0.0409
-8 2 5 -9.2564 0.0369
-8 2 6 -12.6716 -0.0485
-8 2 7 -0.1851 -0.0149
-8 2 8 -8.0452 -0.0045
-8 2 9 7.5912 -0.0043
-8 2 10 -0.3615 0.0133
-8 2 11 1.4003 0.0096
-8 2 12 2.7634 -0.0197
-8 2 13 -2.0203 0.0191
-8 2 14 4.3992 -0.0082
-8 2 15 -2.8285 -0.0259
-8 2 16 2.2447 0.0254
-8 2 17 -1.3732 -0.0045
-8 2 18 0.4957 0.0234
-8 2 19 -0.6656 -0.0087
-8 2 20 -0.9917 -0.0195
-8 2 21 0.8198 -0.0021
-8 2 22 -0.6113 -0.0036
-8 2 23 0.9161 0.0061
-8 2 24 0.1380 0.0957
-8 2 25 0.5322 -0.0713
-8 3 1 -41.9666 0.0472
-8 3 2 -11.1156 0.0656
-8 3 3 -13.2020 0.0463
-8 3 4 0.8946 -0.0131
-8 3 5 28.1591 0.0894
-8 3 6 2.8550 0.0069
-8 3 7 29.6431 0.0194
-8 3 8 0.2349 0.0126
-8 3 9 6.2664 0.0505
-8 3 10 4.0281 0.0300
-8 3 11 -7.6326 0.0347
-8 3 12 3.4249 0.0071
-8 3 13 -4.9591 -0.0107
-8 3 14 1.5675 -0.0356
-8 3 15 -2.8760 0.0135
-8 3 16 -0.6540 0.0132
-8 3 17 -1.0889 0.0064
-8 3 18 -1.4386 0.0324
-8 3 19 1.0034 0.0139
-8 3 20 -0.5056 -0.0207
-8 3 21 0.9754 0.0768
-8 3 22 -1.2954 -0.0738
-8 3 23 0.6746 0.0223
-8 3 24 -1.0236 0.0208
-8 4 1 10.4941 -0.0192
-8 4 2 18.2921 0.0239
-8 4 3 -1.0935 0.0425
-8 4 4 -2.4490 0.0340
-8 4 5 -1.3288 0.0388
-8 4 6 -8.5653 -0.0342
-8 4 7 4.1840 0.0311
-8 4 8 -6.8228 -0.0388
-8 4 9 5.4632 0.0116
-8 4 10 -1.0305 -0.0484
-8 4 11 1.8513 -0.0124
-8 4 12 2.2737 -0.0381
-8 4 13 -0.3285 -0.0053
-8 4 14 3.7567 -0.0011
-8 4 15 -0.3521 -0.0344
-8 4 16 1.3513 0.0185
-8 4 17 0.6979 0.0208
-8 4 18 -0.6591 0.0318
-8 4 19 1.7755 0.0154
-8 4 20 -1.8935 -0.0193
-8 4 21 1.0508 -0.0101
-8 4 22 -0.8828 0.0105
-8 4 23 0.3261 -0.0216
-8 4 24 -0.9806 0.0835
-8 5 1 -20.0009 0.0149
-8 5 2 -15.6556 -0.0223
-8 5 3 -9.4974 -0.0400
-8 5 4 -17.0544 0.0017
-8 5 5 11.1970 0.0021
-8 5 6 -7.4084 0.0134
-8 5 7 15.4964 0.0305
-8 5 8 5.4958 -0.0219
-8 5 9 6.4058 0.0200
-8 5 10 10.6025 0.0182
-8 5 11 -2.7273 -0.0321
-8 5 12 3.9548 0.0185
-8 5 13 -2.9477 0.0353
-8 5 14 0.4361 0.0061
-8 5 15 -2.2766 0.0150
-8 5 16 -2.4547 -0.0003
-8 5 17 -0.6420 -0.0080
-8 5 18 -2.2772 -0.0144
-8 5 19 0.8557 0.0437
-8 5 20 -1.2573 -0.0150
-8 5 21 0.7471 0.0066
-8 5 22 -1.9445 0.0201
-8 5 23 0.0387 -0.0261
-8 5 24 -0.6118 0.0152
-8 6 1 -1.5333 0.0178
-8 6 2 7.6041 -0.0267
-8 6 3 -8.4924 0.0243
-8 6 4 4.7143 0.0075
-8 6 5 -3.3280 -0.0059
-8 6 6 -0.7425 -0.0173
-8 6 7 3.4214 0.0263
-8 6 8 -2.8360 -0.0269
-8 6 9 4.2177 0.0246
-8 6 10 -1.6941 -0.0134
-8 6 11 -0.3071 0.0015
-8 6 12 0.8078 -0.0235
-8 6 13 -2.1102 0.0325
-8 6 14 1.8897 -0.0300
-8 6 15 -0.1078 -0.0329
-8 6 16 0.8807 0.0196
-8 6 17 0.2483 -0.0400
-8 6 18 -0.6445 -0.0052
-8 6 19 1.4930 0.0462
-8 6 20 -0.8767 -0.0605
-8 6 21 0.7867 0.0125
-8 6 22 -0.4495 0.0283
-8 6 23 -0.0228 -0.0355
-8 6 24 0.0524 0.0255
-8 7 1 1.0353 -0.0303
-8 7 2 -5.1613 0.0101
-8 7 3 1.6495 -0.0151
-8 7 4 -11.8803 0.0334
-8 7 5 -2.0629 -0.0024
-8 7 6 -5.1408 0.0063
-8 7 7 0.5047 -0.0195
-8 7 8 3.1420 0.0052
-8 7 9 4.0441 0.0239
-8 7 10 6.0213 -0.0055
-8 7 11 2.5312 -0.0160
-8 7 12 2.9127 -0.0311
-8 7 13 -2.4247 0.0347
-8 7 14 1.0341 -0.0077
-8 7 15 -2.1199 0.0163
-8 7 16 -0.7853 0.0280
-8 7 17 -1.0118 -0.0078
-8 7 18 -0.2128 0.0017
-8 7 19 -0.3171 0.0615
-8 7 20 -0.4962 -0.0436
-8 7 21 0.1581 -0.0274
-8 7 22 0.6856 0.0845
-8 7 23 -0.1840 0.0045
-8 8 1 -2.4258 0.0017
-8 8 2 2.8790 -0.0084
-8 8 3 -7.6730 -0.0010
-8 8 4 -0.7822 -0.0088
-8 8 5 -3.1957 -0.0029
-8 8 6 -3.4156 0.0013
-8 8 7 2.5241 -0.0196
-8 8 8 -5.7528 -0.0030
-8 8 9 5.1538 0.0110
-8 8 10 -2.0128 0.0131
-8 8 11 -1.2234 0.0211
-8 8 12 1.6286 0.0009
-8 8 13 -2.7374 0.0111
-8 8 14 2.5114 0.0050
-8 8 15 -1.1061 -0.0158
-8 8 16 0.5829 -0.0018
-8 8 17 -0.3701 -0.0470
-8 8 18 0.4504 -0.0348
-8 8 19 2.0215 0.0213
-8 8 20 0.4043 -0.1111
-8 8 21 1.8129 0.0413
-8 8 22 -0.3961 0.0051
-8 8 23 0.2329 -0.0691
-8 9 1 -0.0737 -0.0584
-8 9 2 -4.6865 0.0078
-8 9 3 0.5612 -0.0131
-8 9 4 -2.8390 0.0031
-8 9 5 -3.8652 0.0135
-8 9 6 -2.7571 0.0057
-8 9 7 -0.9826 -0.0394
-8 9 8 -2.1799 -0.0013
-8 9 9 3.7064 0.0186
-8 9 10 1.5471 0.0309
-8 9 11 1.9838 -0.0189
-8 9 12 3.1124 0.0123
-8 9 13 -3.7851 0.0035
-8 9 14 1.8555 -0.0227
-8 9 15 -1.8499 0.0231
-8 9 16 1.1618 -0.0130
-8 9 17 -0.6157 -0.0094
-8 9 18 -0.4389 0.0079
-8 9 19 -0.2428 0.0344
-8 9 20 -0.7541 -0.0336
-8 9 21 -0.1608 0.0807
-8 9 22 -0.0192 -0.0066
-8 10 1 -2.9876 -0.0024
-8 10 2 3.1284 0.0150
-8 10 3 0.3781 -0.0197
-8 10 4 -1.4855 0.0038
-8 10 5 0.9721 0.0169
-8 10 6 -4.6072 0.0116
-8 10 7 4.2768 0.0055
-8 10 8 -3.5658 0.0074
-8 10 9 1.0400 -0.0046
-8 10 10 0.9717 -0.0008
-8 10 11 -2.5866 -0.0080
-8 10 12 1.9415 0.0131
-8 10 13 -2.1596 -0.0240
-8 10 14 1.6922 0.0004
-8 10 15 -0.4283 0.0246
-8 10 16 -0.8147 -0.0034
-8 10 17 0.1903 0.0188
-8 10 18 -1.0911 0.0637
-8 10 19 1.9340 -0.0010
-8 10 20 -0.2540 -0.0835
-8 10 21 1.3161 -0.0585
-8 10 22 0.2162 0.0048
-8 11 1 -1.5197 -0.0251
-8 11 2 -1.8600 -0.0267
-8 11 3 -1.8311 -0.0259
-8 11 4 0.7933 -0.0410
-8 11 5 -1.3103 0.0057
-8 11 6 -1.0833 -0.0300
-8 11 7 -1.6331 -0.0304
-8 11 8 -2.2830 -0.0082
-8 11 9 0.8065 -0.0166
-8 11 10 0.7399 0.0268
-8 11 11 1.9348 0.0210
-8 11 12 2.2671 0.0144
-8 11 13 -1.1321 -0.0084
-8 11 14 1.8058 0.0351
-8 11 15 -0.3872 0.0298
-8 11 16 0.5776 -0.0122
-8 11 17 0.9886 -0.0213
-8 11 18 -0.7298 -0.0519
-8 11 19 0.8339 -0.0564
-8 11 20 0.3469 0.0751
-8 11 21 0.6916 0.0884
-8 12 1 -0.7789 0.0310
-8 12 2 0.5862 0.0093
-8 12 3 1.5083 0.0218
-8 12 4 -1.7810 0.0315
-8 12 5 1.7272 0.0185
-8 12 6 -2.4041 0.0269
-8 12 7 1.4763 0.0431
-8 12 8 -0.0448 0.0026
-8 12 9 -0.6024 0.0309
-8 12 10 1.4289 -0.0033
-8 12 11 -0.2773 -0.0078
-8 12 12 2.0350 -0.0083
-8 12 13 -0.9132 -0.0369
-8 12 14 0.3657 -0.0191
-8 12 15 -0.1419 -0.0218
-8 12 16 0.0573 -0.0071
-8 12 17 0.2134 0.0553
-8 12 18 -0.9289 0.0096
-8 12 19 0.0541 0.0146
-8 12 20 -0.1624 -0.0773
-8 13 1 -2.0923 0.0036
-8 13 2 -2.2382 -0.0298
-8 13 3 -1.9868 0.0087
-8 13 4 -2.4201 -0.0409
-8 13 5 -3.0184 -0.0249
-8 13 6 0.2827 0.0014
-8 13 7 -2.3762 -0.0179
-8 13 8 0.5941 -0.0047
-8 13 9 0.0087 0.0344
-8 13 10 -0.3213 -0.0308
-8 13 11 1.0438 0.0038
-8 13 12 2.2339 0.0356
-8 13 13 -0.4310 -0.0232
-8 13 14 2.1589 0.0079
-8 13 15 0.0642 0.0181
-8 13 16 0.3543 -0.0155
-8 13 17 -0.4607 -0.0156
-8 13 18 0.4249 -0.0497
-8 13 19 -0.9557 -0.0421
-8 14 1 -0.0272 0.0273
-8 14 2 -0.6927 -0.0190
-8 14 3 1.2501 0.0115
-8 14 4 -1.2305 -0.0021
-8 14 5 -0.6180 -0.0007
-8 14 6 1.3021 -0.0034
-8 14 7 0.6013 0.0378
-8 14 8 0.8579 -0.0295
-8 14 9 -0.7430 0.0382
-8 14 10 0.6429 -0.0221
-8 14 11 -1.5640 0.0435
-8 14 12 2.1917 -0.0374
-8 14 13 -0.0327 -0.0452
-8 14 14 0.1935 -0.0537
-8 14 15 -0.0440 -0.0534
-8 14 16 -0.3990 -0.0301
-8 14 17 -0.2760 0.0978
-8 14 18 -0.1546 0.0011
-8 15 1 0.3992 -0.0158
-8 15 2 0.6340 -0.0239
-8 15 3 0.0864 0.0285
-8 15 4 -0.7264 -0.0044
-8 15 5 -1.3904 0.0064
-8 15 6 -2.0112 -0.0133
-8 15 7 -0.4623 -0.0577
-8 15 8 -0.8417 -0.0478
-8 15 9 1.4316 -0.0214
-8 15 10 -2.0909 -0.0406
-8 15 11 -0.2385 -0.0305
-8 15 12 -0.3290 -0.0285
-8 15 13 0.2140 0.0404
-8 15 14 -0.1364 0.0068
-8 15 15 1.1461 0.0036
-8 15 16 0.2692 0.0215
-8 15 17 0.0517 -0.0426
-8 16 1 -0.2249 -0.0189
-8 16 2 0.3444 0.0110
-8 16 3 1.1580 0.0366
-8 16 4 0.6931 0.0160
-8 16 5 0.3037 0.0767
-8 16 6 -0.5828 0.0475
-8 16 7 0.5875 0.0429
-8 16 8 0.4895 0.0479
-8 16 9 -1.7105 0.0175
-8 16 10 0.0385 0.0086
-8 16 11 -1.7758 0.0699
-8 16 12 -0.1017 0.0475
-8 16 13 0.2971 -0.0547
-8 16 14 0.0547 -0.0039
-8 16 15 0.5128 -0.1035
-8 16 16 -0.5110 -0.0520
-8 17 1 -0.9126 -0.0271
-8 17 2 2.3870 -0.0144
-8 17 3 0.4525 -0.0093
-8 17 4 0.3874 -0.0011
-8 17 5 0.8845 0.0464
-8 17 6 -1.2293 -0.0338
-8 17 7 -0.6818 -0.0622
-8 17 8 0.6129 -0.0760
-8 17 9 0.7873 -0.0943
-8 17 10 0.4372 -0.0371
-8 17 11 -0.0682 0.0783
-8 17 12 -0.1815 -0.0441
-8 17 13 -0.1549 0.0688
-8 17 14 0.7378 -0.0090
-8 18 1 -0.4777 0.0107
-8 18 2 -1.1462 0.0155
-8 18 3 -0.0178 0.0147
-8 18 4 -0.4192 0.0721
-8 18 5 1.3268 0.0544
-8 18 6 -0.8265 0.0705
-8 18 7 -0.6765 0.0537
-8 18 8 0.4813 -0.0233
-8 18 9 -1.0641 -0.0472
-8 18 10 0.0454 -0.0180
-8 18 11 -0.8052 -0.0568
-8 18 12 -0.4310 -0.0236
-8 19 1 -1.6422 -0.0921
-8 19 2 0.3916 -0.0836
-8 19 3 -0.4217 -0.1733
-8 19 4 -0.3020 -0.0855
-8 19 5 -0.2791 -0.0704
-8 19 6 -0.0314 -0.0321
-8 19 7 -1.4068 0.0779
-8 19 8 0.3021 -0.0727
-8 19 9 -0.5456 -0.0208
-8 19 10 0.3339 -0.0539
-8 20 1 -0.1101 -0.0514
-8 20 2 -1.1272 0.0471
-8 20 3 -1.0563 -0.0747
-8 20 4 -0.9835 0.2749
-8 20 5 -0.4794 -0.0241
-8 20 6 -0.1693 0.2069
-7 0 2 2.1433 0.0619
-7 0 4 17.6327 0.0985
-7 0 6 10.3249 0.0392
-7 0 8 12.9035 0.0486
-7 0 10 1.4578 -0.0348
-7 0 12 -1.2606 0.0010
-7 0 14 0.4655 0.0308
-7 0 16 0.9851 -0.0111
-7 0 18 0.7024 0.0080
-7 0 20 -1.0094 0.0019
-7 0 22 -1.1156 0.0048
-7 0 24 -0.1947 -0.0045
-7 1 1 -2.4940 0.1406
-7 1 2 12.7076 -0.0349
-7 1 3 45.2160 -0.0915
-7 1 4 21.1550 -0.0126
-7 1 5 45.9758 -0.1031
-7 1 6 4.3361 -0.0481
-7 1 7 12.0296 -0.0445
-7 1 8 -9.1458 0.0204
-7 1 9 -4.8211 -0.0136
-7 1 10 -3.4258 0.0005
-7 1 11 -4.8751 0.0036
-7 1 12 2.1967 -0.0284
-7 1 13 -2.5624 -0.0056
-7 1 14 3.2300 -0.0083
-7 1 15 -1.8001 0.0248
-7 1 16 1.4690 -0.0440
-7 1 17 0.0919 -0.0321
-7 1 18 0.2375 -0.0270
-7 1 19 -0.5093 -0.0194
-7 1 20 -0.6047 -0.0080
-7 1 21 -0.1030 -0.0082
-7 1 22 -0.0981 -0.0151
-7 1 23 0.1621 -0.0584
-7 1 24 0.4911 -0.0388
-7 1 25 0.5567 -0.0680
-7 2 1 2.8844 -0.0802
-7 2 2 8.0487 -0.0053
-7 2 3 -26.0691 0.1277
-7 2 4 -12.2227 0.0167
-7 2 5 -7.9151 0.0096
-7 2 6 -12.6988 0.0153
-7 2 7 5.6873 -0.0196
-7 2 8 1.4123 0.0308
-7 2 9 8.2769 0.0201
-7 2 10 4.6778 0.0162
-7 2 11 0.0605 0.0322
-7 2 12 4.3592 0.0129
-7 2 13 -2.4736 0.0077
-7 2 14 3.4376 0.0068
-7 2 15 -2.6236 -0.0255
-7 2 16 0.2075 0.0475
-7 2 17 -0.4977 0.0050
-7 2 18 -0.7640 0.0255
-7 2 19 0.2668 -0.0064
-7 2 20 -1.2140 -0.0280
-7 2 21 1.1665 -0.0076
-7 2 22 -0.0336 0.0372
-7 2 23 0.5973 -0.0611
-7 2 24 0.1928 0.0776
-7 3 1 -31.6554 0.0444
-7 3 2 -7.0325 -0.0301
-7 3 3 17.2262 0.0554
-7 3 4 6.3992 0.0072
-7 3 5 44.4383 0.0847
-7 3 6 3.6706 0.0328
-7 3 7 24.5232 -0.0356
-7 3 8 0.7543 0.0106
-7 3 9 -5.6200 0.0044
-7 3 10 4.0945 0.0005
-7 3 11 -12.7929 -0.0094
-7 3 12 2.3490 -0.0327
-7 3 13 -4.1964 -0.0277
-7 3 14 0.6590 -0.0299
-7 3 15 -0.6528 0.0036
-7 3 16 -1.5410 0.0039
-7 3 17 1.1383 0.0061
-7 3 18 -1.1862 0.0176
-7 3 19 1.9173 0.0215
-7 3 20 -0.9706 -0.0400
-7 3 21 0.7250 0.0227
-7 3 22 -1.2817 -0.0284
-7 3 23 0.2295 -0.0673
-7 3 24 -0.1101 0.0858
-7 4 1 5.9385 0.0258
-7 4 2 7.2779 0.0419
-7 4 3 -4.5339 0.0521
-7 4 4 -15.7810 -0.0223
-7 4 5 0.5855 0.0145
-7 4 6 -11.5252 -0.0157
-7 4 7 4.7405 0.0323
-7 4 8 -3.2785 0.0003
-7 4 9 2.6566 -0.0083
-7 4 10 3.5683 -0.0202
-7 4 11 0.1740 0.0015
-7 4 12 4.4180 -0.0130
-7 4 13 0.5144 0.0026
-7 4 14 3.0067 0.0225
-7 4 15 1.4146 -0.0156
-7 4 16 -1.1554 0.0156
-7 4 17 1.6709 0.0313
-7 4 18 -2.2775 -0.0103
-7 4 19 1.4279 -0.0182
-7 4 20 -1.7283 -0.0192
-7 4 21 0.4320 -0.0193
-7 4 22 -0.4665 0.0350
-7 4 23 -0.3219 -0.0517
-7 4 24 -0.4270 0.0445
-7 5 1 -14.7609 -0.0554
-7 5 2 -19.8839 -0.0263
-7 5 3 2.6581 -0.0113
-7 5 4 -18.5516 0.0146
-7 5 5 18.4069 0.0403
-7 5 6 -3.1847 -0.0055
-7 5 7 14.8102 0.0285
-7 5 8 11.7534 -0.0075
-7 5 9 0.2558 -0.0073
-7 5 10 11.1383 0.0143
-7 5 11 -6.8419 -0.0321
-7 5 12 0.7841 0.0022
-7 5 13 -3.0398 0.0451
-7 5 14 -2.1883 0.0030
-7 5 15 -0.6896 -0.0061
-7 5 16 -3.3715 -0.0345
-7 5 17 1.3942 0.0190
-7 5 18 -1.6013 -0.0108
-7 5 19 1.5100 0.0437
-7 5 20 -0.4918 0.0199
-7 5 21 0.1482 -0.0036
-7 5 22 -0.8129 0.0355
-7 5 23 -0.5201 -0.0168
-7 5 24 0.3646 0.0196
-7 6 1 -4.9590 0.0397
-7 6 2 5.4080 0.0018
-7 6 3 -6.1893 0.0041
-7 6 4 1.2907 -0.0017
-7 6 5 0.6649 0.0305
-7 6 6 -2.5248 -0.0313
-7 6 7 3.6127 0.0520
-7 6 8 -0.9682 -0.0211
-7 6 9 0.3199 0.0260
-7 6 10 1.2893 -0.0077
-7 6 11 -2.5722 0.0144
-7 6 12 2.3547 -0.0456
-7 6 13 -0.5822 0.0008
-7 6 14 1.3873 -0.0074
-7 6 15 1.7986 -0.0341
-7 6 16 -0.8127 0.0141
-7 6 17 1.1509 0.0158
-7 6 18 -1.4006 -0.0459
-7 6 19 1.2208 0.0221
-7 6 20 -0.6840 -0.0163
-7 6 21 -0.4533 -0.0300
-7 6 22 -0.1609 0.0232
-7 6 23 -0.7364 -0.0037
-7 6 24 0.2918 -0.0160
-7 7 1 5.7399 -0.0135
-7 7 2 -8.2962 0.0123
-7 7 3 3.9748 -0.0030
-7 7 4 -13.7184 0.0264
-7 7 5 -0.7112 -0.0136
-7 7 6 -1.7420 -0.0297
-7 7 7 1.5829 -0.0062
-7 7 8 7.4574 -0.0191
-7 7 9 2.5359 0.0090
-7 7 10 7.8458 -0.0252
-7 7 11 -0.3661 0.0066
-7 7 12 1.6193 -0.0290
-7 7 13 -2.9063 0.0554
-7 7 14 -0.7151 0.0205
-7 7 15 -0.6767 -0.0097
-7 7 16 -1.5948 0.0071
-7 7 17 -0.0902 0.0304
-7 7 18 -0.3304 -0.0590
-7 7 19 -0.0313 0.0350
-7 7 20 0.6573 0.0157
-7 7 21 0.0285 -0.0549
-7 7 22 1.8068 0.1557
-7 7 23 -0.4503 0.0540
-7 8 1 -4.7005 0.0224
-7 8 2 0.7749 -0.0452
-7 8 3 -6.6727 -0.0001
-7 8 4 -3.7592 -0.0056
-7 8 5 -0.8606 0.0018
-7 8 6 -5.7494 -0.0014
-7 8 7 3.4595 0.0094
-7 8 8 -3.9920 -0.0106
-7 8 9 2.6228 0.0306
-7 8 10 0.6811 0.0176
-7 8 11 -3.5060 0.0229
-7 8 12 2.4909 -0.0170
-7 8 13 -2.1455 0.0072
-7 8 14 0.6634 0.0006
-7 8 15 -0.1253 -0.0402
-7 8 16 -0.7643 -0.0071
-7 8 17 0.9156 -0.0040
-7 8 18 0.3130 -0.0730
-7 8 19 2.2850 0.0549
-7 8 20 0.1386 -0.0595
-7 8 21 0.6502 -0.0294
-7 8 22 -0.4273 0.0924
-7 8 23 -0.1179 -0.0435
-7 9 1 2.5333 -0.0218
-7 9 2 -5.3317 -0.0032
-7 9 3 1.3199 0.0294
-7 9 4 -1.4825 0.0063
-7 9 5 -3.8430 -0.0075
-7 9 6 -1.4214 -0.0015
-7 9 7 0.7137 -0.0339
-7 9 8 0.4041 -0.0166
-7 9 9 3.3597 0.0175
-7 9 10 3.9409 0.0230
-7 9 11 -0.7534 -0.0224
-7 9 12 2.9307 -0.0087
-7 9 13 -3.7456 0.0217
-7 9 14 1.1092 -0.0339
-7 9 15 0.0831 -0.0047
-7 9 16 0.2646 0.0026
-7 9 17 -0.2117 -0.0109
-7 9 18 -1.1301 -0.0426
-7 9 19 0.0151 0.0598
-7 9 20 -0.2747 -0.0329
-7 9 21 -0.0067 0.0236
-7 9 22 0.4997 0.0596
-7 10 1 -3.0394 -0.0116
-7 10 2 0.7209 -0.0058
-7 10 3 0.4779 -0.0085
-7 10 4 -5.0806 -0.0061
-7 10 5 1.5318 0.0188
-7 10 6 -5.4041 0.0101
-7 10 7 2.9265 -0.0012
-7 10 8 -1.7179 -0.0010
-7 10 9 -1.7083 -0.0149
-7 10 10 2.9648 0.0044
-7 10 11 -3.5055 -0.0017
-7 10 12 2.3714 0.0205
-7 10 13 -1.2421 0.0188
-7 10 14 -0.1915 0.0085
-7 10 15 0.9962 0.0451
-7 10 16 -1.8999 0.0516
-7 10 17 1.4493 0.0125
-7 10 18 -0.8525 0.0124
-7 10 19 2.1247 -0.0182
-7 10 20 0.1893 -0.0938
-7 10 21 1.3228 -0.0667
-7 10 22 0.7599 0.2543
-7 11 1 -1.5907 -0.0260
-7 11 2 -1.4800 -0.0176
-7 11 3 -1.6591 0.0102
-7 11 4 1.5945 -0.0328
-7 11 5 -1.2852 0.0089
-7 11 6 -1.1653 -0.0122
-7 11 7 -1.2521 -0.0222
-7 11 8 -0.1785 0.0079
-7 11 9 0.9037 0.0036
-7 11 10 2.5885 0.0380
-7 11 11 0.6879 0.0103
-7 11 12 2.4006 0.0073
-7 11 13 -1.3456 0.0087
-7 11 14 0.8175 -0.0035
-7 11 15 0.2161 -0.0035
-7 11 16 -0.2350 -0.0333
-7 11 17 1.1851 -0.0466
-7 11 18 -0.5415 -0.0040
-7 11 19 0.6756 0.0134
-7 11 20 0.3172 0.0888
-7 11 21 0.5061 0.0571
-7 12 1 -0.2941 0.0254
-7 12 2 -0.8855 0.0134
-7 12 3 1.0116 0.0150
-7 12 4 -3.8414 0.0220
-7 12 5 0.8300 0.0211
-7 12 6 -2.7378 0.0087
-7 12 7 0.2484 0.0255
-7 12 8 0.4933 -0.0048
-7 12 9 -1.7789 0.0190
-7 12 10 2.1872 0.0013
-7 12 11 -1.0959 -0.0174
-7 12 12 1.9409 0.0037
-7 12 13 -0.8282 -0.0180
-7 12 14 -0.5363 -0.0225
-7 12 15 0.6975 0.0399
-7 12 16 -0.3486 0.0298
-7 12 17 0.3611 0.0372
-7 12 18 -0.7756 0.0046
-7 12 19 0.0065 -0.0681
-7 12 20 0.0756 -0.1022
-7 13 1 -2.7131 -0.0043
-7 13 2 -3.0626 -0.0324
-7 13 3 -2.6081 -0.0132
-7 13 4 -1.7712 -0.0349
-7 13 5 -3.4232 -0.0345
-7 13 6 0.8834 0.0043
-7 13 7 -1.1453 -0.0049
-7 13 8 1.3129 -0.0004
-7 13 9 0.8929 0.0294
-7 13 10 0.6358 -0.0018
-7 13 11 0.4883 0.0079
-7 13 12 3.1200 0.0468
-7 13 13 -0.6329 -0.0049
-7 13 14 1.9291 -0.0169
-7 13 15 -0.3613 0.0131
-7 13 16 0.0242 -0.0560
-7 13 17 -0.6806 0.0085
-7 13 18 0.3706 0.0118
-7 13 19 -1.0275 -0.0249
-7 14 1 2.1022 0.0334
-7 14 2 -1.4568 -0.0173
-7 14 3 1.3928 0.0021
-7 14 4 -1.2514 0.0043
-7 14 5 -0.7850 0.0113
-7 14 6 0.1826 -0.0248
-7 14 7 -0.0555 0.0485
-7 14 8 0.0111 -0.0400
-7 14 9 -1.5587 0.0192
-7 14 10 1.4133 -0.0256
-7 14 11 -1.6021 -0.0115
-7 14 12 1.8280 -0.0559
-7 14 13 0.6093 -0.0537
-7 14 14 -0.6204 -0.0180
-7 14 15 -0.1086 0.0299
-7 14 16 0.0172 0.0188
-7 14 17 -0.3101 0.1005
-7 14 18 0.2156 0.0081
-7 15 1 0.9021 -0.0115
-7 15 2 -0.1210 -0.0319
-7 15 3 -0.4306 0.0181
-7 15 4 -0.7859 -0.0099
-7 15 5 -2.1209 -0.0191
-7 15 6 -1.5966 -0.0133
-7 15 7 0.1585 -0.0253
-7 15 8 -0.0559 -0.0295
-7 15 9 1.5441 0.0244
-7 15 10 -1.5288 0.0179
-7 15 11 -0.7063 -0.0059
-7 15 12 0.0803 0.0347
-7 15 13 0.7955 0.0213
-7 15 14 0.2488 0.0005
-7 15 15 1.2022 -0.0274
-7 15 16 0.6937 -0.0398
-7 15 17 -0.3256 -0.0152
-7 16 1 0.4039 0.0152
-7 16 2 -0.0207 -0.0082
-7 16 3 1.8158 0.0563
-7 16 4 1.3340 0.0353
-7 16 5 0.4516 0.0721
-7 16 6 -0.1019 0.0520
-7 16 7 -0.8350 0.0097
-7 16 8 0.6702 -0.0111
-7 16 9 -2.4715 -0.0251
-7 16 10 0.4301 -0.0453
-7 16 11 -1.3019 -0.0091
-7 16 12 -0.2821 0.0249
-7 16 13 0.6205 -0.1183
-7 16 14 -0.1460 0.0069
-7 16 15 0.1412 -0.0402
-7 16 16 -0.0327 -0.0057
-7 17 1 -0.5444 -0.0039
-7 17 2 2.1425 -0.0381
-7 17 3 0.8344 -0.0083
-7 17 4 -0.0752 -0.0321
-7 17 5 0.6813 -0.0031
-7 17 6 -0.4614 -0.0188
-7 17 7 -0.8287 -0.0421
-7 17 8 0.8134 -0.0316
-7 17 9 0.7542 0.0230
-7 17 10 -0.2029 0.0114
-7 17 11 -0.7051 0.1129
-7 17 12 -0.1391 -0.0148
-7 17 13 -0.4386 0.0314
-7 17 14 0.7088 0.0041
-7 18 1 -0.7259 0.0552
-7 18 2 -1.8945 0.0122
-7 18 3 -0.0572 0.0340
-7 18 4 -0.2578 0.0490
-7 18 5 0.5492 0.0497
-7 18 6 -0.3310 0.0407
-7 18 7 -1.8168 -0.0122
-7 18 8 0.3645 -0.0398
-7 18 9 -1.0980 -0.0832
-7 18 10 -0.2921 -0.0433
-7 18 11 -0.8330 -0.0696
-7 18 12 -0.1796 -0.0231
-7 19 1 -1.5449 -0.0652
-7 19 2 0.0345 -0.0841
-7 19 3 -0.0846 -0.0924
-7 19 4 -0.3622 -0.0681
-7 19 5 -0.5059 0.0352
-7 19 6 0.8394 0.0188
-7 19 7 -1.2330 0.0862
-7 19 8 0.6411 0.0005
-7 19 9 0.3320 -0.0279
-7 19 10 0.2249 -0.0137
-7 20 1 -0.3704 -0.0009
-7 20 2 -1.4098 0.1266
-7 20 3 -1.3526 -0.0206
-7 20 4 -0.5667 0.1676
-7 20 5 -0.4586 0.0281
-7 20 6 0.2238 0.0190
-6 0 2 -9.0180 0.2324
-6 0 4 27.6524 0.0581
-6 0 6 30.5424 -0.0305
-6 0 8 19.6416 0.0310
-6 0 10 -2.6230 -0.0289
-6 0 12 -2.9139 0.0330
-6 0 14 -0.9378 0.0224
-6 0 16 0.8970 -0.0096
-6 0 18 0.7359 0.0063
-6 0 20 -1.5343 -0.0045
-6 0 22 -0.8850 -0.0065
-6 0 24 -0.2057 -0.0058
-6 1 1 42.3703 -0.1385
-6 1 2 25.4907 -0.1088
-6 1 3 73.1326 -0.2251
-6 1 4 19.5947 0.0560
-6 1 5 35.9710 -0.0506
-6 1 6 -3.6584 -0.0424
-6 1 7 -8.6593 -0.0345
-6 1 8 -11.6909 -0.0098
-6 1 9 -10.6013 -0.0050
-6 1 10 -1.7615 -0.0182
-6 1 11 -2.5943 -0.0204
-6 1 12 3.8968 -0.0307
-6 1 13 -0.3253 -0.0116
-6 1 14 3.6232 -0.0216
-6 1 15 -0.1586 -0.0128
-6 1 16 0.8790 -0.0180
-6 1 17 0.6923 -0.0441
-6 1 18 -0.0237 0.0088
-6 1 19 -0.5654 0.0018
-6 1 20 -0.7719 0.0029
-6 1 21 0.2655 -0.0297
-6 1 22 0.4099 0.0003
-6 1 23 0.6555 -0.0570
-6 1 24 1.0792 -0.0446
-6 2 1 -17.8034 0.1215
-6 2 2 -10.9370 0.0774
-6 2 3 -35.5989 0.0805
-6 2 4 -14.1271 0.0521
-6 2 5 0.3873 -0.0248
-6 2 6 2.6038 0.0656
-6 2 7 11.8676 0.0117
-6 2 8 12.0069 0.0318
-6 2 9 7.3947 0.0366
-6 2 10 5.5926 0.0190
-6 2 11 -1.9699 0.0231
-6 2 12 2.8983 0.0423
-6 2 13 -3.0840 -0.0212
-6 2 14 0.5344 0.0132
-6 2 15 -2.1051 -0.0151
-6 2 16 -1.7093 0.0559
-6 2 17 0.3399 0.0028
-6 2 18 -1.2059 0.0049
-6 2 19 0.8605 -0.0060
-6 2 20 -0.8364 -0.0167
-6 2 21 0.7242 -0.0256
-6 2 22 0.3700 0.0487
-6 2 23 -0.1251 -0.0920
-6 2 24 0.0878 0.0085
-6 3 1 -1.5212 0.0218
-6 3 2 2.1109 -0.0646
-6 3 3 47.4716 0.0380
-6 3 4 9.8321 0.0808
-6 3 5 45.9971 0.0045
-6 3 6 3.4240 0.0113
-6 3 7 9.4577 -0.0939
-6 3 8 1.1519 -0.0073
-6 3 9 -16.8505 -0.0255
-6 3 10 2.8194 -0.0366
-6 3 11 -12.9467 -0.0349
-6 3 12 1.2477 -0.0375
-6 3 13 -0.4714 -0.0259
-6 3 14 0.1526 -0.0115
-6 3 15 2.3246 -0.0076
-6 3 16 -1.7299 -0.0020
-6 3 17 2.6683 0.0091
-6 3 18 -0.6048 0.0029
-6 3 19 1.7814 0.0023
-6 3 20 -0.9804 -0.0331
-6 3 21 0.0713 -0.0349
-6 3 22 -0.3311 0.0288
-6 3 23 -0.1069 -0.0665
-6 3 24 0.7563 0.0578
-6 4 1 -2.2703 0.0613
-6 4 2 -9.3091 -0.0319
-6 4 3 -4.9458 -0.0070
-6 4 4 -23.5622 -0.0154
-6 4 5 3.2926 -0.0035
-6 4 6 -6.8472 0.0620
-6 4 7 3.1729 0.0221
-6 4 8 4.4849 0.0360
-6 4 9 0.5713 -0.0106
-6 4 10 7.1312 0.0035
-6 4 11 1.1061 0.0137
-6 4 12 3.2451 0.0039
-6 4 13 2.5995 0.0025
-6 4 14 0.1440 0.0261
-6 4 15 2.6117 0.0082
-6 4 16 -3.5204 -0.0078
-6 4 17 1.5221 0.0016
-6 4 18 -2.5886 -0.0312
-6 4 19 0.7401 -0.0357
-6 4 20 -0.6723 -0.0016
-6 4 21 -0.2614 -0.0083
-6 4 22 0.3104 0.0248
-6 4 23 -0.7758 -0.0606
-6 4 24 0.1577 -0.0175
-6 5 1 -4.1339 -0.0498
-6 5 2 -24.8502 0.0086
-6 5 3 12.1550 0.0491
-6 5 4 -16.4008 0.0030
-6 5 5 20.1602 0.0228
-6 5 6 5.4308 -0.0049
-6 5 7 8.4761 -0.0019
-6 5 8 17.4140 0.0145
-6 5 9 -8.0138 -0.0313
-6 5 10 7.7818 -0.0039
-6 5 11 -8.7559 -0.0131
-6 5 12 -4.2617 0.0064
-6 5 13 -0.8449 0.0276
-6 5 14 -4.0806 -0.0112
-6 5 15 1.7761 -0.0109
-6 5 16 -2.5177 -0.0431
-6 5 17 2.3204 0.0404
-6 5 18 0.1429 0.0282
-6 5 19 0.7207 0.0115
-6 5 20 0.5228 0.0232
-6 5 21 -0.7805 0.0211
-6 5 22 0.2373 0.0177
-6 5 23 -0.9590 -0.0021
-6 5 24 0.7772 0.0042
-6 6 1 -4.3479 0.0068
-6 6 2 2.3193 -0.0068
-6 6 3 -0.7919 0.0071
-6 6 4 -0.2820 -0.0065
-6 6 5 2.0692 0.0607
-6 6 6 -0.5400 -0.0286
-6 6 7 0.6854 0.0287
-6 6 8 3.5125 0.0035
-6 6 9 -2.5546 0.0120
-6 6 10 3.6642 -0.0109
-6 6 11 -1.1332 -0.0005
-6 6 12 1.8721 -0.0376
-6 6 13 2.2573 -0.0230
-6 6 14 -0.5611 0.0234
-6 6 15 2.9188 0.0038
-6 6 16 -2.1123 -0.0168
-6 6 17 0.9392 0.0243
-6 6 18 -0.9817 -0.0397
-6 6 19 -0.2202 -0.0365
-6 6 20 -0.0705 0.0096
-6 6 21 -1.6593 -0.0148
-6 6 22 0.0949 -0.0291
-6 6 23 -0.7126 0.0529
-6 7 1 9.3541 -0.0012
-6 7 2 -13.2315 0.0230
-6 7 3 3.8636 -0.0035
-6 7 4 -12.9110 -0.0087
-6 7 5 -1.2669 -0.0148
-6 7 6 4.1673 -0.0473
-6 7 7 0.0509 -0.0021
-6 7 8 11.4403 -0.0153
-6 7 9 0.0271 -0.0019
-6 7 10 6.6489 -0.0149
-6 7 11 -1.4690 0.0392
-6 7 12 -2.1136 0.0023
-6 7 13 -1.5313 0.0238
-6 7 14 -2.7076 0.0233
-6 7 15 0.6744 -0.0183
-6 7 16 -1.8521 -0.0434
-6 7 17 0.0598 0.0454
-6 7 18 0.6131 -0.0411
-6 7 19 -0.0729 -0.0274
-6 7 20 2.0374 0.0966
-6 7 21 -0.2040 -0.0047
-6 7 22 1.8507 0.0989
-6 7 23 -0.5789 0.0983
-6 8 1 -5.6244 0.0246
-6 8 2 -1.2082 -0.0404
-6 8 3 -5.3378 -0.0054
-6 8 4 -5.3235 0.0137
-6 8 5 0.4927 0.0183
-6 8 6 -4.6725 -0.0112
-6 8 7 3.2004 0.0220
-6 8 8 -0.3278 -0.0089
-6 8 9 0.3721 0.0119
-6 8 10 2.6170 0.0070
-6 8 11 -3.2445 0.0053
-6 8 12 1.3077 -0.0202
-6 8 13 -0.1605 -0.0128
-6 8 14 -1.5635 0.0112
-6 8 15 1.0963 -0.0320
-6 8 16 -0.8044 -0.0269
-6 8 17 1.5684 0.0461
-6 8 18 0.7417 -0.0577
-6 8 19 1.3761 -0.0057
-6 8 20 0.0930 0.0299
-6 8 21 -0.2546 -0.0471
-6 8 22 -0.3794 0.0878
-6 8 23 0.0932 0.0929
-6 9 1 4.7129 0.0248
-6 9 2 -4.7126 0.0008
-6 9 3 1.0472 0.0260
-6 9 4 0.2724 0.0142
-6 9 5 -4.5233 -0.0335
-6 9 6 -0.2023 -0.0156
-6 9 7 1.2507 -0.0162
-6 9 8 2.4980 -0.0165
-6 9 9 1.7456 0.0102
-6 9 10 4.4529 0.0157
-6 9 11 -1.9447 -0.0130
-6 9 12 1.3552 -0.0197
-6 9 13 -1.6104 0.0087
-6 9 14 -0.2508 -0.0078
-6 9 15 1.3998 -0.0338
-6 9 16 -0.6640 -0.0046
-6 9 17 -0.5152 0.0162
-6 9 18 -0.9240 -0.0629
-6 9 19 0.1384 0.0143
-6 9 20 0.6590 0.0207
-6 9 21 0.1090 -0.0645
-6 9 22 0.6679 0.0406
-6 10 1 -4.2315 -0.0107
-6 10 2 -1.6700 -0.0225
-6 10 3 -0.0321 -0.0004
-6 10 4 -6.9363 0.0041
-6 10 5 1.6575 0.0155
-6 10 6 -4.1069 0.0045
-6 10 7 1.2247 -0.0090
-6 10 8 0.7304 -0.0035
-6 10 9 -3.2410 -0.0246
-6 10 10 4.1497 0.0156
-6 10 11 -2.5174 0.0268
-6 10 12 1.0193 0.0169
-6 10 13 0.6940 0.0414
-6 10 14 -2.2208 0.0352
-6 10 15 2.3471 0.0184
-6 10 16 -2.0459 0.0611
-6 10 17 1.9503 0.0085
-6 10 18 -0.3711 -0.0470
-6 10 19 1.8505 -0.0382
-6 10 20 0.7168 0.0761
-6 10 21 1.0850 -0.0544
-6 10 22 1.0077 0.4635
-6 11 1 -0.9750 0.0071
-6 11 2 -0.3111 -0.0014
-6 11 3 -1.2273 0.0328
-6 11 4 2.2564 -0.0107
-6 11 5 -1.6500 0.0006
-6 11 6 -0.7246 0.0096
-6 11 7 -0.9603 -0.0026
-6 11 8 1.7830 0.0118
-6 11 9 0.3521 0.0038
-6 11 10 2.8572 0.0282
-6 11 11 -0.1657 0.0030
-6 11 12 1.2117 -0.0203
-6 11 13 -0.7783 0.0112
-6 11 14 -0.5381 -0.0222
-6 11 15 0.5181 -0.0526
-6 11 16 -0.3023 -0.0079
-6 11 17 0.9312 -0.0064
-6 11 18 -0.1943 0.0306
-6 11 19 0.2835 0.0218
-6 11 20 0.1030 0.0611
-6 11 21 0.4518 -0.0880
-6 12 1 -0.9611 -0.0022
-6 12 2 -3.8473 0.0009
-6 12 3 0.3105 0.0064
-6 12 4 -5.6658 0.0045
-6 12 5 -0.0739 -0.0003
-6 12 6 -2.4911 -0.0048
-6 12 7 -0.9543 0.0036
-6 12 8 1.2061 -0.0012
-6 12 9 -2.1065 0.0119
-6 12 10 2.4528 0.0068
-6 12 11 -0.7945 -0.0133
-6 12 12 1.1097 0.0054
-6 12 13 0.2448 0.0240
-6 12 14 -1.3128 -0.0062
-6 12 15 1.4479 0.0405
-6 12 16 -0.3793 0.0450
-6 12 17 0.2108 -0.0290
-6 12 18 -0.3517 -0.0210
-6 12 19 0.1406 -0.0613
-6 12 20 0.3181 -0.0181
-6 13 1 -2.2676 -0.0101
-6 13 2 -2.8190 -0.0113
-6 13 3 -2.1865 -0.0253
-6 13 4 -1.0813 -0.0180
-6 13 5 -2.7381 -0.0256
-6 13 6 1.6359 0.0198
-6 13 7 0.0735 0.0067
-6 13 8 1.9914 0.0143
-6 13 9 0.6361 0.0231
-6 13 10 0.9246 0.0197
-6 13 11 -0.1407 0.0140
-6 13 12 2.7986 0.0215
-6 13 13 -0.6005 -0.0004
-6 13 14 0.9771 -0.0428
-6 13 15 -0.7495 0.0108
-6 13 16 -0.2751 -0.0158
-6 13 17 -0.8529 0.0361
-6 13 18 0.2575 0.0590
-6 13 19 -1.0516 -0.0233
-6 14 1 3.2741 0.0148
-6 14 2 -2.3194 -0.0115
-6 14 3 1.0827 -0.0112
-6 14 4 -1.8643 -0.0052
-6 14 5 -1.0059 0.0122
-6 14 6 -1.6343 -0.0380
-6 14 7 -0.6631 0.0303
-6 14 8 -0.1746 -0.0313
-6 14 9 -1.6558 -0.0167
-6 14 10 2.2020 -0.0235
-6 14 11 -1.0576 -0.0356
-6 14 12 0.9695 -0.0306
-6 14 13 1.1884 0.0106
-6 14 14 -0.9887 0.0314
-6 14 15 -0.0537 0.0764
-6 14 16 0.6913 0.0304
-6 14 17 0.1886 0.0241
-6 14 18 0.3474 0.0087
-6 15 1 1.1199 -0.0147
-6 15 2 -0.6034 -0.0263
-6 15 3 -1.2354 -0.0006
-6 15 4 -0.3325 -0.0031
-6 15 5 -2.0092 -0.0082
-6 15 6 -0.4545 0.0108
-6 15 7 1.0055 0.0221
-6 15 8 0.4360 0.0191
-6 15 9 1.2845 0.0400
-6 15 10 -1.6012 0.0459
-6 15 11 -0.4892 -0.0318
-6 15 12 0.2280 0.0200
-6 15 13 1.3587 -0.0246
-6 15 14 0.5422 -0.0441
-6 15 15 0.7382 -0.0111
-6 15 16 0.4932 -0.0527
-6 15 17 -0.4227 0.0193
-6 16 1 1.0683 0.0267
-6 16 2 0.4021 -0.0044
-6 16 3 2.3335 0.0364
-6 16 4 2.0296 0.0372
-6 16 5 0.0721 0.0284
-6 16 6 -0.1300 -0.0016
-6 16 7 -1.9079 -0.0440
-6 16 8 0.8102 -0.0558
-6 16 9 -2.3702 -0.0566
-6 16 10 0.5537 -0.0311
-6 16 11 -0.5993 -0.0288
-6 16 12 -0.7814 0.0408
-6 16 13 0.7002 -0.0750
-6 16 14 0.0226 0.0241
-6 16 15 -0.3333 0.0417
-6 16 16 0.4673 0.0187
-6 17 1 0.3234 0.0019
-6 17 2 1.5207 -0.0327
-6 17 3 0.6813 -0.0362
-6 17 4 -0.2849 -0.0173
-6 17 5 0.3269 -0.0050
-6 17 6 0.0764 0.0156
-6 17 7 -0.6990 0.0426
-6 17 8 -0.1055 0.0041
-6 17 9 0.6064 0.0752
-6 17 10 -1.0816 0.0289
-6 17 11 -1.1257 0.0476
-6 17 12 -0.1469 -0.0251
-6 17 13 -0.3403 -0.0100
-6 17 14 0.4777 -0.0075
-6 18 1 -0.8911 0.0609
-6 18 2 -2.1652 0.0110
-6 18 3 -0.1756 0.0099
-6 18 4 0.3874 0.0211
-6 18 5 -0.2136 0.0009
-6 18 6 0.1272 -0.0039
-6 18 7 -1.8790 -0.0458
-6 18 8 0.3742 -0.0508
-6 18 9 -0.5229 -0.0549
-6 18 10 -0.0959 -0.0286
-6 18 11 -0.6901 -0.0607
-6 18 12 0.2120 -0.0078
-6 19 1 -0.7811 -0.0087
-6 19 2 -0.1534 -0.0421
-6 19 3 -0.0222 0.0044
-6 19 4 -0.0326 -0.0080
-6 19 5 -0.6922 0.0730
-6 19 6 1.3430 0.0571
-6 19 7 -0.4990 0.0436
-6 19 8 0.1981 -0.0026
-6 19 9 1.1096 -0.0296
-6 19 10 -0.1023 -0.0114
-6 20 1 -0.3193 0.0245
-6 20 2 -1.2995 0.1060
-6 20 3 -1.4555 -0.0013
-6 20 4 -0.0673 0.0393
-6 20 5 -0.5245 0.0044
-6 20 6 0.2832 -0.0392
-6 20 7 -0.1881 -0.0599
-5 0 2 7.7682 0.1187
-5 0 4 66.0057 -0.1664
-5 0 6 51.5964 -0.0674
-5 0 8 12.3791 0.0174
-5 0 10 -10.9600 -0.0107
-5 0 12 -3.6583 0.0357
-5 0 14 -1.2890 0.0023
-5 0 16 1.9073 -0.0054
-5 0 18 0.7681 0.0003
-5 0 20 -1.8962 -0.0091
-5 0 22 -0.5962 -0.0067
-5 0 24 0.2987 0.0142
-5 1 1 86.4517 -0.3843
-5 1 2 33.3174 -0.0328
-5 1 3 70.9749 -0.0635
-5 1 4 10.9503 0.1009
-5 1 5 5.9164 0.0583
-5 1 6 -10.4854 -0.0729
-5 1 7 -22.9310 -0.0188
-5 1 8 -11.1879 -0.0191
-5 1 9 -6.0768 0.0064
-5 1 10 0.9156 -0.0049
-5 1 11 2.4865 -0.0367
-5 1 12 5.7979 -0.0128
-5 1 13 1.7271 -0.0018
-5 1 14 3.7502 -0.0136
-5 1 15 0.1539 -0.0412
-5 1 16 0.1704 0.0277
-5 1 17 0.3509 -0.0217
-5 1 18 -0.2516 0.0173
-5 1 19 -0.4720 0.0143
-5 1 20 -0.3738 -0.0002
-5 1 21 0.8685 -0.0430
-5 1 22 1.2547 0.0003
-5 1 23 0.8973 -0.0336
-5 1 24 1.4025 -0.0866
-5 2 1 -42.9086 0.1518
-5 2 2 -18.2097 0.0650
-5 2 3 -32.3700 -0.0605
-5 2 4 3.8906 0.0227
-5 2 5 15.0742 0.0309
-5 2 6 22.9643 0.0648
-5 2 7 16.5255 0.0275
-5 2 8 15.0731 -0.0102
-5 2 9 5.0196 0.0177
-5 2 10 1.0043 0.0200
-5 2 11 -4.5265 -0.0142
-5 2 12 -0.8310 0.0456
-5 2 13 -2.9596 -0.0379
-5 2 14 -2.2945 0.0103
-5 2 15 -0.9920 0.0013
-5 2 16 -2.1749 0.0398
-5 2 17 0.9860 -0.0014
-5 2 18 -1.0404 -0.0171
-5 2 19 1.1207 0.0038
-5 2 20 -0.4333 0.0072
-5 2 21 0.0601 -0.0309
-5 2 22 0.5124 0.0125
-5 2 23 -0.5643 -0.0458
-5 2 24 0.0345 -0.0602
-5 3 1 32.1939 0.0116
-5 3 2 11.7796 0.0396
-5 3 3 60.0434 -0.0268
-5 3 4 9.4142 0.0784
-5 3 5 30.3453 -0.0675
-5 3 6 2.6317 -0.0470
-5 3 7 -8.4106 -0.0785
-5 3 8 0.6456 -0.0154
-5 3 9 -21.9490 -0.0227
-5 3 10 0.9585 -0.0473
-5 3 11 -8.3197 -0.0264
-5 3 12 0.7519 -0.0107
-5 3 13 3.9759 -0.0149
-5 3 14 0.0128 0.0011
-5 3 15 4.4089 -0.0208
-5 3 16 -1.2703 -0.0030
-5 3 17 2.5558 0.0069
-5 3 18 -0.0164 -0.0172
-5 3 19 0.4367 -0.0358
-5 3 20 -0.7024 -0.0075
-5 3 21 -0.6192 -0.0466
-5 3 22 0.7632 0.0364
-5 3 23 -0.0366 0.0027
-5 3 24 1.2062 -0.0363
-5 4 1 -7.6661 0.0101
-5 4 2 -21.7435 -0.0830
-5 4 3 -2.2887 -0.0652
-5 4 4 -21.0217 0.0739
-5 4 5 3.2153 0.0041
-5 4 6 4.3852 0.0958
-5 4 7 0.5031 0.0065
-5 4 8 12.0014 0.0288
-5 4 9 1.3529 0.0025
-5 4 10 6.6629 0.0043
-5 4 11 3.2014 0.0029
-5 4 12 -0.8491 0.0065
-5 4 13 3.3507 0.0076
-5 4 14 -3.0491 0.0136
-5 4 15 2.1709 0.0127
-5 4 16 -4.3344 -0.0230
-5 4 17 0.7137 -0.0365
-5 4 18 -1.4115 -0.0194
-5 4 19 -0.0561 -0.0112
-5 4 20 0.8196 0.0028
-5 4 21 -1.0208 0.0090
-5 4 22 0.8839 -0.0105
-5 4 23 -0.6538 -0.0308
-5 4 24 0.3553 -0.0535
-5 5 1 6.0708 0.0385
-5 5 2 -27.8631 0.0268
-5 5 3 17.1012 0.0388
-5 5 4 -7.5655 -0.0181
-5 5 5 16.1054 -0.0202
-5 5 6 16.2761 0.0220
-5 5 7 -1.8615 -0.0157
-5 5 8 18.3174 0.0111
-5 5 9 -13.4298 -0.0242
-5 5 10 0.2395 -0.0129
-5 5 11 -5.8468 0.0108
-5 5 12 -8.5317 0.0202
-5 5 13 2.8158 -0.0029
-5 5 14 -3.6079 -0.0238
-5 5 15 3.3248 0.0036
-5 5 16 -0.2114 -0.0101
-5 5 17 1.7338 0.0275
-5 5 18 1.8439 0.0436
-5 5 19 -0.4213 -0.0114
-5 5 20 1.0210 -0.0140
-5 5 21 -1.4164 0.0626
-5 5 22 0.5893 -0.0107
-5 5 23 -1.0638 -0.0215
-5 5 24 0.4664 -0.0185
-5 6 1 -0.1787 -0.0195
-5 6 2 1.6371 -0.0231
-5 6 3 2.6669 0.0327
-5 6 4 1.6964 0.0099
-5 6 5 -0.8804 0.0314
-5 6 6 5.2803 -0.0140
-5 6 7 -3.1567 -0.0191
-5 6 8 7.9583 0.0225
-5 6 9 -1.8222 -0.0043
-5 6 10 3.4018 -0.0175
-5 6 11 3.3296 -0.0226
-5 6 12 -0.3137 0.0017
-5 6 13 4.2501 -0.0098
-5 6 14 -2.2402 0.0230
-5 6 15 2.2871 0.0271
-5 6 16 -1.7868 -0.0336
-5 6 17 -0.3925 -0.0212
-5 6 18 0.2913 -0.0096
-5 6 19 -1.5257 -0.0486
-5 6 20 0.4575 -0.0165
-5 6 21 -1.6270 0.0495
-5 6 22 0.1902 -0.0538
-5 6 23 0.0159 0.0736
-5 7 1 9.1747 -0.0005
-5 7 2 -16.4711 0.0072
-5 7 3 0.8585 -0.0043
-5 7 4 -7.9539 -0.0307
-5 7 5 -3.9308 -0.0088
-5 7 6 10.6444 -0.0219
-5 7 7 -2.9347 -0.0119
-5 7 8 12.2508 0.0082
-5 7 9 -1.3342 0.0033
-5 7 10 1.7465 0.0105
-5 7 11 -0.3968 0.0409
-5 7 12 -6.2339 0.0217
-5 7 13 0.1442 -0.0265
-5 7 14 -3.4276 -0.0084
-5 7 15 0.6596 0.0019
-5 7 16 -0.8770 -0.0519
-5 7 17 -0.7840 0.0129
-5 7 18 2.2330 0.0347
-5 7 19 -0.2788 -0.0395
-5 7 20 2.5226 0.0802
-5 7 21 -0.2513 0.0958
-5 7 22 0.9044 -0.0204
-5 7 23 -0.4570 0.0594
-5 8 1 -5.6771 0.0034
-5 8 2 -1.0299 -0.0024
-5 8 3 -4.2881 -0.0072
-5 8 4 -3.7028 0.0172
-5 8 5 1.7472 0.0255
-5 8 6 -1.0790 -0.0170
-5 8 7 3.0745 -0.0018
-5 8 8 2.3684 -0.0062
-5 8 9 0.0007 -0.0259
-5 8 10 1.8684 -0.0015
-5 8 11 -0.7736 -0.0127
-5 8 12 -1.1014 0.0049
-5 8 13 1.9381 -0.0225
-5 8 14 -2.3872 0.0048
-5 8 15 1.7124 0.0028
-5 8 16 0.3289 -0.0291
-5 8 17 0.9872 0.0299
-5 8 18 0.9687 -0.0000
-5 8 19 0.0007 -0.0733
-5 8 20 -0.1099 0.0519
-5 8 21 -0.3178 0.0623
-5 8 22 -0.4213 -0.0021
-5 8 23 0.5060 0.1860
-5 9 1 4.6097 0.0335
-5 9 2 -2.7681 0.0216
-5 9 3 -1.1850 -0.0085
-5 9 4 2.0056 0.0119
-5 9 5 -5.9215 -0.0359
-5 9 6 0.9674 -0.0207
-5 9 7 1.1931 0.0019
-5 9 8 3.6895 -0.0001
-5 9 9 0.5300 0.0003
-5 9 10 3.0451 0.0040
-5 9 11 -0.8355 -0.0096
-5 9 12 -0.7390 0.0026
-5 9 13 0.6192 -0.0236
-5 9 14 -1.1707 0.0200
-5 9 15 1.1359 -0.0283
-5 9 16 -0.5623 -0.0220
-5 9 17 -1.0837 0.0163
-5 9 18 0.0295 -0.0256
-5 9 19 0.2917 -0.0750
-5 9 20 1.1651 0.0232
-5 9 21 0.3286 -0.0471
-5 9 22 0.3646 -0.0338
-5 10 1 -6.2075 -0.0063
-5 10 2 -3.8476 -0.0036
-5 10 3 -0.1562 0.0064
-5 10 4 -6.7917 0.0167
-5 10 5 2.1239 0.0157
-5 10 6 -1.6748 -0.0056
-5 10 7 0.0434 -0.0163
-5 10 8 3.0011 0.0075
-5 10 9 -3.0266 -0.0231
-5 10 10 3.7849 0.0175
-5 10 11 -0.1721 0.0478
-5 10 12 -1.3614 0.0124
-5 10 13 2.5107 0.0124
-5 10 14 -3.0363 0.0492
-5 10 15 2.6366 -0.0132
-5 10 16 -1.1261 0.0202
-5 10 17 1.6666 0.0124
-5 10 18 0.2952 -0.0064
-5 10 19 1.3776 -0.0543
-5 10 20 0.9993 0.2915
-5 10 21 0.8096 0.0094
-5 11 1 -0.2891 0.0315
-5 11 2 1.0804 0.0096
-5 11 3 -1.7249 0.0178
-5 11 4 2.2013 0.0091
-5 11 5 -2.2214 -0.0052
-5 11 6 -0.4058 0.0110
-5 11 7 -0.7291 0.0093
-5 11 8 2.4967 -0.0011
-5 11 9 -0.5581 -0.0089
-5 11 10 1.5198 0.0043
-5 11 11 -0.2649 0.0075
-5 11 12 -0.5502 -0.0289
-5 11 13 -0.0594 -0.0106
-5 11 14 -1.3359 -0.0030
-5 11 15 0.3067 -0.0608
-5 11 16 0.3677 0.0083
-5 11 17 0.4440 0.0407
-5 11 18 0.0763 0.0351
-5 11 19 0.0163 -0.0865
-5 11 20 0.0802 0.0383
-5 11 21 0.7854 -0.1437
-5 12 1 -2.1737 -0.0178
-5 12 2 -6.9502 -0.0046
-5 12 3 -0.0419 -0.0013
-5 12 4 -5.8503 -0.0066
-5 12 5 -0.8835 -0.0240
-5 12 6 -1.4707 -0.0043
-5 12 7 -1.3438 0.0032
-5 12 8 2.1289 0.0126
-5 12 9 -1.1933 0.0097
-5 12 10 2.1680 0.0024
-5 12 11 0.1836 0.0047
-5 12 12 0.0147 0.0065
-5 12 13 1.1247 0.0338
-5 12 14 -1.6510 0.0132
-5 12 15 1.3015 -0.0165
-5 12 16 -0.1898 0.0156
-5 12 17 -0.1131 -0.0360
-5 12 18 0.0582 0.0035
-5 12 19 0.1086 -0.0049
-5 12 20 0.4166 0.1186
-5 13 1 -0.9163 -0.0185
-5 13 2 -2.3092 0.0072
-5 13 3 -1.6412 -0.0268
-5 13 4 -0.3292 -0.0011
-5 13 5 -1.8589 -0.0132
-5 13 6 2.4060 0.0253
-5 13 7 0.4276 0.0120
-5 13 8 1.8261 0.0206
-5 13 9 -0.1874 0.0165
-5 13 10 0.3535 0.0143
-5 13 11 -0.1054 0.0144
-5 13 12 1.7894 -0.0193
-5 13 13 -0.3320 0.0003
-5 13 14 0.0861 -0.0097
-5 13 15 -1.1757 0.0258
-5 13 16 -0.2164 0.0373
-5 13 17 -0.9060 0.0500
-5 13 18 0.3698 0.0166
-5 13 19 -0.8292 -0.0456
-5 14 1 3.3316 -0.0048
-5 14 2 -3.1902 -0.0125
-5 14 3 0.2406 -0.0196
-5 14 4 -2.8373 -0.0140
-5 14 5 -1.7041 0.0040
-5 14 6 -2.8625 -0.0251
-5 14 7 -0.9675 0.0137
-5 14 8 0.6524 -0.0125
-5 14 9 -1.0163 -0.0242
-5 14 10 2.4154 -0.0068
-5 14 11 -0.2713 -0.0093
-5 14 12 -0.0447 0.0074
-5 14 13 1.6284 0.0687
-5 14 14 -0.7184 0.0465
-5 14 15 0.1545 0.0374
-5 14 16 1.3149 0.0122
-5 14 17 0.6114 -0.0242
-5 14 18 0.1719 0.0072
-5 15 1 1.0999 -0.0196
-5 15 2 -0.6638 -0.0179
-5 15 3 -1.5366 -0.0040
-5 15 4 0.7771 0.0104
-5 15 5 -1.0309 0.0151
-5 15 6 0.7480 0.0388
-5 15 7 1.3101 0.0365
-5 15 8 0.1718 0.0281
-5 15 9 0.8187 0.0121
-5 15 10 -2.0108 0.0003
-5 15 11 0.2289 -0.0722
-5 15 12 0.2594 -0.0283
-5 15 13 1.4529 -0.0295
-5 15 14 0.4480 -0.0474
-5 15 15 0.1168 0.0380
-5 15 16 -0.1400 -0.0131
-5 15 17 -0.2427 0.0240
-5 16 1 1.3355 0.0180
-5 16 2 1.8075 0.0013
-5 16 3 2.3152 -0.0053
-5 16 4 2.1721 0.0063
-5 16 5 -0.4622 -0.0164
-5 16 6 -0.5379 -0.0423
-5 16 7 -2.0039 -0.0613
-5 16 8 0.8627 -0.0242
-5 16 9 -1.7733 -0.0182
-5 16 10 0.2245 0.0190
-5 16 11 -0.1472 0.0121
-5 16 12 -1.1374 0.0329
-5 16 13 0.5087 0.0010
-5 16 14 0.4401 0.0207
-5 16 15 -0.6064 0.0699
-5 16 16 0.4724 0.0419
-5 17 1 0.8896 -0.0151
-5 17 2 0.7741 -0.0062
-5 17 3 -0.0951 -0.0495
-5 17 4 -0.2007 0.0001
-5 17 5 0.1060 0.0370
-5 17 6 -0.0258 0.0229
-5 17 7 -0.3566 0.0777
-5 17 8 -1.5016 -0.0007
-5 17 9 0.5799 0.0283
-5 17 10 -1.5352 0.0055
-5 17 11 -1.1231 -0.0274
-5 17 12 0.0753 -0.0512
-5 17 13 -0.1131 -0.0069
-5 17 14 0.4836 -0.0223
-5 18 1 -0.9971 0.0289
-5 18 2 -1.4598 0.0149
-5 18 3 -0.1109 -0.0233
-5 18 4 1.0847 -0.0097
-5 18 5 -0.3998 -0.0083
-5 18 6 0.3764 -0.0264
-5 18 7 -1.0437 -0.0176
-5 18 8 0.5752 -0.0121
-5 18 9 0.0133 -0.0073
-5 18 10 0.2155 -0.0019
-5 18 11 -0.3799 -0.0413
-5 18 12 0.2075 -0.0106
-5 19 1 0.0093 0.0302
-5 19 2 0.0651 0.0239
-5 19 3 -0.0967 0.0441
-5 19 4 0.3916 0.0247
-5 19 5 -0.4285 0.0367
-5 19 6 1.1263 0.0154
-5 19 7 0.4623 -0.0150
-5 19 8 -0.5784 -0.0384
-5 19 9 1.2042 -0.0306
-5 19 10 -0.4050 0.0101
-5 20 1 -0.3079 0.0128
-5 20 2 -0.9886 0.0653
-5 20 3 -1.5405 -0.0148
-5 20 4 -0.0427 0.0017
-5 20 5 -0.2846 -0.0175
-5 20 6 0.0220 -0.0218
-5 20 7 0.3606 -0.0429
-4 0 2 60.2237 -0.3528
-4 0 4 107.6293 -0.2680
-4 0 6 49.5909 -0.0163
-4 0 8 -8.3014 -0.0029
-4 0 10 -17.4242 0.0048
-4 0 12 -2.3495 0.0068
-4 0 14 0.1969 -0.0080
-4 0 16 3.4508 -0.0013
-4 0 18 -0.0529 -0.0023
-4 0 20 -2.2714 -0.0067
-4 0 22 0.0848 0.0124
-4 0 24 1.1198 0.0305
-4 1 1 99.2793 -0.2287
-4 1 2 33.9805 0.0867
-4 1 3 33.9417 0.2536
-4 1 4 -3.0073 0.0516
-4 1 5 -23.3773 0.0648
-4 1 6 -16.0976 -0.0726
-4 1 7 -19.0186 0.0038
-4 1 8 -8.8439 0.0017
-4 1 9 4.9633 0.0117
-4 1 10 4.3996 0.0203
-4 1 11 5.8635 -0.0287
-4 1 12 6.7155 0.0008
-4 1 13 1.4328 0.0145
-4 1 14 2.5696 0.0003
-4 1 15 -1.2797 -0.0469
-4 1 16 -0.7670 0.0475
-4 1 17 -0.2823 0.0139
-4 1 18 -0.3444 -0.0125
-4 1 19 -0.1615 0.0040
-4 1 20 0.1547 0.0008
-4 1 21 1.2211 -0.0388
-4 1 22 1.7168 -0.0247
-4 1 23 0.5604 -0.0116
-4 1 24 1.3620 -0.1352
-4 2 1 -54.7801 -0.0522
-4 2 2 3.3077 -0.0832
-4 2 3 -13.7949 -0.0777
-4 2 4 36.6379 -0.0283
-4 2 5 28.8008 0.1167
-4 2 6 34.3314 0.0151
-4 2 7 17.0271 -0.0235
-4 2 8 7.0861 -0.0584
-4 2 9 0.9612 -0.0143
-4 2 10 -5.5051 0.0176
-4 2 11 -7.3716 -0.0417
-4 2 12 -3.3925 0.0257
-4 2 13 -2.2236 -0.0217
-4 2 14 -3.0507 0.0036
-4 2 15 0.0446 0.0161
-4 2 16 -1.2826 0.0063
-4 2 17 1.4057 0.0071
-4 2 18 -0.4721 -0.0172
-4 2 19 1.0330 0.0172
-4 2 20 0.1146 0.0203
-4 2 21 -0.6985 -0.0093
-4 2 22 0.5127 -0.0446
-4 2 23 -0.6699 0.0473
-4 2 24 0.0843 -0.0705
-4 3 1 55.4525 -0.0101
-4 3 2 15.1318 0.1154
-4 3 3 54.3877 -0.0862
-4 3 4 6.9853 -0.0425
-4 3 5 8.2994 -0.0385
-4 3 6 2.2239 -0.0611
-4 3 7 -19.8000 -0.0085
-4 3 8 -0.9887 -0.0080
-4 3 9 -18.5231 -0.0079
-4 3 10 -0.1051 -0.0268
-4 3 11 -0.4572 0.0017
-4 3 12 1.4550 0.0111
-4 3 13 7.3690 -0.0148
-4 3 14 0.5114 0.0030
-4 3 15 4.4476 -0.0305
-4 3 16 -0.6282 -0.0066
-4 3 17 0.9110 -0.0052
-4 3 18 0.1406 -0.0353
-4 3 19 -0.9976 -0.0627
-4 3 20 -0.1089 0.0210
-4 3 21 -0.6285 -0.0067
-4 3 22 1.6741 -0.0140
-4 3 23 0.3630 0.0635
-4 3 24 1.3019 -0.0856
-4 4 1 -10.6194 -0.0846
-4 4 2 -24.5502 -0.0145
-4 4 3 0.0999 -0.0406
-4 4 4 -9.6255 0.1135
-4 4 5 1.6911 0.0098
-4 4 6 16.7643 0.0384
-4 4 7 0.7802 -0.0024
-4 4 8 14.1350 0.0007
-4 4 9 4.3352 0.0110
-4 4 10 1.3845 -0.0081
-4 4 11 4.0535 -0.0180
-4 4 12 -5.9568 0.0087
-4 4 13 2.6316 0.0234
-4 4 14 -4.5998 -0.0010
-4 4 15 1.0843 -0.0042
-4 4 16 -3.0577 -0.0119
-4 4 17 -0.0008 -0.0409
-4 4 18 0.4900 0.0026
-4 4 19 -0.4943 0.0280
-4 4 20 1.9374 -0.0172
-4 4 21 -1.0011 0.0179
-4 4 22 0.8741 -0.0278
-4 4 23 0.1807 0.0082
-4 4 24 0.1621 -0.0284
-4 5 1 10.3399 0.0757
-4 5 2 -23.6088 0.0055
-4 5 3 14.9835 -0.0311
-4 5 4 7.6916 -0.0179
-4 5 5 6.1700 -0.0127
-4 5 6 24.0986 0.0343
-4 5 7 -11.4840 -0.0027
-4 5 8 12.2984 -0.0199
-4 5 9 -12.6703 0.0072
-4 5 10 -8.1508 0.0008
-4 5 11 -0.2537 0.0173
-4 5 12 -9.0948 0.0232
-4 5 13 5.1790 -0.0250
-4 5 14 -0.8124 -0.0143
-4 5 15 2.9359 0.0160
-4 5 16 2.2770 0.0232
-4 5 17 -0.0506 -0.0089
-4 5 18 2.5980 0.0095
-4 5 19 -1.6037 -0.0033
-4 5 20 0.6957 -0.0452
-4 5 21 -1.6346 0.0676
-4 5 22 0.1591 -0.0253
-4 5 23 -0.6793 -0.0752
-4 5 24 -0.0629 -0.0181
-4 6 1 5.0102 0.0034
-4 6 2 3.6473 -0.0063
-4 6 3 1.6650 0.0220
-4 6 4 6.9726 0.0256
-4 6 5 -5.9760 -0.0344
-4 6 6 11.8180 -0.0022
-4 6 7 -3.6887 -0.0369
-4 6 8 8.1610 0.0197
-4 6 9 3.4571 -0.0131
-4 6 10 -0.1886 -0.0087
-4 6 11 7.4263 -0.0208
-4 6 12 -2.6570 0.0375
-4 6 13 3.1033 0.0194
-4 6 14 -2.3776 -0.0088
-4 6 15 0.1896 0.0038
-4 6 16 -0.3064 -0.0125
-4 6 17 -1.6684 -0.0542
-4 6 18 1.1918 -0.0040
-4 6 19 -1.8458 0.0063
-4 6 20 0.4798 -0.0422
-4 6 21 -0.7158 0.0799
-4 6 22 -0.0199 -0.0106
-4 6 23 0.9035 0.0324
-4 7 1 3.7480 0.0013
-4 7 3 -4.4663 0.0034
-4 7 4 0.0972 -0.0103
-4 7 5 -7.5707 -0.0093
-4 7 6 15.3302 0.0125
-4 7 7 -4.3584 -0.0209
-4 7 8 8.6921 0.0209
-4 7 9 0.6993 0.0127
-4 7 10 -4.8608 0.0188
-4 7 11 1.9931 0.0093
-4 7 12 -8.1873 0.0079
-4 7 13 0.3729 -0.0421
-4 7 14 -2.0528 -0.0329
-4 7 15 -0.7951 0.0212
-4 7 16 1.1929 -0.0018
-4 7 17 -1.4732 -0.0267
-4 7 18 3.2310 0.0654
-4 7 19 0.1036 0.0272
-4 7 20 1.5069 -0.0244
-4 7 21 -0.1197 0.1328
-4 7 22 -0.2986 -0.0505
-4 7 23 -0.3073 -0.0655
-4 8 1 -5.6166 -0.0184
-4 8 2 1.0247 0.0205
-4 8 3 -3.1260 -0.0063
-4 8 4 -0.1817 0.0045
-4 8 5 3.1033 0.0156
-4 8 6 2.0712 -0.0091
-4 8 7 3.2290 -0.0382
-4 8 8 2.2700 -0.0085
-4 8 9 1.4576 -0.0424
-4 8 10 -0.5520 0.0102
-4 8 11 2.2553 -0.0138
-4 8 12 -2.2209 0.0241
-4 8 13 2.7371 -0.0087
-4 8 14 -1.0021 -0.0197
-4 8 15 0.8213 0.0186
-4 8 16 1.8868 0.0063
-4 8 17 -0.5283 -0.0293
-4 8 18 0.8150 0.0179
-4 8 19 -0.5416 -0.0398
-4 8 20 -0.3327 -0.0109
-4 8 21 0.4585 0.1804
-4 8 22 -0.3909 -0.0745
-4 9 1 1.8856 0.0125
-4 9 2 0.0202 0.0329
-4 9 3 -4.4575 -0.0297
-4 9 4 2.3981 -0.0035
-4 9 5 -6.5450 -0.0154
-4 9 6 1.2279 -0.0090
-4 9 7 1.6205 0.0092
-4 9 8 3.0963 0.0098
-4 9 9 0.7630 -0.0098
-4 9 10 0.5100 -0.0039
-4 9 11 1.3775 -0.0135
-4 9 12 -2.0151 0.0426
-4 9 13 1.2023 -0.0368
-4 9 14 -0.9857 0.0159
-4 9 15 -0.2063 -0.0072
-4 9 16 0.4114 -0.0131
-4 9 17 -1.3721 -0.0265
-4 9 18 0.8124 0.0044
-4 9 19 0.5981 -0.0877
-4 9 20 0.9237 -0.0506
-4 9 21 0.6811 0.0775
-4 9 22 -0.0542 -0.0131
-4 10 1 -7.8420 0.0019
-4 10 2 -3.9792 0.0313
-4 10 3 0.9688 0.0205
-4 10 4 -4.4048 0.0059
-4 10 5 2.9013 0.0185
-4 10 6 0.9548 -0.0081
-4 10 7 -0.4424 -0.0190
-4 10 8 4.1525 0.0187
-4 10 9 -1.5559 -0.0141
-4 10 10 1.7585 0.0032
-4 10 11 2.0082 0.0322
-4 10 12 -3.1198 0.0048
-4 10 13 2.8541 -0.0304
-4 10 14 -2.1884 0.0248
-4 10 15 1.6668 -0.0148
-4 10 16 -0.0584 -0.0035
-4 10 17 1.1084 0.0111
-4 10 18 0.4360 0.1074
-4 10 19 0.8956 -0.0336
-4 10 20 0.6849 0.3285
-4 10 21 0.5741 0.0917
-4 11 1 -0.2956 0.0167
-4 11 2 1.3673 0.0085
-4 11 3 -3.0652 -0.0105
-4 11 4 1.6736 0.0087
-4 11 5 -2.2058 -0.0005
-4 11 6 -0.1720 -0.0094
-4 11 7 -0.7232 0.0055
-4 11 8 1.9416 -0.0160
-4 11 9 -1.1720 -0.0080
-4 11 10 -0.3725 -0.0097
-4 11 11 0.4249 0.0137
-4 11 12 -1.4116 -0.0039
-4 11 13 0.2231 -0.0311
-4 11 14 -0.7229 0.0057
-4 11 15 -0.3044 -0.0205
-4 11 16 1.4127 -0.0092
-4 11 17 0.0407 0.0112
-4 11 18 0.1586 0.0465
-4 11 19 0.1696 -0.1758
-4 11 20 0.2002 0.0185
-4 11 21 1.2982 0.0278
-4 12 1 -2.9826 -0.0042
-4 12 2 -8.4995 0.0018
-4 12 3 -0.0258 -0.0066
-4 12 4 -4.4725 -0.0129
-4 12 5 -1.3935 -0.0256
-4 12 6 0.1002 0.0079
-4 12 7 -0.6813 0.0160
-4 12 8 2.9899 0.0205
-4 12 9 0.1784 0.0045
-4 12 10 0.9692 -0.0147
-4 12 11 0.8920 0.0146
-4 12 12 -1.0880 0.0114
-4 12 13 1.1372 -0.0033
-4 12 14 -1.4485 0.0038
-4 12 15 0.5283 -0.0444
-4 12 16 0.1161 -0.0189
-4 12 17 -0.3340 0.0212
-4 12 18 0.3124 0.0910
-4 12 19 -0.1926 0.0062
-4 12 20 0.3438 0.1414
-4 13 1 0.1865 -0.0261
-4 13 2 -1.7341 0.0097
-4 13 3 -1.6380 -0.0188
-4 13 4 0.6970 -0.0012
-4 13 5 -1.2634 -0.0027
-4 13 6 2.5684 0.0110
-4 13 7 -0.2809 0.0145
-4 13 8 0.8510 0.0213
-4 13 9 -0.9478 0.0126
-4 13 10 -0.3763 -0.0099
-4 13 11 0.4139 0.0138
-4 13 12 0.7145 -0.0259
-4 13 13 -0.2209 0.0109
-4 13 14 -0.3296 0.0524
-4 13 15 -1.5466 0.0541
-4 13 16 0.3418 0.0097
-4 13 17 -0.6503 0.0225
-4 13 18 0.8518 -0.0457
-4 13 19 -0.4672 -0.0617
-4 14 1 2.3777 -0.0097
-4 14 2 -3.5495 -0.0185
-4 14 3 -1.2363 -0.0201
-4 14 4 -3.3258 -0.0030
-4 14 5 -2.0917 0.0050
-4 14 6 -2.6586 -0.0015
-4 14 7 -0.1231 0.0202
-4 14 8 1.7951 0.0023
-4 14 9 0.1107 -0.0059
-4 14 10 1.7907 0.0088
-4 14 11 0.2329 0.0183
-4 14 12 -0.6798 0.0203
-4 14 13 1.6264 0.0587
-4 14 14 -0.0945 0.0283
-4 14 15 0.1754 -0.0128
-4 14 16 1.4175 -0.0153
-4 14 17 0.5631 0.0188
-4 14 18 -0.2778 0.0221
-4 15 1 0.5941 -0.0196
-4 15 2 -0.3080 -0.0154
-4 15 3 -1.5881 0.0011
-4 15 4 2.3998 0.0186
-4 15 5 -0.2677 0.0176
-4 15 6 1.3401 0.0325
-4 15 7 0.9122 0.0182
-4 15 8 -0.6053 -0.0216
-4 15 9 0.8693 -0.0189
-4 15 10 -2.2760 -0.0570
-4 15 11 1.1554 -0.0712
-4 15 12 0.2571 -0.0319
-4 15 13 0.9991 0.0056
-4 15 14 0.0913 0.0007
-4 15 15 -0.3214 0.0691
-4 15 16 -0.6575 0.0087
-4 15 17 0.1059 0.0013
-4 16 1 1.4391 0.0065
-4 16 2 3.1901 -0.0033
-4 16 3 1.6123 -0.0357
-4 16 4 1.3382 -0.0168
-4 16 5 -0.8298 -0.0250
-4 16 6 -0.9298 -0.0220
-4 16 7 -1.5569 -0.0133
-4 16 8 0.7213 0.0379
-4 16 9 -1.3526 0.0523
-4 16 10 -0.2693 0.0278
-4 16 11 0.0244 0.0395
-4 16 12 -0.9786 -0.0121
-4 16 13 0.2459 0.0426
-4 16 14 0.7638 0.0280
-4 16 15 -0.7396 0.0380
-4 16 16 0.1339 0.0660
-4 17 1 0.8731 -0.0344
-4 17 2 0.0992 0.0018
-4 17 3 -0.8128 -0.0326
-4 17 4 -0.0898 -0.0106
-4 17 5 0.3936 0.0554
-4 17 6 -0.6938 0.0034
-4 17 7 0.1364 0.0322
-4 17 8 -2.4210 -0.0305
-4 17 9 0.6771 -0.0262
-4 17 10 -1.3143 -0.0162
-4 17 11 -0.8980 -0.0455
-4 17 12 0.4952 -0.0592
-4 17 13 0.1558 0.0165
-4 17 14 0.5040 -0.0172
-4 18 1 -0.9625 0.0068
-4 18 2 -0.0522 0.0090
-4 18 3 0.1808 -0.0061
-4 18 4 1.3396 -0.0290
-4 18 5 0.0474 0.0292
-4 18 6 0.5041 0.0001
-4 18 7 0.0030 0.0123
-4 18 8 0.9963 0.0331
-4 18 9 0.1395 0.0219
-4 18 10 0.4218 -0.0159
-4 18 11 -0.1634 -0.0018
-4 18 12 -0.0433 -0.0239
-4 19 1 0.5734 0.0301
-4 19 2 0.5569 0.0491
-4 19 3 -0.0413 0.0263
-4 19 4 0.3424 -0.0158
-4 19 5 0.0540 -0.0206
-4 19 6 0.1765 -0.0484
-4 19 7 1.0819 -0.0543
-4 19 8 -1.2369 -0.0301
-4 19 9 0.8258 -0.0197
-4 19 10 -0.5444 0.0332
-4 20 1 -0.4357 -0.0105
-4 20 2 -0.7590 0.0568
-4 20 3 -1.3014 -0.0155
-4 20 4 -0.3382 0.0191
-4 20 5 0.4408 0.0057
-4 20 6 -0.1174 -0.0259
-4 20 7 0.8345 -0.0021
-3 0 2 136.5637 -0.6891
-3 0 4 126.1847 -0.0285
-3 0 6 20.3609 0.0214
-3 0 8 -30.3364 -0.0200
-3 0 10 -16.2174 0.0102
-3 0 12 2.6632 -0.0265
-3 0 14 3.4617 0.0008
-3 0 16 3.7734 0.0003
-3 0 18 -1.4094 0.0008
-3 0 20 -1.5712 0.0013
-3 0 22 1.2252 0.0393
-3 0 24 1.5641 0.0085
-3 1 1 69.9663 0.2466
-3 1 2 19.4985 0.0809
-3 1 3 -11.4710 0.3372
-3 1 4 -18.1302 -0.0067
-3 1 5 -26.8562 -0.0379
-3 1 6 -16.3343 -0.0124
-3 1 7 1.2133 0.0436
-3 1 8 -3.4371 0.0091
-3 1 9 13.9456 -0.0001
-3 1 10 7.7123 0.0307
-3 1 11 5.0938 0.0003
-3 1 12 6.1097 -0.0046
-3 1 13 -1.1710 0.0203
-3 1 14 1.2108 0.0068
-3 1 15 -3.2188 -0.0290
-3 1 16 -1.4399 0.0256
-3 1 17 -0.3533 0.0305
-3 1 18 -0.4313 -0.0386
-3 1 19 0.3278 -0.0174
-3 1 20 0.8448 0.0176
-3 1 21 1.1314 -0.0196
-3 1 22 2.0115 -0.0713
-3 1 23 -0.1193 -0.0063
-3 1 24 1.0028 -0.1337
-3 2 1 -49.0578 -0.2126
-3 2 2 43.5056 -0.2196
-3 2 3 11.8227 0.0561
-3 2 4 57.7299 -0.0378
-3 2 5 37.8842 0.0924
-3 2 6 25.2409 -0.0450
-3 2 7 14.6813 -0.0906
-3 2 8 -6.8042 -0.0684
-3 2 9 -4.5868 -0.0189
-3 2 10 -9.5526 0.0090
-3 2 11 -9.5898 -0.0300
-3 2 12 -3.9223 0.0043
-3 2 13 -0.3335 0.0108
-3 2 14 -1.8463 -0.0059
-3 2 15 1.2237 0.0219
-3 2 16 0.1534 -0.0215
-3 2 17 1.7073 0.0222
-3 2 18 -0.1709 0.0053
-3 2 19 0.5775 0.0156
-3 2 20 0.2269 0.0099
-3 2 21 -1.1354 0.0319
-3 2 22 0.3705 -0.0714
-3 2 23 -0.3545 0.1149
-3 2 24 0.1505 -0.0097
-3 3 1 59.0091 -0.0496
-3 3 2 15.5061 -0.0047
-3 3 3 33.4693 -0.0570
-3 3 4 4.3011 -0.1336
-3 3 5 -11.1864 0.0552
-3 3 6 -0.3061 -0.0069
-3 3 7 -20.5788 0.0309
-3 3 8 -2.7056 -0.0067
-3 3 9 -9.2546 0.0012
-3 3 10 1.3709 0.0041
-3 3 11 6.0897 0.0214
-3 3 12 2.5567 0.0060
-3 3 13 7.2466 -0.0268
-3 3 14 0.5830 0.0067
-3 3 15 2.2615 -0.0301
-3 3 16 -0.5138 -0.0149
-3 3 17 -1.4990 -0.0206
-3 3 18 0.0705 -0.0294
-3 3 19 -2.0659 -0.0552
-3 3 20 0.6101 0.0344
-3 3 21 -0.1753 0.0377
-3 3 22 2.0663 -0.0642
-3 3 23 0.7503 0.0607
-3 3 24 1.3110 -0.0151
-3 4 1 -6.6736 -0.0924
-3 4 2 -17.7240 0.0750
-3 4 3 2.7876 0.0392
-3 4 4 6.1905 0.0151
-3 4 5 1.2941 -0.0179
-3 4 6 23.3822 -0.0242
-3 4 7 4.3287 0.0068
-3 4 8 8.3789 -0.0135
-3 4 9 6.6728 0.0008
-3 4 10 -5.9307 -0.0126
-3 4 11 2.5971 -0.0204
-3 4 12 -9.0197 0.0178
-3 4 13 0.8440 0.0347
-3 4 14 -3.5610 -0.0089
-3 4 15 0.0504 -0.0222
-3 4 16 -0.6133 0.0174
-3 4 17 -0.0583 -0.0157
-3 4 18 2.1550 0.0055
-3 4 19 -0.4652 0.0374
-3 4 20 2.2422 -0.0379
-3 4 21 -0.4785 0.0107
-3 4 22 0.1998 0.0071
-3 4 23 0.9454 0.0061
-3 4 24 -0.2324 0.0447
-3 5 1 8.7400 -0.0002
-3 5 2 -10.0811 -0.0228
-3 5 3 9.3385 -0.0433
-3 5 4 23.6878 -0.0042
-3 5 5 -3.9499 0.0374
-3 5 6 23.8550 -0.0003
-3 5 7 -14.4926 0.0104
-3 5 8 1.4628 -0.0418
-3 5 9 -5.5642 0.0355
-3 5 10 -12.8699 0.0234
-3 5 11 5.5896 0.0017
-3 5 12 -5.3670 0.0149
-3 5 13 5.3495 -0.0259
-3 5 14 2.6326 0.0120
-3 5 15 0.9755 0.0080
-3 5 16 3.5973 0.0155
-3 5 17 -1.7706 -0.0355
-3 5 18 2.1156 -0.0281
-3 5 19 -1.7590 0.0159
-3 5 20 -0.2220 -0.0328
-3 5 21 -1.0751 0.0134
-3 5 22 -0.5612 -0.0179
-3 5 23 -0.1437 -0.1293
-3 6 1 5.8893 0.0237
-3 6 2 7.9654 0.0258
-3 6 3 -3.6436 -0.0334
-3 6 4 13.7666 0.0198
-3 6 5 -8.9724 -0.0562
-3 6 6 14.2566 0.0028
-3 6 7 0.7110 -0.0152
-3 6 8 2.7994 0.0026
-3 6 9 9.3362 -0.0118
-3 6 10 -4.1674 0.0183
-3 6 11 7.4976 0.0063
-3 6 12 -2.8585 0.0341
-3 6 13 -0.5426 0.0245
-3 6 14 -0.7812 -0.0348
-3 6 15 -1.9150 -0.0330
-3 6 16 1.2214 0.0275
-3 6 17 -2.2517 -0.0304
-3 6 18 1.3552 -0.0228
-3 6 19 -1.0766 0.0583
-3 6 20 0.3338 -0.0044
-3 6 21 0.7378 0.0238
-3 6 22 -0.3330 0.0532
-3 6 23 1.4713 -0.0267
-3 7 1 -4.6211 0.0119
-3 7 2 -8.0701 -0.0105
-3 7 3 -9.8228 0.0090
-3 7 4 7.9523 0.0155
-3 7 5 -8.9388 -0.0179
-3 7 6 15.3634 0.0145
-3 7 7 -1.3152 -0.0149
-3 7 8 0.9582 0.0078
-3 7 9 4.7266 0.0090
-3 7 10 -9.8584 -0.0009
-3 7 11 2.4100 -0.0160
-3 7 12 -6.3967 -0.0159
-3 7 13 -1.4902 -0.0167
-3 7 14 0.9142 -0.0198
-3 7 15 -2.2357 0.0185
-3 7 16 2.9303 0.0454
-3 7 17 -1.3697 -0.0240
-3 7 18 2.5079 0.0108
-3 7 19 0.4889 0.0918
-3 7 20 -0.2455 -0.0855
-3 7 21 -0.1354 0.0470
-3 7 22 -0.9242 0.0525
-3 7 23 -0.1313 -0.1948
-3 8 1 -5.3686 -0.0249
-3 8 2 4.6323 0.0143
-3 8 3 -0.8946 -0.0023
-3 8 4 3.5791 -0.0003
-3 8 5 4.6240 0.0049
-3 8 6 2.4666 0.0038
-3 8 7 4.4875 -0.0485
-3 8 8 -0.7804 -0.0114
-3 8 9 4.0151 -0.0209
-3 8 10 -2.6603 0.0297
-3 8 11 3.6508 -0.0002
-3 8 12 -0.8212 0.0089
-3 8 13 1.2806 0.0124
-3 8 14 1.4474 -0.0260
-3 8 15 -1.0479 -0.0006
-3 8 16 2.4539 0.0397
-3 8 17 -1.3880 -0.0439
-3 8 18 -0.1618 -0.0411
-3 8 19 0.0338 0.0543
-3 8 20 -0.5712 -0.0571
-3 8 21 0.9923 0.1484
-3 8 22 -0.2159 -0.0686
-3 9 1 -2.8451 0.0007
-3 9 2 1.2734 0.0154
-3 9 3 -7.0800 -0.0232
-3 9 4 1.6595 -0.0180
-3 9 5 -5.5062 0.0072
-3 9 6 1.5171 0.0072
-3 9 7 2.9673 0.0058
-3 9 8 1.7340 -0.0002
-3 9 9 2.3154 -0.0152
-3 9 10 -1.2289 0.0015
-3 9 11 2.7135 -0.0074
-3 9 12 -1.4431 0.0603
-3 9 13 -0.2640 -0.0253
-3 9 14 0.5079 -0.0072
-3 9 15 -1.4570 -0.0063
-3 9 16 1.6782 0.0161
-3 9 17 -0.8561 -0.0467
-3 9 18 0.7235 -0.0340
-3 9 19 1.1380 0.0115
-3 9 20 0.1406 -0.0798
-3 9 21 0.7536 0.1479
-3 9 22 -0.1876 0.1615
-3 10 1 -7.8119 0.0201
-3 10 2 -2.8001 0.0385
-3 10 3 3.3792 0.0352
-3 10 4 -2.2415 -0.0232
-3 10 5 3.4517 0.0158
-3 10 6 2.5549 0.0027
-3 10 7 -0.4182 -0.0137
-3 10 8 3.8146 0.0106
-3 10 9 0.0674 -0.0145
-3 10 10 -0.8057 -0.0187
-3 10 11 2.7292 -0.0045
-3 10 12 -3.1777 -0.0137
-3 10 13 1.6040 -0.0353
-3 10 14 -0.5790 -0.0104
-3 10 15 0.3332 -0.0033
-3 10 16 0.4755 0.0236
-3 10 17 0.9556 0.0142
-3 10 18 0.0930 0.1480
-3 10 19 0.7105 0.0204
-3 10 20 0.1327 0.1685
-3 10 21 0.5861 0.1022
-3 11 1 -1.9611 -0.0162
-3 11 2 1.0405 -0.0004
-3 11 3 -4.2451 -0.0175
-3 11 4 1.1850 -0.0100
-3 11 5 -1.4867 0.0046
-3 11 6 -0.4694 -0.0284
-3 11 7 -1.0464 0.0011
-3 11 8 0.6737 -0.0144
-3 11 9 -0.9598 0.0158
-3 11 10 -1.3701 -0.0028
-3 11 11 1.1134 0.0093
-3 11 12 -0.7596 0.0185
-3 11 13 -0.2685 -0.0237
-3 11 14 0.4240 -0.0269
-3 11 15 -0.8892 0.0087
-3 11 16 1.8403 -0.0170
-3 11 17 0.0093 -0.0653
-3 11 18 0.0588 0.0713
-3 11 19 0.6552 -0.0822
-3 11 20 0.2991 -0.0161
-3 11 21 1.5156 0.2764
-3 12 1 -2.8188 0.0219
-3 12 2 -7.5936 0.0031
-3 12 3 0.0330 -0.0090
-3 12 4 -2.0657 -0.0175
-3 12 5 -1.2546 -0.0110
-3 12 6 2.0050 0.0205
-3 12 7 0.6578 0.0160
-3 12 8 3.0985 0.0082
-3 12 9 1.0596 -0.0065
-3 12 10 -0.8801 -0.0299
-3 12 11 0.6855 0.0039
-3 12 12 -1.4115 0.0096
-3 12 13 0.1815 -0.0377
-3 12 14 -0.8015 -0.0309
-3 12 15 -0.3610 -0.0092
-3 12 16 0.1150 -0.0033
-3 12 17 -0.4267 0.0505
-3 12 18 0.2874 0.1386
-3 12 19 -0.6056 -0.0313
-3 12 20 0.2719 -0.0228
-3 13 1 -0.1839 -0.0213
-3 13 2 -1.1886 -0.0018
-3 13 3 -2.2273 -0.0014
-3 13 4 1.5852 -0.0203
-3 13 5 -1.3006 0.0066
-3 13 6 1.7711 0.0010
-3 13 7 -1.4372 0.0167
-3 13 8 -0.2463 0.0261
-3 13 9 -0.6750 0.0154
-3 13 10 -0.7482 -0.0291
-3 13 11 1.3254 0.0135
-3 13 12 0.0752 0.0067
-3 13 13 -0.2501 0.0340
-3 13 14 0.0412 0.0599
-3 13 15 -1.5962 0.0648
-3 13 16 1.2493 -0.0682
-3 13 17 -0.0316 -0.0468
-3 13 18 1.2633 -0.0277
-3 13 19 -0.0893 0.0031
-3 14 1 1.0537 -0.0055
-3 14 2 -3.1347 -0.0182
-3 14 3 -2.8076 -0.0108
-3 14 4 -2.9283 0.0200
-3 14 5 -1.4861 0.0183
-3 14 6 -1.3064 0.0057
-3 14 7 1.0768 0.0288
-3 14 8 2.2604 0.0051
-3 14 9 0.6995 0.0022
-3 14 10 0.6023 0.0066
-3 14 11 0.2134 0.0057
-3 14 12 -0.6498 0.0122
-3 14 13 1.1987 0.0160
-3 14 14 0.5443 0.0005
-3 14 15 -0.1255 0.0085
-3 14 16 1.0239 -0.0263
-3 14 17 0.1724 0.0802
-3 14 18 -0.6942 0.0649
-3 15 1 -0.0686 -0.0202
-3 15 2 0.5801 -0.0184
-3 15 3 -1.2451 -0.0003
-3 15 4 3.5744 0.0112
-3 15 5 0.1891 0.0059
-3 15 6 0.8350 -0.0090
-3 15 7 0.4942 0.0032
-3 15 8 -1.3699 -0.0672
-3 15 9 1.2784 -0.0132
-3 15 10 -2.2767 -0.0518
-3 15 11 1.5104 -0.0332
-3 15 12 0.1058 0.0131
-3 15 13 0.2776 0.0288
-3 15 14 -0.3325 0.0345
-3 15 15 -0.3825 0.0683
-3 15 16 -0.8595 -0.0251
-3 15 17 0.3517 -0.0431
-3 16 1 0.9668 0.0011
-3 16 2 4.0100 -0.0032
-3 16 3 0.2949 -0.0386
-3 16 4 0.1379 -0.0029
-3 16 5 -0.5538 0.0082
-3 16 6 -0.9587 0.0183
-3 16 7 -0.8161 0.0538
-3 16 8 0.4449 0.0520
-3 16 9 -1.0712 0.0666
-3 16 10 -0.3036 -0.0155
-3 16 11 0.0045 0.0186
-3 16 12 -0.3495 -0.0415
-3 16 13 -0.0541 0.0453
-3 16 14 0.6809 0.0586
-3 16 15 -0.7464 -0.0040
-3 17 1 0.5774 -0.0422
-3 17 2 -0.4347 -0.0205
-3 17 3 -1.1474 -0.0118
-3 17 4 -0.0940 -0.0236
-3 17 5 0.8571 0.0244
-3 17 6 -1.3313 -0.0122
-3 17 7 0.4926 -0.0161
-3 17 8 -2.3953 -0.0443
-3 17 9 0.8213 -0.0197
-3 17 10 -0.6165 -0.0004
-3 17 11 -0.6527 -0.0320
-3 17 12 1.0326 -0.0396
-3 17 13 0.3172 0.0206
-3 17 14 0.3934 0.0119
-3 18 1 -0.4298 0.0287
-3 18 2 1.1778 -0.0110
-3 18 3 0.7867 0.0468
-3 18 4 1.0805 -0.0197
-3 18 5 0.7464 0.0413
-3 18 6 0.7280 0.0390
-3 18 7 0.4639 0.0050
-3 18 8 1.3438 0.0173
-3 18 9 -0.1758 0.0427
-3 18 10 0.1900 -0.0560
-3 18 11 -0.1074 0.0521
-3 18 12 -0.4238 -0.0223
-3 19 1 1.1194 0.0136
-3 19 2 0.8263 0.0073
-3 19 3 0.2250 -0.0010
-3 19 4 -0.2918 -0.0670
-3 19 5 0.4991 -0.0533
-3 19 6 -0.6447 -0.0460
-3 19 7 1.2631 -0.0497
-3 19 8 -1.1462 0.0051
-3 19 9 0.4815 0.0072
-3 19 10 -0.2472 0.0174
-3 20 1 -0.6622 -0.0125
-3 20 2 -1.0367 0.0553
-3 20 3 -0.4920 0.0126
-3 20 4 -0.6569 0.0077
-3 20 5 1.3814 0.0300
-3 20 6 0.0007 -0.0641
-3 20 7 0.8441 -0.0012
-2 0 2 190.7398 -0.3743
-2 0 4 92.6012 0.3285
-2 0 6 -26.1610 -0.0455
-2 0 8 -40.1118 0.0054
-2 0 10 -6.9128 0.0004
-2 0 12 8.3956 -0.0348
-2 0 14 5.3461 0.0156
-2 0 16 1.9260 -0.0007
-2 0 18 -2.6106 0.0020
-2 0 20 -0.4133 0.0118
-2 0 22 1.8288 0.0465
-2 0 24 1.2258 -0.0646
-2 1 1 18.2533 0.5045
-2 1 2 3.2341 -0.0201
-2 1 3 -33.0113 0.0592
-2 1 4 -27.0496 0.0310
-2 1 5 -1.8954 -0.0945
-2 1 6 -12.8263 0.0327
-2 1 7 22.3577 0.0655
-2 1 8 2.7015 -0.0212
-2 1 9 14.4866 -0.0231
-2 1 10 9.9782 0.0257
-2 1 11 0.1602 0.0298
-2 1 12 4.1023 -0.0188
-2 1 13 -4.9295 0.0114
-2 1 14 -0.5756 0.0061
-2 1 15 -4.0208 -0.0011
-2 1 16 -2.1013 -0.0086
-2 1 17 0.2874 0.0173
-2 1 18 -0.0307 -0.0197
-2 1 19 0.4949 -0.0254
-2 1 20 1.5941 0.0264
-2 1 21 0.5412 0.0017
-2 1 22 1.7264 -0.1108
-2 1 23 -0.6847 -0.0128
-2 1 24 0.4165 -0.0413
-2 2 1 -21.5170 -0.1266
-2 2 2 79.5243 -0.1704
-2 2 3 39.4535 0.1202
-2 2 4 55.0131 -0.0082
-2 2 5 40.4316 -0.0249
-2 2 6 3.4238 -0.0674
-2 2 7 7.9202 -0.0841
-2 2 8 -17.0833 -0.0353
-2 2 9 -11.1779 0.0036
-2 2 10 -8.4076 -0.0053
-2 2 11 -9.4653 0.0096
-2 2 12 -1.3334 -0.0030
-2 2 13 2.2914 0.0211
-2 2 14 0.7036 -0.0180
-2 2 15 2.1053 0.0183
-2 2 16 0.8236 -0.0227
-2 2 17 1.7439 0.0211
-2 2 18 -0.2681 0.0283
-2 2 19 -0.2344 -0.0020
-2 2 20 0.3355 -0.0109
-2 2 21 -1.2671 0.0703
-2 2 22 0.2897 -0.0431
-2 2 23 0.1769 0.1097
-2 2 24 0.0554 0.0825
-2 3 1 46.9501 -0.0483
-2 3 2 11.1118 -0.1981
-2 3 3 14.4385 0.0410
-2 3 4 -0.7872 -0.0600
-2 3 5 -16.0537 0.0826
-2 3 6 -3.3896 0.0326
-2 3 7 -11.6055 0.0087
-2 3 8 -1.0874 -0.0140
-2 3 9 0.5517 0.0052
-2 3 10 4.4288 0.0238
-2 3 11 9.1994 0.0191
-2 3 12 2.5643 -0.0081
-2 3 13 4.5519 -0.0325
-2 3 14 0.1832 0.0200
-2 3 15 -0.6975 -0.0197
-2 3 16 -0.8660 -0.0178
-2 3 17 -3.3088 -0.0243
-2 3 18 0.0333 0.0065
-2 3 19 -1.7350 -0.0239
-2 3 20 1.4304 0.0231
-2 3 21 0.7971 0.0373
-2 3 22 2.2491 -0.0477
-2 3 23 0.9062 0.0129
-2 3 24 1.2353 0.1265
-2 4 1 -3.5218 0.0213
-2 4 2 -6.1174 0.0293
-2 4 3 3.3974 0.0633
-2 4 4 17.7029 -0.1071
-2 4 5 4.6119 -0.0567
-2 4 6 19.4504 -0.0037
-2 4 7 8.9950 0.0260
-2 4 8 -1.9395 -0.0165
-2 4 9 5.1423 -0.0209
-2 4 10 -11.0390 0.0015
-2 4 11 -0.6294 0.0017
-2 4 12 -8.7639 0.0224
-2 4 13 -0.2658 0.0235
-2 4 14 -0.6654 -0.0077
-2 4 15 -0.0139 -0.0241
-2 4 16 1.7011 0.0364
-2 4 17 0.1234 -0.0007
-2 4 18 2.7793 -0.0162
-2 4 19 -0.3172 0.0115
-2 4 20 1.4769 -0.0264
-2 4 21 0.3411 -0.0147
-2 4 22 -0.7417 0.0790
-2 4 23 1.1854 -0.0390
-2 4 24 -0.4955 0.1073
-2 5 1 4.7751 -0.0692
-2 5 2 9.3983 -0.0264
-2 5 3 1.3847 0.0314
-2 5 4 32.8233 -0.0099
-2 5 5 -10.1558 0.0473
-2 5 6 14.7023 -0.0524
-2 5 7 -9.3656 0.0151
-2 5 8 -8.6239 -0.0251
-2 5 9 3.3115 0.0384
-2 5 10 -11.4500 0.0309
-2 5 11 7.6215 -0.0154
-2 5 12 0.3809 0.0098
-2 5 13 2.6374 -0.0126
-2 5 14 4.6665 0.0274
-2 5 15 -1.3860 -0.0160
-2 5 16 3.2925 -0.0176
-2 5 17 -2.6322 -0.0303
-2 5 18 0.8310 -0.0164
-2 5 19 -1.3233 0.0169
-2 5 20 -1.2810 0.0065
-2 5 21 -0.3994 -0.0674
-2 5 22 -0.9577 0.0002
-2 5 23 0.1439 -0.1458
-2 6 1 3.3827 -0.0105
-2 6 2 12.7436 0.0271
-2 6 3 -8.2494 -0.0576
-2 6 4 17.6664 0.0100
-2 6 5 -6.6516 -0.0115
-2 6 6 9.1859 -0.0002
-2 6 7 8.2661 0.0061
-2 6 8 -5.1408 -0.0089
-2 6 9 12.0570 -0.0014
-2 6 10 -5.2562 0.0407
-2 6 11 3.3981 0.0278
-2 6 12 -0.9225 -0.0052
-2 6 13 -4.7470 0.0021
-2 6 14 1.0482 -0.0223
-2 6 15 -2.8502 -0.0352
-2 6 16 1.6781 0.0529
-2 6 17 -1.5864 0.0149
-2 6 18 0.8387 -0.0246
-2 6 19 0.3686 0.0421
-2 6 20 0.0559 0.0772
-2 6 21 1.7349 -0.0732
-2 6 22 -0.6848 0.0674
-2 6 23 1.2879 -0.0345
-2 7 1 -12.9684 0.0185
-2 7 2 0.8325 0.0131
-2 7 3 -12.2956 0.0014
-2 7 4 12.6258 -0.0013
-2 7 5 -5.4581 -0.0186
-2 7 6 10.4498 -0.0070
-2 7 7 5.0662 0.0006
-2 7 8 -6.8335 -0.0196
-2 7 9 7.0613 -0.0053
-2 7 10 -9.6214 -0.0245
-2 7 11 -0.0190 -0.0056
-2 7 12 -1.4310 -0.0193
-2 7 13 -3.6110 0.0110
-2 7 14 3.8493 0.0089
-2 7 15 -2.4512 0.0074
-2 7 16 3.2205 0.0376
-2 7 17 -0.5548 0.0053
-2 7 18 0.5810 -0.0550
-2 7 19 0.7763 0.0688
-2 7 20 -1.4787 -0.0259
-2 7 21 -0.1831 -0.0898
-2 7 22 -0.7406 0.1743
-2 7 23 -0.1871 -0.2503
-2 8 1 -3.3239 -0.0163
-2 8 2 7.6656 0.0092
-2 8 3 2.4690 0.0116
-2 8 4 4.1591 0.0080
-2 8 5 6.1044 0.0074
-2 8 6 -1.3410 0.0088
-2 8 7 6.2879 -0.0215
-2 8 8 -4.3959 -0.0099
-2 8 9 4.9761 0.0156
-2 8 10 -1.6431 0.0304
-2 8 11 2.1269 0.0105
-2 8 12 2.6539 -0.0187
-2 8 13 -1.4176 0.0217
-2 8 14 2.9165 0.0004
-2 8 15 -2.3286 -0.0190
-2 8 16 1.5471 0.0213
-2 8 17 -0.9059 0.0062
-2 8 18 -1.1449 -0.1013
-2 8 19 0.9182 0.0706
-2 8 20 -0.2929 -0.0086
-2 8 21 0.9369 -0.0067
-2 8 22 0.0525 -0.0421
-2 9 1 -7.6857 0.0081
-2 9 2 1.2688 -0.0162
-2 9 3 -7.1214 -0.0081
-2 9 4 1.1906 -0.0177
-2 9 5 -2.6110 0.0172
-2 9 6 1.2924 0.0105
-2 9 7 5.1150 -0.0018
-2 9 8 -0.1463 -0.0158
-2 9 9 3.5420 -0.0092
-2 9 10 -1.1367 0.0144
-2 9 11 1.6282 0.0106
-2 9 12 0.6898 0.0397
-2 9 13 -2.4269 -0.0187
-2 9 14 1.9988 -0.0164
-2 9 15 -1.3709 -0.0141
-2 9 16 1.6322 0.0207
-2 9 17 0.2730 0.0012
-2 9 18 -0.4346 -0.0896
-2 9 19 1.2650 0.0986
-2 9 20 -0.4456 0.0381
-2 9 21 0.3124 0.0554
-2 9 22 -0.0111 0.3458
-2 10 1 -5.2836 0.0381
-2 10 2 -1.0798 0.0076
-2 10 3 5.9985 0.0309
-2 10 4 -0.2942 -0.0413
-2 10 5 3.2981 0.0072
-2 10 6 3.6585 0.0150
-2 10 7 -0.1711 -0.0055
-2 10 8 2.2482 -0.0164
-2 10 9 0.6896 -0.0287
-2 10 10 -2.5172 -0.0306
-2 10 11 1.5579 -0.0192
-2 10 12 -1.4532 -0.0332
-2 10 13 -0.3077 -0.0078
-2 10 14 0.7486 -0.0139
-2 10 15 -0.2696 -0.0041
-2 10 16 0.0797 0.0418
-2 10 17 1.4110 0.0401
-2 10 18 -0.7165 0.0600
-2 10 19 0.6015 0.0359
-2 10 20 -0.2199 0.0249
-2 10 21 0.5315 0.0199
-2 11 1 -4.4660 -0.0264
-2 11 2 -0.1169 -0.0025
-2 11 3 -3.7374 -0.0043
-2 11 4 0.7353 -0.0285
-2 11 5 -0.5449 0.0008
-2 11 6 -0.9559 -0.0243
-2 11 7 -1.1494 0.0135
-2 11 8 -0.0418 0.0058
-2 11 9 0.1786 0.0394
-2 11 10 -0.9132 0.0058
-2 11 11 1.1135 -0.0044
-2 11 12 0.6831 0.0049
-2 11 13 -1.0417 -0.0009
-2 11 14 1.1910 -0.0592
-2 11 15 -0.9535 -0.0116
-2 11 16 1.6747 0.0144
-2 11 17 0.4158 -0.0683
-2 11 18 -0.1005 0.0768
-2 11 19 1.1298 0.1395
-2 11 20 0.1506 -0.0363
-2 12 1 -2.2651 0.0309
-2 12 2 -5.3522 -0.0077
-2 12 3 0.0533 -0.0127
-2 12 4 0.2205 -0.0156
-2 12 5 -0.4210 -0.0063
-2 12 6 3.5798 0.0186
-2 12 7 1.5463 -0.0025
-2 12 8 1.9894 -0.0148
-2 12 9 0.7268 -0.0162
-2 12 10 -2.6085 -0.0272
-2 12 11 -0.3198 -0.0113
-2 12 12 -0.9220 -0.0097
-2 12 13 -0.8747 -0.0321
-2 12 14 -0.2744 -0.0439
-2 12 15 -0.6603 0.0253
-2 12 16 -0.1039 0.0423
-2 12 17 -0.2845 0.0112
-2 12 18 0.4203 0.0431
-2 12 19 -0.7107 -0.0531
-2 12 20 0.3599 -0.2218
-2 13 1 -1.8129 -0.0013
-2 13 2 -0.4526 -0.0175
-2 13 3 -2.5450 0.0180
-2 13 4 1.6792 -0.0341
-2 13 5 -1.4751 0.0108
-2 13 6 0.4327 0.0190
-2 13 7 -1.8119 0.0177
-2 13 8 -0.6677 0.0286
-2 13 9 0.4960 0.0201
-2 13 10 -0.6084 -0.0311
-2 13 11 1.6250 0.0089
-2 13 12 -0.1193 0.0317
-2 13 13 -0.5696 0.0568
-2 13 14 0.7142 0.0033
-2 13 15 -1.2403 0.0266
-2 13 16 1.8932 -0.0843
-2 13 17 0.6361 -0.0916
-2 13 18 1.1919 0.0468
-2 13 19 0.0122 0.1798
-2 14 1 -0.7362 -0.0037
-2 14 2 -2.1731 -0.0059
-2 14 3 -3.7507 0.0022
-2 14 4 -1.7332 0.0310
-2 14 5 0.1817 0.0189
-2 14 6 0.1004 -0.0086
-2 14 7 2.0443 0.0130
-2 14 8 1.6194 -0.0000
-2 14 9 0.9845 -0.0126
-2 14 10 -0.3106 -0.0028
-2 14 11 -0.1582 -0.0273
-2 14 12 0.0781 0.0071
-2 14 13 0.2926 0.0114
-2 14 14 0.7878 -0.0197
-2 14 15 -0.5446 0.0684
-2 14 16 0.1781 -0.0004
-2 14 17 0.0052 0.0590
-2 14 18 -0.9520 0.0914
-2 15 1 -0.6594 -0.0263
-2 15 2 1.3007 -0.0209
-2 15 3 -1.0108 -0.0003
-2 15 4 3.4029 -0.0032
-2 15 5 0.0618 0.0055
-2 15 6 -0.1918 -0.0390
-2 15 7 0.2418 0.0091
-2 15 8 -1.6318 -0.0496
-2 15 9 1.6580 0.0192
-2 15 10 -1.9991 0.0048
-2 15 11 1.4143 -0.0122
-2 15 12 0.1157 0.0420
-2 15 13 -0.2617 0.0228
-2 15 14 -0.4555 0.0105
-2 15 15 -0.2735 0.0495
-2 15 16 -0.8845 -0.0614
-2 15 17 0.4597 -0.1116
-2 16 1 0.1293 -0.0052
-2 16 2 3.7821 0.0111
-2 16 3 -0.6135 -0.0206
-2 16 4 -1.1214 0.0202
-2 16 5 0.3743 0.0503
-2 16 6 -0.7130 0.0174
-2 16 7 -0.4295 0.0628
-2 16 8 0.2842 0.0136
-2 16 9 -0.9664 0.0033
-2 16 10 0.2363 -0.0487
-2 16 11 -0.0909 -0.0109
-2 16 12 0.1725 -0.0216
-2 16 13 -0.2150 0.0396
-2 16 14 0.2684 0.0720
-2 16 15 -0.7020 -0.0167
-2 17 1 0.3742 -0.0429
-2 17 2 -0.5345 -0.0378
-2 17 3 -0.9441 -0.0057
-2 17 4 -0.3019 -0.0025
-2 17 5 1.3659 -0.0102
-2 17 6 -1.5056 -0.0076
-2 17 7 0.5728 -0.0062
-2 17 8 -1.5622 -0.0189
-2 17 9 0.7245 0.0130
-2 17 10 0.2278 0.0429
-2 17 11 -0.5928 -0.0351
-2 17 12 1.2918 -0.0027
-2 17 13 0.3881 0.0112
-2 17 14 -0.1131 0.0399
-2 18 1 0.4158 0.0666
-2 18 2 1.7453 -0.0281
-2 18 3 1.3855 0.0603
-2 18 4 0.6338 0.0070
-2 18 5 1.1297 -0.0025
-2 18 6 0.9946 0.0294
-2 18 7 0.2819 -0.0074
-2 18 8 1.3431 -0.0468
-2 18 9 -0.5349 0.0685
-2 18 10 -0.1413 -0.0654
-2 18 11 -0.0993 0.0815
-2 18 12 -0.4040 -0.0096
-2 19 1 1.8991 0.0103
-2 19 2 0.6710 -0.0444
-2 19 3 0.3079 -0.0096
-2 19 4 -1.0711 -0.0441
-2 19 5 0.6568 -0.0475
-2 19 6 -0.7625 0.0016
-2 19 7 1.2468 0.0010
-2 19 8 -0.6040 -0.0018
-2 19 9 0.6081 0.0275
-2 19 10 0.2381 -0.0092
-2 20 1 -0.2521 0.0069
-2 20 2 -1.3614 0.0244
-2 20 3 0.9151 0.0315
-2 20 4 -0.4157 -0.0392
-2 20 5 1.7730 0.0071
-2 20 6 0.3244 -0.0872
-2 20 7 0.0939 -0.0161
-1 0 2 183.4605 0.4075
-1 0 4 23.7393 0.3957
-1 0 6 -58.3798 -0.1339
-1 0 8 -30.7730 0.0699
-1 0 10 6.2499 -0.0231
-1 0 12 12.9895 -0.0135
-1 0 14 4.7581 0.0177
-1 0 16 -1.3639 -0.0030
-1 0 18 -2.7938 -0.0050
-1 0 20 1.0620 0.0217
-1 0 22 1.6894 0.0091
-1 0 24 0.3455 -0.1546
-1 1 2 -18.5677 -0.0442
-1 1 3 -12.7991 -0.2569
-1 1 4 -32.3295 0.1062
-1 1 5 35.4927 -0.0266
-1 1 6 -5.0495 -0.0053
-1 1 7 30.6453 0.0231
-1 1 8 9.7555 -0.0505
-1 1 9 6.8130 -0.0294
-1 1 10 9.8003 0.0222
-1 1 11 -6.1240 0.0374
-1 1 12 0.6346 -0.0200
-1 1 13 -6.9276 -0.0007
-1 1 14 -1.9920 0.0054
-1 1 15 -2.5575 0.0176
-1 1 16 -2.0832 -0.0163
-1 1 17 1.1505 -0.0056
-1 1 18 0.7111 0.0276
-1 1 19 0.4386 -0.0098
-1 1 20 1.8960 -0.0021
-1 1 21 0.0377 0.0159
-1 1 22 1.0809 -0.0924
-1 1 23 -0.8407 -0.0193
-1 1 24 -0.1248 0.1244
-1 2 1 13.6593 0.0314
-1 2 2 86.5542 0.0414
-1 2 3 57.3146 -0.0021
-1 2 4 24.9755 0.0069
-1 2 5 33.7950 -0.0609
-1 2 6 -19.7139 -0.0320
-1 2 7 -2.7284 -0.0184
-1 2 8 -17.8386 0.0022
-1 2 9 -16.3630 0.0217
-1 2 10 -2.7902 -0.0162
-1 2 11 -6.5733 0.0385
-1 2 12 1.8916 0.0009
-1 2 13 4.9006 -0.0054
-1 2 14 1.8673 -0.0248
-1 2 15 2.6357 0.0122
-1 2 16 0.1002 0.0016
-1 2 17 0.9686 -0.0044
-1 2 18 -0.7310 0.0300
-1 2 19 -1.4755 -0.0130
-1 2 20 0.0391 -0.0213
-1 2 21 -0.8894 0.0785
-1 2 22 0.0167 0.0172
-1 2 23 0.8667 0.0503
-1 2 24 -0.0868 0.1551
-1 3 1 34.5157 0.0280
-1 3 2 7.2316 -0.1955
-1 3 3 5.6031 0.0770
-1 3 4 -6.0669 0.0847
-1 3 5 -10.8701 -0.0029
-1 3 6 -3.7582 -0.0049
-1 3 7 -1.8042 -0.0194
-1 3 8 4.1583 -0.0011
-1 3 9 6.1115 0.0052
-1 3 10 6.8787 0.0250
-1 3 11 7.8106 0.0068
-1 3 12 1.0144 -0.0017
-1 3 13 0.0964 -0.0197
-1 3 14 -0.9027 0.0295
-1 3 15 -3.0450 -0.0052
-1 3 16 -1.3466 -0.0041
-1 3 17 -3.5908 -0.0102
-1 3 18 0.6752 0.0438
-1 3 19 -0.5007 -0.0016
-1 3 20 2.2120 -0.0044
-1 3 21 1.2833 -0.0026
-1 3 22 2.0410 0.0376
-1 3 23 0.7180 -0.0154
-1 3 24 0.9455 0.2155
-1 4 1 2.4772 0.1262
-1 4 2 3.8047 -0.1053
-1 4 3 8.8329 -0.0074
-1 4 4 20.2671 -0.0875
-1 4 5 11.0567 -0.0548
-1 4 6 8.0046 0.0571
-1 4 7 9.4467 0.0283
-1 4 8 -10.6375 -0.0237
-1 4 9 0.4489 -0.0324
-1 4 10 -11.4727 0.0232
-1 4 11 -2.2640 0.0230
-1 4 12 -5.4316 0.0115
-1 4 13 0.0947 -0.0053
-1 4 14 2.4182 -0.0004
-1 4 15 0.3402 -0.0122
-1 4 16 2.4613 0.0209
-1 4 17 0.3505 -0.0143
-1 4 18 2.1511 -0.0367
-1 4 19 0.1447 -0.0161
-1 4 20 0.1891 0.0198
-1 4 21 0.8446 -0.0490
-1 4 22 -1.5211 0.1266
-1 4 23 0.7568 -0.0620
-1 5 1 -0.3808 -0.0178
-1 5 2 27.4753 -0.0109
-1 5 3 -3.3324 0.0723
-1 5 4 31.1252 -0.0355
-1 5 5 -7.4074 -0.0009
-1 5 6 2.0935 -0.0636
-1 5 7 -0.0309 0.0256
-1 5 8 -12.5304 0.0138
-1 5 9 8.3628 0.0146
-1 5 10 -5.3585 0.0165
-1 5 11 5.8863 -0.0116
-1 5 12 5.1929 0.0144
-1 5 13 -0.4935 -0.0049
-1 5 14 4.7609 0.0174
-1 5 15 -2.7861 -0.0299
-1 5 16 1.9605 -0.0286
-1 5 17 -2.4015 0.0023
-1 5 18 -0.5953 0.0319
-1 5 19 -0.1229 -0.0033
-1 5 20 -1.7963 0.0265
-1 5 21 0.3682 -0.1194
-1 5 22 -0.5085 0.0019
-1 5 23 0.0600 -0.0996
-1 6 1 -2.0745 -0.0518
-1 6 2 15.7588 0.0020
-1 6 3 -9.9801 -0.0055
-1 6 4 14.7635 0.0181
-1 6 5 0.5549 0.0314
-1 6 6 -1.2969 -0.0159
-1 6 7 14.1594 0.0016
-1 6 8 -9.7729 -0.0022
-1 6 9 8.4543 0.0106
-1 6 10 -2.0983 0.0330
-1 6 11 -3.1142 0.0214
-1 6 12 1.6695 -0.0391
-1 6 13 -7.1265 -0.0143
-1 6 14 1.9361 0.0215
-1 6 15 -2.0398 -0.0053
-1 6 16 1.1439 0.0495
-1 6 17 -0.4968 0.0245
-1 6 18 0.2082 0.0050
-1 6 19 1.4704 -0.0203
-1 6 20 -0.1835 0.1215
-1 6 21 1.9505 -0.1180
-1 6 22 -0.7803 0.0187
-1 6 23 0.5673 0.0358
-1 7 1 -17.4167 0.0087
-1 7 2 8.6437 0.0001
-1 7 3 -9.5339 -0.0088
-1 7 4 12.4623 -0.0369
-1 7 5 2.7334 -0.0013
-1 7 6 2.4337 -0.0150
-1 7 7 10.8889 0.0079
-1 7 8 -10.8558 -0.0382
-1 7 9 4.7991 -0.0102
-1 7 10 -4.6221 -0.0235
-1 7 11 -4.3125 0.0233
-1 7 12 3.7121 -0.0075
-1 7 13 -4.2678 0.0115
-1 7 14 4.8608 0.0175
-1 7 15 -1.2023 0.0063
-1 7 16 1.5746 -0.0027
-1 7 17 0.2346 0.0053
-1 7 18 -1.5752 -0.0550
-1 7 19 0.4576 -0.0158
-1 7 20 -1.6872 0.0805
-1 7 21 -0.3851 -0.1612
-1 7 22 -0.1267 0.1903
-1 8 1 0.9030 0.0036
-1 8 2 8.2220 0.0191
-1 8 3 5.5482 0.0285
-1 8 4 1.0031 0.0127
-1 8 5 7.2933 0.0168
-1 8 6 -6.3218 0.0076
-1 8 7 7.3025 0.0192
-1 8 8 -4.5867 -0.0086
-1 8 9 3.0561 0.0309
-1 8 10 2.5453 0.0115
-1 8 11 -1.1344 0.0092
-1 8 12 5.3782 -0.0183
-1 8 13 -3.5160 0.0218
-1 8 14 2.1811 0.0272
-1 8 15 -1.7799 -0.0077
-1 8 16 -0.0418 -0.0295
-1 8 17 0.5933 0.0443
-1 8 18 -1.5670 -0.0726
-1 8 19 1.1090 -0.0249
-1 8 20 0.1638 0.0737
-1 8 21 0.2233 -0.0978
-1 8 22 0.1854 -0.0835
-1 9 1 -10.4107 0.0138
-1 9 2 -0.0568 -0.0297
-1 9 3 -4.2834 -0.0014
-1 9 4 1.0298 -0.0050
-1 9 5 0.9403 0.0126
-1 9 6 0.6383 0.0005
-1 9 7 6.7682 -0.0062
-1 9 8 -0.3583 -0.0145
-1 9 9 2.7618 0.0051
-1 9 10 1.3156 0.0185
-1 9 11 -1.0274 0.0183
-1 9 12 2.8131 0.0056
-1 9 13 -3.2810 -0.0267
-1 9 14 2.0941 -0.0062
-1 9 15 0.0921 0.0037
-1 9 16 0.3844 -0.0092
-1 9 17 1.3177 0.0536
-1 9 18 -1.3481 -0.0614
-1 9 19 0.8019 0.0538
-1 9 20 -0.3822 0.2169
-1 9 21 -0.2163 -0.0999
-1 10 1 -1.0741 0.0317
-1 10 2 -0.0397 -0.0298
-1 10 3 7.4508 0.0053
-1 10 4 0.7703 -0.0310
-1 10 5 2.6141 0.0008
-1 10 6 3.3219 0.0139
-1 10 7 -0.2389 -0.0043
-1 10 8 0.1289 -0.0379
-1 10 9 -0.3070 -0.0377
-1 10 10 -2.2217 -0.0193
-1 10 11 -0.4480 -0.0006
-1 10 12 0.7272 -0.0342
-1 10 13 -1.2153 0.0060
-1 10 14 0.5582 0.0061
-1 10 15 0.3765 -0.0042
-1 10 16 -1.0554 -0.0062
-1 10 17 2.0271 0.0633
-1 10 18 -1.1368 -0.0266
-1 10 19 0.3518 -0.0354
-1 10 20 0.0020 0.0493
-1 10 21 0.4824 -0.0460
-1 11 1 -5.8171 -0.0074
-1 11 2 -0.7495 0.0086
-1 11 3 -1.7838 0.0019
-1 11 4 0.6869 -0.0338
-1 11 5 -0.1027 -0.0044
-1 11 6 -1.3688 0.0035
-1 11 7 -0.4369 0.0347
-1 11 8 0.2082 0.0264
-1 11 9 1.1957 0.0358
-1 11 10 0.4864 -0.0076
-1 11 11 -0.0447 -0.0164
-1 11 12 1.7667 -0.0209
-1 11 13 -1.5573 0.0049
-1 11 14 0.8745 -0.0421
-1 11 15 -0.5443 -0.0384
-1 11 16 0.8870 0.0476
-1 11 17 0.8053 0.0358
-1 11 18 -0.3295 0.0610
-1 11 19 1.0510 0.2519
-1 11 20 0.0196 -0.0112
-1 12 1 -1.5763 0.0121
-1 12 2 -3.3856 -0.0130
-1 12 3 0.4675 -0.0218
-1 12 4 2.3545 -0.0089
-1 12 5 0.5833 -0.0207
-1 12 6 4.2279 -0.0010
-1 12 7 1.4446 -0.0180
-1 12 8 -0.0854 -0.0207
-1 12 9 -0.1801 -0.0159
-1 12 10 -3.2412 -0.0116
-1 12 11 -1.1742 -0.0138
-1 12 12 0.2181 -0.0349
-1 12 13 -1.2617 -0.0151
-1 12 14 0.0150 -0.0075
-1 12 15 -0.3726 0.0064
-1 12 16 -0.2935 0.0302
-1 12 17 0.0308 -0.0393
-1 12 18 0.7438 -0.1363
-1 12 19 -0.5021 -0.0514
-1 13 1 -3.1033 0.0172
-1 13 2 -0.1417 -0.0249
-1 13 3 -2.1119 0.0277
-1 13 4 0.8748 -0.0179
-1 13 5 -1.5532 0.0054
-1 13 6 -0.4334 0.0482
-1 13 7 -1.1873 0.0142
-1 13 8 -0.4486 0.0147
-1 13 9 1.6043 0.0161
-1 13 10 -0.3734 -0.0229
-1 13 11 1.2015 0.0002
-1 13 12 -0.0246 0.0211
-1 13 13 -0.5880 0.0581
-1 13 14 1.4049 -0.0353
-1 13 15 -0.5192 -0.0409
-1 13 16 2.0299 -0.0137
-1 13 17 1.0194 -0.0300
-1 13 18 0.5737 0.0761
-1 13 19 -0.0247 0.3634
-1 14 1 -2.2901 -0.0105
-1 14 2 -1.3614 0.0130
-1 14 3 -3.1230 0.0027
-1 14 4 -0.5983 0.0213
-1 14 5 2.0260 -0.0095
-1 14 6 0.5805 -0.0247
-1 14 7 2.0707 -0.0129
-1 14 8 0.4273 -0.0010
-1 14 9 0.7479 -0.0264
-1 14 10 -0.4631 0.0017
-1 14 11 -1.1048 -0.0355
-1 14 12 0.9273 0.0079
-1 14 13 -0.6675 0.0449
-1 14 14 0.5090 -0.0213
-1 14 15 -0.5519 0.0687
-1 14 16 -0.5996 0.0407
-1 14 17 0.1592 -0.0302
-1 14 18 -0.8487 0.0383
-1 15 1 -1.0178 -0.0277
-1 15 2 1.4156 -0.0151
-1 15 3 -0.6711 0.0159
-1 15 4 2.0943 -0.0023
-1 15 5 0.1765 0.0138
-1 15 6 -0.9309 -0.0249
-1 15 7 0.4924 0.0194
-1 15 8 -1.3832 0.0082
-1 15 9 1.6479 0.0356
-1 15 10 -1.3884 0.0409
-1 15 11 0.9366 -0.0312
-1 15 12 0.2850 0.0139
-1 15 13 -0.5632 0.0198
-1 15 14 -0.6359 -0.0292
-1 15 15 -0.0414 0.0097
-1 15 16 -1.1014 -0.0348
-1 16 1 -1.1726 -0.0190
-1 16 2 2.6714 0.0214
-1 16 3 -0.7804 0.0038
-1 16 4 -1.8017 0.0147
-1 16 5 1.2454 0.0579
-1 16 6 -0.0648 -0.0189
-1 16 7 -0.3486 -0.0038
-1 16 8 0.4762 -0.0165
-1 16 9 -0.6602 -0.0642
-1 16 10 1.0764 -0.0278
-1 16 11 -0.2766 -0.0041
-1 16 12 0.3937 0.0101
-1 16 13 -0.3621 0.0405
-1 16 14 -0.1224 0.0378
-1 16 15 -0.6265 -0.0186
-1 17 1 0.5936 -0.0402
-1 17 2 -0.6996 -0.0189
-1 17 3 -0.4690 -0.0019
-1 17 4 -0.7413 0.0435
-1 17 5 1.4166 -0.0094
-1 17 6 -1.0424 0.0087
-1 17 7 0.1449 0.0284
-1 17 8 -0.4747 0.0288
-1 17 9 0.5054 0.0105
-1 17 10 0.7522 0.0787
-1 17 11 -0.4867 -0.0480
-1 17 12 1.0734 0.0357
-1 17 13 0.3464 0.0173
-1 17 14 -0.5788 0.0354
-1 18 1 1.3736 0.0671
-1 18 2 1.6445 -0.0260
-1 18 3 1.9049 0.0082
-1 18 4 0.2357 0.0180
-1 18 5 0.9295 -0.0416
-1 18 6 1.1795 -0.0308
-1 18 7 -0.2682 0.0112
-1 18 8 1.0549 -0.0793
-1 18 9 -0.6571 0.0780
-1 18 10 -0.2819 -0.0315
-1 18 11 0.2458 0.0538
-1 18 12 -0.1846 -0.0089
-1 19 1 2.4041 0.0173
-1 19 2 0.1159 -0.0367
-1 19 3 0.1057 -0.0082
-1 19 4 -1.4138 0.0304
-1 19 5 0.9614 -0.0061
-1 19 6 -0.0726 -0.0018
-1 19 7 1.3970 0.0641
-1 19 8 0.1231 -0.0472
-1 19 9 0.9422 0.0163
-1 19 10 0.8783 0.0247
-1 20 1 0.8235 0.0182
-1 20 2 -1.1651 -0.0140
-1 20 3 1.9216 0.0091
-1 20 4 -0.0241 -0.0683
-1 20 5 1.0839 -0.0348
-1 20 6 0.2416 -0.0695
-1 20 7 -0.8207 0.0073
0 0 2 114.1665 0.8998
0 0 4 -48.3181 0.1158
0 0 6 -63.2869 -0.1035
0 0 8 -9.5699 0.1029
0 0 10 17.5153 -0.0387
0 0 12 12.9488 0.0137
0 0 14 0.3948 0.0048
0 0 16 -4.4478 -0.0058
0 0 18 -1.9186 -0.0143
0 0 20 1.6140 0.0222
0 0 22 0.6108 -0.0659
0 0 24 -0.4089 -0.1959
0 1 2 -30.3964 0.0362
0 1 3 34.0268 -0.2531
0 1 4 -25.5717 0.0784
0 1 5 57.6890 0.0530
0 1 6 6.5458 -0.0684
0 1 7 20.9241 -0.0548
0 1 8 14.2341 -0.0362
0 1 9 -4.1234 -0.0053
0 1 10 7.1028 0.0299
0 1 11 -10.6492 0.0170
0 1 12 -2.6003 -0.0028
0 1 13 -5.6794 -0.0056
0 1 14 -2.7476 0.0063
0 1 15 0.3314 0.0192
0 1 16 -1.3085 0.0071
0 1 17 1.5956 -0.0100
0 1 18 1.8411 0.0464
0 1 19 0.2465 0.0160
0 1 20 1.6712 -0.0492
0 1 21 -0.3512 0.0217
0 1 22 0.2157 0.0134
0 1 23 -0.7987 -0.0286
0 1 24 -0.3316 0.2836
0 2 0 101.5610 0.0386
0 2 1 50.5293 -0.0005
0 2 2 56.6809 0.2081
0 2 3 65.1402 -0.1198
0 2 4 -10.3613 -0.0151
0 2 5 19.1945 0.0474
0 2 6 -26.8649 0.0318
0 2 7 -15.1054 0.0030
0 2 8 -8.6264 0.0076
0 2 9 -17.2155 0.0253
0 2 10 3.9431 -0.0120
0 2 11 -0.7692 0.0291
0 2 12 4.0421 0.0050
0 2 13 6.8850 -0.0386
0 2 14 1.1097 -0.0152
0 2 15 2.1708 0.0084
0 2 16 -1.5929 0.0274
0 2 17 -0.6149 -0.0313
0 2 18 -1.2337 0.0094
0 2 19 -2.1541 -0.0025
0 2 20 -0.1115 -0.0157
0 2 21 0.1100 0.0427
0 2 22 -0.1100 0.0705
0 2 23 1.3335 0.0005
0 2 24 -0.1571 0.1809
0 3 1 27.6696 0.1065
0 3 2 -0.5450 0.0233
0 3 3 8.2048 -0.0187
0 3 4 -10.6035 0.1024
0 3 5 -1.2861 -0.0949
0 3 6 2.0313 -0.0536
0 3 7 3.6735 -0.0033
0 3 8 10.7451 0.0362
0 3 9 6.4309 -0.0052
0 3 10 5.9147 0.0153
0 3 11 4.2727 0.0051
0 3 12 -2.0132 0.0230
0 3 13 -2.8171 0.0014
0 3 14 -1.8131 0.0158
0 3 15 -3.3479 0.0089
0 3 16 -1.0573 0.0223
0 3 17 -2.4238 0.0090
0 3 18 1.6470 0.0438
0 3 19 1.1201 -0.0032
0 3 20 2.4335 -0.0265
0 3 21 1.3284 -0.0310
0 3 22 1.5527 0.1244
0 3 23 0.4221 0.0101
0 4 0 -12.5682 -0.0260
0 4 1 6.8942 0.0944
0 4 2 7.8668 -0.1264
0 4 3 13.6502 -0.0795
0 4 4 13.3629 0.0415
0 4 5 13.3070 -0.0104
0 4 6 -3.9784 0.0579
0 4 7 4.0767 0.0019
0 4 8 -13.0063 -0.0249
0 4 9 -4.2176 -0.0206
0 4 10 -7.8962 0.0280
0 4 11 -1.7744 0.0178
0 4 12 -1.5538 -0.0053
0 4 13 1.0736 -0.0243
0 4 14 3.6391 0.0012
0 4 15 0.6831 0.0003
0 4 16 1.5011 -0.0228
0 4 17 0.1818 -0.0307
0 4 18 0.8225 -0.0264
0 4 19 0.3167 -0.0160
0 4 20 -1.1986 0.0595
0 4 21 0.7481 -0.0639
0 4 22 -2.0306 0.0983
0 4 23 0.2014 -0.0074
0 5 1 -1.5701 0.0728
0 5 2 37.3629 0.0069
0 5 3 -2.2799 -0.0018
0 5 4 20.6469 -0.0444
0 5 5 -0.3681 -0.0247
0 5 6 -7.3144 -0.0216
0 5 7 6.1374 0.0341
0 5 8 -9.8001 0.0338
0 5 9 7.8414 -0.0141
0 5 10 1.3484 -0.0051
0 5 11 2.0177 0.0081
0 5 12 7.2018 0.0197
0 5 13 -3.0306 -0.0099
0 5 14 3.1212 -0.0022
0 5 15 -2.8973 -0.0100
0 5 16 0.1481 -0.0040
0 5 17 -1.1850 0.0368
0 5 18 -1.6963 0.0577
0 5 19 1.0750 -0.0237
0 5 20 -1.4814 0.0021
0 5 21 0.5358 -0.1055
0 5 22 0.3460 -0.0342
0 5 23 -0.0977 0.0089
0 6 0 14.7680 -0.0247
0 6 1 -6.0520 -0.0255
0 6 2 14.7134 -0.0025
0 6 3 -5.9576 0.0578
0 6 4 5.3611 0.0244
0 6 5 9.0807 0.0162
0 6 6 -10.0733 -0.0356
0 6 7 14.1148 -0.0103
0 6 8 -7.3266 0.0164
0 6 9 0.9897 0.0119
0 6 10 3.0079 -0.0031
0 6 11 -7.6407 -0.0012
0 6 12 2.8279 -0.0310
0 6 13 -6.5936 -0.0057
0 6 14 1.5479 0.0552
0 6 15 -0.1759 0.0170
0 6 16 0.1920 0.0237
0 6 17 0.6132 -0.0025
0 6 18 -0.3541 0.0316
0 6 19 2.1002 -0.0552
0 6 20 -0.4151 0.0846
0 6 21 1.2707 -0.0663
0 6 22 -0.6579 -0.0533
0 6 23 -0.2958 0.1450
0 7 1 -16.3479 -0.0054
0 7 2 13.4522 -0.0417
0 7 3 -1.2688 -0.0031
0 7 4 7.8273 -0.0292
0 7 5 11.4639 0.0196
0 7 6 -4.3414 -0.0012
0 7 7 10.7584 0.0014
0 7 8 -8.4702 -0.0313
0 7 9 -1.7505 0.0034
0 7 10 2.6032 -0.0019
0 7 11 -6.9025 0.0308
0 7 12 6.5904 -0.0050
0 7 13 -2.3463 -0.0036
0 7 14 3.5075 0.0081
0 7 15 0.3703 0.0091
0 7 16 -0.7337 -0.0260
0 7 17 0.3872 -0.0326
0 7 18 -2.5029 -0.0103
0 7 19 0.0956 -0.0610
0 7 20 -0.8772 0.1163
0 7 21 -0.4189 -0.1304
0 7 22 0.5214 0.1037
0 8 0 5.7960 0.0184
0 8 1 5.7931 0.0241
0 8 2 5.3947 0.0211
0 8 3 7.4571 0.0250
0 8 4 -4.8829 0.0092
0 8 5 8.0570 0.0229
0 8 6 -9.3286 0.0064
0 8 7 5.5232 0.0395
0 8 8 -0.4736 -0.0139
0 8 9 -1.5682 0.0139
0 8 10 7.0476 0.0002
0 8 11 -3.7735 0.0044
0 8 12 5.2096 0.0103
0 8 13 -3.1879 0.0234
0 8 14 -0.2966 0.0252
0 8 15 0.4258 0.0114
0 8 16 -1.2513 -0.0456
0 8 17 1.4838 0.0152
0 8 18 -1.2412 0.0171
0 8 19 0.2518 -0.1073
0 8 20 0.5090 0.0676
0 8 21 -0.4190 -0.0209
0 8 22 0.1301 -0.1876
0 9 1 -9.7772 0.0086
0 9 2 -0.0699 -0.0125
0 9 3 0.0627 -0.0062
0 9 4 1.7991 0.0070
0 9 5 3.8515 -0.0004
0 9 6 0.4791 -0.0063
0 9 7 6.6269 -0.0027
0 9 8 1.4610 0.0067
0 9 9 -0.3165 0.0125
0 9 10 3.8288 0.0085
0 9 11 -3.3033 0.0054
0 9 12 2.9647 -0.0097
0 9 13 -2.0584 -0.0236
0 9 14 0.4238 0.0039
0 9 15 1.9579 0.0301
0 9 16 -1.2388 -0.0270
0 9 17 1.4207 0.0206
0 9 18 -1.4300 0.0456
0 9 19 -0.2447 -0.0625
0 9 20 -0.0087 0.2690
0 9 21 -0.4501 -0.1413
0 10 0 -3.9668 0.0061
0 10 1 3.3005 -0.0016
0 10 2 -0.0108 -0.0381
0 10 3 7.3954 -0.0180
0 10 4 1.7324 -0.0037
0 10 5 1.8168 -0.0017
0 10 6 2.4185 -0.0007
0 10 7 -1.1641 -0.0102
0 10 8 -0.6793 -0.0293
0 10 9 -2.2095 -0.0236
0 10 10 -0.3853 0.0092
0 10 11 -1.5624 0.0157
0 10 12 1.6888 -0.0186
0 10 13 -0.4321 -0.0068
0 10 14 -0.8211 0.0075
0 10 15 1.5785 0.0165
0 10 16 -1.8281 -0.0719
0 10 17 2.0741 0.0317
0 10 18 -0.7954 0.0208
0 10 19 -0.2068 -0.1213
0 10 20 0.2814 0.1345
0 10 21 0.3441 0.0163
0 11 1 -4.9312 0.0114
0 11 2 -1.4721 0.0185
0 11 3 0.2494 -0.0088
0 11 4 0.4521 -0.0270
0 11 5 0.2504 0.0003
0 11 6 -1.2285 0.0362
0 11 7 1.0192 0.0375
0 11 8 1.5272 0.0253
0 11 9 1.0359 0.0090
0 11 10 1.6480 -0.0327
0 11 11 -1.4732 -0.0191
0 11 12 1.5323 -0.0122
0 11 13 -1.1176 -0.0083
0 11 14 -0.1616 0.0005
0 11 15 0.1300 -0.0157
0 11 16 0.2790 0.0429
0 11 17 0.8857 0.1231
0 11 18 -0.2210 0.0599
0 11 19 0.6036 0.1393
0 11 20 0.0905 0.0071
0 12 0 -3.4031 -0.0136
0 12 1 -0.9112 -0.0162
0 12 2 -2.1118 -0.0005
0 12 3 1.0707 -0.0303
0 12 4 3.9400 -0.0111
0 12 5 0.9339 -0.0337
0 12 6 3.3328 -0.0200
0 12 7 0.4790 -0.0115
0 12 8 -1.8770 0.0019
0 12 9 -1.1236 -0.0085
0 12 10 -2.4715 -0.0057
0 12 11 -1.5396 -0.0119
0 12 12 1.0862 -0.0397
0 12 13 -0.9390 -0.0250
0 12 14 -0.0937 0.0378
0 12 15 0.2086 -0.0271
0 12 16 -0.1358 -0.0707
0 12 17 0.3968 -0.0552
0 12 18 1.3270 -0.2105
0 12 19 -0.3336 -0.0691
0 13 1 -2.7382 0.0174
0 13 2 -0.3448 -0.0167
0 13 3 -1.1992 0.0253
0 13 4 0.0444 0.0152
0 13 5 -1.0774 -0.0090
0 13 6 -0.5647 0.0483
0 13 7 0.2035 0.0046
0 13 8 -0.1131 -0.0103
0 13 9 1.8884 0.0044
0 13 10 -0.0464 -0.0131
0 13 11 0.2738 -0.0065
0 13 12 0.1698 0.0035
0 13 13 -0.3405 0.0321
0 13 14 1.5865 -0.0047
0 13 15 0.0810 -0.0659
0 13 16 1.4272 0.0474
0 13 17 0.9588 0.1209
0 13 18 -0.2296 0.0383
0 14 0 -0.6757 -0.0271
0 14 1 -3.3360 -0.0259
0 14 2 -1.2089 0.0299
0 14 3 -1.7890 -0.0134
0 14 4 0.0257 0.0047
0 14 5 2.6890 -0.0397
0 14 6 0.1577 -0.0256
0 14 7 1.5330 -0.0119
0 14 8 -0.4261 0.0089
0 14 9 0.4264 -0.0190
0 14 10 0.1543 0.0172
0 14 11 -2.0982 -0.0130
0 14 12 1.5978 0.0012
0 14 13 -1.0531 0.0493
0 14 14 -0.0270 -0.0035
0 14 15 -0.1107 -0.0076
0 14 16 -1.0508 0.0365
0 14 17 0.3817 -0.0880
0 15 1 -0.6422 -0.0136
0 15 2 0.4575 0.0027
0 15 3 -0.1492 0.0365
0 15 4 0.5815 0.0172
0 15 5 0.3472 0.0050
0 15 6 -0.9030 0.0059
0 15 7 0.5217 0.0158
0 15 8 -0.7140 0.0385
0 15 9 1.1311 0.0154
0 15 10 -0.3850 0.0202
0 15 11 0.5909 -0.0508
0 15 12 0.4375 -0.0363
0 15 13 -0.4868 0.0366
0 15 14 -0.9246 -0.0155
0 15 15 0.1949 -0.0561
0 15 16 -1.2173 0.0275
0 16 0 7.8141 0.0612
0 16 1 -2.0454 -0.0321
0 16 2 1.1338 0.0105
0 16 3 -0.0007 0.0235
0 16 4 -1.8806 -0.0068
0 16 5 1.5315 0.0198
0 16 6 0.6225 -0.0380
0 16 7 -0.5442 -0.0790
0 16 8 0.7052 -0.0017
0 16 9 -0.5187 -0.0633
0 16 10 1.5945 0.0183
0 16 11 -0.6403 0.0276
0 16 12 0.1540 0.0008
0 16 13 -0.3165 0.0335
0 16 14 -0.4889 -0.0086
0 16 15 -0.4761 -0.0487
0 17 1 1.0419 -0.0287
0 17 2 -1.0033 0.0201
0 17 3 -0.0026 0.0093
0 17 4 -0.8398 0.0724
0 17 5 1.0775 0.0040
0 17 6 -0.1087 0.0222
0 17 7 -0.3870 0.0279
0 17 8 0.3908 0.0607
0 17 9 0.3411 -0.0215
0 17 10 0.9156 0.0897
0 17 11 -0.4260 -0.0336
0 17 12 0.6925 0.0588
0 17 13 0.2594 0.0309
0 17 14 -0.6543 0.0004
0 18 0 5.0653 -0.0363
0 18 1 2.2065 0.0258
0 18 2 1.0558 -0.0089
0 18 3 1.9526 -0.0457
0 18 4 -0.0329 -0.0012
0 18 5 0.1446 -0.0152
0 18 6 1.1499 -0.0776
0 18 7 -0.4907 0.0381
0 18 8 0.6070 -0.0383
0 18 9 -0.1654 0.0434
0 18 10 -0.1044 0.0021
0 18 11 0.9638 -0.0115
0 18 12 0.1258 -0.0188
0 19 1 2.2951 0.0121
0 19 2 -0.3288 0.0184
0 19 3 0.0465 -0.0052
0 19 4 -0.8980 0.0509
0 19 5 1.4322 0.0574
0 19 6 0.8686 -0.0793
0 19 7 1.3962 0.0883
0 19 8 0.4812 -0.0486
0 19 9 1.0771 -0.0167
0 19 10 1.1541 0.1276
0 20 0 -1.9554 -0.0874
0 20 1 2.0863 0.0051
0 20 2 -0.4966 -0.0129
0 20 3 1.9290 -0.0298
0 20 4 0.0926 -0.0619
0 20 5 -0.1853 -0.0339
0 20 6 -0.0151 -0.0181
0 20 7 -1.3562 0.0560
1 0 2 13.4718 0.6580
1 0 4 -84.8685 -0.1628
1 0 6 -37.7193 0.0222
1 0 8 13.7491 0.0591
1 0 10 22.6093 -0.0218
1 0 12 8.0980 0.0186
1 0 14 -4.8385 -0.0062
1 0 16 -5.5957 -0.0082
1 0 18 -0.6240 -0.0146
1 0 20 1.5246 0.0032
1 0 22 -0.3684 -0.1290
1 1 1 37.4851 -0.4695
1 1 2 -36.5850 0.0512
1 1 3 72.7178 0.0116
1 1 4 -14.6686 -0.0422
1 1 5 51.9075 0.0218
1 1 6 16.6611 -0.0504
1 1 7 1.7507 -0.0821
1 1 8 14.6095 0.0002
1 1 9 -12.3109 0.0204
1 1 10 2.2105 0.0456
1 1 11 -11.0291 -0.0133
1 1 12 -5.6221 0.0118
1 1 13 -1.0531 -0.0063
1 1 14 -2.5068 0.0060
1 1 15 3.0496 0.0150
1 1 16 0.3175 0.0297
1 1 17 1.2629 0.0091
1 1 18 2.2381 0.0120
1 1 19 0.0125 0.0294
1 1 20 0.5081 -0.0566
1 1 21 -0.5912 0.0162
1 1 22 -0.3131 0.1628
1 1 23 -0.7267 -0.0498
1 2 0 83.9960 0.3306
1 2 1 75.6805 -0.1474
1 2 2 12.4348 0.1767
1 2 3 53.8617 -0.0243
1 2 4 -30.7297 -0.0397
1 2 5 -3.7972 0.1374
1 2 6 -18.2645 0.0698
1 2 7 -24.2499 -0.0492
1 2 8 3.5609 -0.0125
1 2 9 -12.1838 0.0303
1 2 10 8.2750 0.0076
1 2 11 5.5191 -0.0072
1 2 12 2.8401 0.0058
1 2 13 6.9065 -0.0384
1 2 14 -1.8898 0.0090
1 2 15 0.4458 0.0037
1 2 16 -3.1164 0.0312
1 2 17 -2.3802 -0.0292
1 2 18 -1.2389 -0.0157
1 2 19 -1.9606 0.0094
1 2 20 -0.2344 -0.0016
1 2 21 1.1300 -0.0180
1 2 22 -0.2291 0.0995
1 2 23 1.2736 0.0113
1 3 0 -7.3872 -0.0970
1 3 1 33.1485 0.0951
1 3 2 -5.3624 0.1817
1 3 3 14.3483 -0.1433
1 3 4 -5.8940 -0.0169
1 3 5 1.1792 -0.0801
1 3 6 12.7263 -0.0189
1 3 7 1.8245 0.0320
1 3 8 13.1229 0.0513
1 3 9 4.1159 -0.0234
1 3 10 1.6009 0.0084
1 3 11 1.5501 0.0165
1 3 12 -4.5175 0.0304
1 3 13 -3.4432 0.0123
1 3 14 -1.9177 -0.0156
1 3 15 -2.3133 0.0187
1 3 16 -0.0922 0.0420
1 3 17 -0.5629 0.0145
1 3 18 2.4646 0.0014
1 3 19 2.1755 -0.0096
1 3 20 2.0542 -0.0281
1 3 21 0.6184 -0.0158
1 3 22 0.7726 0.1444
1 3 23 0.0951 0.0617
1 4 0 -14.9443 -0.1221
1 4 1 13.2597 -0.0242
1 4 2 5.2856 0.0163
1 4 3 18.5479 -0.0556
1 4 4 4.8831 0.0913
1 4 5 9.7263 0.0194
1 4 6 -8.5157 0.0007
1 4 7 -3.6960 -0.0244
1 4 8 -9.6373 -0.0077
1 4 9 -4.9421 0.0019
1 4 10 -3.7172 0.0065
1 4 11 1.2963 -0.0080
1 4 12 0.9387 -0.0086
1 4 13 2.2024 -0.0133
1 4 14 2.8423 -0.0129
1 4 15 0.5720 0.0059
1 4 16 -0.3754 -0.0557
1 4 17 -0.0376 -0.0170
1 4 18 -0.4802 0.0112
1 4 19 0.6308 0.0084
1 4 20 -2.1077 0.0478
1 4 21 0.3968 -0.0358
1 4 22 -2.1503 0.0088
1 4 23 -0.1470 0.0913
1 5 1 -1.2277 0.0496
1 5 2 36.3058 0.0256
1 5 3 2.5547 -0.0902
1 5 4 8.0975 -0.0189
1 5 5 5.1879 0.0220
1 5 6 -9.2329 0.0277
1 5 7 5.8233 0.0117
1 5 8 -3.6436 0.0183
1 5 9 3.5036 -0.0207
1 5 10 5.5907 -0.0172
1 5 11 -1.0849 0.0164
1 5 12 6.6276 0.0170
1 5 13 -3.4802 -0.0083
1 5 14 0.8882 -0.0094
1 5 15 -1.8778 0.0325
1 5 16 -1.3204 0.0226
1 5 17 0.2596 0.0453
1 5 18 -2.0313 0.0299
1 5 19 1.9409 -0.0213
1 5 20 -0.3384 -0.0526
1 5 21 0.5120 -0.0285
1 5 22 1.0630 -0.0900
1 5 23 -0.0580 0.1319
1 6 0 13.1879 -0.0508
1 6 1 -7.8054 0.0426
1 6 2 8.4045 0.0192
1 6 3 0.5128 0.0508
1 6 4 -5.3677 -0.0010
1 6 5 13.6380 -0.0238
1 6 6 -11.2060 -0.0334
1 6 7 8.1462 -0.0080
1 6 8 -0.0136 0.0248
1 6 9 -6.5491 -0.0011
1 6 10 6.0906 -0.0360
1 6 11 -9.0224 -0.0154
1 6 12 1.8727 0.0094
1 6 13 -3.8674 0.0114
1 6 14 0.4965 0.0435
1 6 15 1.9265 0.0148
1 6 16 -0.7512 -0.0081
1 6 17 0.9679 -0.0231
1 6 18 -0.8770 0.0228
1 6 19 1.7072 -0.0293
1 6 20 -0.5533 0.0013
1 6 21 0.1487 0.0423
1 6 22 -0.5439 -0.1043
1 7 0 7.5980 0.0024
1 7 1 -9.0827 -0.0012
1 7 2 14.2759 -0.0435
1 7 3 8.9947 0.0163
1 7 4 1.3856 0.0221
1 7 5 14.7600 0.0209
1 7 6 -6.0252 0.0143
1 7 7 4.1986 -0.0053
1 7 8 -1.9714 -0.0025
1 7 9 -7.8940 0.0196
1 7 10 7.3464 0.0104
1 7 11 -5.9150 0.0052
1 7 12 5.7375 -0.0122
1 7 13 0.4963 -0.0053
1 7 14 0.6207 0.0052
1 7 15 1.2429 0.0016
1 7 16 -2.3980 -0.0282
1 7 17 0.2268 -0.0531
1 7 18 -2.2485 0.0094
1 7 19 -0.2914 -0.0233
1 7 20 0.0829 0.0678
1 7 21 -0.5843 -0.0520
1 7 22 0.7315 0.0126
1 8 0 4.1086 0.0472
1 8 1 9.0774 0.0230
1 8 2 -0.2775 0.0019
1 8 3 8.0487 -0.0029
1 8 4 -9.7533 0.0096
1 8 5 6.7720 0.0259
1 8 6 -6.6528 -0.0004
1 8 7 0.5275 0.0235
1 8 8 6.5640 -0.0187
1 8 9 -5.4425 -0.0124
1 8 10 8.5815 0.0107
1 8 11 -3.2733 0.0051
1 8 12 2.0290 0.0310
1 8 13 -0.6800 0.0226
1 8 14 -2.6669 0.0100
1 8 15 2.4568 0.0046
1 8 16 -1.0760 -0.0118
1 8 17 1.0672 -0.0327
1 8 18 -0.5509 0.0523
1 8 19 -0.8394 -0.0666
1 8 20 0.4563 -0.0453
1 8 21 -0.7577 0.1226
1 8 22 0.0860 -0.2592
1 9 0 -0.7535 -0.0129
1 9 1 -6.3255 0.0030
1 9 2 0.9697 0.0161
1 9 3 4.1231 -0.0189
1 9 4 2.1917 0.0098
1 9 5 4.8507 -0.0071
1 9 6 1.5444 0.0017
1 9 7 3.8539 0.0056
1 9 8 4.4369 0.0297
1 9 9 -3.8071 0.0048
1 9 10 4.3849 -0.0033
1 9 11 -3.0027 -0.0049
1 9 12 0.7824 -0.0013
1 9 13 0.5967 -0.0003
1 9 14 -1.8323 0.0048
1 9 15 2.8228 0.0105
1 9 16 -1.6367 -0.0023
1 9 17 0.5307 -0.0684
1 9 18 -0.4348 0.1099
1 9 19 -0.9077 -0.0882
1 9 20 0.2166 0.1443
1 9 21 -0.1155 -0.0471
1 10 0 -4.0948 -0.0054
1 10 1 6.0904 -0.0286
1 10 2 0.2705 -0.0134
1 10 3 6.0490 -0.0194
1 10 4 2.0712 0.0138
1 10 5 0.6750 -0.0058
1 10 6 1.0620 -0.0148
1 10 7 -3.1823 -0.0103
1 10 8 0.0206 0.0061
1 10 9 -3.6022 0.0021
1 10 10 1.1342 0.0296
1 10 11 -0.8000 0.0007
1 10 12 0.6967 -0.0084
1 10 13 1.4099 -0.0103
1 10 14 -2.5394 -0.0131
1 10 15 2.0842 0.0370
1 10 16 -1.6601 -0.0655
1 10 17 1.1373 -0.0470
1 10 18 0.0587 0.1393
1 10 19 -0.7937 -0.0973
1 10 20 0.2148 0.0929
1 10 21 0.3199 0.1579
1 11 0 -0.2041 0.0307
1 11 1 -2.2662 0.0094
1 11 2 -1.5087 0.0100
1 11 3 1.3979 -0.0182
1 11 4 0.9278 -0.0136
1 11 5 1.1158 0.0104
1 11 6 -0.1128 0.0511
1 11 7 2.0088 0.0124
1 11 8 2.9711 0.0018
1 11 9 -0.3782 -0.0088
1 11 10 1.5917 -0.0351
1 11 11 -2.0795 -0.0127
1 11 12 0.3910 0.0255
1 11 13 -0.0895 -0.0109
1 11 14 -1.0517 0.0067
1 11 15 0.3524 0.0322
1 11 16 0.0798 0.0235
1 11 17 0.3868 0.0766
1 11 18 0.1794 0.0665
1 11 19 0.0621 -0.0375
1 11 20 0.3191 -0.0663
1 12 0 -4.0406 -0.0031
1 12 1 -0.0241 -0.0255
1 12 2 -1.0839 0.0127
1 12 3 1.3952 -0.0252
1 12 4 4.7567 -0.0268
1 12 5 0.4740 -0.0242
1 12 6 1.6203 -0.0161
1 12 7 -0.6220 0.0088
1 12 8 -2.4146 0.0269
1 12 9 -1.4670 -0.0053
1 12 10 -1.2390 -0.0195
1 12 11 -1.0581 -0.0200
1 12 12 1.2918 -0.0173
1 12 13 -0.0966 -0.0409
1 12 14 -0.0423 0.0303
1 12 15 0.7628 -0.0171
1 12 16 0.4643 -0.1659
1 12 17 0.5794 -0.0668
1 12 18 1.7222 -0.0871
1 12 19 -0.4241 -0.0857
1 13 0 0.3761 0.0014
1 13 1 -0.9502 0.0061
1 13 2 -0.8975 -0.0018
1 13 3 -0.5639 0.0194
1 13 4 -0.1540 0.0261
1 13 5 -0.2746 -0.0266
1 13 6 -0.2671 0.0135
1 13 7 1.0394 -0.0040
1 13 8 0.1505 -0.0208
1 13 9 1.0287 -0.0016
1 13 10 0.2543 -0.0021
1 13 11 -0.4721 -0.0101
1 13 12 0.1617 0.0136
1 13 13 0.2645 0.0054
1 13 14 1.3534 0.0402
1 13 15 0.4417 -0.0067
1 13 16 0.6238 0.0263
1 13 17 0.6378 0.2256
1 13 18 -0.6701 0.0056
1 14 0 -1.1421 -0.0186
1 14 1 -3.5588 -0.0411
1 14 2 -1.5281 0.0388
1 14 3 -0.6531 -0.0225
1 14 4 -0.0778 -0.0041
1 14 5 2.3563 -0.0325
1 14 6 -0.6015 -0.0145
1 14 7 0.9435 0.0185
1 14 8 -0.4512 0.0208
1 14 9 -0.3582 -0.0018
1 14 10 0.9126 0.0189
1 14 11 -2.8731 0.0031
1 14 12 1.6669 -0.0121
1 14 13 -0.6886 -0.0056
1 14 14 -0.6307 0.0108
1 14 15 0.4154 -0.0695
1 14 16 -0.9991 -0.0315
1 14 17 0.2956 -0.0777
1 15 0 0.1636 0.0066
1 15 1 0.0778 0.0057
1 15 2 -0.6399 0.0218
1 15 3 0.3800 0.0330
1 15 4 0.1177 0.0275
1 15 5 0.6797 -0.0235
1 15 6 -0.2166 0.0068
1 15 7 0.5286 0.0028
1 15 8 0.3290 0.0193
1 15 9 0.5734 -0.0174
1 15 10 0.7324 -0.0227
1 15 11 0.4508 -0.0266
1 15 12 0.1022 -0.0476
1 15 13 -0.2361 0.0417
1 15 14 -1.3588 0.0470
1 15 15 0.3642 -0.1174
1 15 16 -1.0566 0.0323
1 16 0 7.0584 0.0442
1 16 1 -2.2188 -0.0300
1 16 2 -0.4902 -0.0066
1 16 3 0.4448 0.0331
1 16 4 -1.4142 -0.0050
1 16 5 0.7262 -0.0324
1 16 6 1.1255 -0.0223
1 16 7 -0.7783 -0.0880
1 16 8 0.7527 0.0325
1 16 9 -0.4403 -0.0089
1 16 10 1.6617 0.0348
1 16 11 -0.8805 0.0400
1 16 12 -0.2509 -0.0389
1 16 13 -0.1407 0.0044
1 16 14 -0.6681 -0.0116
1 16 15 -0.3845 -0.0963
1 17 0 -0.1889 0.0138
1 17 1 1.7739 -0.0093
1 17 2 -1.4900 0.0393
1 17 3 0.2849 0.0104
1 17 4 -0.4173 0.0651
1 17 5 0.3872 -0.0060
1 17 6 0.6643 0.0254
1 17 7 -0.8095 -0.0039
1 17 8 0.7516 0.0568
1 17 9 0.3683 -0.0340
1 17 10 0.7804 0.0856
1 17 11 -0.1814 0.0041
1 17 12 0.4281 0.0548
1 17 13 0.3726 0.0040
1 18 0 4.6166 -0.0177
1 18 1 2.8466 -0.0078
1 18 2 0.2373 0.0050
1 18 3 1.4038 -0.0367
1 18 4 -0.0710 -0.0293
1 18 5 -0.6250 0.0504
1 18 6 1.0044 -0.0603
1 18 7 -0.0872 0.0280
1 18 8 0.2819 0.0342
1 18 9 0.5820 -0.0258
1 18 10 0.2849 0.0063
1 18 11 1.5713 -0.0529
1 18 12 0.2176 -0.0085
1 19 0 -0.8128 -0.0028
1 19 1 1.6949 -0.0071
1 19 2 -0.3216 0.0455
1 19 3 0.4893 0.0123
1 19 4 0.0424 -0.0280
1 19 5 1.7980 0.1095
1 19 6 1.2649 -0.1401
1 19 7 1.1211 0.0534
1 19 8 0.4421 0.0360
1 19 9 0.9757 -0.0332
1 20 0 -1.5649 -0.0581
1 20 1 2.5096 -0.0135
1 20 2 0.0951 0.0211
1 20 3 0.7696 -0.0369
1 20 4 -0.1401 -0.0493
1 20 5 -1.2854 0.0141
1 20 6 -0.1838 0.0736
2 0 2 -59.0720 0.0374
2 0 4 -74.2237 -0.1626
2 0 6 -2.2255 0.0852
2 0 8 28.2736 -0.0091
2 0 10 20.6077 0.0167
2 0 12 -0.3306 0.0001
2 0 14 -8.8599 -0.0013
2 0 16 -4.3344 -0.0081
2 0 18 0.8325 -0.0054
2 0 20 0.9435 -0.0283
2 0 22 -1.0510 -0.1265
2 1 0 -40.8989 0.1518
2 1 1 89.1908 -0.0957
2 1 2 -27.9785 -0.0887
2 1 3 78.2125 0.1855
2 1 4 4.2813 -0.0883
2 1 5 23.8454 -0.0661
2 1 6 23.5745 0.0386
2 1 7 -15.8075 -0.0326
2 1 8 10.0596 0.0081
2 1 9 -14.4619 0.0136
2 1 10 -2.8538 0.0591
2 1 11 -6.7519 -0.0274
2 1 12 -6.4294 0.0012
2 1 13 4.5095 -0.0118
2 1 14 -0.9115 0.0067
2 1 15 3.7512 0.0220
2 1 16 1.8006 0.0227
2 1 17 0.2613 0.0271
2 1 18 1.7605 -0.0336
2 1 19 -0.3570 0.0179
2 1 20 -0.4906 -0.0022
2 1 21 -0.8634 -0.0072
2 1 22 -0.1938 0.2534
2 1 23 -0.6601 -0.0715
2 2 0 35.9066 0.3652
2 2 1 82.0878 -0.1145
2 2 2 -23.7009 0.0124
2 2 3 28.8747 0.1682
2 2 4 -26.2569 -0.0322
2 2 5 -24.3902 0.0629
2 2 6 0.5014 0.0574
2 2 7 -24.4652 -0.0806
2 2 8 12.5672 -0.0226
2 2 9 -2.5731 0.0349
2 2 10 7.5777 0.0270
2 2 11 10.5969 -0.0300
2 2 12 -1.0608 0.0091
2 2 13 5.0768 -0.0063
2 2 14 -4.3963 0.0284
2 2 15 -1.9283 -0.0058
2 2 16 -3.3045 0.0132
2 2 17 -3.0871 0.0017
2 2 18 -0.7527 -0.0239
2 2 19 -0.6623 -0.0078
2 2 20 -0.0096 0.0163
2 2 21 1.6810 -0.0545
2 2 22 -0.0338 0.1061
2 2 23 0.7349 0.0797
2 3 0 -12.8117 0.1348
2 3 1 34.9437 0.0209
2 3 2 -5.4531 0.0973
2 3 3 10.7394 -0.1506
2 3 4 5.0163 -0.0853
2 3 5 -4.5707 0.0136
2 3 6 20.6431 0.0645
2 3 7 -1.8811 0.0360
2 3 8 8.8486 0.0119
2 3 9 2.7498 -0.0354
2 3 10 -4.0853 0.0090
2 3 11 1.2227 0.0238
2 3 12 -5.7707 0.0002
2 3 13 -2.0734 0.0067
2 3 14 -1.0040 -0.0334
2 3 15 -1.0124 0.0178
2 3 16 1.1702 0.0372
2 3 17 0.8025 0.0031
2 3 18 2.3614 -0.0453
2 3 19 2.2145 0.0014
2 3 20 1.0506 -0.0151
2 3 21 -0.2911 0.0192
2 3 22 0.0414 0.0914
2 3 23 -0.0966 0.0867
2 4 0 -18.1244 -0.0584
2 4 1 17.6221 -0.0707
2 4 2 2.4484 0.1291
2 4 3 14.2956 0.0310
2 4 4 1.7560 -0.0045
2 4 5 -0.6920 0.0017
2 4 6 -6.2748 -0.0218
2 4 7 -8.3836 -0.0138
2 4 8 -5.4666 0.0079
2 4 9 -1.4277 0.0069
2 4 10 -1.6681 -0.0198
2 4 11 3.8811 -0.0240
2 4 12 1.2400 0.0049
2 4 13 2.1454 0.0153
2 4 14 0.7438 -0.0310
2 4 15 0.0646 0.0068
2 4 16 -1.9895 -0.0453
2 4 17 -0.2862 0.0235
2 4 18 -1.1754 0.0390
2 4 19 0.5274 0.0321
2 4 20 -2.5464 -0.0095
2 4 21 -0.0629 0.0189
2 4 22 -1.9544 -0.0679
2 4 23 -0.1877 0.1408
2 5 0 33.1085 0.0059
2 5 1 3.7364 -0.0670
2 5 2 27.5679 0.0416
2 5 3 6.6523 -0.0579
2 5 4 0.0248 0.0145
2 5 5 3.6640 0.0647
2 5 6 -5.6112 0.0404
2 5 7 1.1774 -0.0326
2 5 8 1.1188 -0.0114
2 5 9 0.1846 -0.0039
2 5 10 6.6348 -0.0157
2 5 11 -1.8576 -0.0003
2 5 12 4.4973 0.0109
2 5 13 -2.9345 0.0181
2 5 14 -1.2670 -0.0019
2 5 15 -0.5977 0.0508
2 5 16 -2.1496 0.0220
2 5 17 1.6316 0.0238
2 5 18 -1.5639 -0.0247
2 5 19 2.1285 0.0095
2 5 20 0.9712 -0.0982
2 5 21 0.2204 0.0661
2 5 22 1.0342 -0.1065
2 5 23 0.1371 0.1890
2 6 0 9.2732 -0.0349
2 6 1 -5.6399 0.0611
2 6 2 0.2443 0.0190
2 6 3 7.5411 -0.0029
2 6 4 -9.9731 -0.0352
2 6 5 12.1297 -0.0291
2 6 6 -4.1019 -0.0022
2 6 7 -0.2255 0.0004
2 6 8 6.8960 0.0084
2 6 9 -10.1788 -0.0170
2 6 10 5.4950 -0.0370
2 6 11 -6.4835 -0.0176
2 6 12 0.0420 0.0353
2 6 13 0.0028 0.0170
2 6 14 -0.3302 -0.0037
2 6 15 3.1083 0.0053
2 6 16 -1.3232 -0.0266
2 6 17 0.5920 -0.0191
2 6 18 -1.0569 -0.0116
2 6 19 0.9475 0.0236
2 6 20 -0.4223 -0.0629
2 6 21 -0.7156 0.1275
2 6 22 -0.5456 -0.1011
2 7 0 13.3080 -0.0151
2 7 1 1.2097 0.0208
2 7 2 11.0488 0.0113
2 7 3 15.9096 0.0247
2 7 4 -3.4435 0.0531
2 7 5 10.1248 0.0004
2 7 6 -2.6226 0.0232
2 7 7 -5.1260 0.0024
2 7 8 4.0330 0.0233
2 7 9 -10.0770 0.0165
2 7 10 7.8258 0.0013
2 7 11 -1.9845 -0.0242
2 7 12 2.5960 -0.0076
2 7 13 2.8226 0.0143
2 7 14 -1.8934 0.0093
2 7 15 1.1844 -0.0114
2 7 16 -2.4944 -0.0368
2 7 17 -0.1110 -0.0176
2 7 18 -1.1526 -0.0066
2 7 19 -0.6348 0.0382
2 7 20 0.7652 0.0191
2 7 21 -0.5671 0.0088
2 7 22 0.4602 -0.0119
2 8 0 0.2494 0.0342
2 8 1 9.7957 -0.0065
2 8 2 -5.9315 -0.0148
2 8 3 7.3893 -0.0235
2 8 4 -10.1238 0.0126
2 8 5 2.8050 0.0248
2 8 6 0.3402 -0.0189
2 8 7 -4.8877 -0.0145
2 8 8 11.0547 -0.0104
2 8 9 -5.8696 -0.0193
2 8 10 5.2956 0.0225
2 8 11 -0.2011 0.0060
2 8 12 -2.0963 0.0245
2 8 13 2.1520 0.0118
2 8 14 -3.5449 0.0086
2 8 15 2.8707 -0.0196
2 8 16 -0.0603 0.0096
2 8 17 -0.4039 -0.0238
2 8 18 -0.2057 -0.0125
2 8 19 -1.5900 0.0425
2 8 20 0.2576 -0.1529
2 8 21 -0.6707 0.1712
2 9 0 -0.0700 0.0143
2 9 1 -2.0197 0.0010
2 9 2 3.0694 0.0290
2 9 3 6.3472 -0.0269
2 9 4 3.6985 0.0063
2 9 5 3.2711 0.0041
2 9 6 4.4858 0.0169
2 9 7 -0.1108 0.0087
2 9 8 5.8092 0.0377
2 9 9 -5.0276 -0.0027
2 9 10 1.6215 -0.0033
2 9 11 -0.4903 0.0088
2 9 12 -2.3310 0.0108
2 9 13 2.5204 0.0108
2 9 14 -2.7282 0.0056
2 9 15 2.0074 -0.0524
2 9 16 -0.5390 0.0269
2 9 17 -0.6316 -0.0879
2 9 18 0.4644 0.0569
2 9 19 -0.9868 0.0134
2 9 20 -0.0689 -0.0102
2 9 21 0.1234 0.0366
2 10 0 -5.0913 0.0009
2 10 1 6.5817 -0.0201
2 10 2 0.1873 0.0183
2 10 3 4.1081 -0.0072
2 10 4 1.6746 0.0047
2 10 5 -0.9415 -0.0106
2 10 6 1.0140 -0.0152
2 10 7 -5.0174 0.0016
2 10 8 1.6439 0.0373
2 10 9 -2.7446 0.0128
2 10 10 0.7414 0.0215
2 10 11 1.5520 -0.0250
2 10 12 -1.4120 -0.0091
2 10 13 2.8042 0.0175
2 10 14 -3.0062 -0.0168
2 10 15 1.1882 0.0205
2 10 16 -0.2433 0.0024
2 10 17 -0.1499 -0.0875
2 10 18 0.6893 0.1579
2 10 19 -0.8844 0.0409
2 10 20 -0.2278 -0.0605
2 11 0 -0.0361 0.0222
2 11 1 -0.0530 -0.0008
2 11 2 -1.2103 -0.0104
2 11 3 1.6449 -0.0092
2 11 4 1.7729 0.0011
2 11 5 2.2301 0.0115
2 11 6 1.5098 0.0377
2 11 7 1.5778 -0.0155
2 11 8 3.6341 -0.0210
2 11 9 -1.7018 0.0027
2 11 10 0.2229 -0.0064
2 11 11 -1.3052 -0.0018
2 11 12 -0.9308 0.0366
2 11 13 0.7935 0.0096
2 11 14 -1.2587 -0.0278
2 11 15 -0.0648 0.0326
2 11 16 0.5445 0.0295
2 11 17 -0.1931 -0.0432
2 11 18 0.8180 0.0144
2 11 19 -0.0440 -0.0582
2 11 20 0.3776 -0.2047
2 12 0 -4.5943 0.0089
2 12 1 0.6943 -0.0072
2 12 2 0.5219 0.0050
2 12 3 0.8171 -0.0040
2 12 4 4.2750 -0.0386
2 12 5 -0.4512 0.0012
2 12 6 0.0100 0.0066
2 12 7 -1.4827 0.0202
2 12 8 -1.8673 0.0196
2 12 9 -1.3024 -0.0085
2 12 10 -0.5085 -0.0347
2 12 11 -0.2575 -0.0256
2 12 12 0.9189 0.0070
2 12 13 0.5531 -0.0164
2 12 14 0.1945 -0.0261
2 12 15 0.9094 0.0159
2 12 16 1.1675 -0.1407
2 12 17 0.3318 -0.0973
2 12 18 1.7658 0.1028
2 12 19 -0.7103 -0.0213
2 13 0 0.6160 -0.0111
2 13 1 0.6084 0.0057
2 13 2 -0.8204 0.0023
2 13 3 -0.6463 0.0147
2 13 4 0.3091 0.0020
2 13 5 0.5798 -0.0386
2 13 6 -0.1066 -0.0148
2 13 7 1.0396 0.0014
2 13 8 0.3733 -0.0057
2 13 9 0.0721 0.0027
2 13 10 0.4904 0.0093
2 13 11 -0.5585 -0.0138
2 13 12 -0.0262 0.0350
2 13 13 0.8671 0.0127
2 13 14 0.7710 0.0224
2 13 15 0.4367 0.0787
2 13 16 -0.1848 -0.0288
2 13 17 0.2329 0.1776
2 13 18 -0.6868 0.0105
2 14 0 -2.2722 -0.0060
2 14 1 -3.4681 -0.0389
2 14 2 -1.9019 0.0365
2 14 3 -0.6962 -0.0015
2 14 4 -0.5070 -0.0064
2 14 5 1.4371 0.0037
2 14 6 -0.8885 -0.0065
2 14 7 0.2793 0.0411
2 14 8 0.1088 0.0183
2 14 9 -1.1502 0.0037
2 14 10 1.2948 -0.0016
2 14 11 -2.5299 -0.0128
2 14 12 1.4330 -0.0162
2 14 13 0.1864 -0.0628
2 14 14 -0.8678 -0.0043
2 14 15 0.5653 -0.0475
2 14 16 -0.5317 -0.0883
2 14 17 0.0069 -0.0643
2 15 0 0.3653 0.0164
2 15 1 1.2120 0.0080
2 15 2 -1.0705 0.0228
2 15 3 0.9177 0.0040
2 15 4 0.5286 0.0063
2 15 5 0.7803 -0.0402
2 15 6 0.5268 -0.0206
2 15 7 0.0627 -0.0065
2 15 8 1.3781 -0.0077
2 15 9 -0.0353 -0.0255
2 15 10 1.1489 -0.0376
2 15 11 0.6205 0.0271
2 15 12 -0.7783 -0.0113
2 15 13 0.1840 0.0023
2 15 14 -1.4304 0.0775
2 15 15 0.2615 -0.1327
2 15 16 -0.5054 -0.0485
2 16 0 5.3343 0.0241
2 16 1 -1.8596 -0.0118
2 16 2 -1.5095 -0.0044
2 16 3 0.1217 0.0285
2 16 4 -0.7133 0.0218
2 16 5 -0.2969 -0.0581
2 16 6 1.1334 -0.0047
2 16 7 -0.8835 -0.0311
2 16 8 0.4702 0.0469
2 16 9 -0.5675 0.0252
2 16 10 1.2015 0.0127
2 16 11 -0.8839 0.0185
2 16 12 -0.7839 -0.0469
2 16 13 0.2216 -0.0299
2 16 14 -0.6486 0.0228
2 16 15 -0.2890 -0.1036
2 17 0 -0.6844 -0.0105
2 17 1 2.3814 0.0044
2 17 2 -1.4377 0.0300
2 17 3 0.1988 -0.0131
2 17 4 0.4522 0.0413
2 17 5 -0.1279 -0.0265
2 17 6 0.8665 0.0172
2 17 7 -0.6568 -0.0212
2 17 8 0.8432 0.0334
2 17 9 0.5665 -0.0159
2 17 10 0.6927 0.0764
2 17 11 0.1214 0.0132
2 17 12 0.4546 0.0267
2 17 13 0.5947 -0.0868
2 18 0 3.2262 0.0084
2 18 1 2.9514 -0.0019
2 18 2 -0.5315 0.0040
2 18 3 0.2561 0.0142
2 18 4 0.1985 -0.0375
2 18 5 -0.8191 0.0830
2 18 6 0.6981 0.0035
2 18 7 0.7785 -0.0234
2 18 8 -0.0009 0.0794
2 18 9 1.2386 -0.0868
2 18 10 0.5655 0.0068
2 18 11 1.7521 -0.0206
2 19 0 -1.2433 -0.0203
2 19 1 1.3454 -0.0146
2 19 2 0.2028 0.0081
2 19 3 1.1068 0.0495
2 19 4 0.7397 -0.1306
2 19 5 1.4954 0.1112
2 19 6 0.9687 -0.0990
2 19 7 0.5287 -0.0026
2 19 8 0.2603 0.1402
2 19 9 0.7643 -0.0149
2 20 0 -0.9550 0.0028
2 20 1 1.8553 -0.0139
2 20 2 0.1574 0.0317
2 20 3 -0.5106 -0.0064
2 20 4 -0.1400 -0.0323
2 20 5 -1.4910 0.0492
2 20 6 0.1018 0.2145
3 0 0 20.7655 0.3961
3 0 2 -83.5495 -0.3176
3 0 4 -35.2564 0.0077
3 0 6 26.8414 0.0234
3 0 8 31.9424 -0.0246
3 0 10 12.2646 0.0373
3 0 12 -8.9745 -0.0163
3 0 14 -8.7180 0.0121
3 0 16 -1.1851 -0.0028
3 0 18 1.6940 0.0021
3 0 20 0.3041 -0.0443
3 0 22 -1.0171 -0.0607
3 1 0 -43.5853 0.0535
3 1 1 106.6192 0.3369
3 1 2 -10.9580 -0.2241
3 1 3 47.6750 0.1036
3 1 4 17.2355 0.0150
3 1 5 -7.9595 -0.0743
3 1 6 21.0194 0.0796
3 1 7 -23.2955 0.0215
3 1 8 2.3777 -0.0152
3 1 9 -10.3738 -0.0118
3 1 10 -6.5675 0.0561
3 1 11 0.2148 -0.0199
3 1 12 -5.8358 -0.0268
3 1 13 7.9328 -0.0196
3 1 14 0.9627 0.0133
3 1 15 1.9616 0.0385
3 1 16 2.4303 -0.0059
3 1 17 -1.1031 0.0165
3 1 18 0.4663 -0.0362
3 1 19 -0.8753 -0.0115
3 1 20 -1.1457 0.0560
3 1 21 -0.9453 -0.0427
3 1 22 0.2719 0.2159
3 1 23 -0.4692 -0.0632
3 2 0 -5.5684 0.1564
3 2 1 66.4521 0.1327
3 2 2 -27.3175 -0.1024
3 2 3 -4.2423 0.1730
3 2 4 -3.6099 -0.0047
3 2 5 -36.2626 -0.0750
3 2 6 15.3049 0.0219
3 2 7 -15.8807 -0.0232
3 2 8 13.5803 -0.0083
3 2 9 7.6579 0.0165
3 2 10 2.8234 0.0293
3 2 11 12.1008 -0.0136
3 2 12 -5.1328 0.0167
3 2 13 1.2820 0.0148
3 2 14 -4.9359 0.0247
3 2 15 -3.8619 -0.0146
3 2 16 -2.0442 -0.0018
3 2 17 -2.3728 0.0277
3 2 18 0.2938 -0.0067
3 2 19 0.5058 -0.0467
3 2 20 0.3261 0.0366
3 2 21 1.2609 -0.0285
3 2 22 0.0954 0.0900
3 2 23 0.1452 0.1550
3 3 1 28.7063 -0.0063
3 3 2 3.8933 -0.0721
3 3 3 -1.6436 -0.0450
3 3 4 18.7528 -0.0060
3 3 5 -12.5473 0.0717
3 3 6 20.4773 0.0753
3 3 7 -2.6234 0.0093
3 3 8 -0.5647 -0.0415
3 3 9 4.5313 -0.0349
3 3 10 -7.8495 0.0065
3 3 11 2.8964 0.0139
3 3 12 -4.5740 -0.0365
3 3 13 -1.0623 -0.0060
3 3 14 0.6813 -0.0181
3 3 15 -0.6141 0.0038
3 3 16 1.7674 0.0120
3 3 17 1.4992 -0.0109
3 3 18 1.5307 -0.0525
3 3 19 1.5284 0.0226
3 3 20 0.1621 -0.0079
3 3 21 -1.1541 0.0279
3 3 22 -0.5024 0.0150
3 3 23 -0.0606 0.0609
3 4 0 -19.3364 0.0711
3 4 1 16.1014 0.0055
3 4 2 4.2797 0.0583
3 4 3 4.1960 0.0706
3 4 4 5.5569 -0.0996
3 4 5 -8.7833 -0.0237
3 4 6 -2.1782 0.0221
3 4 7 -6.4048 0.0231
3 4 8 -4.5892 -0.0026
3 4 9 3.7806 -0.0166
3 4 10 -2.1456 -0.0221
3 4 11 5.2423 -0.0137
3 4 12 0.9038 0.0208
3 4 13 1.5504 0.0290
3 4 14 -0.7642 -0.0260
3 4 15 -0.6285 0.0072
3 4 16 -2.5837 -0.0061
3 4 17 -0.3861 0.0534
3 4 18 -1.1989 0.0300
3 4 19 0.5164 0.0345
3 4 20 -2.3297 -0.0526
3 4 21 -0.1550 0.0499
3 4 22 -1.2436 -0.0703
3 4 23 -0.1735 0.0952
3 5 0 36.3944 0.0284
3 5 1 5.1349 -0.1095
3 5 2 16.2581 0.0374
3 5 3 3.2727 0.0529
3 5 4 -2.2457 0.0268
3 5 5 -2.3908 0.0240
3 5 6 -1.3279 0.0207
3 5 7 -2.1978 -0.0469
3 5 8 2.7549 -0.0255
3 5 9 -0.8257 0.0066
3 5 10 5.6832 -0.0056
3 5 11 -1.5675 -0.0207
3 5 12 1.9111 0.0111
3 5 13 -2.1627 0.0490
3 5 14 -2.4532 0.0089
3 5 15 0.5398 0.0121
3 5 16 -1.9688 0.0055
3 5 17 2.0850 -0.0014
3 5 18 -0.5765 -0.0596
3 5 19 1.5517 0.0480
3 5 20 1.7885 -0.0932
3 5 21 0.0785 0.1142
3 5 22 0.5033 -0.0440
3 6 0 4.0594 -0.0024
3 6 1 -0.5638 0.0150
3 6 2 -4.9802 -0.0182
3 6 3 10.2008 -0.0198
3 6 4 -6.4281 -0.0263
3 6 5 5.8107 -0.0041
3 6 6 4.8714 0.0216
3 6 7 -5.7484 0.0004
3 6 8 8.3800 -0.0184
3 6 9 -9.3776 -0.0260
3 6 10 1.9402 -0.0134
3 6 11 -2.5648 -0.0196
3 6 12 -1.4382 0.0180
3 6 13 2.9579 0.0144
3 6 14 -0.7975 -0.0371
3 6 15 2.9717 -0.0020
3 6 16 -1.5192 -0.0216
3 6 17 -0.3750 -0.0136
3 6 18 -0.8648 -0.0383
3 6 19 -0.1139 0.0515
3 6 20 -0.2728 -0.0673
3 6 21 -1.0104 0.1347
3 6 22 -0.6881 -0.0229
3 7 0 15.0512 0.0113
3 7 1 10.7257 0.0339
3 7 2 5.6839 0.0488
3 7 3 15.3049 0.0069
3 7 4 -3.8666 0.0350
3 7 5 -0.0837 -0.0188
3 7 6 2.7988 0.0321
3 7 7 -10.9273 0.0206
3 7 8 6.1633 0.0221
3 7 9 -6.6978 -0.0062
3 7 10 4.7175 -0.0069
3 7 11 2.3590 -0.0246
3 7 12 -0.8216 0.0104
3 7 13 3.2078 0.0349
3 7 14 -2.6980 0.0017
3 7 15 0.5244 -0.0157
3 7 16 -1.3012 -0.0495
3 7 17 -0.3823 0.0399
3 7 18 -0.1356 -0.0055
3 7 19 -1.1630 0.0466
3 7 20 0.7492 0.0298
3 7 21 -0.5176 0.0287
3 7 22 -0.0577 0.0192
3 8 0 -4.4977 -0.0020
3 8 1 9.0821 -0.0329
3 8 2 -9.2354 -0.0088
3 8 3 5.2091 -0.0112
3 8 4 -5.2420 0.0011
3 8 5 -2.9164 0.0098
3 8 6 7.7334 -0.0373
3 8 7 -7.1465 -0.0416
3 8 8 10.4601 0.0082
3 8 9 -2.1647 -0.0051
3 8 10 -0.3227 0.0113
3 8 11 3.6846 -0.0015
3 8 12 -4.5880 0.0094
3 8 13 3.3434 -0.0024
3 8 14 -2.5420 0.0123
3 8 15 1.3906 -0.0286
3 8 16 1.3344 -0.0265
3 8 17 -1.6360 0.0319
3 8 18 -0.0182 -0.0901
3 8 19 -1.4669 0.0815
3 8 20 0.3200 -0.1520
3 8 21 -0.3276 0.0960
3 9 0 2.6287 0.0237
3 9 1 1.2379 -0.0017
3 9 2 5.0247 0.0192
3 9 3 6.0683 -0.0113
3 9 4 5.6598 0.0041
3 9 5 -0.2863 0.0222
3 9 6 6.2453 0.0223
3 9 7 -2.7671 0.0036
3 9 8 3.3980 0.0314
3 9 9 -3.1487 0.0101
3 9 10 -2.7055 0.0061
3 9 11 2.3539 0.0273
3 9 12 -4.0256 0.0109
3 9 13 2.5550 -0.0130
3 9 14 -1.6577 0.0097
3 9 15 0.1429 -0.0797
3 9 16 1.0155 0.0103
3 9 17 -1.1600 0.0061
3 9 18 0.6356 -0.0365
3 9 19 -0.5680 0.1011
3 9 20 -0.6198 -0.0476
3 9 21 0.1029 0.0030
3 10 0 -5.0402 0.0135
3 10 1 5.1514 0.0110
3 10 2 0.4854 0.0270
3 10 3 1.9296 0.0000
3 10 4 1.6722 -0.0219
3 10 5 -2.6553 -0.0079
3 10 6 1.9158 -0.0024
3 10 7 -5.1290 0.0127
3 10 8 1.6795 0.0359
3 10 9 0.1528 0.0032
3 10 10 -1.4542 -0.0036
3 10 11 3.5974 -0.0223
3 10 12 -2.7218 -0.0008
3 10 13 2.4602 0.0453
3 10 14 -1.8273 0.0068
3 10 15 -0.7903 -0.0233
3 10 16 1.2084 0.0275
3 10 17 -1.0050 -0.0336
3 10 18 0.5640 0.0474
3 10 19 -0.4951 0.1434
3 10 20 -0.4346 -0.1290
3 11 0 0.5311 -0.0093
3 11 1 0.8633 0.0008
3 11 2 -0.0805 -0.0187
3 11 3 1.9380 0.0097
3 11 4 3.5845 0.0088
3 11 5 2.8156 0.0024
3 11 6 2.9920 0.0074
3 11 7 0.3510 -0.0168
3 11 8 2.5844 -0.0230
3 11 9 -1.5957 0.0270
3 11 10 -1.8107 0.0210
3 11 11 0.0152 0.0082
3 11 12 -1.3595 -0.0028
3 11 13 0.6814 0.0282
3 11 14 -0.5273 -0.0445
3 11 15 -0.9240 -0.0234
3 11 16 1.2141 0.0414
3 11 17 -0.4245 -0.0745
3 11 18 1.0525 -0.1115
3 11 19 0.0636 0.0694
3 12 0 -4.0000 -0.0007
3 12 1 0.5256 0.0187
3 12 2 1.8650 -0.0141
3 12 3 -0.3997 0.0191
3 12 4 2.8428 -0.0287
3 12 5 -1.2326 0.0172
3 12 6 -0.5150 0.0194
3 12 7 -1.8598 0.0155
3 12 8 -1.3745 -0.0162
3 12 9 -0.5065 -0.0053
3 12 10 -0.7458 -0.0287
3 12 11 0.7132 -0.0057
3 12 12 0.5254 0.0067
3 12 13 0.9320 0.0370
3 12 14 0.8431 -0.0595
3 12 15 0.7224 0.0111
3 12 16 1.7619 -0.0119
3 12 17 -0.0922 -0.0940
3 12 18 1.3422 0.1613
3 12 19 -0.7229 0.1156
3 13 0 0.9947 -0.0270
3 13 1 0.7030 0.0208
3 13 2 -0.1594 -0.0049
3 13 3 -1.0963 0.0056
3 13 4 0.5420 -0.0230
3 13 5 1.0201 -0.0344
3 13 6 -0.0373 -0.0021
3 13 7 0.2047 0.0212
3 13 8 0.6095 0.0138
3 13 9 -0.5618 0.0018
3 13 10 0.3242 0.0139
3 13 11 -0.2566 -0.0146
3 13 12 -0.4441 0.0250
3 13 13 1.3054 0.0475
3 13 14 0.1341 -0.0431
3 13 15 0.1816 0.0892
3 13 16 -0.5234 -0.0357
3 13 17 -0.1477 0.0409
3 13 18 -0.3840 -0.0042
3 14 0 -2.9078 0.0002
3 14 1 -3.6022 -0.0139
3 14 2 -1.8950 0.0219
3 14 3 -1.0873 0.0314
3 14 4 -0.9112 -0.0103
3 14 5 1.1588 0.0187
3 14 6 -0.5198 -0.0087
3 14 7 -0.2128 0.0336
3 14 8 0.6191 -0.0022
3 14 9 -1.4354 -0.0051
3 14 10 1.0618 -0.0198
3 14 11 -1.4083 -0.0399
3 14 12 0.9521 -0.0053
3 14 13 0.7636 -0.0538
3 14 14 -0.8556 -0.0370
3 14 15 0.3100 0.0116
3 14 16 0.0759 -0.0494
3 14 17 -0.2346 -0.0999
3 15 0 0.6385 0.0139
3 15 1 1.8807 -0.0081
3 15 2 -0.4588 0.0023
3 15 3 0.8560 -0.0158
3 15 4 1.1193 -0.0258
3 15 5 0.4339 -0.0245
3 15 6 1.0442 -0.0304
3 15 7 -0.3959 -0.0108
3 15 8 1.9429 -0.0035
3 15 9 -0.1670 -0.0001
3 15 10 0.5990 -0.0198
3 15 11 0.9829 0.0535
3 15 12 -1.6076 0.0208
3 15 13 0.3682 -0.0645
3 15 14 -1.0259 0.0248
3 15 15 -0.0995 -0.1045
3 15 16 -0.0339 -0.1286
3 16 0 2.9149 0.0191
3 16 1 -1.5606 0.0057
3 16 2 -1.9699 0.0122
3 16 3 -0.9179 0.0068
3 16 4 -0.2161 0.0361
3 16 5 -1.1082 -0.0472
3 16 6 0.7561 -0.0089
3 16 7 -0.9560 0.0257
3 16 8 -0.0057 0.0372
3 16 9 -0.3620 -0.0003
3 16 10 0.4556 -0.0054
3 16 11 -0.3756 -0.0039
3 16 12 -0.9932 0.0043
3 16 13 0.5684 -0.0353
3 16 14 -0.1713 0.0275
3 17 0 -1.1232 -0.0353
3 17 1 2.7967 0.0033
3 17 2 -0.6931 0.0185
3 17 3 -0.0509 -0.0406
3 17 4 0.8331 0.0242
3 17 5 -0.2118 -0.0193
3 17 6 0.4065 0.0052
3 17 7 -0.2854 -0.0142
3 17 8 0.8471 0.0190
3 17 9 0.6877 -0.0074
3 17 10 0.4955 0.0546
3 17 11 0.5608 -0.0401
3 17 12 0.3615 -0.0034
3 17 13 0.8061 -0.1924
3 18 0 1.3665 0.0186
3 18 1 2.3406 0.0150
3 18 2 -0.6525 -0.0080
3 18 3 -0.6535 0.0373
3 18 4 0.6617 -0.0209
3 18 5 -0.1369 0.0604
3 18 6 0.2480 0.0620
3 18 7 1.3719 -0.0811
3 18 8 -0.0733 0.0937
3 18 9 1.3303 -0.1011
3 18 10 0.8066 0.0359
3 18 11 1.5423 0.0788
3 19 0 -1.1520 -0.0461
3 19 1 1.2209 0.0049
3 19 2 0.6965 -0.0493
3 19 3 1.1301 0.0772
3 19 4 0.5007 -0.1582
3 19 5 0.7909 0.0590
3 19 6 0.2413 0.0192
3 19 7 0.1478 -0.0196
3 19 8 0.1560 0.1577
3 19 9 0.6061 0.0095
3 20 0 -0.5978 0.0401
3 20 1 0.6980 -0.0015
3 20 2 0.3194 -0.0042
3 20 3 -1.2520 0.0210
3 20 4 0.4719 0.0352
3 20 5 -1.1930 0.0262
3 20 6 0.4277 0.3569
4 0 0 -31.6540 -0.1725
4 0 2 -56.5398 -0.2313
4 0 4 7.9355 0.0908
4 0 6 38.8184 -0.0576
4 0 8 25.5217 0.0050
4 0 10 1.4206 0.0253
4 0 12 -13.6155 -0.0138
4 0 14 -4.6019 0.0168
4 0 16 2.2249 0.0070
4 0 18 2.0136 0.0007
4 0 20 -0.1967 -0.0262
4 0 22 -0.5959 0.0048
4 1 0 -36.6512 -0.1285
4 1 1 82.2866 0.3833
4 1 2 7.8711 -0.1705
4 1 3 4.8963 -0.0558
4 1 4 23.3713 0.1269
4 1 5 -26.5512 0.0096
4 1 6 13.4732 0.0205
4 1 7 -19.9613 0.0187
4 1 8 -4.8865 -0.0286
4 1 9 -2.1710 -0.0129
4 1 10 -7.5829 0.0286
4 1 11 6.6949 -0.0093
4 1 12 -3.2293 -0.0380
4 1 13 7.1628 -0.0169
4 1 14 2.7408 0.0218
4 1 15 -1.3377 0.0400
4 1 16 1.8776 -0.0238
4 1 17 -2.0067 -0.0194
4 1 18 -0.6407 -0.0001
4 1 19 -1.0795 -0.0382
4 1 20 -0.8397 0.0413
4 1 21 -0.6662 -0.0648
4 1 22 0.6912 0.0909
4 1 23 -0.1690 -0.0152
4 2 0 -22.9861 -0.0537
4 2 1 32.7202 0.2842
4 2 2 -9.3263 -0.0806
4 2 3 -29.8398 -0.0372
4 2 4 17.3899 0.0086
4 2 5 -32.5346 -0.0744
4 2 6 19.3439 0.0037
4 2 7 -2.0454 0.0516
4 2 8 7.9193 0.0075
4 2 9 14.5080 -0.0227
4 2 10 -3.5252 0.0137
4 2 11 10.1194 0.0218
4 2 12 -6.5877 0.0196
4 2 13 -2.6768 -0.0031
4 2 14 -2.6648 0.0027
4 2 15 -4.3633 -0.0135
4 2 16 -0.1216 0.0081
4 2 17 -0.8641 0.0226
4 2 18 1.0838 0.0214
4 2 19 1.0039 -0.0592
4 2 20 0.5209 0.0500
4 2 21 0.4862 0.0416
4 2 22 0.2255 0.0513
4 2 23 -0.1525 0.1808
4 3 0 -7.6266 -0.0032
4 3 1 5.3127 0.0401
4 3 2 16.8197 -0.0835
4 3 3 -19.4009 0.0397
4 3 4 23.3653 0.0873
4 3 5 -14.9675 0.0523
4 3 6 10.2429 -0.0071
4 3 7 2.1750 -0.0083
4 3 8 -9.8395 -0.0466
4 3 9 7.5256 -0.0315
4 3 10 -7.9676 -0.0081
4 3 11 3.1921 -0.0040
4 3 12 -2.0940 -0.0302
4 3 13 -1.7944 -0.0146
4 3 14 2.1476 0.0107
4 3 15 -0.8125 -0.0146
4 3 16 1.5290 -0.0072
4 3 17 1.3372 -0.0162
4 3 18 0.4077 -0.0189
4 3 19 0.3624 0.0292
4 3 20 -0.5827 -0.0193
4 3 21 -1.5176 -0.0036
4 3 22 -0.8312 -0.0331
4 3 23 0.2178 0.0009
4 4 0 -12.0574 0.0725
4 4 1 8.7972 0.0902
4 4 2 13.3514 -0.0836
4 4 3 -8.2429 0.0304
4 4 4 9.9629 -0.0636
4 4 5 -10.8837 -0.0087
4 4 6 -3.1531 0.0586
4 4 7 0.1703 0.0353
4 4 8 -7.4312 -0.0240
4 4 9 7.3196 -0.0466
4 4 10 -2.5989 -0.0023
4 4 11 4.1574 0.0057
4 4 12 1.3865 0.0303
4 4 13 -0.0743 0.0135
4 4 14 -1.5033 0.0068
4 4 15 -1.2546 0.0049
4 4 16 -2.3298 0.0147
4 4 17 -0.3310 0.0437
4 4 18 -0.7122 0.0029
4 4 19 0.3012 0.0131
4 4 20 -1.7086 -0.0307
4 4 21 -0.1067 0.0277
4 4 22 -0.3997 -0.0111
4 5 0 31.4430 0.0298
4 5 1 2.5359 -0.0230
4 5 2 8.0370 0.0106
4 5 3 -4.0141 0.0846
4 5 4 -1.0581 0.0243
4 5 5 -6.5281 -0.0528
4 5 6 0.0633 -0.0007
4 5 7 -1.3177 -0.0104
4 5 8 2.3841 -0.0151
4 5 9 0.3314 -0.0110
4 5 10 4.3435 0.0071
4 5 11 -1.2059 -0.0179
4 5 12 0.0679 0.0189
4 5 13 -1.9087 0.0419
4 5 14 -2.2492 0.0171
4 5 15 1.1875 -0.0531
4 5 16 -1.1035 0.0009
4 5 17 1.8108 -0.0042
4 5 18 0.3934 -0.0533
4 5 19 0.7764 0.0582
4 5 20 1.8670 -0.0236
4 5 21 -0.0345 0.0871
4 5 22 -0.1161 0.0602
4 6 1 4.5771 -0.0193
4 6 2 -3.6578 -0.0367
4 6 3 8.4361 0.0112
4 6 4 1.5156 0.0207
4 6 5 -0.3967 0.0054
4 6 6 9.4180 -0.0000
4 6 7 -6.8604 -0.0030
4 6 8 4.7952 -0.0243
4 6 9 -6.0737 -0.0313
4 6 10 -1.2910 0.0000
4 6 11 1.4574 -0.0207
4 6 12 -1.4615 -0.0159
4 6 13 4.2406 0.0115
4 6 14 -0.6663 -0.0224
4 6 15 1.5732 -0.0192
4 6 16 -0.9413 -0.0045
4 6 17 -1.4049 -0.0244
4 6 18 -0.1820 -0.0385
4 6 19 -0.6352 0.0333
4 6 20 -0.1228 -0.0088
4 6 21 -0.6710 0.0740
4 6 22 -0.6160 0.1077
4 7 0 11.6780 0.0404
4 7 1 14.5135 0.0185
4 7 2 1.0850 0.0152
4 7 3 7.7790 -0.0222
4 7 4 -1.2605 0.0104
4 7 5 -9.0575 -0.0151
4 7 6 5.2526 0.0330
4 7 7 -10.2964 0.0309
4 7 8 3.9269 0.0023
4 7 9 -1.1736 -0.0271
4 7 10 0.6632 0.0047
4 7 11 4.5435 0.0026
4 7 12 -2.4510 0.0172
4 7 13 2.1691 0.0322
4 7 14 -1.7019 -0.0140
4 7 15 -0.2805 -0.0103
4 7 16 0.1566 -0.0356
4 7 17 -0.9971 0.0581
4 7 18 0.3200 0.0407
4 7 19 -1.6872 -0.0044
4 7 20 0.2165 0.0712
4 7 21 -0.1216 0.0177
4 8 0 -7.7020 -0.0181
4 8 1 7.4905 -0.0217
4 8 2 -7.5889 0.0052
4 8 3 1.3198 0.0118
4 8 4 2.8978 -0.0241
4 8 5 -6.7947 -0.0178
4 8 6 10.5420 -0.0378
4 8 7 -4.2546 -0.0377
4 8 8 4.7259 0.0191
4 8 9 2.8610 0.0093
4 8 10 -5.3208 -0.0157
4 8 11 5.3652 -0.0101
4 8 12 -4.5460 0.0063
4 8 13 2.0648 -0.0085
4 8 14 -0.5345 -0.0046
4 8 15 -0.6716 -0.0179
4 8 16 2.1873 -0.0742
4 8 17 -1.9594 0.0577
4 8 18 0.0276 -0.0789
4 8 19 -0.9839 0.0097
4 8 20 0.5865 -0.0627
4 8 21 -0.0053 -0.0036
4 9 0 5.1394 0.0085
4 9 1 2.1686 0.0022
4 9 2 6.4404 0.0030
4 9 3 3.2427 0.0244
4 9 4 7.7953 0.0059
4 9 5 -3.5259 0.0203
4 9 6 5.2089 0.0098
4 9 7 -1.8745 0.0016
4 9 8 -1.5401 0.0217
4 9 9 0.3337 0.0337
4 9 10 -5.8362 0.0117
4 9 11 3.2437 0.0168
4 9 12 -3.1012 0.0024
4 9 13 0.6562 -0.0394
4 9 14 0.7251 0.0074
4 9 15 -1.4451 -0.0230
4 9 16 1.7950 -0.0357
4 9 17 -0.7724 0.1008
4 9 18 -0.0579 -0.0497
4 9 19 -0.3673 0.0505
4 9 20 -1.1041 0.0024
4 10 0 -4.4173 0.0168
4 10 1 2.7455 0.0279
4 10 2 0.1716 0.0074
4 10 3 0.0789 -0.0009
4 10 4 2.2776 -0.0386
4 10 5 -2.9435 0.0014
4 10 6 2.3714 0.0112
4 10 7 -2.4585 0.0068
4 10 8 -0.1574 0.0079
4 10 9 3.7831 -0.0036
4 10 10 -3.3883 -0.0112
4 10 11 3.9995 0.0074
4 10 12 -2.1955 0.0235
4 10 13 0.5792 0.0330
4 10 14 0.2779 0.0148
4 10 15 -2.4401 -0.0426
4 10 16 1.8701 -0.0314
4 10 17 -0.6567 0.0534
4 10 18 0.0964 -0.0316
4 10 19 0.2032 0.0830
4 10 20 -0.1675 -0.0141
4 11 0 2.2378 -0.0234
4 11 1 0.5614 0.0124
4 11 2 1.4430 -0.0076
4 11 3 1.9786 0.0186
4 11 4 5.0580 0.0047
4 11 5 2.1756 -0.0037
4 11 6 2.6859 -0.0166
4 11 7 -0.4416 0.0034
4 11 8 0.0092 -0.0089
4 11 9 -0.4168 0.0320
4 11 10 -3.1638 0.0190
4 11 11 0.4600 0.0142
4 11 12 -0.7412 -0.0475
4 11 13 -0.4699 0.0211
4 11 14 0.4803 -0.0126
4 11 15 -1.4931 -0.0612
4 11 16 1.5489 0.0111
4 11 17 -0.0514 0.0227
4 11 18 0.7982 -0.2073
4 11 19 0.1146 0.1424
4 12 0 -1.5380 -0.0217
4 12 1 -0.4546 0.0261
4 12 2 2.3812 -0.0155
4 12 3 -1.3645 0.0277
4 12 4 1.3327 -0.0059
4 12 5 -1.4007 0.0107
4 12 6 -0.5488 0.0080
4 12 7 -1.4734 0.0102
4 12 8 -1.8069 -0.0409
4 12 9 0.6828 0.0123
4 12 10 -1.0937 -0.0057
4 12 11 1.2313 0.0290
4 12 12 0.5600 -0.0108
4 12 13 0.6850 0.0553
4 12 14 1.4797 -0.0230
4 12 15 0.1426 -0.0268
4 12 16 1.7739 0.0860
4 12 17 -0.4561 -0.0115
4 12 18 0.6477 0.0641
4 13 0 1.6753 -0.0303
4 13 1 -0.5388 0.0295
4 13 2 0.5485 -0.0035
4 13 3 -1.5607 -0.0089
4 13 4 0.3293 -0.0134
4 13 5 0.8541 -0.0110
4 13 6 0.0230 0.0324
4 13 7 -0.5065 0.0339
4 13 8 0.3875 0.0114
4 13 9 -0.3314 -0.0179
4 13 10 -0.1177 0.0085
4 13 11 0.3475 -0.0057
4 13 12 -0.6916 -0.0187
4 13 13 1.4582 0.0598
4 13 14 -0.3183 -0.0718
4 13 15 -0.3073 0.0112
4 13 16 -0.5100 0.0007
4 13 17 -0.3296 -0.0191
4 13 18 -0.1315 -0.0702
4 14 0 -2.6952 -0.0038
4 14 1 -3.5789 0.0103
4 14 2 -1.7230 -0.0005
4 14 3 -0.7810 0.0306
4 14 4 -0.8712 -0.0147
4 14 5 1.2031 -0.0095
4 14 6 0.2598 -0.0148
4 14 7 -0.7620 0.0177
4 14 8 0.4782 -0.0239
4 14 9 -0.9200 -0.0149
4 14 10 0.4274 -0.0077
4 14 11 -0.0076 -0.0397
4 14 12 0.6732 0.0067
4 14 13 0.8064 0.0069
4 14 14 -0.4102 -0.0456
4 14 15 -0.1281 0.0165
4 14 16 0.6152 0.0544
4 14 17 -0.2780 -0.1397
4 15 0 1.2296 0.0047
4 15 1 2.1288 -0.0189
4 15 2 0.3101 -0.0161
4 15 3 0.4595 -0.0006
4 15 4 0.9370 -0.0279
4 15 5 -0.2082 0.0017
4 15 6 1.0535 0.0006
4 15 7 -0.8250 -0.0149
4 15 8 1.3814 0.0194
4 15 9 -0.1700 0.0328
4 15 10 -0.6723 -0.0034
4 15 11 1.1749 0.0235
4 15 12 -1.8850 0.0055
4 15 13 0.3210 -0.1084
4 15 14 -0.3416 -0.0595
4 15 15 -0.4212 -0.0730
4 16 0 0.7737 0.0185
4 16 1 -1.6312 0.0047
4 16 2 -1.5538 0.0158
4 16 3 -1.4972 -0.0285
4 16 4 0.1657 0.0218
4 16 5 -1.0703 -0.0202
4 16 6 0.3556 -0.0184
4 16 7 -0.7215 0.0301
4 16 8 -0.5235 0.0242
4 16 9 0.2259 -0.0507
4 16 10 -0.2424 0.0159
4 16 11 0.0783 0.0089
4 16 12 -0.7094 0.0616
4 16 13 0.7275 -0.0060
4 16 14 0.3901 -0.0408
4 17 0 -1.3320 -0.0253
4 17 1 2.5374 -0.0052
4 17 2 0.0905 0.0226
4 17 3 -0.3912 -0.0404
4 17 4 0.3554 0.0137
4 17 5 0.2054 0.0141
4 17 6 -0.1306 0.0044
4 17 7 0.1994 -0.0184
4 17 8 0.7766 0.0161
4 17 9 0.7659 -0.0364
4 17 10 0.1124 0.0148
4 17 11 0.8481 -0.1217
4 17 12 0.1961 -0.0069
4 17 13 0.7053 -0.2276
4 18 0 -0.1914 0.0093
4 18 1 1.3193 -0.0003
4 18 2 -0.0554 -0.0173
4 18 3 -0.7893 0.0114
4 18 4 0.8182 0.0048
4 18 5 0.5715 0.0224
4 18 6 -0.2174 0.0926
4 18 7 1.1809 -0.1188
4 18 8 0.0387 0.1107
4 18 9 1.2445 -0.0585
4 18 10 0.8591 0.0698
4 18 11 1.4116 0.1855
4 19 0 -0.8762 -0.0406
4 19 1 0.9311 0.0294
4 19 2 0.5810 -0.0687
4 19 3 0.5883 0.0588
4 19 4 -0.3702 -0.0994
4 19 5 0.2881 0.0012
4 19 6 -0.1101 0.1178
4 19 7 -0.0880 0.0192
4 19 8 0.2368 0.0467
4 19 9 0.3150 0.0001
4 20 0 -0.5695 0.0363
4 20 1 -0.1650 0.0010
4 20 2 0.9216 -0.0357
4 20 3 -1.2346 0.0156
4 20 4 1.0661 0.1671
4 20 5 -0.7259 -0.0344
5 0 0 -36.7804 -0.2468
5 0 2 -16.9975 -0.0324
5 0 4 30.2288 0.0424
5 0 6 34.6694 -0.0630
5 0 8 13.6934 0.0138
5 0 10 -8.4076 0.0102
5 0 12 -12.6014 -0.0075
5 0 14 1.5815 0.0109
5 0 16 4.1307 0.0139
5 0 18 1.2339 -0.0041
5 0 20 -0.5567 0.0063
5 0 22 0.1862 0.0162
5 1 0 -17.4529 -0.1728
5 1 1 32.7565 0.1125
5 1 2 20.5864 0.0031
5 1 3 -27.4598 -0.0799
5 1 4 18.0124 0.0907
5 1 5 -27.6394 0.0735
5 1 6 2.5912 -0.0487
5 1 7 -9.8347 -0.0083
5 1 8 -9.2754 -0.0196
5 1 9 6.3865 0.0154
5 1 10 -5.9856 -0.0090
5 1 11 8.9700 -0.0090
5 1 12 -0.4283 -0.0141
5 1 13 2.5926 -0.0026
5 1 14 3.3033 0.0201
5 1 15 -4.0558 0.0102
5 1 16 0.7808 -0.0130
5 1 17 -1.9529 -0.0441
5 1 18 -1.1022 0.0195
5 1 19 -0.8589 -0.0441
5 1 20 -0.4190 -0.0434
5 1 21 -0.1235 -0.0534
5 1 22 0.6842 -0.0021
5 1 23 0.1090 0.0374
5 2 0 -10.3263 -0.0873
5 2 1 -1.1767 0.1372
5 2 2 16.9332 0.0063
5 2 3 -38.5344 -0.1886
5 2 4 26.2636 -0.0029
5 2 5 -18.8646 0.0662
5 2 6 12.6903 0.0081
5 2 7 9.8737 0.0394
5 2 8 -0.5542 0.0003
5 2 9 16.0146 -0.0462
5 2 10 -6.9066 -0.0065
5 2 11 5.5264 0.0335
5 2 12 -3.9388 0.0094
5 2 13 -5.8622 -0.0345
5 2 14 0.5427 -0.0137
5 2 15 -3.4746 -0.0045
5 2 16 1.2149 0.0335
5 2 17 0.5107 0.0031
5 2 18 1.5020 0.0341
5 2 19 0.6530 -0.0171
5 2 20 0.4891 0.0470
5 2 21 -0.2165 0.0856
5 2 22 0.2009 0.0068
5 3 0 3.1682 -0.1053
5 3 1 -21.8012 0.0693
5 3 2 24.4422 0.0405
5 3 3 -26.4502 0.0335
5 3 4 17.1820 0.0469
5 3 5 -7.1245 0.0154
5 3 6 -3.2474 -0.0659
5 3 7 9.5501 -0.0004
5 3 8 -14.4211 -0.0068
5 3 9 8.8542 -0.0313
5 3 10 -4.6126 -0.0208
5 3 11 1.1111 -0.0103
5 3 12 1.2190 0.0209
5 3 13 -3.3574 -0.0128
5 3 14 3.0347 0.0199
5 3 15 -0.7986 -0.0223
5 3 16 0.5245 0.0004
5 3 17 0.9995 -0.0150
5 3 18 -0.4419 0.0133
5 3 19 -0.3481 0.0140
5 3 20 -0.8968 -0.0362
5 3 21 -1.2626 -0.0506
5 3 22 -0.8969 -0.0370
5 4 0 2.3342 -0.0506
5 4 1 -3.9126 0.0741
5 4 2 21.4410 -0.0939
5 4 3 -15.0394 -0.0159
5 4 4 7.3168 0.0320
5 4 5 -4.9563 0.0261
5 4 6 -9.1707 0.0325
5 4 7 6.5390 0.0004
5 4 8 -10.0536 -0.0226
5 4 9 6.9149 -0.0529
5 4 10 -0.8439 0.0098
5 4 11 1.5609 0.0080
5 4 12 2.7289 0.0378
5 4 13 -1.6659 -0.0122
5 4 14 -1.6312 0.0313
5 4 15 -1.4875 -0.0064
5 4 16 -1.5170 -0.0037
5 4 17 -0.2512 0.0042
5 4 18 -0.1356 -0.0031
5 4 19 0.2634 -0.0168
5 4 20 -0.8349 0.0408
5 4 21 0.2048 -0.0214
5 4 22 0.4214 0.0408
5 5 0 22.7657 0.0004
5 5 1 -6.5545 0.0563
5 5 2 3.1965 -0.0091
5 5 3 -10.4585 0.0042
5 5 4 -1.5825 0.0253
5 5 5 -4.4983 -0.0593
5 5 6 -1.4957 -0.0087
5 5 7 2.3474 0.0296
5 5 8 2.2857 0.0074
5 5 9 0.2254 -0.0357
5 5 10 3.3311 0.0162
5 5 11 -2.4182 0.0023
5 5 12 -0.6006 0.0263
5 5 13 -1.8549 -0.0066
5 5 14 -1.0993 0.0234
5 5 15 1.4361 -0.0780
5 5 16 -0.1879 0.0133
5 5 17 0.7564 0.0073
5 5 18 0.7901 -0.0172
5 5 19 0.0458 0.0262
5 5 20 1.2945 0.0736
5 5 21 0.0284 0.0269
5 5 22 -0.5047 0.1195
5 6 0 1.0126 -0.0238
5 6 1 6.8695 -0.0040
5 6 2 2.1776 0.0037
5 6 3 3.6992 0.0247
5 6 4 6.7583 0.0351
5 6 5 -3.2132 -0.0074
5 6 6 7.1544 -0.0468
5 6 7 -4.3443 -0.0010
5 6 8 -0.5217 -0.0011
5 6 9 -2.3714 -0.0352
5 6 10 -2.4249 -0.0154
5 6 11 3.5140 -0.0086
5 6 12 -0.6576 -0.0180
5 6 13 3.2088 0.0014
5 6 14 -0.2519 0.0166
5 6 15 -0.1050 -0.0439
5 6 16 0.0812 0.0026
5 6 17 -1.9399 -0.0378
5 6 18 0.3105 -0.0173
5 6 19 -0.7335 -0.0139
5 6 20 -0.2474 0.0808
5 6 21 -0.1951 0.0118
5 6 22 -0.4091 0.2074
5 7 0 5.2830 0.0131
5 7 1 11.7840 -0.0125
5 7 2 -0.4945 -0.0387
5 7 3 -1.7682 -0.0326
5 7 4 1.2661 0.0139
5 7 5 -12.1645 0.0066
5 7 6 4.0077 0.0110
5 7 7 -4.7559 0.0204
5 7 8 0.6616 -0.0045
5 7 9 3.5480 -0.0265
5 7 10 -1.6970 0.0188
5 7 11 4.3027 0.0254
5 7 12 -1.6958 0.0023
5 7 13 0.3165 0.0043
5 7 14 0.1561 -0.0140
5 7 15 -1.1534 -0.0049
5 7 16 1.1983 0.0077
5 7 17 -1.5791 0.0246
5 7 18 0.1722 0.0920
5 7 19 -1.7150 -0.0618
5 7 20 -0.3780 0.0764
5 7 21 0.3000 0.0031
5 8 0 -8.0111 -0.0096
5 8 1 5.3178 0.0105
5 8 2 -2.2186 0.0083
5 8 3 -2.4250 0.0073
5 8 4 8.7186 -0.0378
5 8 5 -6.3723 -0.0344
5 8 6 6.8509 -0.0220
5 8 7 1.3928 -0.0157
5 8 8 -1.8151 0.0147
5 8 9 6.0403 0.0122
5 8 10 -6.8936 -0.0315
5 8 11 4.3642 -0.0079
5 8 12 -2.4964 0.0105
5 8 13 -0.4057 -0.0100
5 8 14 1.4016 -0.0330
5 8 15 -1.9413 -0.0102
5 8 16 2.4858 -0.0582
5 8 17 -1.2718 0.0218
5 8 18 0.2881 0.0061
5 8 19 -0.2567 -0.0813
5 8 20 0.7774 0.0122
5 8 21 0.1257 -0.0422
5 9 0 7.0577 -0.0124
5 9 1 0.3803 0.0208
5 9 2 7.4038 -0.0002
5 9 3 -0.5177 0.0428
5 9 4 7.4952 0.0068
5 9 5 -3.8322 -0.0077
5 9 6 0.2053 -0.0127
5 9 7 1.4276 0.0109
5 9 8 -6.3391 0.0154
5 9 9 2.2992 0.0352
5 9 10 -5.8012 0.0078
5 9 11 1.7167 -0.0179
5 9 12 -0.2238 -0.0018
5 9 13 -1.5200 -0.0250
5 9 14 2.4448 -0.0055
5 9 15 -1.7518 0.0570
5 9 16 1.0594 -0.0486
5 9 17 -0.0527 0.0718
5 9 18 -0.9756 0.0171
5 9 19 -0.4273 -0.0810
5 9 20 -1.2306 0.0047
5 10 0 -3.0414 0.0052
5 10 1 0.7646 0.0166
5 10 2 0.9176 -0.0151
5 10 3 -0.3162 -0.0022
5 10 4 3.6056 -0.0283
5 10 5 -0.5859 0.0046
5 10 6 0.8892 0.0148
5 10 7 1.6666 -0.0130
5 10 8 -2.6001 -0.0127
5 10 9 5.6539 0.0076
5 10 10 -3.3698 0.0116
5 10 11 2.1054 0.0238
5 10 12 -0.1383 0.0382
5 10 13 -1.7592 -0.0102
5 10 14 1.8212 -0.0184
5 10 15 -2.7624 -0.0158
5 10 16 1.2214 -0.0825
5 10 17 0.3410 0.0627
5 10 18 -0.2025 0.0464
5 10 19 0.5138 -0.0841
5 10 20 0.3047 0.1516
5 11 0 3.9377 -0.0053
5 11 1 0.0276 0.0168
5 11 2 2.5418 0.0056
5 11 3 1.5684 0.0113
5 11 4 5.4115 -0.0030
5 11 5 1.3725 0.0011
5 11 6 0.3167 -0.0213
5 11 7 0.0305 0.0128
5 11 8 -2.8168 0.0044
5 11 9 0.5272 0.0108
5 11 10 -3.0301 0.0024
5 11 11 -0.4103 0.0170
5 11 12 0.6004 -0.0470
5 11 13 -1.7357 -0.0004
5 11 14 1.2714 0.0280
5 11 15 -1.0740 -0.0284
5 11 16 1.2128 -0.0450
5 11 17 0.6409 0.1133
5 11 18 0.1879 -0.1642
5 11 19 -0.0576 0.0500
5 12 0 1.0878 -0.0223
5 12 1 -1.6029 0.0124
5 12 2 1.4861 0.0063
5 12 3 -1.4388 0.0187
5 12 4 0.4278 0.0059
5 12 5 -0.7848 -0.0063
5 12 6 -0.7167 -0.0071
5 12 7 -0.4342 0.0165
5 12 8 -2.6531 -0.0304
5 12 9 1.6466 0.0277
5 12 10 -0.8464 0.0081
5 12 11 1.0955 0.0376
5 12 12 0.8966 -0.0149
5 12 13 0.0894 0.0134
5 12 14 1.8903 0.0432
5 12 15 -0.3401 -0.0292
5 12 16 1.2020 0.0655
5 12 17 -0.3952 0.0857
5 12 18 -0.0661 -0.0309
5 13 0 2.3804 -0.0091
5 13 1 -1.8133 0.0154
5 13 2 0.2641 0.0173
5 13 3 -1.7697 -0.0170
5 13 4 -0.2999 0.0187
5 13 5 0.4821 0.0173
5 13 6 -0.0199 0.0430
5 13 7 -0.7147 0.0187
5 13 8 -0.2449 -0.0061
5 13 9 0.0162 -0.0440
5 13 10 -0.4730 0.0022
5 13 11 0.6274 0.0085
5 13 12 -0.7909 -0.0514
5 13 13 1.0734 0.0194
5 13 14 -0.4630 -0.0277
5 13 15 -0.8532 -0.0543
5 13 16 -0.1829 0.0142
5 13 17 -0.2239 0.0561
5 14 0 -1.7144 -0.0136
5 14 1 -2.7860 0.0024
5 14 2 -1.3703 -0.0207
5 14 3 0.5958 -0.0144
5 14 4 -0.3101 -0.0095
5 14 5 1.4157 -0.0413
5 14 6 0.7208 -0.0181
5 14 7 -0.6932 0.0219
5 14 8 -0.2815 -0.0256
5 14 9 0.1208 -0.0181
5 14 10 -0.0991 0.0297
5 14 11 0.7112 -0.0065
5 14 12 0.6102 0.0019
5 14 13 0.2038 0.0414
5 14 14 0.0549 -0.0199
5 14 15 -0.5129 -0.0402
5 14 16 0.7399 0.0990
5 15 0 1.5586 0.0038
5 15 1 1.5611 -0.0075
5 15 2 0.2112 -0.0094
5 15 3 -0.6643 0.0317
5 15 4 0.1928 0.0063
5 15 5 -1.0729 0.0052
5 15 6 0.6354 0.0402
5 15 7 -0.8416 -0.0138
5 15 8 0.0056 0.0242
5 15 9 0.0412 0.0431
5 15 10 -1.4384 -0.0108
5 15 11 1.1165 -0.0290
5 15 12 -1.2718 -0.0370
5 15 13 0.1066 -0.0993
5 15 14 0.2790 -0.0823
5 15 15 -0.4402 -0.0530
5 16 0 -0.4765 0.0055
5 16 1 -1.3121 -0.0135
5 16 2 -0.7245 0.0003
5 16 3 -1.0954 -0.0614
5 16 4 0.2661 0.0071
5 16 5 -0.8200 0.0028
5 16 6 -0.0052 -0.0146
5 16 7 -0.3391 -0.0076
5 16 8 -1.0019 0.0194
5 16 9 0.9169 -0.0699
5 16 10 -0.5263 0.0596
5 16 11 0.1990 0.0503
5 16 12 -0.0515 0.0468
5 16 13 0.7077 0.0176
5 16 14 0.5952 -0.1439
5 17 0 -1.0879 0.0124
5 17 1 1.8171 -0.0123
5 17 2 0.3108 0.0255
5 17 3 -0.3284 -0.0145
5 17 4 -0.5176 0.0026
5 17 5 0.8442 0.0316
5 17 6 -0.4259 0.0223
5 17 7 0.2865 -0.0519
5 17 8 0.3713 0.0001
5 17 9 0.5350 -0.0779
5 17 10 -0.3669 -0.0185
5 17 11 0.8987 -0.1584
5 17 12 0.0856 0.0301
5 18 0 -0.7148 -0.0023
5 18 1 0.5817 -0.0397
5 18 2 0.7134 -0.0117
5 18 3 -0.2398 -0.0163
5 18 4 0.4501 0.0250
5 18 5 0.5731 0.0009
5 18 6 -0.2634 0.1106
5 18 7 0.5712 -0.1337
5 18 8 0.3773 0.1322
5 18 9 1.2523 0.0204
5 18 10 0.8956 0.0426
5 19 0 -0.7861 0.0049
5 19 1 0.1072 0.0221
5 19 2 -0.1614 -0.0511
5 19 3 0.1165 0.0002
5 19 4 -1.1541 -0.0173
5 19 5 0.2473 -0.0056
5 19 6 -0.0483 0.1306
5 19 7 -0.2711 0.0709
5 19 8 0.0743 -0.1460
5 20 0 -0.2803 0.0173
5 20 1 -0.3974 -0.0072
5 20 2 1.7996 -0.0044
5 20 3 -1.0069 -0.0085
5 20 4 1.1277 0.2873
5 20 5 -0.5139 -0.0819
6 0 0 -15.1446 -0.0448
6 0 2 13.2455 0.0023
6 0 4 32.4798 0.0037
6 0 6 22.2798 -0.0347
6 0 8 1.2744 -0.0106
6 0 10 -12.4229 0.0155
6 0 12 -6.1504 -0.0170
6 0 14 6.3384 0.0085
6 0 16 3.7026 0.0088
6 0 18 0.2911 -0.0032
6 0 20 -0.3739 0.0144
6 0 22 0.9005 -0.0061
6 1 0 -3.8951 -0.0342
6 1 1 -10.5470 -0.1030
6 1 2 19.9933 0.0699
6 1 3 -35.4501 0.0092
6 1 4 7.8414 -0.0427
6 1 5 -15.7557 0.0587
6 1 6 -4.8807 -0.0326
6 1 7 1.5090 -0.0000
6 1 8 -9.8636 -0.0214
6 1 9 11.6035 0.0309
6 1 10 -2.9888 -0.0260
6 1 11 6.1935 -0.0090
6 1 12 2.2404 0.0208
6 1 13 -2.6716 0.0046
6 1 14 3.0455 0.0048
6 1 15 -4.4595 -0.0284
6 1 16 -0.4467 0.0122
6 1 17 -0.8628 -0.0285
6 1 18 -1.0134 -0.0070
6 1 19 -0.2298 -0.0299
6 1 20 0.0056 -0.1071
6 1 21 0.4117 -0.0196
6 1 22 0.4907 0.0210
6 2 0 12.7911 0.0050
6 2 1 -24.3698 -0.1093
6 2 2 27.6879 0.0504
6 2 3 -31.6479 -0.1059
6 2 4 18.1926 -0.0227
6 2 5 -3.1027 0.1521
6 2 6 1.5132 0.0119
6 2 7 15.9243 -0.0395
6 2 8 -6.6495 -0.0207
6 2 9 12.5102 -0.0343
6 2 10 -5.9457 -0.0217
6 2 11 0.2017 0.0134
6 2 12 0.4851 -0.0076
6 2 13 -7.1401 -0.0358
6 2 14 2.6291 -0.0112
6 2 15 -1.7595 0.0018
6 2 16 1.3913 0.0401
6 2 17 1.1028 0.0072
6 2 18 1.1501 0.0209
6 2 19 0.0642 0.0385
6 2 20 0.2545 0.0345
6 2 21 -0.5058 0.0493
6 2 22 0.3472 -0.0206
6 3 0 13.6634 -0.0353
6 3 1 -40.4873 0.0243
6 3 2 21.6049 0.0853
6 3 3 -20.4275 0.0030
6 3 4 2.8394 -0.0650
6 3 5 5.2619 0.0096
6 3 6 -13.7259 -0.0201
6 3 7 14.2162 0.0137
6 3 8 -12.6786 0.0174
6 3 9 5.7471 -0.0259
6 3 10 0.4717 -0.0103
6 3 11 -3.2031 0.0015
6 3 12 3.6691 0.0616
6 3 13 -4.1019 0.0003
6 3 14 2.6151 0.0061
6 3 15 -0.0858 -0.0140
6 3 16 -0.7211 0.0208
6 3 17 0.5543 -0.0128
6 3 18 -0.8891 0.0106
6 3 19 -0.6020 -0.0066
6 3 20 -1.0974 -0.0278
6 3 21 -0.6799 -0.0818
6 3 22 -0.7081 -0.0160
6 4 0 18.2342 -0.1138
6 4 1 -12.6287 -0.0077
6 4 2 21.3922 0.0229
6 4 3 -13.0637 -0.0085
6 4 4 -3.0507 0.0427
6 4 5 3.2217 0.0234
6 4 6 -15.7309 -0.0105
6 4 7 8.7032 -0.0410
6 4 8 -8.6632 -0.0036
6 4 9 3.6023 -0.0311
6 4 10 3.3400 -0.0021
6 4 11 -1.5925 -0.0062
6 4 12 3.4428 0.0407
6 4 13 -2.8775 -0.0225
6 4 14 -1.9575 0.0130
6 4 15 -1.0009 -0.0252
6 4 16 -0.6830 -0.0323
6 4 17 0.0011 -0.0269
6 4 18 0.2568 0.0171
6 4 19 0.2869 -0.0365
6 4 20 -0.0414 0.0987
6 4 21 0.4614 -0.0432
6 4 22 0.8320 0.0326
6 5 0 15.1385 -0.0339
6 5 1 -14.0814 0.0200
6 5 2 0.1300 0.0025
6 5 3 -8.4949 -0.0548
6 5 4 -4.6662 0.0250
6 5 5 2.1441 0.0083
6 5 6 -2.4955 -0.0095
6 5 7 4.5649 0.0263
6 5 8 3.8314 0.0250
6 5 9 -1.7816 -0.0305
6 5 10 3.1742 0.0150
6 5 11 -3.5218 0.0120
6 5 12 0.1192 0.0245
6 5 13 -1.3115 -0.0428
6 5 14 0.1334 0.0237
6 5 15 1.2656 -0.0383
6 5 16 0.2980 0.0246
6 5 17 -0.1269 0.0049
6 5 18 0.6547 0.0211
6 5 19 -0.0240 -0.0164
6 5 20 0.6553 0.1301
6 5 21 0.1748 0.0079
6 5 22 -0.5582 0.0891
6 6 0 4.5483 -0.0191
6 6 1 4.7358 0.0077
6 6 2 6.7198 0.0533
6 6 3 0.4667 -0.0032
6 6 4 5.5391 -0.0182
6 6 5 -2.3670 -0.0104
6 6 6 1.2309 -0.0585
6 6 7 -1.8303 0.0004
6 6 8 -3.5672 0.0222
6 6 9 -0.3769 -0.0246
6 6 10 -1.1813 -0.0371
6 6 11 3.4550 0.0135
6 6 12 0.3692 0.0168
6 6 13 1.2922 -0.0190
6 6 14 0.4328 0.0258
6 6 15 -1.2503 -0.0460
6 6 16 1.0494 -0.0054
6 6 17 -1.8598 -0.0364
6 6 18 0.2954 0.0068
6 6 19 -0.3050 -0.0506
6 6 20 -0.4302 0.1421
6 6 21 0.2908 0.0136
6 7 0 -0.2748 -0.0443
6 7 1 4.5816 -0.0289
6 7 2 0.0271 -0.0398
6 7 3 -7.4328 -0.0124
6 7 4 0.7460 0.0183
6 7 5 -8.4616 0.0194
6 7 6 0.5897 -0.0186
6 7 7 1.3377 -0.0035
6 7 8 -1.5735 0.0113
6 7 9 4.7979 -0.0064
6 7 10 -1.8464 0.0073
6 7 11 2.0855 0.0182
6 7 12 0.3687 -0.0124
6 7 13 -1.3578 -0.0249
6 7 14 1.3436 0.0014
6 7 15 -1.7893 0.0001
6 7 16 1.2419 0.0427
6 7 17 -1.8777 -0.0186
6 7 18 -0.4802 0.0918
6 7 19 -1.1253 -0.0776
6 7 20 -0.5897 0.0134
6 7 21 0.7101 0.0192
6 8 0 -5.0748 -0.0018
6 8 1 2.0113 0.0135
6 8 2 4.3003 0.0111
6 8 3 -4.0796 -0.0190
6 8 4 9.3752 -0.0265
6 8 5 -2.0515 -0.0238
6 8 6 -0.0621 -0.0066
6 8 7 6.3612 -0.0033
6 8 8 -5.3774 0.0067
6 8 9 5.7526 0.0139
6 8 10 -5.5674 -0.0262
6 8 11 1.1939 -0.0006
6 8 12 0.0283 0.0102
6 8 13 -2.5205 -0.0140
6 8 14 2.5273 -0.0347
6 8 15 -1.7694 -0.0122
6 8 16 2.1531 0.0190
6 8 17 -0.2110 -0.0259
6 8 18 0.3570 0.0599
6 8 19 0.0725 -0.0976
6 8 20 0.5961 0.0056
6 9 0 6.8638 -0.0180
6 9 1 -3.3246 0.0351
6 9 2 6.5307 0.0108
6 9 3 -2.5361 0.0168
6 9 4 3.9547 -0.0002
6 9 5 -0.5806 -0.0342
6 9 6 -5.2884 -0.0300
6 9 7 4.4342 0.0192
6 9 8 -7.5313 0.0115
6 9 9 1.8375 0.0048
6 9 10 -2.8210 0.0024
6 9 11 -0.7484 -0.0380
6 9 12 2.6457 0.0024
6 9 13 -2.4764 0.0173
6 9 14 2.5446 -0.0184
6 9 15 -0.7576 0.0657
6 9 16 -0.4000 -0.0104
6 9 17 0.5570 -0.0536
6 9 18 -1.4675 0.0501
6 9 19 -0.3688 -0.1374
6 9 20 -0.9399 -0.0897
6 10 0 -1.3122 -0.0086
6 10 1 0.0034 -0.0055
6 10 2 1.9897 -0.0122
6 10 3 1.3265 -0.0023
6 10 4 3.1455 -0.0039
6 10 5 3.5679 -0.0044
6 10 6 -2.1128 0.0118
6 10 7 4.6400 -0.0298
6 10 8 -3.0756 -0.0041
6 10 9 4.8904 0.0231
6 10 10 -1.3982 0.0377
6 10 11 -0.7701 0.0044
6 10 12 1.6808 0.0232
6 10 13 -2.9368 -0.0381
6 10 14 1.7405 -0.0504
6 10 15 -1.5135 0.0176
6 10 16 0.0695 -0.0291
6 10 17 1.3226 -0.0240
6 10 18 -0.0275 0.1997
6 10 19 0.5013 -0.1872
6 11 0 5.3810 0.0172
6 11 1 -0.4356 0.0078
6 11 2 2.5557 0.0074
6 11 3 0.5838 -0.0013
6 11 4 3.4693 -0.0017
6 11 5 1.0882 0.0080
6 11 6 -3.4025 -0.0123
6 11 7 0.4754 -0.0039
6 11 8 -4.0014 0.0134
6 11 9 -0.0993 -0.0104
6 11 10 -1.2502 0.0010
6 11 11 -2.0686 0.0175
6 11 12 1.7177 -0.0127
6 11 13 -2.2378 -0.0093
6 11 14 1.1259 0.0325
6 11 15 0.1630 0.0307
6 11 16 0.3706 -0.0522
6 11 17 1.0435 0.0730
6 11 18 -0.2366 -0.0238
6 11 19 -0.2597 -0.0905
6 12 0 2.5683 0.0025
6 12 1 -1.6710 -0.0033
6 12 2 0.3932 0.0239
6 12 3 -0.2835 0.0020
6 12 4 0.0791 -0.0005
6 12 5 0.6458 -0.0157
6 12 6 -1.5382 -0.0002
6 12 7 0.7081 0.0235
6 12 8 -2.8888 -0.0069
6 12 9 1.8162 0.0179
6 12 10 0.2980 -0.0018
6 12 11 0.3289 0.0046
6 12 12 1.2400 0.0057
6 12 13 -0.6588 -0.0357
6 12 14 1.5458 0.0641
6 12 15 -0.5067 0.0290
6 12 16 0.0053 -0.0162
6 12 17 -0.0972 0.0874
6 12 18 -0.5306 -0.0036
6 13 0 2.1473 0.0245
6 13 1 -2.3044 -0.0062
6 13 2 -0.7714 0.0365
6 13 3 -2.0432 -0.0091
6 13 4 -0.5551 0.0305
6 13 5 0.2102 0.0300
6 13 6 -0.2788 0.0201
6 13 7 -0.5970 -0.0144
6 13 8 -0.9120 -0.0087
6 13 9 0.2548 -0.0487
6 13 10 -0.3433 0.0037
6 13 11 0.7142 0.0134
6 13 12 -0.4744 -0.0414
6 13 13 0.3545 -0.0363
6 13 14 -0.2326 0.0364
6 13 15 -1.0384 -0.0186
6 13 16 0.0553 -0.0114
6 13 17 0.2087 0.1457
6 14 0 -0.6942 -0.0231
6 14 1 -0.4300 -0.0337
6 14 2 -0.9962 -0.0285
6 14 3 2.2737 -0.0569
6 14 4 0.4115 0.0068
6 14 5 1.1429 -0.0294
6 14 6 0.4465 -0.0202
6 14 7 -0.4997 0.0372
6 14 8 -1.2551 -0.0025
6 14 9 0.6041 -0.0165
6 14 10 -0.3056 0.0546
6 14 11 0.5339 0.0278
6 14 12 0.8391 -0.0266
6 14 13 -0.6046 0.0101
6 14 14 0.4807 -0.0014
6 14 15 -0.6996 -0.0791
6 14 16 0.4764 0.0267
6 15 0 1.2792 0.0144
6 15 1 0.4972 0.0147
6 15 2 -0.6276 0.0126
6 15 3 -1.7031 0.0430
6 15 4 -0.3730 0.0382
6 15 5 -1.3123 -0.0128
6 15 6 -0.1249 0.0445
6 15 7 -0.5736 0.0002
6 15 8 -1.3241 0.0011
6 15 9 -0.1203 0.0279
6 15 10 -1.2220 -0.0265
6 15 11 0.7523 -0.0455
6 15 12 -0.3909 -0.0507
6 15 13 0.0599 -0.0502
6 15 14 0.5416 -0.0244
6 15 15 -0.1419 -0.0195
6 16 0 -0.5695 -0.0101
6 16 1 -0.4418 -0.0300
6 16 2 0.2491 -0.0092
6 16 3 -0.2863 -0.0710
6 16 4 0.3254 0.0163
6 16 5 -0.4978 0.0202
6 16 6 -0.0885 -0.0117
6 16 7 0.3266 -0.0444
6 16 8 -1.0677 0.0187
6 16 9 0.9739 -0.0459
6 16 10 -0.2758 0.0729
6 16 11 -0.3505 0.0774
6 16 12 0.4076 -0.0508
6 16 13 0.6383 -0.0060
6 16 14 0.2434 -0.1990
6 17 0 -0.9687 0.0356
6 17 1 0.9482 -0.0219
6 17 2 -0.0873 0.0047
6 17 3 0.0144 0.0066
6 17 4 -1.0190 -0.0014
6 17 5 1.2157 0.0128
6 17 6 -0.6355 0.0413
6 17 7 0.0931 -0.0845
6 17 8 -0.2349 -0.0386
6 17 9 0.2716 -0.0865
6 17 10 -0.4644 -0.0013
6 17 11 0.8571 -0.1111
6 17 12 0.2581 0.0904
6 18 0 -0.3056 0.0021
6 18 1 0.4092 -0.0526
6 18 2 0.8218 0.0075
6 18 3 -0.0722 -0.0062
6 18 4 -0.0169 0.0348
6 18 5 -0.4266 -0.0164
6 18 6 0.3521 0.1290
6 18 7 0.1412 -0.1249
6 18 8 0.6238 0.1125
6 18 9 1.3369 0.0912
6 18 10 0.7714 -0.0765
6 19 0 -1.0936 0.0518
6 19 1 -0.5170 -0.0225
6 19 2 -0.9327 -0.0386
6 19 3 0.3337 -0.0447
6 19 4 -1.2552 0.0393
6 19 5 0.2787 0.0434
6 19 6 0.1934 0.0570
6 19 7 -0.4957 0.0834
6 19 8 -0.2331 -0.3349
6 20 0 0.3743 0.0056
6 20 1 -0.4195 -0.0002
6 20 2 1.9661 0.0725
6 20 3 -0.9231 -0.0217
6 20 4 0.5803 0.2954
7 0 0 4.1224 0.0308
7 0 2 18.4287 -0.0599
7 0 4 19.1649 0.0324
7 0 6 8.7753 -0.0434
7 0 8 -7.0802 -0.0163
7 0 10 -10.1310 0.0218
7 0 12 1.0297 -0.0306
7 0 14 7.3332 0.0131
7 0 16 1.7818 -0.0065
7 0 18 -0.4471 0.0024
7 0 20 0.0621 -0.0083
7 0 22 1.3892 0.0045
7 1 0 4.0602 0.0895
7 1 1 -28.9883 -0.0909
7 1 2 13.4753 -0.0316
7 1 3 -24.8857 0.0624
7 1 4 -1.2817 -0.0993
7 1 5 -1.4218 0.0223
7 1 6 -8.2519 0.0369
7 1 7 9.1006 0.0291
7 1 8 -7.4626 -0.0515
7 1 9 11.0318 0.0103
7 1 10 0.5617 -0.0107
7 1 11 0.2159 0.0018
7 1 12 3.7576 0.0290
7 1 13 -5.4077 -0.0078
7 1 14 1.7905 -0.0101
7 1 15 -2.5513 -0.0344
7 1 16 -1.2796 0.0270
7 1 17 0.4011 0.0116
7 1 18 -0.5586 -0.0443
7 1 19 0.2458 -0.0116
7 1 20 0.1030 -0.0725
7 1 21 0.6672 0.0041
7 1 22 0.2590 0.1295
7 2 0 25.5633 0.0654
7 2 1 -28.4417 -0.1539
7 2 2 21.0757 0.0283
7 2 3 -17.1141 0.0561
7 2 4 4.1746 -0.0347
7 2 5 7.1903 0.0821
7 2 6 -6.6784 0.0066
7 2 7 15.6322 -0.0750
7 2 8 -7.5560 -0.0289
7 2 9 6.6580 -0.0111
7 2 10 -1.1298 -0.0322
7 2 11 -3.9635 -0.0000
7 2 12 4.0978 -0.0146
7 2 13 -6.3999 -0.0054
7 2 14 2.4830 -0.0051
7 2 15 0.1914 0.0053
7 2 16 0.6745 0.0108
7 2 17 1.1346 0.0375
7 2 18 0.7130 0.0020
7 2 19 -0.3692 0.0372
7 2 20 0.2931 0.0285
7 2 21 -0.6540 -0.0406
7 2 22 0.5914 -0.0323
7 3 0 14.2446 0.0407
7 3 1 -39.9897 -0.0245
7 3 2 9.4700 -0.0138
7 3 3 -3.6164 0.0190
7 3 4 -10.5414 -0.0844
7 3 5 15.4119 0.0096
7 3 6 -16.3468 0.0600
7 3 7 12.8364 0.0223
7 3 8 -6.7483 -0.0010
7 3 9 -0.4546 -0.0092
7 3 10 4.8900 0.0159
7 3 11 -6.1179 0.0203
7 3 12 4.6851 0.0481
7 3 13 -2.6623 0.0191
7 3 14 1.1594 -0.0066
7 3 15 0.9907 0.0018
7 3 16 -1.8248 0.0187
7 3 17 0.3861 -0.0106
7 3 18 -0.9310 -0.0081
7 3 19 -0.2585 -0.0176
7 3 20 -0.8947 0.0169
7 3 21 -0.2084 -0.0778
7 3 22 -0.2225 -0.0034
7 4 0 24.8158 -0.0392
7 4 1 -15.9839 -0.0488
7 4 2 9.2665 0.0867
7 4 3 -5.9655 0.0221
7 4 4 -15.4940 -0.0307
7 4 5 8.2183 -0.0205
7 4 6 -16.8846 -0.0085
7 4 7 5.6313 -0.0376
7 4 8 -2.5061 -0.0037
7 4 9 -1.3711 -0.0027
7 4 10 6.9355 -0.0199
7 4 11 -4.0432 -0.0132
7 4 12 2.0936 0.0246
7 4 13 -2.6397 -0.0167
7 4 14 -2.2384 -0.0313
7 4 15 -0.0330 -0.0340
7 4 16 -0.0991 -0.0363
7 4 17 0.0260 -0.0260
7 4 18 0.2544 0.0292
7 4 19 0.3783 -0.0372
7 4 20 0.5648 0.1012
7 4 21 0.6601 -0.0086
7 4 22 0.9457 -0.0276
7 5 0 9.6368 -0.0393
7 5 1 -14.5660 -0.0528
7 5 3 -0.1837 -0.0045
7 5 4 -8.8265 0.0083
7 5 5 7.8609 0.0518
7 5 6 -0.6406 -0.0106
7 5 7 3.1161 0.0018
7 5 8 6.2829 0.0275
7 5 9 -5.0826 0.0042
7 5 10 3.2462 0.0024
7 5 11 -3.8096 0.0058
7 5 12 0.7672 0.0112
7 5 13 -0.3617 -0.0214
7 5 14 0.3048 0.0106
7 5 15 0.9801 0.0197
7 5 16 0.1930 0.0220
7 5 17 -0.5728 -0.0133
7 5 18 0.0914 0.0352
7 5 19 0.1989 -0.0227
7 5 20 0.1230 0.1058
7 5 21 0.3874 0.0567
7 6 0 7.6837 0.0129
7 6 1 1.2306 -0.0219
7 6 2 6.0757 0.0388
7 6 3 0.2492 -0.0200
7 6 4 -0.0206 -0.0776
7 6 5 -0.9369 0.0013
7 6 6 -3.2147 -0.0157
7 6 7 -0.5338 -0.0019
7 6 8 -2.8446 0.0161
7 6 9 0.1994 0.0084
7 6 10 0.8690 -0.0315
7 6 11 1.9505 0.0234
7 6 12 0.8480 0.0414
7 6 13 -0.3516 -0.0275
7 6 14 0.9662 -0.0096
7 6 15 -1.3608 -0.0093
7 6 16 1.2775 -0.0134
7 6 17 -1.1348 -0.0218
7 6 18 -0.2316 0.0095
7 6 19 0.1064 -0.0405
7 6 20 -0.5554 0.1252
7 6 21 0.5354 0.0798
7 7 0 -2.9932 -0.0555
7 7 1 -1.5415 -0.0153
7 7 2 -0.2758 -0.0038
7 7 3 -6.7108 0.0188
7 7 4 -2.1197 -0.0060
7 7 5 -2.4460 0.0043
7 7 6 -1.3644 -0.0208
7 7 7 4.2884 -0.0196
7 7 8 -1.1498 0.0212
7 7 9 3.5184 0.0138
7 7 10 -0.0300 -0.0228
7 7 11 -0.2278 -0.0120
7 7 12 2.2009 -0.0103
7 7 13 -2.2970 -0.0261
7 7 14 1.3428 0.0037
7 7 15 -1.9689 0.0128
7 7 16 0.7445 0.0421
7 7 17 -1.3097 -0.0316
7 7 18 -0.9695 0.0254
7 7 19 -0.0573 -0.0414
7 7 20 -0.1284 -0.0930
7 7 21 0.7704 0.0775
7 8 0 -0.2970 0.0008
7 8 1 -1.0271 -0.0227
7 8 2 7.3249 0.0289
7 8 3 -2.4984 -0.0258
7 8 4 4.2219 -0.0083
7 8 5 2.7748 -0.0040
7 8 6 -5.9833 0.0003
7 8 7 7.7205 -0.0071
7 8 8 -4.9224 0.0051
7 8 9 2.6814 0.0230
7 8 10 -2.9673 -0.0125
7 8 11 -1.7728 -0.0038
7 8 12 1.8347 0.0086
7 8 13 -2.7976 -0.0093
7 8 14 2.4619 -0.0011
7 8 15 -0.5821 -0.0084
7 8 16 1.3419 0.0764
7 8 17 0.6942 -0.0277
7 8 18 0.1396 0.0179
7 8 19 0.0941 -0.0421
7 8 20 0.1879 -0.0627
7 9 0 5.8899 -0.0061
7 9 1 -6.6182 0.0179
7 9 2 4.1155 0.0191
7 9 3 -0.6183 -0.0268
7 9 4 -1.1429 -0.0133
7 9 5 3.7285 -0.0341
7 9 6 -8.2710 -0.0311
7 9 7 4.3567 0.0103
7 9 8 -5.1059 0.0074
7 9 9 -0.4151 -0.0260
7 9 10 0.9888 0.0056
7 9 11 -2.5153 -0.0269
7 9 12 3.7580 0.0058
7 9 13 -1.6511 0.0353
7 9 14 0.9461 -0.0217
7 9 15 0.5700 -0.0005
7 9 16 -1.8277 0.0268
7 9 17 0.7220 -0.1371
7 9 18 -1.3576 -0.0213
7 9 19 0.0256 -0.0593
7 9 20 -0.3973 -0.1916
7 10 0 0.4476 -0.0048
7 10 1 1.0520 -0.0210
7 10 2 2.7641 0.0097
7 10 3 4.8239 -0.0038
7 10 4 0.9077 0.0069
7 10 5 7.2207 -0.0159
7 10 6 -3.9920 0.0140
7 10 7 4.5676 -0.0358
7 10 8 -1.1303 0.0163
7 10 9 2.1105 0.0229
7 10 10 0.7835 0.0367
7 10 11 -3.1388 -0.0266
7 10 12 2.1521 -0.0018
7 10 13 -2.3309 -0.0271
7 10 14 0.4324 -0.0280
7 10 15 0.3476 0.0128
7 10 16 -0.7583 0.0908
7 10 17 1.4943 -0.1101
7 10 18 0.2243 0.2506
7 10 19 0.2199 -0.1442
7 11 0 5.1040 0.0166
7 11 1 -1.0586 -0.0025
7 11 2 0.7664 0.0053
7 11 3 -0.0849 -0.0071
7 11 4 0.0750 0.0082
7 11 5 1.3891 0.0071
7 11 6 -5.7904 0.0001
7 11 7 -0.1455 -0.0241
7 11 8 -2.6936 0.0234
7 11 9 -1.6098 -0.0080
7 11 10 0.9073 0.0121
7 11 11 -3.0375 0.0122
7 11 12 1.8261 0.0078
7 11 13 -1.3412 0.0001
7 11 14 0.2798 0.0154
7 11 15 1.6676 0.0374
7 11 16 -0.3553 0.0135
7 11 17 1.0105 -0.0527
7 11 18 -0.4110 0.0540
7 12 0 2.4537 0.0212
7 12 1 -0.5192 -0.0067
7 12 2 -0.4544 0.0142
7 12 3 1.4421 -0.0120
7 12 4 -0.3998 -0.0110
7 12 5 1.8872 -0.0156
7 12 6 -2.0495 0.0220
7 12 7 0.6844 0.0140
7 12 8 -1.7252 -0.0077
7 12 9 0.8911 -0.0119
7 12 10 1.5512 -0.0221
7 12 11 -0.7220 -0.0352
7 12 12 0.9404 0.0286
7 12 13 -1.0458 -0.0310
7 12 14 0.4044 0.0226
7 12 15 -0.1500 0.0884
7 12 16 -1.1227 -0.0507
7 12 17 0.2406 -0.0084
7 12 18 -0.5921 0.0834
7 13 0 0.7938 0.0386
7 13 1 -2.0973 -0.0091
7 13 2 -1.7068 0.0257
7 13 3 -2.1312 0.0080
7 13 4 -0.4581 0.0077
7 13 5 0.4967 0.0233
7 13 6 -0.5491 -0.0011
7 13 7 -0.5869 -0.0312
7 13 8 -0.8399 0.0127
7 13 9 0.1151 -0.0231
7 13 10 0.1943 0.0072
7 13 11 0.3262 0.0029
7 13 12 -0.1278 -0.0080
7 13 13 -0.4938 -0.0432
7 13 14 -0.1350 0.0574
7 13 15 -0.7065 0.0776
7 13 16 0.0207 -0.0265
7 13 17 0.5497 0.1095
7 14 0 0.1644 -0.0296
7 14 1 2.3005 -0.0570
7 14 2 -0.4587 -0.0213
7 14 3 2.7087 -0.0489
7 14 4 0.7113 0.0206
7 14 5 0.5057 0.0161
7 14 6 -0.4457 -0.0244
7 14 7 -0.2015 0.0331
7 14 8 -1.7688 0.0290
7 14 9 0.3982 -0.0098
7 14 10 0.0135 0.0341
7 14 11 -0.1969 0.0348
7 14 12 1.1909 -0.0682
7 14 13 -1.2556 -0.0419
7 14 14 0.4314 -0.0226
7 14 15 -0.4809 -0.0500
7 14 16 -0.0700 -0.0762
7 15 0 0.1810 0.0184
7 15 1 -0.6256 0.0254
7 15 2 -1.1652 0.0191
7 15 3 -2.4002 0.0228
7 15 4 -0.3012 0.0351
7 15 5 -1.1495 -0.0216
7 15 6 -0.9270 0.0114
7 15 7 -0.4461 0.0207
7 15 8 -1.6093 -0.0243
7 15 9 -0.3529 0.0110
7 15 10 -0.1056 -0.0215
7 15 11 0.5336 -0.0072
7 15 12 0.3479 -0.0165
7 15 13 0.1410 0.0018
7 15 14 0.4633 0.0416
7 15 15 0.1400 0.0361
7 16 0 0.1739 -0.0042
7 16 1 0.8866 -0.0285
7 16 2 0.7837 0.0037
7 16 3 0.1554 -0.0492
7 16 4 0.2435 0.0296
7 16 5 -0.3332 0.0373
7 16 6 0.0093 -0.0288
7 16 7 0.4762 -0.0600
7 16 8 -0.8348 0.0181
7 16 9 0.0428 -0.0123
7 16 10 -0.0364 0.0258
7 16 11 -0.8665 0.0604
7 16 12 0.2880 -0.1510
7 16 13 0.8231 -0.0664
7 17 0 -0.7909 0.0200
7 17 1 0.6099 -0.0382
7 17 2 -0.0977 -0.0293
7 17 3 0.5349 0.0072
7 17 4 -0.8858 0.0141
7 17 5 1.1623 -0.0155
7 17 6 -0.9509 0.0326
7 17 7 -0.3495 -0.0822
7 17 8 -0.4409 -0.0662
7 17 9 -0.0343 -0.0514
7 17 10 -0.0570 0.0784
7 17 11 0.9340 -0.0117
7 17 12 0.4292 0.1321
7 18 0 0.0683 0.0224
7 18 1 0.2586 -0.0118
7 18 2 0.1718 0.0217
7 18 3 -0.7826 0.0194
7 18 4 0.1229 0.0342
7 18 5 -1.4120 -0.0464
7 18 6 1.2241 0.1353
7 18 7 0.2648 -0.0897
7 18 8 0.5302 0.0150
7 18 9 1.0468 0.1083
7 18 10 0.6318 -0.2380
7 19 0 -1.3099 0.0598
7 19 1 -0.4097 -0.0677
7 19 2 -0.9740 -0.0455
7 19 3 0.6445 -0.0302
7 19 4 -0.8899 0.0678
7 19 5 0.0137 0.0966
7 19 6 0.0889 -0.0748
7 19 7 -0.3819 0.0502
7 20 0 0.7869 -0.0098
7 20 1 -0.4372 0.0370
7 20 2 1.3526 0.1141
7 20 3 -0.9231 -0.0194
7 20 4 0.3556 0.1811
8 0 0 4.0482 -0.0681
8 0 2 7.6117 -0.0584
8 0 4 5.5183 0.0496
8 0 6 0.7050 -0.0602
8 0 8 -9.0844 0.0130
8 0 10 -3.5037 0.0058
8 0 12 5.4847 -0.0210
8 0 14 5.0668 0.0102
8 0 16 0.0002 -0.0154
8 0 18 -0.3056 0.0043
8 0 20 0.6981 -0.0219
8 0 22 1.4949 0.0688
8 1 0 1.2498 0.0488
8 1 1 -23.4956 0.0107
8 1 2 4.2089 -0.1311
8 1 3 -8.2298 0.0354
8 1 4 -6.3430 -0.0315
8 1 5 8.1522 0.0165
8 1 6 -7.6441 0.0642
8 1 7 10.5745 0.0222
8 1 8 -4.0511 -0.0775
8 1 9 5.5782 -0.0154
8 1 10 2.9888 0.0132
8 1 11 -4.6362 0.0130
8 1 12 3.8504 0.0081
8 1 13 -4.2667 -0.0220
8 1 14 0.1304 -0.0093
8 1 15 -0.0177 -0.0015
8 1 16 -1.7424 0.0233
8 1 17 1.0609 0.0321
8 1 18 -0.1146 -0.0417
8 1 19 0.4061 -0.0016
8 1 20 0.1855 0.0359
8 1 21 0.6301 0.0008
8 1 22 0.1715 0.2104
8 2 0 19.9870 0.0300
8 2 1 -22.9586 -0.0090
8 2 2 3.4554 -0.0067
8 2 3 -6.1001 0.0703
8 2 4 -7.4845 -0.0337
8 2 5 10.0941 -0.0230
8 2 6 -8.4389 0.0086
8 2 7 11.3889 -0.0289
8 2 8 -3.6462 -0.0178
8 2 9 0.4975 -0.0026
8 2 10 3.5542 -0.0380
8 2 11 -6.0161 0.0210
8 2 12 4.3080 -0.0063
8 2 13 -3.8877 0.0177
8 2 14 0.8824 -0.0159
8 2 15 1.6518 0.0164
8 2 16 -0.0298 -0.0281
8 2 17 0.5511 0.0479
8 2 18 0.4062 0.0036
8 2 19 -0.6764 -0.0282
8 2 20 0.5659 0.0281
8 2 21 -0.7841 -0.0928
8 2 22 0.8539 -0.0520
8 3 0 7.5517 -0.0213
8 3 1 -23.3652 0.0049
8 3 2 -3.1579 -0.0961
8 3 3 11.5581 0.0440
8 3 4 -17.5685 0.0043
8 3 5 17.3346 -0.0166
8 3 6 -12.4861 0.0653
8 3 7 6.3312 0.0347
8 3 8 0.1314 -0.0259
8 3 9 -6.3496 0.0063
8 3 10 7.2106 0.0242
8 3 11 -6.0540 0.0311
8 3 12 3.5129 0.0015
8 3 13 -0.0332 0.0303
8 3 14 -1.0481 -0.0068
8 3 15 1.8547 0.0135
8 3 16 -2.2067 -0.0119
8 3 17 0.2512 -0.0106
8 3 18 -0.5534 0.0005
8 3 19 -0.0527 -0.0169
8 3 20 -0.4742 0.0617
8 3 21 -0.0758 -0.0293
8 4 0 17.9429 0.0454
8 4 1 -11.5885 -0.0218
8 4 2 -7.2008 0.0227
8 4 3 1.2001 0.0217
8 4 4 -21.6199 -0.0684
8 4 5 7.1879 -0.0487
8 4 6 -11.0738 0.0188
8 4 7 0.1750 0.0051
8 4 8 5.2626 -0.0277
8 4 9 -4.7941 0.0139
8 4 10 7.5096 -0.0203
8 4 11 -4.2779 -0.0034
8 4 12 -0.5493 -0.0085
8 4 13 -1.0180 -0.0105
8 4 14 -2.1605 -0.0502
8 4 15 0.9343 -0.0158
8 4 16 0.0591 -0.0207
8 4 17 0.0087 -0.0099
8 4 18 0.2361 0.0103
8 4 19 0.4165 -0.0175
8 4 20 1.0239 0.0595
8 4 21 0.6189 0.0697
8 5 0 3.9486 -0.0226
8 5 1 -6.4547 -0.0370
8 5 2 -10.8985 0.0196
8 5 3 9.0178 0.0720
8 5 4 -9.5812 -0.0168
8 5 5 8.2245 0.0225
8 5 6 4.3130 -0.0118
8 5 7 -1.6617 0.0053
8 5 8 8.1194 0.0178
8 5 9 -6.9949 0.0293
8 5 10 2.9582 -0.0132
8 5 11 -2.1350 0.0071
8 5 12 0.5683 -0.0088
8 5 13 0.6103 0.0310
8 5 14 -0.3250 -0.0126
8 5 15 0.6736 0.0443
8 5 16 -0.0293 0.0118
8 5 17 -0.4124 -0.0196
8 5 18 -0.3402 0.0150
8 5 19 0.6269 0.0120
8 5 20 0.0657 0.0278
8 5 21 0.4697 0.1254
8 6 0 5.9373 0.0214
8 6 1 -0.2775 -0.0413
8 6 2 0.3726 -0.0244
8 6 3 1.9291 0.0047
8 6 4 -5.2823 -0.0648
8 6 5 -1.2322 -0.0023
8 6 6 -3.6934 0.0329
8 6 7 -1.0227 0.0064
8 6 8 -0.1161 -0.0083
8 6 9 -0.6590 0.0412
8 6 10 1.8701 0.0007
8 6 11 0.5976 0.0122
8 6 12 0.6125 0.0192
8 6 13 -0.6843 -0.0028
8 6 14 0.9803 -0.0463
8 6 15 -0.8527 0.0372
8 6 16 0.6617 -0.0123
8 6 17 -0.3873 -0.0006
8 6 18 -0.7763 -0.0236
8 6 19 0.3250 0.0158
8 6 20 -0.4701 0.0405
8 6 21 0.7226 0.1425
8 7 0 -3.9419 -0.0145
8 7 1 -3.4260 0.0157
8 7 2 -2.4836 0.0023
8 7 3 -1.8056 0.0304
8 7 4 -4.2234 -0.0300
8 7 5 1.7463 -0.0277
8 7 6 -0.7178 0.0055
8 7 7 3.7639 -0.0135
8 7 8 0.6907 0.0023
8 7 9 1.0098 0.0162
8 7 10 1.7103 -0.0374
8 7 11 -1.9385 -0.0355
8 7 12 2.3307 -0.0061
8 7 13 -2.2069 0.0062
8 7 14 0.2659 -0.0134
8 7 15 -1.5472 0.0300
8 7 16 -0.0344 0.0154
8 7 17 -0.3379 -0.0120
8 7 18 -1.0197 -0.0763
8 7 19 0.6481 0.0253
8 7 20 0.6254 -0.1805
8 8 0 2.8961 0.0133
8 8 1 -2.8756 -0.0498
8 8 2 5.1412 0.0460
8 8 3 0.2776 -0.0016
8 8 4 -1.7904 -0.0022
8 8 5 5.3042 -0.0025
8 8 6 -6.9934 0.0027
8 8 7 6.0695 -0.0078
8 8 8 -1.9455 0.0045
8 8 9 -0.9667 0.0266
8 8 10 -0.8814 -0.0006
8 8 11 -3.0693 -0.0132
8 8 12 2.5076 0.0111
8 8 13 -1.4825 0.0180
8 8 14 1.6564 0.0309
8 8 15 0.8300 0.0043
8 8 16 0.3570 0.0569
8 8 17 1.0526 0.0156
8 8 18 -0.2364 -0.0812
8 8 19 -0.3252 0.0167
8 8 20 -0.0101 -0.1242
8 9 0 3.5580 0.0073
8 9 1 -6.8151 -0.0169
8 9 2 -0.2000 0.0103
8 9 3 4.0981 -0.0380
8 9 4 -5.0599 -0.0189
8 9 5 5.5135 -0.0172
8 9 6 -6.9254 -0.0179
8 9 7 1.8751 -0.0075
8 9 8 -0.5728 0.0028
8 9 9 -1.9201 -0.0272
8 9 10 3.4342 0.0152
8 9 11 -2.4642 -0.0095
8 9 12 2.5525 -0.0017
8 9 13 0.3025 0.0144
8 9 14 -1.0819 -0.0173
8 9 15 1.4603 -0.0581
8 9 16 -2.3085 0.0115
8 9 17 0.9058 -0.1023
8 9 18 -0.7591 -0.1370
8 9 19 0.6165 0.0642
8 10 0 1.9382 0.0162
8 10 1 3.3387 -0.0276
8 10 2 1.4230 0.0147
8 10 3 7.7332 -0.0019
8 10 4 -2.2268 -0.0032
8 10 5 7.4028 -0.0206
8 10 6 -3.3291 0.0233
8 10 7 1.4957 -0.0350
8 10 8 1.7217 0.0164
8 10 9 -0.7568 0.0104
8 10 10 1.6401 0.0158
8 10 11 -3.7169 -0.0343
8 10 12 0.9937 -0.0057
8 10 13 -0.3849 0.0018
8 10 14 -1.1206 0.0332
8 10 15 1.6743 -0.0236
8 10 16 -0.7953 0.1516
8 10 17 1.0381 -0.1082
8 10 18 0.2981 0.1480
8 10 19 0.1208 -0.0361
8 11 0 3.7241 0.0034
8 11 1 -1.3030 -0.0019
8 11 2 -1.9457 0.0082
8 11 3 0.1582 -0.0046
8 11 4 -2.8375 0.0144
8 11 5 0.9939 0.0026
8 11 6 -5.2871 0.0114
8 11 7 -2.0323 -0.0173
8 11 8 0.1962 0.0273
8 11 9 -2.7914 0.0082
8 11 10 2.2800 0.0086
8 11 11 -2.7509 -0.0016
8 11 12 0.7299 0.0005
8 11 13 0.2157 0.0123
8 11 14 -0.8702 0.0169
8 11 15 2.2908 -0.0187
8 11 16 -0.6673 0.0781
8 11 17 0.5075 -0.1208
8 11 18 -0.4470 -0.0152
8 12 0 1.8160 0.0097
8 12 1 1.2998 -0.0043
8 12 2 -0.6975 -0.0142
8 12 3 2.8729 -0.0205
8 12 4 -1.0243 -0.0139
8 12 5 1.8894 -0.0168
8 12 6 -1.5876 0.0315
8 12 7 -0.5764 -0.0047
8 12 8 0.0532 -0.0356
8 12 9 -0.1829 -0.0291
8 12 10 2.1399 -0.0304
8 12 11 -1.2581 -0.0397
8 12 12 -0.0702 0.0269
8 12 13 -0.6607 0.0214
8 12 14 -1.1509 -0.0313
8 12 15 0.4685 0.0879
8 12 16 -1.6886 -0.0194
8 12 17 0.4227 -0.0819
8 13 0 -1.0133 0.0169
8 13 1 -1.6413 0.0081
8 13 2 -1.4910 -0.0112
8 13 3 -1.8714 0.0196
8 13 4 0.2000 -0.0181
8 13 5 0.6789 0.0132
8 13 6 -0.2635 0.0062
8 13 7 -1.1159 -0.0129
8 13 8 -0.1947 0.0300
8 13 9 -0.0849 0.0108
8 13 10 0.6242 0.0002
8 13 11 -0.1279 -0.0130
8 13 12 0.0788 0.0097
8 13 13 -0.8197 0.0090
8 13 14 -0.3646 0.0366
8 13 15 -0.0614 0.1144
8 13 16 -0.2291 -0.0052
8 14 0 0.7437 -0.0310
8 14 1 4.0686 -0.0421
8 14 2 -0.2237 -0.0048
8 14 3 1.8539 -0.0016
8 14 4 0.2954 0.0177
8 14 5 -0.1407 0.0418
8 14 6 -1.3035 -0.0255
8 14 7 -0.4302 0.0048
8 14 8 -1.7640 0.0467
8 14 9 -0.4964 0.0074
8 14 10 0.4654 -0.0240
8 14 11 -0.9064 0.0210
8 14 12 1.3376 -0.0938
8 14 13 -1.2100 -0.0517
8 14 14 -0.0258 -0.0545
8 14 15 0.1114 0.0015
8 15 0 -0.6466 0.0005
8 15 1 -1.3380 0.0188
8 15 2 -0.2791 0.0012
8 15 3 -2.2023 -0.0067
8 15 4 0.1719 0.0084
8 15 5 -0.5282 -0.0076
8 15 6 -1.2241 -0.0243
8 15 7 -0.4324 0.0301
8 15 8 -0.7096 -0.0268
8 15 9 -0.4992 0.0126
8 15 10 0.8257 0.0086
8 15 11 0.3210 0.0457
8 15 12 0.3084 0.0256
8 15 13 0.2229 0.0257
8 15 14 -0.0234 0.0491
8 16 0 0.7002 0.0226
8 16 1 1.4756 -0.0141
8 16 2 0.7109 0.0215
8 16 3 -0.1600 -0.0096
8 16 4 0.2953 0.0152
8 16 5 -0.1218 0.0478
8 16 6 0.4048 -0.0489
8 16 7 -0.0111 -0.0694
8 16 8 -0.4380 0.0188
8 16 9 -1.1201 0.0022
8 16 10 -0.0608 -0.0501
8 16 11 -0.8202 0.0130
8 16 12 -0.0760 -0.1531
8 16 13 1.1581 -0.1097
8 17 0 -0.2283 -0.0121
8 17 1 0.7786 -0.0502
8 17 2 0.4661 -0.0392
8 17 3 0.5661 0.0019
8 17 4 -0.8198 0.0415
8 17 5 0.6833 -0.0230
8 17 6 -1.2172 -0.0077
8 17 7 -0.5897 -0.0542
8 17 8 -0.0296 -0.0364
8 17 9 0.1398 -0.0047
8 17 10 0.2637 0.1693
8 17 11 1.2116 0.0715
8 18 0 -0.1894 0.0392
8 18 1 -0.3370 0.0495
8 18 2 -0.3433 0.0103
8 18 3 -1.9010 0.0135
8 18 4 1.0329 0.0292
8 18 5 -1.8081 -0.0723
8 18 6 1.7030 0.1114
8 18 7 0.3444 -0.0440
8 18 8 0.1936 -0.1381
8 18 9 0.3341 0.0616
8 19 0 -1.0297 0.0322
8 19 1 0.2489 -0.0707
8 19 2 -0.4406 -0.0415
8 19 3 0.4788 0.0301
8 19 4 -0.7591 0.0695
8 19 5 -0.0691 0.1013
8 19 6 -0.2338 -0.2329
8 19 7 0.1694 0.0049
8 20 0 0.6296 -0.0526
8 20 1 -0.5315 0.0818
8 20 2 0.7021 0.0689
8 20 3 -0.8564 -0.0191
9 0 0 -8.4862 -0.1304
9 0 2 -5.9022 -0.0076
9 0 4 -1.6548 0.0199
9 0 6 -0.6010 -0.0232
9 0 8 -5.7954 0.0250
9 0 10 2.3319 -0.0119
9 0 12 5.2724 0.0077
9 0 14 2.0410 -0.0070
9 0 16 -0.5223 -0.0050
9 0 18 0.1822 0.0014
9 0 20 1.0840 0.0102
9 1 0 -2.5922 -0.0564
9 1 1 -7.4978 0.0421
9 1 2 0.2013 -0.0901
9 1 3 2.4335 -0.0049
9 1 4 -7.0321 0.0399
9 1 5 9.8185 0.0131
9 1 6 -5.2720 0.0339
9 1 7 6.7385 -0.0172
9 1 8 -0.6028 -0.0662
9 1 9 -0.9686 -0.0118
9 1 10 4.2548 0.0176
9 1 11 -5.5061 0.0081
9 1 12 2.5618 -0.0097
9 1 13 -1.0423 -0.0123
9 1 14 -1.4610 0.0021
9 1 15 1.3516 0.0262
9 1 16 -1.4582 0.0100
9 1 17 0.9272 0.0150
9 1 18 0.4662 -0.0021
9 1 19 0.2168 0.0020
9 1 20 0.2242 0.1189
9 1 21 0.4071 -0.0136
9 2 0 1.3049 -0.0341
9 2 1 -15.7359 0.0750
9 2 2 -11.0874 -0.0086
9 2 3 -0.7354 -0.0402
9 2 4 -10.0180 -0.0207
9 2 5 8.4848 -0.0223
9 2 6 -4.4372 0.0245
9 2 7 6.4509 0.0263
9 2 8 1.5640 -0.0049
9 2 9 -3.5459 0.0001
9 2 10 5.3820 -0.0331
9 2 11 -5.1212 0.0491
9 2 12 2.1510 0.0048
9 2 13 -0.5572 0.0110
9 2 14 -0.5395 -0.0356
9 2 15 2.0977 0.0340
9 2 16 -0.1949 -0.0366
9 2 17 -0.2074 0.0043
9 2 18 0.6156 0.0207
9 2 19 -0.8294 -0.0769
9 2 20 1.0101 0.0149
9 2 21 -0.8739 -0.0432
9 3 0 -2.1968 -0.1251
9 3 1 -4.0839 0.0703
9 3 2 -11.1171 -0.0439
9 3 3 17.5395 0.0113
9 3 4 -17.4224 0.0637
9 3 5 11.9371 -0.0448
9 3 6 -5.6568 0.0037
9 3 7 -1.7229 0.0497
9 3 8 4.6702 -0.0226
9 3 9 -8.7744 0.0036
9 3 10 6.4205 0.0034
9 3 11 -3.1083 0.0256
9 3 12 0.7665 -0.0258
9 3 13 2.2776 0.0231
9 3 14 -2.6551 -0.0072
9 3 15 1.9559 0.0165
9 3 16 -1.6919 -0.0325
9 3 17 -0.0841 -0.0188
9 3 18 0.0354 0.0338
9 3 19 -0.0564 0.0009
9 3 20 0.1071 0.0553
9 3 21 -0.0536 0.0555
9 4 0 1.7907 0.0252
9 4 1 -5.3230 0.0117
9 4 2 -19.2735 -0.0522
9 4 3 3.3706 -0.0024
9 4 4 -18.9411 -0.0269
9 4 5 1.9024 -0.0278
9 4 6 -1.2049 0.0168
9 4 7 -4.5236 0.0370
9 4 8 10.4048 -0.0355
9 4 9 -5.8830 0.0186
9 4 10 4.3396 -0.0044
9 4 11 -2.4383 0.0045
9 4 12 -3.0238 -0.0284
9 4 13 1.0286 -0.0078
9 4 14 -1.6548 -0.0254
9 4 15 1.0800 0.0182
9 4 16 -0.0243 -0.0123
9 4 17 -0.3694 -0.0096
9 4 18 0.2943 -0.0216
9 4 19 0.2716 0.0272
9 4 20 1.1277 0.0073
9 4 21 0.5305 0.1520
9 5 0 -3.4936 -0.0181
9 5 1 4.4339 0.0404
9 5 2 -15.5781 -0.0050
9 5 3 12.7541 0.0634
9 5 4 -5.5058 -0.0255
9 5 5 3.6870 -0.0178
9 5 6 9.4798 -0.0114
9 5 7 -5.9390 0.0315
9 5 8 7.8555 0.0090
9 5 9 -5.9858 0.0212
9 5 10 1.4674 -0.0211
9 5 11 0.1087 0.0246
9 5 12 -0.8525 -0.0264
9 5 13 1.0245 0.0508
9 5 14 -1.1385 -0.0288
9 5 15 0.5814 0.0393
9 5 16 -0.0367 0.0072
9 5 17 -0.1542 -0.0033
9 5 18 -0.4472 -0.0258
9 5 19 0.7473 0.0440
9 5 20 0.2463 -0.0408
9 5 21 0.4178 0.1480
9 6 0 -0.4056 -0.0100
9 6 1 1.1841 0.0009
9 6 2 -5.4164 -0.0509
9 6 3 1.6790 0.0227
9 6 4 -6.0495 0.0080
9 6 5 -3.7168 -0.0250
9 6 6 -0.5243 0.0371
9 6 7 -1.7102 0.0306
9 6 8 2.3880 -0.0151
9 6 9 -1.0696 0.0389
9 6 10 1.4557 0.0260
9 6 11 0.5678 -0.0009
9 6 12 0.1194 -0.0251
9 6 13 -0.2855 0.0376
9 6 14 0.5865 -0.0398
9 6 15 -0.2067 0.0547
9 6 16 -0.0575 -0.0127
9 6 17 0.1257 0.0277
9 6 18 -0.7514 -0.0768
9 6 19 0.2007 0.0698
9 6 20 -0.0983 -0.0436
9 7 0 -6.0476 0.0090
9 7 1 -0.5910 0.0379
9 7 2 -5.5582 -0.0248
9 7 3 2.4676 0.0121
9 7 4 -3.7660 -0.0133
9 7 5 1.5203 -0.0442
9 7 6 1.6602 0.0200
9 7 7 1.3645 0.0071
9 7 8 2.7475 -0.0246
9 7 9 -0.7540 -0.0009
9 7 10 2.1142 -0.0251
9 7 11 -2.1382 -0.0314
9 7 12 0.9629 -0.0142
9 7 13 -1.3386 0.0464
9 7 14 -0.8768 -0.0186
9 7 15 -0.9600 0.0356
9 7 16 -0.3371 -0.0206
9 7 17 0.5916 0.0193
9 7 18 -0.3515 -0.1580
9 7 19 0.7323 0.0829
9 7 20 1.2335 -0.1864
9 8 0 2.7400 0.0281
9 8 1 -2.9525 -0.0322
9 8 2 -0.1350 0.0383
9 8 3 2.2212 0.0181
9 8 4 -4.6417 -0.0033
9 8 5 4.9202 -0.0139
9 8 6 -4.4936 -0.0004
9 8 7 2.7088 0.0048
9 8 8 0.5317 0.0004
9 8 9 -3.3975 0.0102
9 8 10 -0.1171 0.0099
9 8 11 -2.0378 -0.0052
9 8 12 2.0937 0.0085
9 8 13 0.4919 0.0485
9 8 14 0.4048 0.0306
9 8 15 1.6141 0.0084
9 8 16 -0.5851 -0.0130
9 8 17 0.7110 0.0640
9 8 18 -0.3307 -0.1522
9 8 19 -0.6747 0.0260
9 8 20 0.1245 -0.1225
9 9 0 0.8876 0.0069
9 9 1 -3.2316 -0.0229
9 9 2 -3.5685 -0.0082
9 9 3 8.1817 -0.0117
9 9 4 -5.1816 -0.0051
9 9 5 3.6108 -0.0064
9 9 6 -2.6411 -0.0041
9 9 7 -0.8201 -0.0092
9 9 8 3.1848 -0.0009
9 9 9 -2.0223 -0.0092
9 9 10 3.3805 0.0196
9 9 11 -1.2341 -0.0071
9 9 12 0.0705 -0.0162
9 9 13 2.0796 -0.0077
9 9 14 -2.3650 -0.0106
9 9 15 1.4631 -0.0511
9 9 16 -1.9451 -0.0444
9 9 17 0.9289 -0.0063
9 9 18 -0.0694 -0.1840
9 9 19 0.7354 0.1185
9 10 0 1.5108 0.0278
9 10 1 5.4915 -0.0248
9 10 2 -1.5908 -0.0149
9 10 3 7.8936 0.0073
9 10 4 -3.3194 -0.0145
9 10 5 4.2530 -0.0205
9 10 6 -0.6158 0.0257
9 10 7 -2.0228 -0.0276
9 10 8 3.2641 -0.0061
9 10 9 -2.0104 0.0021
9 10 10 0.8607 0.0048
9 10 11 -2.4671 -0.0154
9 10 12 -0.5952 0.0067
9 10 13 1.7317 0.0164
9 10 14 -1.6682 0.0672
9 10 15 1.9644 -0.0518
9 10 16 -0.2698 0.0972
9 10 17 0.4338 -0.0358
9 10 18 0.1930 0.0058
9 11 0 1.4300 0.0032
9 11 1 -1.0026 0.0066
9 11 2 -4.4985 0.0085
9 11 3 0.4834 -0.0010
9 11 4 -3.0648 0.0118
9 11 5 -0.7190 0.0057
9 11 6 -2.0185 0.0167
9 11 7 -3.6276 0.0140
9 11 8 2.6002 0.0112
9 11 9 -2.5401 0.0093
9 11 10 1.8835 -0.0127
9 11 11 -1.3602 -0.0142
9 11 12 -1.1197 -0.0058
9 11 13 1.4875 0.0161
9 11 14 -1.4546 0.0367
9 11 15 1.8649 -0.0785
9 11 16 -0.5386 0.0632
9 11 17 0.0809 -0.0703
9 11 18 -0.5380 -0.1422
9 12 0 1.2200 -0.0162
9 12 1 2.6718 -0.0079
9 12 2 -1.2363 -0.0363
9 12 3 2.8180 -0.0251
9 12 4 -1.4330 -0.0105
9 12 5 0.1034 -0.0206
9 12 6 0.0205 0.0197
9 12 7 -2.2351 -0.0053
9 12 8 1.4396 -0.0579
9 12 9 -0.7466 -0.0172
9 12 10 1.5573 -0.0211
9 12 11 -1.1000 -0.0092
9 12 12 -1.7057 0.0003
9 12 13 0.2194 0.0657
9 12 14 -2.2598 -0.0511
9 12 15 0.8411 0.0428
9 12 16 -1.3022 0.0037
9 12 17 0.3970 -0.0440
9 13 0 -1.6916 -0.0169
9 13 1 -1.0377 0.0233
9 13 2 -0.2197 -0.0389
9 13 3 -1.1906 0.0197
9 13 4 0.9326 -0.0145
9 13 5 0.5242 0.0114
9 13 6 0.5154 0.0238
9 13 7 -1.4440 0.0227
9 13 8 0.4508 0.0164
9 13 9 0.0194 0.0222
9 13 10 0.5358 -0.0148
9 13 11 -0.4776 -0.0213
9 13 12 -0.3629 0.0034
9 13 13 -0.6422 0.0655
9 13 14 -1.0389 0.0146
9 13 15 0.2561 0.0374
9 13 16 -0.3575 0.0102
9 14 0 1.0659 -0.0237
9 14 1 3.6102 -0.0139
9 14 2 -0.4195 0.0125
9 14 3 0.1894 0.0324
9 14 4 -0.4493 0.0022
9 14 5 -0.6534 0.0202
9 14 6 -1.7647 -0.0129
9 14 7 -0.7890 -0.0190
9 14 8 -1.3364 0.0426
9 14 9 -1.0186 0.0329
9 14 10 1.0940 -0.0724
9 14 11 -0.9209 0.0115
9 14 12 1.1157 -0.0716
9 14 13 -0.3866 -0.0212
9 14 14 -0.7254 -0.0460
9 14 15 0.7101 -0.0013
9 15 0 -0.2308 -0.0253
9 15 1 -1.1660 0.0046
9 15 2 1.5079 -0.0151
9 15 3 -1.5388 -0.0254
9 15 4 0.2889 -0.0064
9 15 5 -0.2323 0.0076
9 15 6 -0.8944 -0.0355
9 15 7 -0.4398 0.0194
9 15 8 0.4207 -0.0081
9 15 9 -0.2868 0.0235
9 15 10 0.8624 0.0399
9 15 11 0.1525 0.0601
9 15 12 -0.3146 0.0290
9 15 13 0.2624 0.0165
9 15 14 -0.5966 0.0119
9 16 0 0.7041 0.0439
9 16 1 1.2692 -0.0077
9 16 2 0.4957 0.0188
9 16 3 -0.4099 0.0247
9 16 4 0.5582 -0.0190
9 16 5 -0.0332 0.0373
9 16 6 0.6845 -0.0338
9 16 7 -1.0966 -0.0872
9 16 8 -0.4166 0.0200
9 16 9 -1.5521 0.0042
9 16 10 -0.3969 -0.0863
9 16 11 0.0375 -0.0284
9 16 12 -0.2849 -0.0291
9 17 0 0.9334 -0.0213
9 17 1 0.9137 -0.0443
9 17 2 1.1209 -0.0033
9 17 3 0.1714 0.0045
9 17 4 -1.0595 0.0538
9 17 5 0.3910 -0.0190
9 17 6 -0.9214 -0.0457
9 17 7 -0.4183 -0.0373
9 17 8 0.5117 0.0502
9 17 9 0.5902 0.0187
9 17 10 0.0113 0.1941
9 17 11 1.2540 0.1000
9 18 0 -0.7603 0.0342
9 18 1 -1.2008 0.0746
9 18 2 -0.0213 -0.0252
9 18 3 -2.4388 -0.0282
9 18 4 1.8617 0.0331
9 18 5 -1.5396 -0.0671
9 18 6 1.3628 0.0562
9 18 7 0.2600 -0.0212
9 18 8 -0.1849 -0.2826
9 18 9 -0.2237 -0.0087
9 19 0 -0.1614 0.0060
9 19 1 0.4308 -0.0268
9 19 2 0.1316 -0.0042
9 19 3 -0.0992 0.0768
9 19 4 -1.0027 0.0233
9 19 5 0.4720 0.0561
9 19 6 -0.3780 -0.3698
9 20 0 0.1072 -0.1249
9 20 1 -0.3573 0.0960
9 20 2 0.7483 -0.0280
10 0 0 -23.2119 -0.0764
10 0 2 -11.4132 -0.0026
10 0 4 0.1350 0.0116
10 0 6 2.4201 0.0348
10 0 8 -1.8109 -0.0114
10 0 10 4.2169 0.0023
10 0 12 2.8037 0.0196
10 0 14 0.3467 -0.0192
10 0 16 -0.2851 0.0147
10 0 18 0.6992 0.0056
10 0 20 1.3443 0.0665
10 1 0 -4.1504 -0.0519
10 1 1 3.3357 0.0113
10 1 2 -0.9473 0.0151
10 1 3 2.6495 -0.0221
10 1 4 -6.2673 0.0216
10 1 5 5.7204 -0.0160
10 1 6 -2.7367 0.0147
10 1 7 1.0290 -0.0289
10 1 8 1.4718 -0.0321
10 1 9 -4.6566 0.0068
10 1 10 3.4188 0.0065
10 1 11 -2.7273 -0.0058
10 1 12 0.4482 -0.0056
10 1 13 1.3995 0.0133
10 1 14 -2.1250 0.0039
10 1 15 1.0462 0.0103
10 1 16 -0.7323 -0.0081
10 1 17 0.4002 -0.0114
10 1 18 0.8122 0.0232
10 1 19 -0.0976 0.0052
10 1 20 0.2303 0.1082
10 1 21 0.1681 -0.0138
10 2 0 -14.9507 -0.0483
10 2 1 -12.7254 0.0025
10 2 2 -15.0364 0.0169
10 2 4 -5.4138 -0.0044
10 2 5 5.5916 0.0477
10 2 6 1.6474 0.0338
10 2 7 2.7228 0.0282
10 2 8 4.7782 -0.0005
10 2 9 -4.9484 0.0117
10 2 10 3.6071 -0.0155
10 2 11 -2.2575 0.0389
10 2 12 -0.5070 0.0069
10 2 13 1.9202 -0.0043
10 2 14 -0.7436 -0.0343
10 2 15 1.2532 0.0382
10 2 16 0.2598 -0.0131
10 2 17 -0.9566 -0.0583
10 2 18 0.9219 0.0228
10 2 19 -0.8514 -0.0299
10 2 20 1.0891 -0.0142
10 2 21 -0.7596 0.0761
10 3 0 -7.7566 -0.1093
10 3 1 7.4395 0.0683
10 3 2 -12.5524 0.0518
10 3 3 14.1831 -0.0538
10 3 4 -13.4133 0.0226
10 3 5 3.8814 -0.0383
10 3 6 -0.0002 -0.0316
10 3 7 -6.7630 0.0465
10 3 8 5.9624 -0.0046
10 3 9 -6.8095 -0.0148
10 3 10 3.5161 -0.0151
10 3 11 0.3625 0.0036
10 3 12 -2.0903 -0.0202
10 3 13 3.1645 0.0029
10 3 14 -2.8013 -0.0115
10 3 15 1.4428 0.0126
10 3 16 -0.5089 -0.0133
10 3 17 -0.6243 -0.0315
10 3 18 0.6022 0.0334
10 3 19 -0.1353 0.0453
10 3 20 0.3780 -0.0003
10 3 21 0.2244 0.1359
10 4 0 -12.7774 -0.0364
10 4 1 -0.8612 0.0101
10 4 2 -21.0256 -0.0351
10 4 3 0.6865 -0.0067
10 4 4 -9.8215 0.0159
10 4 5 -3.7852 0.0075
10 4 6 7.8202 -0.0083
10 4 7 -5.9541 0.0296
10 4 8 10.7171 -0.0032
10 4 9 -3.8505 0.0160
10 4 10 -0.0547 0.0122
10 4 11 0.6829 -0.0057
10 4 12 -3.7604 -0.0123
10 4 13 2.0402 -0.0007
10 4 14 -0.9627 0.0081
10 4 15 0.4073 0.0327
10 4 16 0.0115 -0.0125
10 4 17 -0.6446 -0.0224
10 4 18 0.4981 -0.0413
10 4 19 0.1028 0.0942
10 4 20 0.8472 -0.0330
10 4 21 0.4524 0.1887
10 5 0 -11.9114 -0.0292
10 5 1 11.2256 0.0588
10 5 2 -15.2290 -0.0092
10 5 3 10.0574 -0.0031
10 5 4 1.7316 -0.0129
10 5 5 -2.8402 -0.0086
10 5 6 11.8257 -0.0077
10 5 7 -7.6601 0.0323
10 5 8 5.0004 0.0110
10 5 9 -2.8821 -0.0018
10 5 10 -0.9936 -0.0207
10 5 11 1.7262 0.0321
10 5 12 -2.2535 -0.0325
10 5 13 0.8274 0.0237
10 5 14 -1.1964 -0.0232
10 5 15 0.3106 0.0384
10 5 16 0.3657 0.0130
10 5 17 -0.0705 0.0076
10 5 18 -0.1626 -0.0618
10 5 19 0.7563 0.0356
10 5 20 0.5155 -0.0608
10 6 0 -7.8509 -0.0334
10 6 1 2.8124 0.0587
10 6 2 -7.2920 -0.0087
10 6 3 -1.2930 -0.0101
10 6 4 -2.5661 0.0585
10 6 5 -6.0369 -0.0310
10 6 6 2.8634 0.0085
10 6 7 -1.8071 0.0443
10 6 8 2.4580 0.0066
10 6 9 -0.6007 0.0013
10 6 10 -0.1359 0.0222
10 6 11 1.4733 0.0026
10 6 12 -0.4034 -0.0388
10 6 13 0.0643 0.0542
10 6 14 -0.0013 0.0016
10 6 15 -0.0268 0.0425
10 6 16 -0.4196 -0.0229
10 6 17 -0.0631 0.0533
10 6 18 -0.3041 -0.1113
10 6 19 -0.0374 0.0688
10 6 20 0.2638 -0.0667
10 7 0 -9.4159 -0.0130
10 7 1 2.5417 0.0351
10 7 2 -6.2653 -0.0265
10 7 3 2.5666 -0.0133
10 7 4 -0.4614 0.0218
10 7 5 -0.9953 -0.0258
10 7 6 4.3303 0.0027
10 7 7 -0.1256 0.0188
10 7 8 3.5177 -0.0235
10 7 9 -1.2773 -0.0234
10 7 10 0.6414 -0.0099
10 7 11 -1.3929 -0.0062
10 7 12 -0.6979 -0.0144
10 7 13 -0.3796 0.0615
10 7 14 -1.2816 0.0033
10 7 15 -0.6044 0.0217
10 7 16 0.0476 -0.0617
10 7 17 0.8088 0.0442
10 7 18 0.5383 -0.1625
10 7 19 0.0374 0.0928
10 7 20 1.3711 -0.0966
10 8 0 -1.0435 0.0184
10 8 1 -2.8413 0.0020
10 8 2 -4.1980 0.0160
10 8 3 1.9993 0.0101
10 8 4 -2.6172 -0.0018
10 8 5 3.0670 -0.0085
10 8 6 -1.0880 -0.0134
10 8 7 -0.0072 0.0135
10 8 8 1.4096 0.0025
10 8 9 -3.2414 -0.0142
10 8 10 -0.3191 0.0140
10 8 11 0.2363 0.0240
10 8 12 1.3184 -0.0068
10 8 13 1.7602 0.0432
10 8 14 -0.4870 0.0120
10 8 15 1.5975 0.0005
10 8 16 -0.9139 -0.0696
10 8 17 0.0478 0.0854
10 8 18 0.1296 -0.1442
10 8 19 -0.7130 -0.0196
10 9 0 -1.7711 -0.0047
10 9 1 1.5132 0.0105
10 9 2 -5.0712 -0.0140
10 9 3 8.1210 0.0104
10 9 4 -2.5404 0.0208
10 9 5 -0.2113 -0.0024
10 9 6 1.7903 -0.0027
10 9 7 -1.5992 0.0070
10 9 8 4.5075 -0.0014
10 9 9 -0.7601 -0.0009
10 9 10 1.1691 0.0127
10 9 11 0.3908 -0.0061
10 9 12 -2.2461 -0.0200
10 9 13 2.8432 -0.0048
10 9 14 -2.3075 -0.0038
10 9 15 0.9664 -0.0082
10 9 16 -0.9779 -0.0883
10 9 17 0.8804 0.0543
10 9 18 0.4375 -0.1168
10 9 19 0.4775 0.0789
10 10 0 -0.4056 0.0113
10 10 1 5.8997 -0.0104
10 10 2 -4.0826 -0.0507
10 10 3 4.3256 0.0144
10 10 4 -1.9421 -0.0106
10 10 5 -0.3773 -0.0176
10 10 6 1.6592 0.0119
10 10 7 -4.0588 -0.0112
10 10 8 2.9105 -0.0212
10 10 9 -1.4247 -0.0002
10 10 10 -0.5527 0.0101
10 10 11 -0.4191 0.0070
10 10 12 -1.6247 0.0055
10 10 13 2.6965 0.0071
10 10 14 -1.2374 0.0448
10 10 15 1.2538 -0.0533
10 10 16 0.3432 -0.0067
10 10 17 0.0060 0.0295
10 10 18 0.1560 -0.0526
10 11 0 -0.3165 0.0160
10 11 1 0.0639 0.0090
10 11 2 -5.0334 -0.0022
10 11 3 0.0953 -0.0044
10 11 4 -0.5422 0.0063
10 11 5 -2.7819 0.0177
10 11 6 1.3610 0.0080
10 11 7 -3.6214 0.0374
10 11 8 3.0207 -0.0163
10 11 9 -1.1301 -0.0129
10 11 10 0.3006 -0.0237
10 11 11 0.1374 -0.0090
10 11 12 -2.6096 0.0083
10 11 13 1.5319 0.0091
10 11 14 -1.2411 0.0381
10 11 15 0.6514 -0.0957
10 11 16 -0.3621 -0.0134
10 11 17 -0.1579 0.0314
10 12 0 0.5458 -0.0250
10 12 1 2.7141 -0.0153
10 12 2 -1.7275 -0.0379
10 12 3 0.8901 -0.0255
10 12 4 -0.9019 -0.0014
10 12 5 -2.2914 -0.0142
10 12 6 1.5570 0.0056
10 12 7 -2.6989 0.0194
10 12 8 1.3980 -0.0488
10 12 9 -0.2348 0.0022
10 12 10 0.1126 -0.0076
10 12 11 -0.1267 0.0233
10 12 12 -2.9910 -0.0309
10 12 13 1.1045 0.0653
10 12 14 -2.2436 -0.0419
10 12 15 0.7514 0.0104
10 12 16 -0.4347 -0.0334
10 12 17 0.2609 0.0596
10 13 0 -0.9325 -0.0247
10 13 1 0.0238 0.0218
10 13 2 1.2178 -0.0349
10 13 3 -0.7083 0.0105
10 13 4 1.7444 0.0108
10 13 5 -0.1444 0.0121
10 13 6 1.2855 0.0187
10 13 7 -1.2376 0.0418
10 13 8 0.2266 -0.0160
10 13 9 0.2719 0.0002
10 13 10 -0.2995 -0.0189
10 13 11 -0.4917 -0.0177
10 13 12 -1.1423 -0.0040
10 13 13 -0.2845 0.0737
10 13 14 -1.3438 0.0057
10 13 15 -0.0474 -0.0919
10 13 16 -0.0861 -0.0237
10 14 0 0.8944 -0.0070
10 14 1 1.8490 -0.0126
10 14 2 -0.9792 0.0255
10 14 3 -0.6953 0.0253
10 14 4 -1.0161 -0.0078
10 14 5 -0.6652 -0.0222
10 14 6 -1.8590 0.0132
10 14 7 -0.8473 -0.0153
10 14 8 -0.7537 0.0287
10 14 9 -0.9588 0.0509
10 14 10 1.3844 -0.0659
10 14 11 -0.2953 0.0135
10 14 12 0.2589 0.0002
10 14 13 0.6732 -0.0103
10 14 14 -1.1856 -0.0003
10 14 15 0.7122 -0.0698
10 15 0 1.4319 -0.0299
10 15 1 -0.7584 -0.0095
10 15 2 2.8230 -0.0052
10 15 3 -0.9867 -0.0356
10 15 4 -0.0177 0.0045
10 15 5 0.0796 0.0005
10 15 6 0.0266 -0.0265
10 15 7 0.1033 -0.0027
10 15 8 0.9808 0.0122
10 15 9 -0.0136 0.0178
10 15 10 0.0408 0.0484
10 15 11 -0.1264 0.0304
10 15 12 -1.1988 -0.0053
10 15 13 0.3965 -0.0017
10 16 0 0.2801 0.0449
10 16 1 0.7237 -0.0224
10 16 2 0.3990 -0.0035
10 16 3 -0.3329 0.0423
10 16 4 0.6836 -0.0320
10 16 5 -0.2076 0.0022
10 16 6 0.5299 0.0228
10 16 7 -1.5703 -0.1005
10 16 8 -0.5713 0.0167
10 16 9 -0.6466 0.0138
10 16 10 -0.4764 -0.0400
10 16 11 1.0306 -0.0449
10 16 12 -0.1886 0.1535
10 17 0 2.1425 0.0064
10 17 1 0.4328 -0.0262
10 17 2 1.0343 0.0568
10 17 3 -0.3309 0.0049
10 17 4 -1.4134 0.0340
10 17 5 0.4247 -0.0309
10 17 6 -0.3591 -0.0437
10 17 7 0.1258 -0.0441
10 17 8 0.3055 0.1330
10 17 9 1.2139 0.0169
10 17 10 -0.6612 0.1200
10 18 0 -0.7500 0.0100
10 18 1 -1.4429 0.0421
10 18 2 0.8781 -0.0567
10 18 3 -2.1431 -0.0595
10 18 4 1.8279 0.0531
10 18 5 -1.2595 -0.0371
10 18 6 0.6825 -0.0193
10 18 7 0.1273 -0.0358
10 18 8 -0.3309 -0.3701
10 19 0 0.6913 0.0070
10 19 1 -0.0982 0.0250
10 19 2 0.0910 0.0383
10 19 3 -0.0310 0.0686
10 19 4 -1.4018 -0.0803
10 19 5 1.4982 0.0050
10 19 6 -0.2509 -0.4260
10 20 0 0.0440 -0.1999
10 20 1 0.0394 0.0682
11 0 0 -27.0444 -0.0162
11 0 2 -5.6748 -0.0299
11 0 4 6.2958 0.0537
11 0 6 5.3771 0.0314
11 0 8 -0.2620 -0.0482
11 0 10 2.6983 0.0342
11 0 12 0.8297 0.0006
11 0 14 0.1446 -0.0083
11 0 16 0.0766 0.0205
11 0 18 1.0503 0.0261
11 0 20 1.3939 0.0801
11 1 0 -2.5421 0.0537
11 1 1 3.0803 -0.0097
11 1 2 -0.7368 0.0396
11 1 3 -3.9222 -0.0360
11 1 4 -5.3621 -0.0333
11 1 5 0.8293 -0.0304
11 1 6 -1.0643 0.0419
11 1 7 -2.2907 0.0036
11 1 8 2.1672 -0.0104
11 1 9 -3.9731 0.0067
11 1 10 1.5791 0.0021
11 1 11 0.7785 -0.0088
11 1 12 -1.1475 0.0010
11 1 13 1.6091 0.0191
11 1 14 -1.6890 -0.0124
11 1 15 0.0739 -0.0288
11 1 16 0.1357 -0.0341
11 1 17 -0.0408 -0.0163
11 1 18 0.9679 0.0035
11 1 19 -0.3469 0.0059
11 1 20 0.0768 0.0270
11 1 21 0.1193 0.0050
11 2 0 -20.1747 -0.0149
11 2 1 -11.9744 -0.0692
11 2 2 -9.5408 0.0343
11 2 3 0.7161 -0.0171
11 2 4 1.3687 -0.0015
11 2 5 3.5967 0.0630
11 2 6 5.4271 0.0195
11 2 7 1.0223 0.0030
11 2 8 3.8816 0.0058
11 2 9 -3.6809 0.0172
11 2 10 0.2429 0.0041
11 2 11 0.9846 -0.0051
11 2 12 -1.5622 0.0049
11 2 13 2.3765 -0.0013
11 2 14 -0.0061 -0.0038
11 2 15 -0.1221 0.0196
11 2 16 0.6938 0.0031
11 2 17 -1.1296 -0.0705
11 2 18 0.9862 -0.0009
11 2 19 -0.5989 0.0905
11 2 20 0.7652 -0.0295
11 2 21 -0.4943 0.1682
11 3 0 -8.6864 0.0002
11 3 1 7.6745 -0.0043
11 3 2 -10.6485 0.0575
11 3 3 6.7110 -0.0681
11 3 4 -8.9224 -0.0356
11 3 5 -2.5988 -0.0129
11 3 6 2.7638 -0.0072
11 3 7 -7.6200 0.0185
11 3 8 4.4019 0.0025
11 3 9 -2.8273 -0.0313
11 3 10 -0.1043 -0.0027
11 3 11 2.3515 -0.0253
11 3 12 -3.3237 -0.0119
11 3 13 2.6062 -0.0108
11 3 14 -1.4575 -0.0012
11 3 15 0.3883 0.0056
11 3 16 0.4427 0.0145
11 3 17 -1.0991 -0.0292
11 3 18 0.7076 -0.0328
11 3 19 0.1592 0.1020
11 3 20 0.2114 -0.0339
11 4 0 -18.7502 -0.0309
11 4 1 -0.2938 -0.0007
11 4 2 -15.3675 0.0178
11 4 3 -3.5559 0.0129
11 4 4 0.2181 0.0053
11 4 5 -6.2007 0.0115
11 4 6 12.6910 -0.0083
11 4 7 -4.0609 0.0027
11 4 8 7.1848 0.0381
11 4 9 -0.4646 0.0063
11 4 10 -3.3678 0.0223
11 4 11 2.9191 -0.0222
11 4 12 -3.1831 0.0174
11 4 13 1.4221 0.0074
11 4 14 -0.3985 0.0155
11 4 15 -0.5492 0.0125
11 4 16 0.1729 -0.0009
11 4 17 -0.7987 -0.0121
11 4 18 0.3018 -0.0526
11 4 19 0.0595 0.1461
11 4 20 0.1120 -0.0459
11 5 0 -16.7833 -0.0208
11 5 1 10.7841 0.0012
11 5 2 -9.2552 0.0181
11 5 3 3.8098 -0.0249
11 5 4 8.0192 0.0005
11 5 5 -7.2238 0.0204
11 5 6 10.0886 0.0012
11 5 7 -5.5232 -0.0028
11 5 8 0.7420 0.0166
11 5 9 0.5217 -0.0136
11 5 10 -3.1186 -0.0189
11 5 11 1.9573 0.0099
11 5 12 -2.5612 -0.0232
11 5 13 0.3288 -0.0041
11 5 14 -0.4047 0.0017
11 5 15 0.0035 0.0434
11 5 16 1.0443 0.0219
11 5 17 -0.0182 -0.0094
11 5 18 0.2104 -0.0772
11 5 19 0.6975 -0.0097
11 5 20 0.5616 -0.0368
11 6 0 -11.6576 -0.0146
11 6 1 1.2435 0.0538
11 6 2 -4.1006 0.0400
11 6 3 -5.9763 -0.0549
11 6 4 2.3068 0.0451
11 6 5 -6.9380 -0.0052
11 6 6 3.9209 -0.0067
11 6 7 -0.6540 0.0213
11 6 8 0.6614 0.0299
11 6 9 1.1251 -0.0320
11 6 10 -1.4036 0.0025
11 6 11 2.1361 0.0144
11 6 12 -0.4149 -0.0086
11 6 13 -0.3435 0.0381
11 6 14 -0.1935 0.0367
11 6 15 -0.3740 0.0258
11 6 16 -0.1438 -0.0332
11 6 17 -0.4895 0.0518
11 6 18 0.3229 -0.1017
11 6 19 -0.1368 0.0160
11 6 20 0.4512 -0.0298
11 7 0 -11.8769 -0.0275
11 7 1 2.7670 0.0144
11 7 2 -4.0420 0.0097
11 7 3 -0.8367 -0.0136
11 7 4 3.2086 0.0221
11 7 5 -2.8920 0.0107
11 7 6 5.4089 -0.0149
11 7 7 0.0161 0.0072
11 7 8 2.1332 0.0014
11 7 9 -0.7174 -0.0333
11 7 10 -1.6261 -0.0088
11 7 11 -0.1864 0.0163
11 7 12 -1.4044 0.0166
11 7 13 -0.0010 0.0426
11 7 14 -0.7570 0.0172
11 7 15 -0.7390 0.0000
11 7 16 0.9025 -0.0903
11 7 17 0.4968 0.0547
11 7 18 1.0689 -0.0671
11 7 19 -0.6495 0.0488
11 8 0 -4.3327 -0.0127
11 8 1 -3.4034 0.0086
11 8 2 -3.4561 0.0085
11 8 3 0.9488 -0.0009
11 8 4 1.5629 -0.0054
11 8 5 1.2762 0.0177
11 8 6 0.0417 -0.0250
11 8 7 -1.2390 0.0000
11 8 8 0.6047 0.0158
11 8 9 -1.1604 -0.0188
11 8 10 -0.9156 0.0009
11 8 11 2.0319 0.0440
11 8 12 0.5984 -0.0192
11 8 13 1.7427 -0.0014
11 8 14 -1.0154 0.0035
11 8 15 0.8140 0.0018
11 8 16 -0.7138 -0.0810
11 8 17 -0.5999 0.0698
11 8 18 0.7286 -0.0628
11 8 19 -0.3990 -0.0875
11 9 0 -3.3094 -0.0098
11 9 1 3.6192 0.0359
11 9 2 -3.8392 0.0026
11 9 3 4.5426 0.0037
11 9 4 1.2275 0.0354
11 9 5 -2.4556 0.0065
11 9 6 4.3016 -0.0121
11 9 7 -0.5198 0.0155
11 9 8 3.1814 0.0022
11 9 9 0.5456 -0.0032
11 9 10 -1.4529 0.0015
11 9 11 1.4147 0.0084
11 9 12 -2.8710 -0.0032
11 9 13 2.5728 0.0018
11 9 14 -1.0738 -0.0027
11 9 15 0.3382 0.0195
11 9 16 0.0124 -0.0858
11 9 17 0.4695 0.0491
11 9 18 0.6103 0.0204
11 10 0 -2.9668 -0.0134
11 10 1 3.4685 0.0063
11 10 2 -4.2894 -0.0544
11 10 3 -1.0496 0.0096
11 10 4 0.5954 -0.0005
11 10 5 -3.0701 -0.0062
11 10 6 2.0773 -0.0051
11 10 7 -3.4795 0.0043
11 10 8 1.3077 -0.0088
11 10 9 0.3468 -0.0061
11 10 10 -1.6818 0.0102
11 10 11 1.1806 0.0175
11 10 12 -1.5138 -0.0141
11 10 13 2.2712 -0.0154
11 10 14 -0.2224 -0.0008
11 10 15 0.3922 -0.0382
11 10 16 0.7779 -0.0694
11 10 17 -0.1257 0.0506
11 10 18 0.1255 -0.0156
11 11 0 -1.0076 0.0208
11 11 1 0.5535 -0.0037
11 11 2 -3.5548 -0.0155
11 11 3 -1.5213 -0.0152
11 11 4 2.7579 0.0010
11 11 5 -3.8330 0.0279
11 11 6 2.8819 -0.0098
11 11 7 -2.0519 0.0285
11 11 8 1.5837 -0.0242
11 11 9 0.4105 -0.0337
11 11 10 -1.5985 -0.0088
11 11 11 0.7721 0.0147
11 11 12 -3.0162 0.0270
11 11 13 0.4325 -0.0143
11 11 14 -0.3668 0.0061
11 11 15 -0.3744 -0.0769
11 11 16 -0.1984 -0.0646
11 11 17 -0.0450 0.0972
11 12 0 -0.5873 -0.0103
11 12 1 1.4011 -0.0136
11 12 2 -1.9249 -0.0192
11 12 3 -1.9411 -0.0183
11 12 4 -0.0553 0.0162
11 12 5 -3.3472 0.0075
11 12 6 2.0735 0.0056
11 12 7 -1.4910 0.0392
11 12 8 0.3543 -0.0164
11 12 9 0.7524 0.0020
11 12 10 -1.4783 -0.0049
11 12 11 0.7403 0.0357
11 12 12 -3.3575 -0.0489
11 12 13 1.0858 0.0281
11 12 14 -1.3123 -0.0326
11 12 15 0.1519 0.0143
11 12 16 0.3602 -0.0978
11 13 0 0.6861 -0.0023
11 13 1 0.9981 0.0114
11 13 2 1.9155 -0.0142
11 13 3 -1.0250 -0.0054
11 13 4 2.1081 0.0270
11 13 5 -0.4152 0.0065
11 13 6 1.1876 -0.0092
11 13 7 -0.0598 0.0285
11 13 8 -0.7254 -0.0301
11 13 9 0.6676 -0.0355
11 13 10 -1.2733 0.0011
11 13 11 -0.2614 0.0000
11 13 12 -1.6372 0.0023
11 13 13 -0.3129 0.0335
11 13 14 -0.9455 -0.0131
11 13 15 -0.6848 -0.1830
11 14 0 0.3746 0.0104
11 14 1 0.3689 -0.0381
11 14 2 -1.2390 0.0318
11 14 3 -0.7292 -0.0010
11 14 4 -1.3827 -0.0042
11 14 5 -0.5038 -0.0442
11 14 6 -1.9141 0.0379
11 14 7 -0.2907 0.0043
11 14 8 0.0452 0.0224
11 14 9 -0.2498 0.0444
11 14 10 1.3336 -0.0059
11 14 11 0.5603 0.0110
11 14 12 -0.6925 0.0790
11 14 13 1.0393 -0.0597
11 14 14 -1.0764 0.0257
11 15 0 3.0594 -0.0091
11 15 1 -0.3747 -0.0193
11 15 2 2.6658 0.0222
11 15 3 -0.6558 -0.0453
11 15 4 -0.4423 0.0236
11 15 5 0.5093 -0.0219
11 15 6 0.7337 -0.0161
11 15 7 0.7655 -0.0200
11 15 8 0.5400 0.0211
11 15 9 0.0919 -0.0078
11 15 10 -0.9784 0.0329
11 15 11 -0.0877 0.0073
11 15 12 -1.6193 -0.0421
11 15 13 0.6129 0.0041
11 16 0 0.2610 0.0389
11 16 1 0.7231 -0.0464
11 16 2 0.5281 -0.0246
11 16 3 0.0901 0.0502
11 16 4 0.4069 -0.0047
11 16 5 -0.3804 -0.0396
11 16 6 0.0626 0.0771
11 16 7 -1.0596 -0.0853
11 16 8 -0.5750 0.0048
11 16 9 0.6253 0.0297
11 16 10 -0.3171 0.0674
11 16 11 1.4580 -0.0431
11 16 12 -0.1718 0.2925
11 17 0 2.4886 0.0502
11 17 1 -0.4210 -0.0152
11 17 2 0.2629 0.0928
11 17 3 -0.1888 -0.0105
11 17 4 -1.4523 -0.0059
11 17 5 0.8386 -0.0556
11 17 6 -0.1594 -0.0012
11 17 7 0.7910 -0.0465
11 17 8 -0.4414 0.1460
11 17 9 1.5018 0.0167
11 17 10 -0.8613 -0.0141
11 18 0 0.0568 -0.0118
11 18 1 -0.8934 -0.0133
11 18 2 1.3200 -0.0574
11 18 3 -1.5914 -0.0406
11 18 4 0.9353 0.0732
11 18 5 -0.9579 -0.0189
11 18 6 0.1505 -0.1085
11 18 7 0.4798 -0.0631
11 18 8 -0.4716 -0.3939
11 19 0 0.9989 0.0225
11 19 1 -0.5626 0.0385
11 19 2 -0.2653 0.0325
11 19 3 1.0100 0.0247
11 19 4 -1.3389 -0.2009
11 19 5 2.0326 -0.0105
11 20 0 0.3081 -0.2413
12 0 0 -18.6436 -0.0144
12 0 2 5.3595 -0.0191
12 0 4 9.8902 0.0712
12 0 6 4.2241 -0.0255
12 0 8 -2.1748 -0.0347
12 0 10 0.5573 0.0370
12 0 12 0.5383 -0.0181
12 0 14 0.0888 0.0105
12 0 16 0.0851 0.0084
12 0 18 1.3181 0.0489
12 0 20 1.2271 0.0108
12 1 0 -0.6957 0.1107
12 1 1 -5.7050 -0.0121
12 1 2 -1.0789 -0.0174
12 1 3 -10.4160 -0.0413
12 1 4 -4.6320 -0.0375
12 1 5 -0.7814 0.0052
12 1 6 -0.2029 0.0712
12 1 7 -1.7773 0.0254
12 1 8 1.6372 -0.0066
12 1 9 -1.1730 -0.0093
12 1 10 -0.4563 0.0049
12 1 11 2.2542 -0.0016
12 1 12 -1.4760 -0.0120
12 1 13 0.2605 -0.0054
12 1 14 -0.6251 -0.0298
12 1 15 -0.6441 -0.0407
12 1 16 0.5909 -0.0638
12 1 17 -0.3400 -0.0095
12 1 18 0.7539 -0.0359
12 1 19 -0.3380 0.0014
12 1 20 -0.1638 -0.0455
12 2 0 -14.0522 0.0094
12 2 1 -9.7862 -0.0163
12 2 2 -1.2690 0.0218
12 2 3 2.4327 0.0391
12 2 4 5.3419 -0.0167
12 2 5 3.1425 0.0059
12 2 6 5.3069 -0.0028
12 2 7 1.0446 -0.0005
12 2 8 0.5779 0.0228
12 2 9 -1.2793 -0.0022
12 2 10 -2.0447 0.0126
12 2 11 2.5808 -0.0332
12 2 12 -0.9612 0.0088
12 2 13 1.1575 0.0133
12 2 14 0.8173 0.0259
12 2 15 -0.9048 0.0004
12 2 16 0.7789 -0.0120
12 2 17 -0.7409 -0.0187
12 2 18 0.5729 -0.0201
12 2 19 -0.1200 0.1800
12 2 20 0.1855 0.0007
12 3 0 -7.1478 0.0520
12 3 1 2.4423 -0.0472
12 3 2 -8.2128 -0.0034
12 3 3 0.8016 -0.0178
12 3 4 -6.2398 -0.0240
12 3 5 -5.0534 -0.0107
12 3 6 2.7499 0.0217
12 3 7 -4.6505 -0.0088
12 3 8 2.0818 0.0038
12 3 9 0.9023 -0.0354
12 3 10 -2.1431 0.0218
12 3 11 2.5089 -0.0415
12 3 12 -2.4086 -0.0194
12 3 13 1.4112 -0.0063
12 3 14 0.0430 0.0279
12 3 15 -0.4514 0.0014
12 3 16 0.6493 -0.0026
12 3 17 -0.9375 -0.0010
12 3 18 0.3871 -0.1058
12 3 19 0.7851 0.1232
12 3 20 -0.3012 0.0155
12 4 0 -16.1251 0.0161
12 4 1 -2.3775 0.0095
12 4 2 -7.2275 0.0150
12 4 3 -6.2714 0.0219
12 4 4 7.7119 -0.0150
12 4 5 -5.3704 -0.0081
12 4 6 12.6365 0.0180
12 4 7 -0.7467 -0.0132
12 4 8 2.4077 0.0475
12 4 9 2.4800 -0.0063
12 4 10 -4.3514 0.0232
12 4 11 3.1101 -0.0232
12 4 12 -1.9729 0.0206
12 4 13 -0.2295 0.0006
12 4 14 -0.0142 0.0072
12 4 15 -1.0182 -0.0106
12 4 16 0.1556 0.0214
12 4 17 -0.5429 0.0307
12 4 18 -0.2792 -0.0663
12 4 19 0.2596 0.1212
12 4 20 -0.5372 -0.0175
12 5 0 -15.9322 0.0188
12 5 1 6.0967 -0.0336
12 5 2 -1.0905 0.0388
12 5 3 -1.6092 0.0123
12 5 4 10.2289 0.0007
12 5 5 -8.0274 0.0150
12 5 6 5.0384 0.0108
12 5 7 -1.8197 -0.0297
12 5 8 -3.4379 0.0088
12 5 9 2.2495 -0.0153
12 5 10 -3.8376 -0.0191
12 5 11 1.2856 -0.0183
12 5 12 -1.5737 -0.0031
12 5 13 -0.2860 0.0003
12 5 14 0.7415 0.0284
12 5 15 -0.3810 0.0296
12 5 16 1.4711 0.0220
12 5 17 0.1816 -0.0355
12 5 18 0.2298 -0.0713
12 5 19 0.8033 -0.0720
12 5 20 0.3437 0.0071
12 6 0 -9.9543 0.0111
12 6 1 -3.5089 -0.0012
12 6 2 1.5601 0.0345
12 6 3 -8.6855 -0.0499
12 6 4 4.9732 0.0068
12 6 5 -5.3477 0.0185
12 6 6 1.9259 0.0046
12 6 7 1.5997 -0.0192
12 6 8 -1.6363 0.0274
12 6 9 2.6958 -0.0300
12 6 10 -1.8745 -0.0105
12 6 11 1.5991 0.0165
12 6 12 -0.0916 0.0321
12 6 13 -1.1774 0.0190
12 6 14 -0.1124 0.0432
12 6 15 -1.0205 0.0105
12 6 16 0.1798 -0.0326
12 6 17 -0.8175 0.0191
12 6 18 0.5295 -0.0552
12 6 19 -0.0626 -0.0312
12 7 0 -11.1113 0.0016
12 7 1 -1.4774 -0.0014
12 7 2 0.1498 0.0260
12 7 3 -4.2587 0.0163
12 7 4 6.0119 -0.0104
12 7 5 -1.6726 0.0293
12 7 6 4.5448 -0.0015
12 7 7 1.4156 -0.0155
12 7 8 -0.5279 0.0119
12 7 9 0.0494 -0.0248
12 7 10 -2.7855 -0.0078
12 7 11 0.5213 0.0202
12 7 12 -0.6070 0.0555
12 7 13 -0.2415 0.0110
12 7 14 0.4837 -0.0114
12 7 15 -0.8982 -0.0118
12 7 16 1.6180 -0.0691
12 7 17 0.0667 0.0524
12 7 18 0.9912 0.0813
12 7 19 -0.9245 -0.0120
12 8 0 -4.5887 -0.0273
12 8 1 -4.7160 -0.0064
12 8 2 0.3947 0.0174
12 8 3 0.1377 0.0135
12 8 4 3.7980 -0.0203
12 8 5 0.4779 0.0333
12 8 6 -1.3782 -0.0157
12 8 7 -0.2804 -0.0226
12 8 8 -0.6331 0.0227
12 8 9 1.4681 0.0037
12 8 10 -1.3057 -0.0235
12 8 11 2.0846 0.0297
12 8 12 0.1831 -0.0089
12 8 13 0.7647 -0.0391
12 8 14 -1.0480 0.0040
12 8 15 0.0772 0.0211
12 8 16 -0.1242 -0.0532
12 8 17 -0.5983 0.0257
12 8 18 0.9150 0.0491
12 9 0 -3.1056 0.0039
12 9 1 1.6114 0.0149
12 9 2 -1.5978 0.0240
12 9 3 0.3698 -0.0110
12 9 4 3.5095 0.0253
12 9 5 -2.0827 0.0126
12 9 6 4.0251 -0.0177
12 9 7 0.9581 0.0038
12 9 8 0.4583 0.0068
12 9 9 1.3658 0.0056
12 9 10 -2.8770 -0.0037
12 9 11 1.6601 0.0187
12 9 12 -1.9244 0.0196
12 9 13 1.7474 -0.0106
12 9 14 0.3685 -0.0170
12 9 15 -0.1490 0.0258
12 9 16 0.6184 -0.0390
12 9 17 0.1239 0.0127
12 9 18 0.4592 0.1529
12 10 0 -3.7164 -0.0125
12 10 1 -0.5600 0.0078
12 10 2 -2.3718 -0.0282
12 10 3 -5.0461 0.0016
12 10 4 1.9710 -0.0006
12 10 5 -2.6926 0.0113
12 10 6 0.8451 -0.0044
12 10 7 -1.5828 0.0015
12 10 8 -0.1613 0.0153
12 10 9 1.8544 -0.0123
12 10 10 -1.8165 -0.0040
12 10 11 1.3743 0.0171
12 10 12 -0.6907 -0.0253
12 10 13 0.7640 -0.0352
12 10 14 0.5079 -0.0315
12 10 15 -0.3414 -0.0126
12 10 16 0.8634 -0.0664
12 10 17 -0.2637 0.0509
12 11 0 -0.2484 0.0123
12 11 1 -0.1148 -0.0236
12 11 2 -1.1638 -0.0188
12 11 3 -2.9054 -0.0239
12 11 4 4.2689 -0.0061
12 11 5 -2.9536 0.0272
12 11 6 1.8753 -0.0151
12 11 7 0.0713 -0.0036
12 11 8 -0.5085 -0.0026
12 11 9 1.2991 -0.0258
12 11 10 -2.4719 0.0120
12 11 11 0.4257 0.0310
12 11 12 -2.0267 0.0277
12 11 13 -0.8372 -0.0579
12 11 14 0.5308 -0.0337
12 11 15 -0.6430 -0.0435
12 11 16 -0.0889 -0.0377
12 11 17 0.2231 0.1106
12 12 0 -1.6552 0.0089
12 12 1 -0.7051 0.0022
12 12 2 -1.1559 0.0116
12 12 3 -4.0378 -0.0041
12 12 4 0.3973 0.0342
12 12 5 -2.1961 0.0264
12 12 6 1.3770 0.0127
12 12 7 0.4609 0.0246
12 12 8 -1.1199 0.0111
12 12 9 1.4355 -0.0106
12 12 10 -2.4242 -0.0149
12 12 11 0.8806 0.0300
12 12 12 -2.3969 -0.0481
12 12 13 0.2750 -0.0195
12 12 14 -0.1429 -0.0326
12 12 15 -0.4289 0.0365
12 12 16 0.6738 -0.1270
12 13 0 1.4892 0.0149
12 13 1 1.3322 0.0061
12 13 2 1.5631 -0.0031
12 13 3 -1.6467 -0.0219
12 13 4 1.9778 0.0227
12 13 5 0.2283 0.0002
12 13 6 0.2320 -0.0295
12 13 7 1.1736 -0.0058
12 13 8 -1.8823 -0.0105
12 13 9 0.6808 -0.0488
12 13 10 -1.8676 0.0349
12 13 11 -0.2705 0.0324
12 13 12 -1.2192 0.0074
12 13 13 -0.8287 -0.0228
12 13 14 0.1057 -0.0601
12 13 15 -1.1448 -0.2052
12 14 0 -0.0458 0.0129
12 14 1 0.0473 -0.0533
12 14 2 -1.0685 0.0284
12 14 3 -0.1470 -0.0128
12 14 4 -1.8438 0.0008
12 14 5 0.1240 -0.0341
12 14 6 -1.5736 0.0448
12 14 7 0.7177 0.0105
12 14 8 1.0317 0.0234
12 14 9 0.3435 0.0136
12 14 10 0.6531 0.0617
12 14 11 0.7350 -0.0083
12 14 12 -1.3501 0.1129
12 14 13 0.3593 -0.1480
12 14 14 -0.5123 -0.0042
12 15 0 3.2945 0.0085
12 15 1 -0.5131 -0.0146
12 15 2 1.4100 0.0386
12 15 3 -0.4514 -0.0495
12 15 4 -0.5627 0.0286
12 15 5 1.2024 -0.0307
12 15 6 1.0532 -0.0119
12 15 7 1.3207 -0.0205
12 15 8 0.0597 0.0192
12 15 9 0.1986 -0.0200
12 15 10 -1.3153 0.0040
12 15 11 0.2122 0.0419
12 15 12 -1.2610 -0.0609
12 15 13 0.6031 0.0423
12 16 0 0.6365 0.0381
12 16 1 1.1246 -0.0538
12 16 2 0.1859 -0.0347
12 16 3 0.2602 0.0596
12 16 4 -0.4483 0.0332
12 16 5 -0.2278 -0.0631
12 16 6 -0.3315 0.0775
12 16 7 0.0816 -0.0391
12 16 8 -0.2148 -0.0125
12 16 9 1.3952 0.0324
12 16 10 -0.1062 0.1755
12 16 11 1.1477 -0.0325
12 17 0 1.9957 0.0749
12 17 1 -0.7879 -0.0153
12 17 2 -0.4476 0.0739
12 17 3 0.4322 -0.0293
12 17 4 -1.3889 -0.0358
12 17 5 0.9347 -0.0570
12 17 6 -0.5883 0.0450
12 17 7 1.2258 -0.0149
12 17 8 -0.7538 0.0759
12 17 9 1.4784 0.0385
12 18 0 0.8139 -0.0128
12 18 1 0.0192 -0.0340
12 18 2 0.7811 -0.0325
12 18 3 -1.1815 0.0153
12 18 4 0.0269 0.0624
12 18 5 -0.4574 -0.0348
12 18 6 -0.0148 -0.2044
12 18 7 0.8376 -0.0650
12 19 0 0.7914 0.0126
12 19 1 -0.0466 0.0049
12 19 2 -0.4806 -0.0383
12 19 3 2.3339 0.0003
12 19 4 -0.9681 -0.2684
13 0 0 -3.6634 -0.0107
13 0 2 13.0782 0.0112
13 0 4 6.9697 0.0179
13 0 6 -0.1751 -0.0445
13 0 8 -4.2217 0.0007
13 0 10 0.2338 0.0045
13 0 12 0.8732 -0.0078
13 0 14 -0.3720 0.0064
13 0 16 0.2503 0.0009
13 0 18 1.4363 0.0418
13 0 20 0.7610 -0.1065
13 1 0 -0.9389 0.0612
13 1 1 -14.7179 -0.0138
13 1 2 -2.2000 -0.0466
13 1 3 -11.1263 -0.0090
13 1 4 -4.6317 -0.0034
13 1 5 1.9086 0.0432
13 1 6 -0.2935 0.0599
13 1 7 0.9740 0.0000
13 1 8 0.7616 -0.0021
13 1 9 0.6840 -0.0111
13 1 10 -1.4189 -0.0041
13 1 11 1.4426 -0.0043
13 1 12 -0.8332 -0.0293
13 1 13 -1.0315 -0.0266
13 1 14 0.0792 -0.0263
13 1 15 -0.8158 -0.0167
13 1 16 0.6005 -0.0807
13 1 17 -0.4561 -0.0205
13 1 18 0.3493 -0.0518
13 1 19 0.0197 -0.0032
13 1 20 -0.4647 -0.0502
13 2 0 -3.4732 -0.0081
13 2 1 -5.6294 0.0717
13 2 2 3.9528 -0.0065
13 2 3 4.7736 -0.0020
13 2 4 4.7026 -0.0279
13 2 5 3.1903 -0.0363
13 2 6 1.8419 -0.0073
13 2 7 1.4005 0.0130
13 2 8 -2.7435 0.0393
13 2 9 0.4699 -0.0275
13 2 10 -2.0991 0.0084
13 2 11 2.0254 -0.0204
13 2 12 0.2858 0.0148
13 2 13 -0.2521 0.0171
13 2 14 0.9483 0.0255
13 2 15 -0.6687 0.0060
13 2 16 0.2965 -0.0338
13 2 17 -0.0725 0.0337
13 2 18 -0.0243 -0.0004
13 2 19 0.4135 0.1696
13 2 20 -0.1491 0.0704
13 3 0 -6.4476 0.0055
13 3 1 -1.4695 -0.0095
13 3 2 -6.5804 -0.0198
13 3 3 -1.4853 0.0259
13 3 4 -4.9615 0.0219
13 3 5 -4.0871 -0.0324
13 3 6 2.0327 0.0131
13 3 7 -0.7712 -0.0111
13 3 8 0.7657 0.0126
13 3 9 2.4557 -0.0292
13 3 10 -1.9743 0.0196
13 3 11 1.4608 -0.0313
13 3 12 -0.5602 -0.0260
13 3 13 0.1823 0.0060
13 3 14 0.5343 0.0445
13 3 15 -0.8150 0.0059
13 3 16 0.1368 -0.0558
13 3 17 -0.2621 0.0310
13 3 18 -0.2635 -0.0978
13 3 19 1.3213 0.0703
13 3 20 -0.7688 0.1140
13 4 0 -10.5445 0.0093
13 4 1 -4.0270 0.0246
13 4 2 -0.9930 -0.0188
13 4 3 -5.4396 0.0086
13 4 4 11.2304 -0.0004
13 4 5 -2.3349 -0.0130
13 4 6 9.3852 0.0227
13 4 7 2.2561 -0.0136
13 4 8 -1.2027 0.0267
13 4 9 3.5443 -0.0088
13 4 10 -3.7246 0.0061
13 4 11 1.6324 -0.0110
13 4 12 -0.9873 -0.0026
13 4 13 -1.3254 -0.0208
13 4 14 0.1064 0.0089
13 4 15 -0.6296 0.0023
13 4 16 -0.2269 0.0294
13 4 17 -0.0473 0.0549
13 4 18 -0.9440 -0.0632
13 4 19 0.5592 -0.0010
13 4 20 -0.7538 0.0387
13 5 0 -9.9472 0.0477
13 5 1 0.5723 -0.0004
13 5 2 5.2715 0.0226
13 5 3 -4.4646 0.0336
13 5 4 8.0212 -0.0040
13 5 5 -5.7896 -0.0119
13 5 6 -0.8974 0.0095
13 5 7 1.5233 -0.0195
13 5 8 -5.5291 -0.0145
13 5 9 2.2694 -0.0205
13 5 10 -2.6141 -0.0160
13 5 11 0.4053 -0.0187
13 5 12 0.0774 0.0177
13 5 13 -0.7355 0.0137
13 5 14 1.6644 0.0389
13 5 15 -0.3111 -0.0011
13 5 16 1.3857 0.0092
13 5 17 0.5743 -0.0457
13 5 18 -0.0326 -0.0468
13 5 19 0.9023 -0.1421
13 6 0 -4.8313 -0.0027
13 6 1 -8.2037 -0.0245
13 6 2 5.6051 -0.0041
13 6 3 -8.4330 -0.0063
13 6 4 3.6346 -0.0081
13 6 5 -2.5051 0.0115
13 6 6 -1.4859 0.0164
13 6 7 4.0491 -0.0323
13 6 8 -2.7929 0.0038
13 6 9 2.9763 -0.0053
13 6 10 -1.4058 -0.0122
13 6 11 -0.0189 0.0108
13 6 12 0.4475 0.0529
13 6 13 -2.0394 0.0170
13 6 14 -0.0065 0.0271
13 6 15 -1.3874 -0.0165
13 6 16 0.2523 -0.0230
13 6 17 -0.5409 -0.0080
13 6 18 0.2976 0.0103
13 6 19 0.0663 -0.0273
13 7 0 -7.0825 0.0284
13 7 1 -6.3389 0.0019
13 7 2 4.0104 -0.0061
13 7 3 -3.9077 0.0459
13 7 4 6.5424 -0.0229
13 7 5 1.6533 0.0144
13 7 6 1.3690 0.0224
13 7 7 2.2562 -0.0243
13 7 8 -2.9602 -0.0072
13 7 9 0.4851 -0.0092
13 7 10 -2.1239 0.0082
13 7 11 0.5936 0.0095
13 7 12 0.7803 0.0531
13 7 13 -0.7310 -0.0082
13 7 14 1.4414 -0.0577
13 7 15 -0.8190 -0.0090
13 7 16 1.4570 0.0099
13 7 17 -0.0043 0.0478
13 7 18 0.4977 0.1911
13 7 19 -0.5180 -0.0428
13 8 0 -1.0714 -0.0096
13 8 1 -5.4013 -0.0059
13 8 2 4.0018 0.0174
13 8 3 0.7009 0.0358
13 8 4 2.5869 -0.0294
13 8 5 0.9793 0.0179
13 8 6 -3.7185 0.0090
13 8 7 1.6243 -0.0249
13 8 8 -1.2704 0.0053
13 8 9 2.5227 0.0308
13 8 10 -1.1771 -0.0328
13 8 11 0.6064 -0.0024
13 8 12 -0.0281 0.0135
13 8 13 -0.1704 -0.0322
13 8 14 -0.8754 -0.0047
13 8 15 -0.1813 0.0359
13 8 16 0.2056 -0.0012
13 8 17 -0.2123 -0.0160
13 8 18 0.4451 0.1372
13 9 0 -1.9128 0.0265
13 9 1 -2.3455 -0.0259
13 9 2 0.1494 0.0255
13 9 3 -0.9576 -0.0114
13 9 4 3.6327 0.0040
13 9 5 0.2839 -0.0013
13 9 6 1.8248 -0.0109
13 9 7 1.7020 -0.0053
13 9 8 -1.7372 0.0061
13 9 9 1.4355 0.0260
13 9 10 -2.1948 -0.0017
13 9 11 1.3663 0.0017
13 9 12 -0.1190 0.0206
13 9 13 1.0808 -0.0221
13 9 14 1.3447 -0.0416
13 9 15 -0.2793 0.0329
13 9 16 0.6930 0.0330
13 9 17 0.1087 -0.0140
13 9 18 0.1404 0.2267
13 10 0 -2.5659 0.0126
13 10 1 -4.3550 -0.0049
13 10 2 -0.5116 -0.0075
13 10 3 -5.7428 0.0066
13 10 4 1.6017 -0.0088
13 10 5 -0.0266 0.0166
13 10 6 -0.7196 0.0144
13 10 7 0.2426 -0.0157
13 10 8 -1.0716 0.0252
13 10 9 2.2500 -0.0039
13 10 10 -1.2993 -0.0124
13 10 11 0.2841 0.0104
13 10 12 0.1402 -0.0164
13 10 13 -0.6867 -0.0353
13 10 14 0.7854 -0.0459
13 10 15 -0.4817 0.0272
13 10 16 0.5907 -0.0257
13 10 17 -0.2413 0.0560
13 11 0 0.8242 0.0051
13 11 1 -1.5996 -0.0307
13 11 2 -0.0667 -0.0154
13 11 3 -3.0613 -0.0199
13 11 4 3.2980 -0.0093
13 11 5 -1.0984 0.0161
13 11 6 0.0412 0.0013
13 11 7 1.4553 -0.0310
13 11 8 -1.7926 0.0177
13 11 9 1.0491 0.0085
13 11 10 -2.0473 0.0159
13 11 11 -0.6469 0.0111
13 11 12 -0.5060 0.0090
13 11 13 -1.4892 -0.1019
13 11 14 0.9812 -0.0491
13 11 15 -0.2172 0.0044
13 11 16 0.0559 0.0472
13 12 0 -1.8742 0.0168
13 12 1 -2.4086 0.0217
13 12 2 -0.4106 0.0380
13 12 3 -4.0850 0.0074
13 12 4 -0.3739 0.0339
13 12 5 0.5290 0.0220
13 12 6 0.3717 0.0127
13 12 7 1.9548 -0.0106
13 12 8 -1.9948 0.0142
13 12 9 1.2662 -0.0064
13 12 10 -2.2361 -0.0246
13 12 11 0.0131 0.0133
13 12 12 -0.8545 -0.0310
13 12 13 -0.7966 -0.0549
13 12 14 0.4371 -0.0334
13 12 15 -0.7108 0.0628
13 13 0 1.1822 -0.0012
13 13 1 0.6185 0.0096
13 13 2 0.7099 -0.0042
13 13 3 -1.9280 -0.0253
13 13 4 1.2051 0.0122
13 13 5 1.3512 0.0030
13 13 6 -1.0823 -0.0244
13 13 7 1.8368 -0.0369
13 13 8 -2.2501 0.0199
13 13 9 0.4078 -0.0170
13 13 10 -1.3990 0.0569
13 13 11 -0.6551 0.0661
13 13 12 -0.0967 -0.0148
13 13 13 -1.3424 -0.0708
13 13 14 0.9007 -0.1209
13 14 0 0.1175 -0.0063
13 14 1 0.5054 -0.0374
13 14 2 -0.7785 0.0131
13 14 3 0.2737 -0.0028
13 14 4 -2.4545 -0.0088
13 14 5 0.7500 -0.0095
13 14 6 -0.6394 0.0289
13 14 7 1.3712 -0.0089
13 14 8 1.8214 0.0145
13 14 9 0.3560 -0.0184
13 14 10 -0.0946 0.0960
13 14 11 0.0221 -0.0370
13 14 12 -1.1061 0.0880
13 14 13 -0.7616 -0.2249
13 15 0 2.2720 -0.0010
13 15 1 -0.5722 0.0124
13 15 2 0.2796 0.0308
13 15 3 -0.0505 -0.0394
13 15 4 -0.3909 0.0159
13 15 5 1.6342 -0.0101
13 15 6 1.0393 -0.0067
13 15 7 1.3967 0.0005
13 15 8 -0.0314 0.0065
13 15 9 0.4688 0.0135
13 15 10 -1.0291 -0.0341
13 15 11 0.4945 0.1272
13 15 12 -0.3938 -0.0694
13 16 0 0.8182 0.0330
13 16 1 1.3258 -0.0306
13 16 2 -0.6408 -0.0404
13 16 3 0.3093 0.0698
13 16 4 -1.1049 0.0389
13 16 5 0.1908 -0.0562
13 16 6 -0.1765 0.0174
13 16 7 0.5908 0.0132
13 16 8 0.2836 -0.0214
13 16 9 1.1924 0.0138
13 16 10 -0.0481 0.2427
13 16 11 0.4803 -0.0156
13 17 0 1.1585 0.0548
13 17 1 -0.2020 -0.0066
13 17 2 -0.8416 0.0157
13 17 3 0.9610 -0.0248
13 17 4 -1.6036 -0.0356
13 17 5 0.7092 -0.0142
13 17 6 -0.8649 0.0570
13 17 7 1.5338 0.0406
13 17 8 0.0188 -0.0364
13 17 9 1.2059 0.0724
13 18 0 0.7759 0.0036
13 18 1 0.5033 0.0073
13 18 2 -0.0786 -0.0131
13 18 3 -0.8589 0.0552
13 18 4 -0.2350 0.0091
13 18 5 0.1857 -0.0667
13 18 6 -0.0971 -0.2814
13 18 7 0.7097 -0.0320
13 19 0 0.3746 -0.0546
13 19 1 1.2215 -0.0385
13 19 2 -0.2594 -0.1281
13 19 3 2.8224 0.0246
13 19 4 -0.4499 -0.2446
14 0 0 9.4275 0.0303
14 0 2 12.6765 -0.0063
14 0 4 -0.8409 -0.0334
14 0 6 -4.5431 0.0041
14 0 8 -4.0321 -0.0017
14 0 10 1.3225 -0.0162
14 0 12 0.5922 0.0138
14 0 14 -0.9235 -0.0187
14 0 16 0.5941 0.0132
14 0 18 1.2941 -0.0123
14 0 20 0.2726 -0.1932
14 1 0 -2.8069 -0.0010
14 1 1 -16.9096 -0.0006
14 1 2 -3.0912 -0.0092
14 1 4 -4.2978 0.0001
14 1 5 6.0570 0.0199
14 1 6 0.0220 0.0280
14 1 7 2.4753 -0.0333
14 1 8 0.4502 0.0078
14 1 9 0.0618 0.0053
14 1 10 -1.3025 -0.0239
14 1 11 -0.1577 -0.0196
14 1 12 -0.0865 -0.0190
14 1 13 -1.5768 -0.0156
14 1 14 0.3034 -0.0021
14 1 15 -0.8260 0.0023
14 1 16 0.4028 -0.0760
14 1 17 -0.3500 -0.0473
14 1 18 -0.1338 -0.0350
14 1 19 0.5931 -0.0024
14 1 20 -0.5443 0.0112
14 2 0 3.6592 -0.0445
14 2 1 -0.4398 0.0633
14 2 2 3.2772 -0.0146
14 2 3 7.3142 -0.0658
14 2 4 0.5703 -0.0118
14 2 5 3.0023 -0.0213
14 2 6 -1.8089 0.0041
14 2 7 1.2766 0.0159
14 2 8 -3.5446 0.0395
14 2 9 0.9078 -0.0248
14 2 10 -0.5183 0.0005
14 2 11 0.6841 0.0042
14 2 12 0.9690 0.0115
14 2 13 -0.4575 0.0098
14 2 14 0.4376 0.0057
14 2 15 0.1409 0.0260
14 2 16 -0.3233 -0.0240
14 2 17 0.5375 0.0300
14 2 18 -0.3650 0.0519
14 2 19 0.8059 0.0929
14 2 20 -0.0700 0.1379
14 3 0 -6.5635 -0.0354
14 3 1 -2.0583 0.0421
14 3 2 -5.6539 0.0243
14 3 3 -1.4317 0.0171
14 3 4 -4.3123 0.0239
14 3 5 -1.5274 -0.0398
14 3 6 2.0644 -0.0069
14 3 7 1.8526 0.0029
14 3 8 1.2608 0.0163
14 3 9 1.9981 -0.0168
14 3 10 -0.3626 -0.0101
14 3 11 0.1965 -0.0058
14 3 12 0.4428 -0.0161
14 3 13 -0.5766 0.0066
14 3 14 -0.1197 0.0244
14 3 15 -0.4951 0.0174
14 3 16 -0.4633 -0.0727
14 3 17 0.4755 0.0284
14 3 18 -0.8161 -0.0112
14 3 19 1.3078 -0.0358
14 4 0 -6.1427 -0.0433
14 4 1 -3.4010 0.0168
14 4 2 2.9437 -0.0072
14 4 3 -2.8189 -0.0016
14 4 4 11.3855 0.0149
14 4 5 -0.0463 0.0045
14 4 6 5.0640 -0.0060
14 4 7 3.3351 -0.0101
14 4 8 -3.0197 0.0057
14 4 9 2.5830 0.0025
14 4 10 -2.4333 -0.0267
14 4 11 -0.1399 -0.0067
14 4 12 -0.2878 -0.0112
14 4 13 -1.2837 -0.0319
14 4 14 -0.0718 0.0146
14 4 15 0.1302 0.0383
14 4 16 -0.7270 0.0214
14 4 17 0.4525 0.0042
14 4 18 -1.1225 -0.0195
14 4 19 0.6554 -0.1539
14 5 0 -3.1594 0.0281
14 5 1 -2.1916 0.0310
14 5 2 7.6020 -0.0095
14 5 3 -4.1108 0.0082
14 5 4 3.1796 -0.0028
14 5 5 -2.5532 -0.0137
14 5 6 -5.6686 -0.0058
14 5 7 2.9202 0.0016
14 5 8 -5.1806 -0.0334
14 5 9 1.3808 -0.0275
14 5 10 -0.5722 -0.0035
14 5 11 -0.1921 0.0007
14 5 12 1.3710 0.0305
14 5 13 -0.8830 0.0053
14 5 14 1.8275 0.0272
14 5 15 -0.0023 -0.0204
14 5 16 0.6198 -0.0052
14 5 17 0.8225 -0.0534
14 5 18 -0.3871 -0.0077
14 5 19 0.9315 -0.2002
14 6 0 0.0778 -0.0369
14 6 1 -9.9353 0.0057
14 6 2 5.8622 -0.0192
14 6 3 -5.3827 0.0146
14 6 5 0.9947 -0.0052
14 6 6 -3.6009 0.0128
14 6 7 5.4998 -0.0093
14 6 8 -2.3362 -0.0175
14 6 9 1.4810 0.0108
14 6 10 -0.4674 -0.0088
14 6 11 -1.6366 0.0104
14 6 12 0.8985 0.0543
14 6 13 -2.1491 0.0163
14 6 14 -0.1066 -0.0027
14 6 15 -1.0254 -0.0489
14 6 16 0.0604 -0.0019
14 6 17 0.0027 0.0095
14 6 18 -0.1544 0.0818
14 6 19 0.0748 0.0158
14 7 0 -2.3422 0.0049
14 7 1 -8.3279 0.0136
14 7 2 6.0527 -0.0357
14 7 3 0.1512 0.0438
14 7 4 4.7679 0.0021
14 7 5 4.5916 -0.0139
14 7 6 -2.4613 0.0171
14 7 7 1.8055 -0.0117
14 7 8 -3.1874 -0.0275
14 7 9 0.3545 -0.0033
14 7 10 -0.1191 0.0251
14 7 11 0.0470 -0.0001
14 7 12 1.8770 0.0032
14 7 13 -0.8601 -0.0099
14 7 14 1.6677 -0.0682
14 7 15 -0.1788 0.0003
14 7 16 0.6585 0.0960
14 7 17 0.3351 0.0537
14 7 18 0.1887 0.2099
14 8 0 2.8319 0.0112
14 8 1 -4.6590 0.0122
14 8 2 3.8144 0.0035
14 8 3 2.1980 0.0296
14 8 4 -0.9963 -0.0158
14 8 5 2.2668 -0.0073
14 8 6 -5.1567 0.0182
14 8 7 3.0047 -0.0007
14 8 8 -1.0477 -0.0221
14 8 9 1.6062 0.0408
14 8 10 -0.8714 -0.0133
14 8 11 -1.0913 -0.0182
14 8 12 -0.3098 0.0160
14 8 13 -0.2955 0.0011
14 8 14 -0.6775 -0.0184
14 8 15 0.3150 0.0279
14 8 16 0.0278 0.0596
14 8 17 0.3609 -0.0157
14 8 18 -0.2597 0.1657
14 9 0 -0.5280 0.0373
14 9 1 -4.5349 -0.0376
14 9 2 0.4188 0.0055
14 9 3 0.5600 -0.0093
14 9 4 1.8985 -0.0046
14 9 5 2.1477 -0.0260
14 9 6 -0.4984 -0.0016
14 9 7 1.1637 0.0112
14 9 8 -1.9236 -0.0013
14 9 9 0.9896 0.0320
14 9 10 -0.2717 -0.0005
14 9 11 0.9005 -0.0267
14 9 12 0.9890 -0.0086
14 9 13 0.5495 -0.0020
14 9 14 1.3237 -0.0504
14 9 15 -0.1861 0.0442
14 9 16 0.3220 0.1063
14 9 17 0.3701 -0.0137
14 10 0 -0.7146 0.0261
14 10 1 -5.5048 -0.0099
14 10 2 -0.2489 -0.0105
14 10 3 -3.2257 0.0189
14 10 4 0.2571 -0.0119
14 10 5 2.6631 -0.0004
14 10 6 -1.6790 0.0303
14 10 7 0.7236 -0.0212
14 10 8 -1.0860 0.0200
14 10 9 1.4713 0.0179
14 10 10 -0.2922 0.0009
14 10 11 -1.0912 0.0006
14 10 12 0.6198 -0.0112
14 10 13 -1.3678 -0.0063
14 10 14 0.6502 -0.0529
14 10 15 -0.2784 0.0707
14 10 16 0.0373 0.0281
14 11 0 1.2566 0.0061
14 11 1 -2.4269 -0.0123
14 11 2 -0.7444 -0.0147
14 11 3 -1.7571 -0.0049
14 11 4 1.0146 0.0010
14 11 5 0.4929 0.0001
14 11 6 -1.2954 0.0128
14 11 7 1.6558 -0.0355
14 11 8 -1.8329 0.0075
14 11 9 -0.0076 0.0413
14 11 10 -0.6643 0.0087
14 11 11 -1.3867 -0.0425
14 11 12 0.6870 -0.0175
14 11 13 -0.9811 -0.1071
14 11 14 0.8356 -0.0256
14 11 15 0.5320 0.0684
14 11 16 0.0682 0.1430
14 12 0 -1.3595 0.0141
14 12 1 -2.9608 0.0286
14 12 2 -0.3642 0.0406
14 12 3 -2.4281 0.0067
14 12 4 -1.4365 0.0120
14 12 5 2.9545 0.0026
14 12 6 -0.0623 0.0038
14 12 7 2.0095 -0.0250
14 12 8 -2.1544 -0.0044
14 12 9 0.1142 0.0218
14 12 10 -1.1111 -0.0161
14 12 11 -1.2374 -0.0118
14 12 12 0.5397 -0.0091
14 12 13 -1.2284 -0.0609
14 12 14 0.4244 -0.0304
14 12 15 -0.5221 0.0976
14 13 0 0.0109 -0.0339
14 13 1 -0.1762 0.0171
14 13 2 -0.1858 -0.0002
14 13 3 -1.3075 -0.0090
14 13 4 0.2660 0.0065
14 13 5 2.0681 0.0117
14 13 6 -1.7930 -0.0080
14 13 7 1.5609 -0.0468
14 13 8 -1.6752 0.0290
14 13 9 -0.3593 0.0441
14 13 10 -0.5090 0.0496
14 13 11 -1.3556 0.0774
14 13 12 0.7067 -0.0702
14 13 13 -1.3928 -0.0971
14 13 14 0.9478 -0.1627
14 14 0 0.6785 -0.0334
14 14 1 0.5264 -0.0090
14 14 2 -0.8513 -0.0095
14 14 3 0.4481 0.0156
14 14 4 -2.5489 -0.0304
14 14 5 1.2710 0.0094
14 14 6 1.1101 -0.0028
14 14 7 1.4150 -0.0370
14 14 8 2.3085 -0.0116
14 14 9 -0.2073 -0.0248
14 14 10 -0.4184 0.0997
14 14 11 -1.0943 -0.0658
14 14 12 -0.3770 0.0324
14 14 13 -1.2578 -0.2625
14 15 0 0.9506 -0.0264
14 15 1 -0.4451 0.0460
14 15 2 -0.3178 0.0100
14 15 3 0.0740 -0.0207
14 15 4 -0.2236 -0.0007
14 15 5 1.5566 0.0278
14 15 6 1.2189 0.0058
14 15 7 1.4130 0.0346
14 15 8 0.4370 -0.0256
14 15 9 0.7790 0.0796
14 15 10 -0.4284 -0.0781
14 15 11 0.2438 0.2055
14 15 12 0.3443 -0.0743
14 16 0 0.3898 0.0156
14 16 1 1.0292 0.0088
14 16 2 -1.5134 -0.0438
14 16 3 0.2788 0.0684
14 16 4 -1.3081 0.0049
14 16 5 0.0999 -0.0277
14 16 6 0.1216 -0.0570
14 16 7 0.2820 0.0457
14 16 8 0.6115 -0.0002
14 16 9 0.9258 -0.0144
14 16 10 0.0840 0.2682
14 17 0 0.5697 -0.0089
14 17 1 0.7993 0.0270
14 17 2 -1.0332 -0.0314
14 17 3 0.6612 0.0060
14 17 4 -1.7973 -0.0111
14 17 5 0.1938 0.0441
14 17 6 -0.2290 0.0271
14 17 7 1.6022 0.0747
14 17 8 1.2241 -0.1342
14 18 0 0.0158 0.0186
14 18 1 0.6856 0.0781
14 18 2 -0.4310 -0.0164
14 18 3 -0.3204 0.0402
14 18 4 -0.0695 -0.0552
14 18 5 0.3949 -0.0767
14 18 6 -0.2830 -0.2972
14 19 0 0.2046 -0.1678
14 19 1 2.2106 -0.0474
14 19 2 0.2366 -0.1655
14 19 3 2.3242 0.0683
15 0 0 13.1007 0.0534
15 0 2 4.3149 -0.0515
15 0 4 -8.7248 -0.0076
15 0 6 -5.3167 0.0447
15 0 8 -1.2324 -0.0359
15 0 10 2.0912 0.0035
15 0 12 -0.4140 0.0110
15 0 14 -0.9205 -0.0292
15 0 16 0.9342 0.0267
15 0 18 0.9046 -0.0898
15 1 0 -4.2227 0.0035
15 1 1 -11.3707 0.0314
15 1 2 -3.8274 0.0269
15 1 3 2.1433 0.0232
15 1 4 -3.7487 -0.0346
15 1 5 7.6437 -0.0370
15 1 6 0.6897 0.0154
15 1 7 0.8463 -0.0254
15 1 8 0.5259 0.0124
15 1 9 -1.9047 0.0138
15 1 10 -0.9416 -0.0281
15 1 11 -1.0959 -0.0242
15 1 12 0.0250 0.0172
15 1 13 -1.6504 0.0088
15 1 14 0.2103 0.0189
15 1 15 -0.8098 -0.0076
15 1 16 0.1396 -0.0662
15 1 17 0.0012 -0.0579
15 1 18 -0.4729 -0.0084
15 1 19 1.0176 -0.0010
15 2 0 5.0927 -0.0552
15 2 1 4.1890 -0.0126
15 2 2 -0.5994 0.0155
15 2 3 8.5724 -0.0623
15 2 4 -3.3998 0.0196
15 2 5 1.2435 0.0039
15 2 6 -3.0627 0.0077
15 2 7 0.2489 0.0138
15 2 8 -1.9315 0.0261
15 2 9 0.5484 -0.0004
15 2 10 1.2087 -0.0027
15 2 11 -0.0340 0.0077
15 2 12 0.8369 0.0013
15 2 13 0.1504 0.0081
15 2 14 -0.3354 -0.0024
15 2 15 0.6304 0.0307
15 2 16 -0.7111 0.0169
15 2 17 0.9028 -0.0056
15 2 18 -0.1296 0.0993
15 2 19 0.7609 0.0264
15 3 0 -7.3576 -0.0049
15 3 1 0.0999 0.0331
15 3 2 -4.8962 0.0482
15 3 3 -0.2508 -0.0073
15 3 4 -2.5708 -0.0140
15 3 5 0.6636 -0.0201
15 3 6 3.6775 -0.0046
15 3 7 2.1526 0.0080
15 3 8 2.6780 -0.0026
15 3 9 0.5944 -0.0018
15 3 10 0.7503 -0.0309
15 3 11 -0.5723 0.0059
15 3 12 0.0594 -0.0019
15 3 13 -0.7492 -0.0077
15 3 14 -0.8708 -0.0068
15 3 15 0.0533 0.0248
15 3 16 -0.7533 -0.0179
15 3 17 0.7751 -0.0192
15 3 18 -1.0224 0.0518
15 3 19 0.8605 -0.1260
15 4 0 -3.9226 -0.0478
15 4 1 -1.0457 -0.0077
15 4 2 4.7053 0.0362
15 4 3 -0.2773 0.0057
15 4 4 9.3694 -0.0105
15 4 5 0.8113 0.0166
15 4 6 1.6783 -0.0207
15 4 7 2.7706 -0.0078
15 4 8 -3.2886 -0.0033
15 4 9 0.8505 0.0114
15 4 10 -1.1138 -0.0458
15 4 11 -0.7036 -0.0179
15 4 12 0.1106 0.0145
15 4 13 -0.1792 -0.0180
15 4 14 -0.2873 0.0003
15 4 15 0.7836 0.0441
15 4 16 -0.8185 0.0310
15 4 17 0.6768 -0.1029
15 4 18 -0.7043 0.0365
15 4 19 0.4768 -0.2360
15 5 0 1.4825 -0.0145
15 5 1 -2.8739 0.0038
15 5 2 6.5513 -0.0176
15 5 3 -2.7895 -0.0143
15 5 4 -2.1869 0.0024
15 5 5 -0.4804 0.0045
15 5 6 -7.8602 -0.0178
15 5 7 2.6411 0.0002
15 5 8 -2.7606 -0.0275
15 5 9 0.3331 -0.0285
15 5 10 1.2234 0.0163
15 5 11 -0.6723 0.0042
15 5 12 1.9275 0.0303
15 5 13 -0.7272 -0.0133
15 5 14 1.2831 0.0026
15 5 15 0.2809 -0.0262
15 5 16 -0.2254 -0.0032
15 5 17 0.7885 -0.0788
15 5 18 -0.3839 0.0285
15 6 0 1.9593 -0.0373
15 6 1 -7.8062 0.0262
15 6 2 2.7648 -0.0043
15 6 3 -1.4647 -0.0020
15 6 4 -3.3902 0.0021
15 6 5 3.6664 -0.0015
15 6 6 -3.5462 0.0079
15 6 7 5.0053 0.0124
15 6 8 -1.1027 -0.0238
15 6 9 -0.8427 0.0091
15 6 10 0.4607 0.0011
15 6 11 -2.4190 0.0132
15 6 12 0.9617 0.0432
15 6 13 -1.5048 -0.0011
15 6 14 -0.4009 -0.0373
15 6 15 -0.1329 -0.0576
15 6 16 -0.1626 0.0467
15 6 17 0.4469 0.0636
15 6 18 -0.4479 0.1361
15 7 0 1.3597 -0.0340
15 7 1 -5.3823 0.0107
15 7 2 6.1743 -0.0157
15 7 3 5.0927 0.0138
15 7 4 1.4068 0.0215
15 7 5 4.8023 -0.0276
15 7 6 -4.9383 -0.0126
15 7 7 0.2000 0.0035
15 7 8 -1.1855 -0.0211
15 7 9 -0.0424 -0.0110
15 7 10 1.5454 0.0223
15 7 11 -0.5600 0.0010
15 7 12 1.8933 -0.0478
15 7 13 -0.4799 -0.0091
15 7 14 0.9380 -0.0357
15 7 15 0.5683 0.0079
15 7 16 -0.2323 0.1314
15 7 17 0.6691 0.0758
15 7 18 0.1794 0.1675
15 8 0 4.1278 0.0089
15 8 1 -2.3027 0.0139
15 8 2 0.5817 -0.0016
15 8 3 4.3232 -0.0018
15 8 4 -3.8284 0.0049
15 8 5 3.1749 -0.0113
15 8 6 -4.6315 -0.0012
15 8 7 2.4092 0.0251
15 8 8 -0.0228 -0.0251
15 8 9 -0.3135 0.0347
15 8 10 -0.4106 0.0139
15 8 11 -1.5793 -0.0129
15 8 12 -0.4225 -0.0097
15 8 13 0.5627 0.0191
15 8 14 -0.4998 -0.0132
15 8 15 1.0105 0.0142
15 8 16 -0.4008 0.1062
15 8 17 0.5801 0.0344
15 9 0 -0.1146 0.0290
15 9 1 -3.5030 -0.0195
15 9 2 -0.6841 -0.0150
15 9 3 3.0463 -0.0195
15 9 4 -0.2819 0.0051
15 9 5 2.5775 -0.0310
15 9 6 -1.3587 -0.0046
15 9 7 -0.2124 0.0383
15 9 8 -0.4374 -0.0069
15 9 9 0.2706 0.0131
15 9 10 1.2373 -0.0057
15 9 11 0.5092 -0.0287
15 9 12 0.9004 -0.0445
15 9 13 0.2899 0.0405
15 9 14 0.7040 -0.0216
15 9 15 0.2115 0.0467
15 9 16 -0.1476 0.1514
15 9 17 0.5417 0.0108
15 10 0 -0.1450 0.0115
15 10 1 -4.1242 0.0035
15 10 2 -1.3656 -0.0206
15 10 3 0.0813 0.0161
15 10 4 -0.4986 -0.0081
15 10 5 3.5916 -0.0196
15 10 6 -1.6437 0.0290
15 10 7 -0.1000 -0.0045
15 10 8 -0.5574 0.0170
15 10 9 0.2601 0.0302
15 10 10 0.5053 0.0191
15 10 11 -1.8555 -0.0052
15 10 12 0.7451 -0.0299
15 10 13 -1.1231 0.0395
15 10 14 0.4015 -0.0398
15 10 15 0.2106 0.0908
15 10 16 -0.4777 0.0849
15 11 0 0.2556 0.0057
15 11 1 -1.7109 0.0205
15 11 2 -2.5629 -0.0146
15 11 3 -0.2817 0.0052
15 11 4 -0.7769 0.0170
15 11 5 0.8981 -0.0138
15 11 6 -1.0940 -0.0124
15 11 7 0.8352 -0.0197
15 11 8 -0.7784 -0.0159
15 11 9 -1.3277 0.0484
15 11 10 0.4926 0.0084
15 11 11 -1.3707 -0.0930
15 11 12 0.8061 -0.0399
15 11 13 0.0542 -0.0527
15 11 14 0.3021 0.0399
15 11 15 0.9824 0.1236
15 12 0 -1.0101 0.0077
15 12 1 -2.4272 0.0154
15 12 2 -1.2918 0.0176
15 12 3 -0.3846 -0.0006
15 12 4 -1.9572 -0.0087
15 12 5 3.9554 -0.0023
15 12 6 0.2867 -0.0072
15 12 7 1.0213 -0.0046
15 12 8 -1.4345 -0.0256
15 12 9 -1.1611 0.0495
15 12 10 0.3960 0.0138
15 12 11 -1.8431 -0.0396
15 12 12 1.0717 -0.0026
15 12 13 -0.7806 -0.0296
15 12 14 0.0835 -0.0218
15 13 0 -0.8105 -0.0440
15 13 1 -0.3011 0.0209
15 13 2 -0.6887 0.0137
15 13 3 -0.7352 0.0118
15 13 4 -0.5161 -0.0003
15 13 5 1.5675 0.0150
15 13 6 -1.6734 -0.0008
15 13 7 0.6158 -0.0372
15 13 8 -0.5195 0.0090
15 13 9 -1.2977 0.0903
15 13 10 0.1330 0.0184
15 13 11 -1.6800 0.0609
15 13 12 0.5944 -0.1356
15 13 13 -0.8452 -0.0882
15 14 0 1.2027 -0.0406
15 14 1 0.1293 0.0043
15 14 2 -0.9988 -0.0265
15 14 3 0.5542 0.0306
15 14 4 -1.7343 -0.0454
15 14 5 1.2041 0.0139
15 14 6 2.7828 -0.0360
15 14 7 0.9253 -0.0463
15 14 8 2.3533 -0.0338
15 14 9 -0.8195 -0.0050
15 14 10 -0.1101 0.0979
15 14 11 -1.7092 -0.1042
15 14 12 0.3084 -0.0222
15 15 0 0.1973 -0.0382
15 15 1 -0.2116 0.0516
15 15 2 -0.4067 -0.0071
15 15 3 -0.2199 -0.0101
15 15 4 0.0757 -0.0059
15 15 5 1.1829 0.0560
15 15 6 1.4635 0.0198
15 15 7 1.3108 0.0580
15 15 8 0.5282 -0.0779
15 15 9 0.6423 0.1303
15 15 10 -0.2200 -0.1076
15 15 11 -0.3077 0.2278
15 16 0 -0.3962 0.0065
15 16 1 0.6499 0.0322
15 16 2 -1.7725 -0.0340
15 16 3 0.1742 0.0473
15 16 4 -1.0624 -0.0350
15 16 5 -0.7144 0.0054
15 16 6 0.4100 -0.0870
15 16 7 -0.0829 0.0500
15 16 8 0.9701 0.0610
15 16 9 1.0177 -0.0442
15 16 10 0.4658 0.2668
15 17 0 0.0531 -0.0789
15 17 1 1.2366 0.0716
15 17 2 -1.2468 -0.0274
15 17 3 -0.1517 0.0307
15 17 4 -1.4472 0.0137
15 17 5 0.0434 0.0639
15 17 6 0.9031 -0.0210
15 17 7 1.5773 0.0549
15 17 8 1.6911 -0.1775
15 18 0 -0.5589 0.0217
15 18 1 0.7629 0.1110
15 18 2 0.0023 -0.0210
15 18 3 0.0763 -0.0175
15 18 4 0.1085 -0.0804
15 18 5 -0.0463 -0.0470
15 19 0 0.1246 -0.2662
15 19 1 2.2001 -0.0173
15 19 2 0.6049 -0.1174
16 0 0 8.2118 0.0303
16 0 2 -4.8197 -0.0437
16 0 4 -11.3890 0.0477
16 0 6 -2.0843 0.0204
16 0 8 1.9393 -0.0441
16 0 10 1.6814 0.0312
16 0 12 -1.1665 -0.0143
16 0 14 -0.4360 -0.0077
16 0 16 0.9995 0.0119
16 0 18 0.6382 -0.1442
16 1 0 -5.5560 0.0338
16 1 1 -2.0162 0.0391
16 1 2 -4.2669 0.0161
16 1 4 -1.8984 -0.0546
16 1 5 4.8768 -0.0438
16 1 6 1.8313 0.0212
16 1 7 -2.7751 0.0065
16 1 8 0.4033 0.0127
16 1 9 -3.0364 0.0044
16 1 10 -0.9693 -0.0085
16 1 11 -1.0409 -0.0054
16 1 12 -0.0544 0.0408
16 1 13 -1.6267 0.0117
16 1 14 0.2960 0.0141
16 1 15 -0.6560 -0.0176
16 1 16 -0.1240 -0.0741
16 1 17 0.4547 -0.0397
16 1 18 -0.4285 0.0142
16 1 19 1.1069 -0.0023
16 2 0 1.7277 -0.0250
16 2 1 7.3877 -0.0399
16 2 2 -5.0982 0.0554
16 2 3 7.7414 -0.0182
16 2 4 -4.8831 0.0296
16 2 5 -1.5749 0.0007
16 2 6 -1.4409 -0.0035
16 2 7 -0.5957 0.0253
16 2 8 0.4135 0.0148
16 2 9 0.6454 0.0071
16 2 10 1.8755 0.0014
16 2 11 0.2962 -0.0006
16 2 12 0.0756 -0.0020
16 2 13 0.6603 0.0143
16 2 14 -0.9501 0.0062
16 2 15 0.6703 0.0218
16 2 16 -0.6032 0.0561
16 2 17 0.9514 -0.0114
16 2 18 0.4535 0.1146
16 2 19 0.3011 -0.0047
16 3 0 -7.2160 0.0394
16 3 1 1.8204 -0.0124
16 3 2 -3.4734 0.0176
16 3 3 -0.1350 -0.0000
16 3 4 0.4071 -0.0321
16 3 5 0.8104 -0.0033
16 3 6 5.7167 0.0090
16 3 7 0.6713 -0.0011
16 3 8 3.4189 -0.0281
16 3 9 -0.7122 0.0064
16 3 10 0.4272 -0.0225
16 3 11 -0.8276 -0.0101
16 3 12 -0.8259 0.0028
16 3 13 -0.5835 -0.0198
16 3 14 -0.9746 -0.0069
16 3 15 0.4203 0.0176
16 3 16 -0.6610 0.0496
16 3 17 0.5594 -0.0794
16 3 18 -0.7407 0.0147
16 3 19 0.2354 -0.1481
16 4 0 -2.5960 0.0120
16 4 1 1.7754 -0.0247
16 4 2 5.2906 0.0343
16 4 3 0.6290 0.0103
16 4 4 6.9066 -0.0407
16 4 5 0.0875 0.0073
16 4 6 -0.4031 0.0083
16 4 7 1.3144 -0.0051
16 4 8 -2.9392 -0.0066
16 4 9 -0.3033 0.0008
16 4 10 0.0334 -0.0233
16 4 11 -0.0517 -0.0292
16 4 12 0.2977 0.0411
16 4 13 0.8225 0.0021
16 4 14 -0.2986 -0.0277
16 4 15 0.8673 -0.0021
16 4 16 -0.5134 0.0719
16 4 17 0.5378 -0.1847
16 4 18 -0.0249 0.0370
16 5 0 3.2106 -0.0246
16 5 1 -2.0823 -0.0359
16 5 2 3.9016 0.0015
16 5 3 -1.6440 -0.0038
16 5 4 -6.2744 0.0077
16 5 5 0.0614 -0.0008
16 5 6 -7.1741 -0.0078
16 5 7 1.7986 -0.0141
16 5 8 0.1128 -0.0007
16 5 9 -0.3665 -0.0298
16 5 10 1.8775 0.0334
16 5 11 -0.7485 -0.0136
16 5 12 1.8066 0.0167
16 5 13 -0.3649 -0.0164
16 5 14 0.3770 -0.0160
16 5 15 0.2363 -0.0488
16 5 16 -0.6528 0.0197
16 5 17 0.5887 -0.0888
16 5 18 -0.1083 0.0359
16 6 0 0.7914 -0.0002
16 6 1 -4.0988 -0.0009
16 6 2 -0.8134 0.0040
16 6 3 1.9225 -0.0138
16 6 4 -4.0226 0.0043
16 6 5 4.6436 0.0100
16 6 6 -1.7131 0.0119
16 6 7 2.6400 0.0058
16 6 8 0.3270 -0.0183
16 6 9 -2.7896 0.0031
16 6 10 1.2546 0.0181
16 6 11 -1.9936 0.0058
16 6 12 0.7331 0.0148
16 6 13 -0.2007 -0.0226
16 6 14 -0.4237 -0.0518
16 6 15 0.7236 -0.0342
16 6 16 -0.0855 0.1197
16 6 17 0.5108 0.1137
16 6 18 -0.2668 0.1342
16 7 0 2.9884 -0.0263
16 7 1 -0.2225 -0.0105
16 7 2 4.5216 0.0213
16 7 3 7.2696 -0.0115
16 7 4 -2.0172 0.0060
16 7 5 2.5501 -0.0236
16 7 6 -4.7722 -0.0267
16 7 7 -1.4537 0.0018
16 7 8 1.4757 0.0033
16 7 9 -0.6447 -0.0188
16 7 10 1.7940 0.0054
16 7 11 -1.0123 0.0085
16 7 12 1.0477 -0.0655
16 7 13 0.2955 -0.0213
16 7 14 -0.0237 -0.0000
16 7 15 1.1229 0.0156
16 7 16 -0.4948 0.1180
16 7 17 0.7004 0.1122
16 8 0 2.4021 -0.0015
16 8 1 0.7505 -0.0097
16 8 2 -3.0096 0.0092
16 8 3 5.6230 -0.0206
16 8 4 -4.2777 0.0059
16 8 5 2.4028 0.0033
16 8 6 -2.6747 -0.0227
16 8 7 0.5377 0.0298
16 8 8 1.0964 0.0039
16 8 9 -1.3845 0.0239
16 8 10 -0.1801 0.0199
16 8 11 -0.7553 -0.0087
16 8 12 -0.5067 -0.0360
16 8 13 1.5735 0.0137
16 8 14 -0.4870 0.0166
16 8 15 1.3364 0.0204
16 8 16 -0.6175 0.1208
16 8 17 0.5578 0.0967
16 9 0 -0.6428 0.0147
16 9 1 -0.4081 -0.0078
16 9 2 -2.1788 -0.0204
16 9 3 4.0995 -0.0261
16 9 4 -1.2650 0.0176
16 9 5 1.2711 -0.0105
16 9 6 -0.0945 -0.0182
16 9 7 -1.9703 0.0448
16 9 8 1.3666 -0.0007
16 9 9 -0.3233 -0.0074
16 9 10 1.2760 -0.0154
16 9 11 0.1603 0.0018
16 9 12 -0.0507 -0.0550
16 9 13 0.0206 0.0682
16 9 14 0.0064 0.0339
16 9 15 0.4165 0.0394
16 9 16 -0.4449 0.1454
16 10 0 -1.0747 -0.0049
16 10 1 -1.2264 0.0151
16 10 2 -2.4888 -0.0205
16 10 3 2.2488 -0.0050
16 10 4 -0.2586 -0.0064
16 10 5 2.4106 -0.0159
16 10 6 -0.9647 0.0183
16 10 7 -1.3304 0.0069
16 10 8 0.2812 0.0217
16 10 9 -0.2381 0.0203
16 10 10 1.1102 0.0170
16 10 11 -1.4719 0.0008
16 10 12 0.8991 -0.0548
16 10 13 -0.2839 0.0719
16 10 14 0.1869 0.0112
16 10 15 0.6468 0.0761
16 10 16 -0.6105 0.1304
16 11 0 -1.1507 -0.0004
16 11 1 -0.2206 0.0399
16 11 2 -3.6802 -0.0085
16 11 3 0.1510 -0.0016
16 11 4 -1.1377 0.0160
16 11 5 0.1966 -0.0176
16 11 6 0.0991 -0.0602
16 11 7 -0.5491 0.0012
16 11 8 0.2392 -0.0107
16 11 9 -2.1742 0.0295
16 11 10 0.6494 0.0153
16 11 11 -0.4115 -0.1027
16 11 12 0.2126 -0.0417
16 11 13 1.1232 0.0355
16 11 14 -0.2550 0.1393
16 11 15 1.0243 0.1360
16 12 0 -1.6255 0.0034
16 12 1 -1.4376 -0.0087
16 12 2 -2.0010 -0.0078
16 12 3 0.9085 0.0038
16 12 4 -1.1947 -0.0067
16 12 5 3.4133 0.0157
16 12 6 1.0083 -0.0163
16 12 7 -0.3835 0.0213
16 12 8 -0.4551 -0.0311
16 12 9 -1.9805 0.0519
16 12 10 1.3515 0.0428
16 12 11 -1.5754 -0.0586
16 12 12 0.8705 -0.0197
16 12 13 0.0551 0.0304
16 12 14 -0.1074 0.0057
16 13 0 -1.0617 -0.0191
16 13 1 0.1065 0.0127
16 13 2 -0.8627 0.0208
16 13 3 -0.8177 0.0147
16 13 4 -0.7081 -0.0115
16 13 5 0.4459 0.0106
16 13 6 -0.8569 -0.0031
16 13 7 -0.4035 -0.0287
16 13 8 0.2623 -0.0203
16 13 9 -1.9178 0.0934
16 13 10 -0.3332 -0.0142
16 13 11 -1.2298 0.0429
16 13 12 -0.2931 -0.1809
16 13 13 -0.1094 -0.0443
16 14 0 1.4118 -0.0139
16 14 1 -0.4200 0.0007
16 14 2 -0.7901 -0.0296
16 14 3 0.4496 0.0371
16 14 4 -0.2484 -0.0406
16 14 5 0.7678 0.0056
16 14 6 4.0054 -0.0542
16 14 7 0.6366 -0.0245
16 14 8 2.3981 -0.0269
16 14 9 -1.0440 0.0061
16 14 10 0.3571 0.0938
16 14 11 -1.5108 -0.1662
16 14 12 0.4448 -0.0624
16 15 0 -0.2188 -0.0243
16 15 1 -0.2748 0.0132
16 15 2 -0.5175 -0.0145
16 15 3 -0.7799 -0.0151
16 15 4 0.2017 0.0060
16 15 5 0.8973 0.0543
16 15 6 1.0796 0.0241
16 15 7 1.0282 0.0490
16 15 8 -0.0145 -0.1244
16 15 9 0.1737 0.1373
16 15 10 -0.3299 -0.0959
16 16 0 -0.6575 0.0334
16 16 1 0.4511 0.0168
16 16 2 -1.4503 -0.0032
16 16 3 -0.4636 0.0138
16 16 4 -0.9839 -0.0433
16 16 5 -1.6824 0.0292
16 16 6 0.5454 -0.0523
16 16 7 0.4025 0.0280
16 16 8 1.4338 0.1388
16 16 9 1.4300 -0.0808
16 17 0 -0.5898 -0.1010
16 17 1 0.8859 0.0944
16 17 2 -1.0787 0.0192
16 17 3 -0.8263 0.0164
16 17 4 -0.5321 0.0202
16 17 5 0.0995 0.0239
16 17 6 1.4141 -0.0514
16 17 7 1.2025 -0.0018
16 18 0 -0.4371 0.0252
16 18 1 0.9579 0.0663
16 18 2 0.5687 0.0069
16 18 3 0.1369 -0.0689
16 18 4 -0.0140 -0.0483
16 19 0 0.1731 -0.2805
17 0 0 -0.6678 0.0188
17 0 2 -10.2252 0.0150
17 0 4 -8.8443 0.0390
17 0 6 2.2566 -0.0214
17 0 8 3.1261 -0.0113
17 0 10 0.2514 0.0246
17 0 12 -1.4250 -0.0271
17 0 14 -0.0332 0.0196
17 0 16 0.7727 -0.0303
17 0 18 0.4953 -0.1493
17 1 0 -5.7012 0.0227
17 1 1 4.9758 0.0001
17 1 2 -3.4871 -0.0025
17 1 3 6.0044 -0.0696
17 1 4 0.7078 -0.0401
17 1 5 -0.8515 0.0124
17 1 6 2.2633 0.0208
17 1 7 -5.6397 0.0120
17 1 8 -0.3794 0.0186
17 1 9 -2.3541 -0.0007
17 1 10 -1.2112 0.0045
17 1 11 -0.6106 0.0174
17 1 12 0.0513 0.0288
17 1 13 -1.5302 -0.0033
17 1 14 0.3673 -0.0168
17 1 15 -0.3374 0.0046
17 1 16 -0.2709 -0.0939
17 1 17 0.7545 -0.0166
17 1 18 0.0267 0.0455
17 2 0 -2.6277 0.0148
17 2 1 8.9391 0.0007
17 2 2 -6.5248 0.0572
17 2 3 4.6119 -0.0041
17 2 4 -2.7871 0.0077
17 2 5 -4.0841 -0.0081
17 2 6 1.2029 -0.0103
17 2 7 -0.2156 0.0364
17 2 8 1.6588 0.0132
17 2 9 1.4947 -0.0133
17 2 10 1.6020 0.0112
17 2 11 0.6753 0.0042
17 2 12 -0.6881 0.0019
17 2 13 0.4597 0.0161
17 2 14 -1.1830 0.0098
17 2 15 0.5236 0.0322
17 2 16 -0.0857 0.0768
17 2 17 0.6430 0.0165
17 2 18 1.0357 0.0974
17 3 0 -6.7720 0.0313
17 3 1 2.2005 -0.0250
17 3 2 -1.3175 -0.0150
17 3 3 -1.3556 0.0242
17 3 4 3.9816 -0.0164
17 3 5 -0.5189 -0.0119
17 3 6 6.7018 0.0131
17 3 7 -0.7811 -0.0096
17 3 8 2.3330 -0.0304
17 3 9 -0.9715 -0.0002
17 3 10 -0.8332 -0.0027
17 3 11 -0.4160 -0.0330
17 3 12 -0.9679 0.0079
17 3 13 -0.1957 -0.0150
17 3 14 -0.4513 0.0173
17 3 15 0.5690 -0.0046
17 3 16 -0.3680 0.0546
17 3 17 0.2323 -0.1129
17 3 18 -0.2253 -0.0818
17 4 0 -1.3091 0.0463
17 4 1 2.8012 -0.0284
17 4 2 5.1190 -0.0168
17 4 3 -0.1920 -0.0042
17 4 4 4.9183 -0.0170
17 4 5 -1.2649 -0.0080
17 4 6 -1.6322 0.0453
17 4 7 0.0273 -0.0047
17 4 8 -2.3996 -0.0027
17 4 9 -0.3560 -0.0230
17 4 10 0.8260 0.0240
17 4 11 1.0227 -0.0282
17 4 12 0.3225 0.0299
17 4 13 1.2193 0.0039
17 4 14 -0.0098 -0.0362
17 4 15 0.4982 -0.0609
17 4 16 -0.1051 0.1007
17 4 17 0.1697 -0.1907
17 4 18 0.5290 -0.0396
17 5 0 3.4821 0.0057
17 5 1 -1.7745 -0.0263
17 5 2 0.9520 0.0183
17 5 3 -1.9383 0.0039
17 5 4 -8.3421 0.0166
17 5 5 -0.1814 -0.0294
17 5 6 -4.5509 0.0169
17 5 7 1.1835 -0.0134
17 5 8 2.0182 0.0245
17 5 9 -0.8715 -0.0383
17 5 10 1.5401 0.0381
17 5 11 -0.5949 -0.0201
17 5 12 1.3612 -0.0061
17 5 13 -0.1585 -0.0144
17 5 14 -0.3769 -0.0131
17 5 15 0.0348 -0.0880
17 5 16 -0.4117 0.0471
17 5 17 0.3445 -0.0238
17 5 18 0.2099 0.0079
17 6 0 -1.1817 0.0222
17 6 1 -0.5711 -0.0301
17 6 2 -2.3757 -0.0075
17 6 3 3.7984 0.0005
17 6 4 -2.3600 0.0165
17 6 5 3.5304 -0.0006
17 6 6 0.1541 0.0098
17 6 7 -0.1313 -0.0115
17 6 8 1.3593 -0.0065
17 6 9 -3.3109 0.0027
17 6 10 1.5097 0.0275
17 6 11 -0.7878 -0.0094
17 6 12 0.2206 -0.0261
17 6 13 0.9541 -0.0293
17 6 14 -0.1692 -0.0226
17 6 15 1.0203 -0.0053
17 6 16 0.1384 0.1693
17 6 17 0.4363 0.1425
17 7 0 3.2738 0.0138
17 7 1 3.6780 -0.0277
17 7 2 2.3912 0.0188
17 7 3 5.8981 -0.0110
17 7 4 -3.5643 -0.0150
17 7 5 -0.5074 -0.0194
17 7 6 -2.4577 -0.0130
17 7 7 -2.5943 -0.0117
17 7 8 3.0532 0.0210
17 7 9 -1.0678 -0.0119
17 7 10 0.8763 -0.0067
17 7 11 -0.8150 0.0100
17 7 12 0.1068 -0.0627
17 7 13 1.0809 -0.0470
17 7 14 -0.4819 0.0187
17 7 15 1.0702 0.0360
17 7 16 -0.1280 0.0987
17 7 17 0.3865 0.1577
17 8 0 -0.3721 0.0029
17 8 1 3.4380 -0.0252
17 8 2 -4.5947 0.0134
17 8 3 5.2928 -0.0112
17 8 4 -2.6131 -0.0064
17 8 5 0.1485 0.0116
17 8 6 -0.3359 -0.0186
17 8 7 -1.0587 0.0160
17 8 8 1.9256 0.0359
17 8 9 -1.0215 0.0136
17 8 10 -0.0510 0.0044
17 8 11 0.6201 -0.0153
17 8 12 -0.4585 -0.0363
17 8 13 2.0725 0.0074
17 8 14 -0.4093 0.0488
17 8 15 1.1111 0.0412
17 8 16 -0.2815 0.1075
17 9 0 -1.6234 0.0090
17 9 1 1.9367 -0.0124
17 9 2 -2.8430 -0.0159
17 9 3 3.1395 -0.0103
17 9 4 -0.2958 0.0214
17 9 5 -0.6472 0.0051
17 9 6 1.8929 -0.0265
17 9 7 -3.4097 0.0279
17 9 8 1.6089 0.0148
17 9 9 -0.6824 -0.0077
17 9 10 -0.0100 -0.0247
17 9 11 -0.1559 0.0338
17 9 12 -0.8768 -0.0307
17 9 13 -0.0407 0.0654
17 9 14 -0.2871 0.0792
17 9 15 0.3871 0.0311
17 9 16 -0.4827 0.0928
17 10 0 -2.4823 0.0041
17 10 1 1.1332 0.0031
17 10 2 -2.4068 -0.0166
17 10 3 2.0509 -0.0206
17 10 4 1.0120 -0.0068
17 10 5 0.0797 0.0024
17 10 6 0.0666 0.0115
17 10 7 -1.6822 -0.0164
17 10 8 0.9036 0.0234
17 10 9 0.2131 0.0056
17 10 10 1.3838 -0.0046
17 10 11 -0.7101 0.0137
17 10 12 1.1061 -0.0503
17 10 13 0.4338 0.0734
17 10 14 0.0772 0.0905
17 10 15 0.7724 0.0457
17 11 0 -2.0908 -0.0033
17 11 1 0.6152 0.0311
17 11 2 -3.6815 -0.0040
17 11 3 -0.6742 -0.0178
17 11 4 -0.2981 -0.0038
17 11 5 -0.8483 -0.0058
17 11 6 1.6257 -0.0798
17 11 7 -1.5750 0.0120
17 11 8 0.4956 0.0300
17 11 9 -1.8740 0.0028
17 11 10 -0.1579 0.0165
17 11 11 0.9456 -0.0662
17 11 12 -0.4753 -0.0069
17 11 13 1.5941 0.1052
17 11 14 -0.5396 0.2382
17 12 0 -2.4251 0.0045
17 12 1 -0.7303 -0.0233
17 12 2 -1.7455 -0.0130
17 12 3 0.9632 0.0245
17 12 4 0.0590 0.0113
17 12 5 1.9861 0.0283
17 12 6 1.5208 -0.0205
17 12 7 -1.2951 0.0221
17 12 8 0.3652 -0.0220
17 12 9 -1.8511 0.0299
17 12 10 1.4398 0.0418
17 12 11 -0.7346 -0.0585
17 12 12 0.3559 -0.0358
17 12 13 0.6906 0.0996
17 13 0 -0.6128 0.0141
17 13 1 0.2924 -0.0081
17 13 2 -0.6499 0.0083
17 13 3 -1.5459 -0.0009
17 13 4 -0.5393 -0.0135
17 13 5 -0.7020 0.0053
17 13 6 -0.1886 -0.0017
17 13 7 -1.1334 -0.0388
17 13 8 0.1890 -0.0331
17 13 9 -1.6227 0.0707
17 13 10 -1.3919 -0.0306
17 13 11 -0.1723 0.0478
17 13 12 -0.9865 -0.1948
17 14 0 1.6755 0.0257
17 14 1 -0.6053 -0.0039
17 14 2 -0.0049 -0.0243
17 14 3 0.1437 0.0294
17 14 4 1.0836 -0.0202
17 14 5 0.4567 -0.0080
17 14 6 4.2730 -0.0491
17 14 7 0.6902 0.0132
17 14 8 2.0515 -0.0004
17 14 9 -0.9922 -0.0319
17 14 10 0.3709 0.0677
17 14 11 -0.8467 -0.2356
17 15 0 -0.6480 0.0009
17 15 1 -0.5290 -0.0422
17 15 2 -0.4473 -0.0154
17 15 3 -0.9917 -0.0256
17 15 4 0.0173 0.0294
17 15 5 0.6576 0.0238
17 15 6 -0.1400 0.0180
17 15 7 0.3794 0.0152
17 15 8 -0.8319 -0.1268
17 15 9 -0.1567 0.1165
17 15 10 -0.5202 -0.0471
17 16 0 -0.4269 0.0896
17 16 1 0.3113 -0.0287
17 16 2 -1.2351 0.0366
17 16 3 -1.2557 -0.0152
17 16 4 -1.0825 -0.0175
17 16 5 -1.6720 0.0353
17 16 6 0.9167 0.0104
17 16 7 1.4037 -0.0163
17 16 8 1.8500 0.1854
17 17 0 -1.0837 -0.0526
17 17 1 0.2627 0.0794
17 17 2 -0.3589 0.0596
17 17 3 -0.8549 -0.0259
17 17 4 0.0911 0.0137
17 17 5 0.2714 -0.0385
17 17 6 0.8712 -0.0400
17 18 0 0.0227 0.0504
17 18 1 0.8258 -0.0271
17 18 2 0.7302 0.0642
17 18 3 -0.1394 -0.0768
18 0 0 -7.5783 0.0564
18 0 2 -9.6839 0.0359
18 0 4 -3.5739 -0.0232
18 0 6 4.5953 -0.0122
18 0 8 2.0771 0.0133
18 0 10 -0.9075 -0.0070
18 0 12 -1.1870 -0.0131
18 0 14 0.0817 0.0208
18 0 16 0.4818 -0.0692
18 0 18 0.5877 -0.1170
18 1 0 -5.8242 -0.0153
18 1 1 6.6162 -0.0352
18 1 2 -1.7651 0.0127
18 1 3 1.3738 -0.0217
18 1 4 2.9547 -0.0279
18 1 5 -5.9648 0.0557
18 1 6 1.3417 0.0119
18 1 7 -5.6396 -0.0128
18 1 8 -1.7378 0.0219
18 1 9 -0.2709 0.0140
18 1 10 -1.2505 -0.0137
18 1 11 -0.1173 0.0221
18 1 12 0.3793 0.0044
18 1 13 -1.1419 -0.0030
18 1 14 0.2476 -0.0537
18 1 15 0.0182 0.0413
18 1 16 -0.2293 -0.0884
18 1 17 0.8734 -0.0084
18 1 18 0.5188 0.0992
18 2 0 -5.1230 0.0195
18 2 1 7.7434 0.0330
18 2 2 -4.7366 0.0113
18 2 3 0.2723 -0.0183
18 2 4 0.5084 -0.0131
18 2 5 -4.7167 -0.0006
18 2 6 2.3153 0.0004
18 2 7 1.3415 0.0222
18 2 8 1.2552 0.0140
18 2 9 2.1950 -0.0297
18 2 10 0.7434 0.0208
18 2 11 0.3535 0.0170
18 2 12 -1.3566 -0.0019
18 2 13 0.0465 0.0130
18 2 14 -1.0799 0.0028
18 2 15 0.3993 0.0674
18 2 16 0.4442 0.0892
18 2 17 0.1011 0.0174
18 2 18 1.1092 0.0585
18 3 0 -5.2001 -0.0053
18 3 1 0.4526 -0.0007
18 3 2 1.6334 -0.0104
18 3 3 -3.8653 0.0235
18 3 4 6.5291 -0.0030
18 3 5 -1.7508 -0.0282
18 3 6 5.5058 0.0171
18 3 7 -1.0503 -0.0075
18 3 8 -0.0520 -0.0122
18 3 9 -0.4606 -0.0126
18 3 10 -1.5820 0.0079
18 3 11 0.1262 -0.0329
18 3 12 -0.2541 0.0235
18 3 13 0.1528 0.0007
18 3 14 0.0708 0.0211
18 3 15 0.6083 -0.0337
18 3 16 -0.0247 0.0090
18 3 17 -0.0242 -0.1117
18 3 18 0.0866 -0.1445
18 4 0 0.2023 0.0063
18 4 1 2.2289 -0.0277
18 4 2 5.1825 -0.0400
18 4 3 -1.6616 -0.0217
18 4 4 3.2558 0.0423
18 4 5 -2.1916 -0.0113
18 4 6 -2.9994 0.0443
18 4 7 -0.0863 -0.0075
18 4 8 -1.9600 0.0155
18 4 9 0.5265 -0.0379
18 4 10 1.1817 0.0464
18 4 11 1.6841 -0.0185
18 4 12 0.3094 -0.0091
18 4 13 1.0144 -0.0065
18 4 14 0.2269 -0.0172
18 4 15 0.0104 -0.0891
18 4 16 0.0583 0.0684
18 4 17 -0.0491 -0.1488
18 5 0 3.3221 0.0295
18 5 1 -2.5840 0.0101
18 5 2 -1.4443 0.0160
18 5 3 -2.7560 -0.0166
18 5 4 -7.9775 0.0271
18 5 5 0.0102 -0.0338
18 5 6 -1.5250 0.0271
18 5 7 0.9845 0.0022
18 5 8 2.2926 0.0320
18 5 9 -0.7966 -0.0401
18 5 10 0.8770 0.0267
18 5 11 0.0042 -0.0002
18 5 12 0.9916 -0.0278
18 5 13 -0.0680 -0.0326
18 5 14 -0.6044 0.0126
18 5 15 -0.0023 -0.0901
18 5 16 0.2477 0.0585
18 5 17 0.1612 0.1070
18 6 0 -2.0260 -0.0010
18 6 1 1.3240 -0.0128
18 6 2 -1.7740 -0.0149
18 6 3 3.8592 0.0122
18 6 4 -0.2085 0.0252
18 6 5 1.1513 -0.0251
18 6 6 1.2758 -0.0126
18 6 7 -2.1280 -0.0111
18 6 8 1.9228 0.0082
18 6 9 -2.7751 0.0067
18 6 10 1.0764 0.0138
18 6 11 0.4538 -0.0163
18 6 12 -0.1909 -0.0516
18 6 13 1.4744 -0.0308
18 6 14 0.3634 0.0324
18 6 15 0.8175 0.0107
18 6 16 0.4381 0.1478
18 6 17 0.3640 0.1663
18 7 0 2.9119 0.0200
18 7 1 4.2568 -0.0207
18 7 2 0.7279 -0.0116
18 7 3 2.8614 0.0052
18 7 4 -3.0986 -0.0072
18 7 5 -2.4522 -0.0235
18 7 6 -0.1516 -0.0006
18 7 7 -2.9880 -0.0172
18 7 8 2.7929 0.0266
18 7 9 -1.0511 0.0078
18 7 10 -0.3691 -0.0128
18 7 11 -0.0820 -0.0040
18 7 12 -0.3737 -0.0589
18 7 13 1.5000 -0.0695
18 7 14 -0.2833 0.0408
18 7 15 0.6155 0.0829
18 7 16 0.4172 0.0891
18 8 0 -1.8856 0.0108
18 8 1 4.4900 -0.0118
18 8 2 -3.8892 0.0015
18 8 3 2.9386 0.0024
18 8 4 -0.1587 -0.0015
18 8 5 -2.0303 0.0055
18 8 6 1.5871 -0.0010
18 8 7 -1.0054 -0.0003
18 8 8 2.1686 0.0453
18 8 9 0.0951 0.0055
18 8 10 -0.2695 -0.0109
18 8 11 1.3332 -0.0205
18 8 12 -0.5685 -0.0153
18 8 13 1.5970 0.0093
18 8 14 -0.2513 0.0623
18 8 15 0.6169 0.0542
18 8 16 0.2529 0.0831
18 9 0 -2.3776 0.0113
18 9 1 2.3344 -0.0104
18 9 2 -2.0664 -0.0135
18 9 3 1.0143 0.0103
18 9 4 1.8760 0.0218
18 9 5 -2.3632 -0.0050
18 9 6 2.9030 -0.0221
18 9 7 -4.0519 0.0115
18 9 8 0.3211 0.0237
18 9 9 -0.4951 0.0035
18 9 10 -1.1886 -0.0294
18 9 11 -0.1424 0.0439
18 9 12 -0.8495 0.0111
18 9 13 0.0344 0.0464
18 9 14 -0.1041 0.0858
18 9 15 0.0523 0.0230
18 10 0 -2.8260 0.0249
18 10 1 2.0852 -0.0239
18 10 2 -1.1295 -0.0189
18 10 3 0.1162 -0.0149
18 10 4 2.2600 0.0008
18 10 5 -1.7812 0.0041
18 10 6 0.5803 0.0092
18 10 7 -0.6426 -0.0609
18 10 8 1.0372 0.0164
18 10 9 1.0587 0.0111
18 10 10 1.5556 -0.0234
18 10 11 -0.0908 0.0207
18 10 12 1.2435 -0.0041
18 10 13 0.8616 0.0566
18 10 14 0.0344 0.1637
18 10 15 0.5394 0.0225
18 11 0 -1.8297 0.0002
18 11 1 -0.0113 0.0082
18 11 2 -2.4713 -0.0120
18 11 3 -1.8855 -0.0249
18 11 4 1.1128 -0.0111
18 11 5 -1.4851 0.0162
18 11 6 2.3468 -0.0489
18 11 7 -1.7351 0.0063
18 11 8 -0.3514 0.0689
18 11 9 -0.6648 -0.0131
18 11 10 -1.0470 0.0103
18 11 11 1.9964 -0.0123
18 11 12 -0.6372 0.0582
18 11 13 1.4834 0.1228
18 11 14 -0.4756 0.2877
18 12 0 -2.5916 0.0072
18 12 1 -0.4013 -0.0157
18 12 2 -0.6731 -0.0026
18 12 3 0.3092 0.0387
18 12 4 1.1180 0.0225
18 12 5 0.7174 0.0106
18 12 6 1.4272 -0.0151
18 12 7 -1.3883 0.0048
18 12 8 0.3359 -0.0205
18 12 9 -1.3317 0.0014
18 12 10 0.7922 0.0107
18 12 11 -0.1732 -0.0317
18 12 12 0.0578 -0.0108
18 12 13 0.7452 0.1596
18 13 0 0.1373 0.0234
18 13 1 -0.1759 -0.0268
18 13 2 -0.2164 -0.0109
18 13 3 -2.0717 -0.0134
18 13 4 -0.1877 0.0070
18 13 5 -1.2002 0.0028
18 13 6 0.1393 0.0073
18 13 7 -0.9557 -0.0584
18 13 8 -0.4899 -0.0178
18 13 9 -0.2984 0.0563
18 13 10 -2.3103 -0.0392
18 13 11 0.7681 0.0604
18 13 12 -0.9451 -0.1867
18 14 0 2.0498 0.0356
18 14 1 -0.7646 -0.0017
18 14 2 0.6374 -0.0221
18 14 3 -0.2786 0.0063
18 14 4 1.7192 0.0014
18 14 5 0.5702 -0.0164
18 14 6 3.7983 -0.0332
18 14 7 0.6600 0.0372
18 14 8 1.2834 0.0090
18 14 9 -1.0630 -0.1180
18 14 10 0.0653 0.0188
18 14 11 -0.3293 -0.2652
18 15 0 -0.9207 0.0142
18 15 1 -0.4783 -0.0689
18 15 2 -0.4518 -0.0129
18 15 3 -0.7215 -0.0245
18 15 4 -1.0684 0.0521
18 15 5 0.2957 -0.0134
18 15 6 -1.6330 0.0132
18 15 7 -0.0842 -0.0091
18 15 8 -1.1072 -0.0758
18 15 9 0.0760 0.0945
18 16 0 -0.1295 0.1320
18 16 1 -0.1552 -0.0722
18 16 2 -1.3247 0.0581
18 16 3 -1.6786 -0.0298
18 16 4 -1.0164 0.0086
18 16 5 -0.8714 0.0218
18 16 6 1.3542 0.0408
18 16 7 1.7953 -0.0663
18 16 8 1.8003 0.1714
18 17 0 -0.9907 0.0272
18 17 1 0.1365 0.0505
18 17 2 0.4676 0.0562
18 17 3 -0.4901 -0.0442
18 17 4 -0.1245 0.0168
18 17 5 0.1623 -0.0654
18 18 0 0.2952 0.0954
18 18 1 0.4617 -0.1004
18 18 2 0.4929 0.1012
19 0 0 -9.8425 0.0894
19 0 2 -6.0646 -0.0101
19 0 4 0.4360 -0.0462
19 0 6 3.8236 0.0317
19 0 8 0.0806 -0.0041
19 0 10 -1.5464 -0.0232
19 0 12 -1.0199 0.0067
19 0 14 -0.0548 0.0004
19 0 16 0.1280 -0.0822
19 1 0 -4.3903 -0.0248
19 1 1 3.7759 -0.0152
19 1 2 0.8413 0.0368
19 1 3 -3.4592 0.0375
19 1 4 3.7570 -0.0416
19 1 5 -7.8086 0.0346
19 1 6 -0.5307 0.0095
19 1 7 -2.9805 -0.0266
19 1 8 -2.5929 0.0030
19 1 9 1.8864 0.0305
19 1 10 -0.7092 -0.0374
19 1 11 0.2810 0.0131
19 1 12 0.5351 0.0018
19 1 13 -0.5814 0.0194
19 1 14 0.0283 -0.0757
19 1 15 0.2472 0.0522
19 1 16 0.0786 -0.0278
19 1 17 0.8136 -0.0039
19 2 0 -4.8540 -0.0175
19 2 1 4.4072 0.0222
19 2 2 -1.0558 -0.0357
19 2 3 -3.0759 -0.0155
19 2 4 2.2202 -0.0020
19 2 5 -2.9539 0.0010
19 2 6 0.9177 0.0145
19 2 7 3.2652 -0.0032
19 2 8 0.1207 0.0097
19 2 9 2.1078 -0.0212
19 2 10 0.0293 0.0220
19 2 11 -0.3341 0.0126
19 2 12 -1.6630 -0.0156
19 2 13 0.0130 0.0173
19 2 14 -0.7572 0.0061
19 2 15 0.3411 0.0812
19 2 16 0.6752 0.0984
19 2 17 -0.1548 -0.0419
19 3 0 -3.0336 -0.0153
19 3 1 -2.8893 0.0059
19 3 2 4.1973 0.0050
19 3 3 -5.7222 -0.0005
19 3 4 6.8670 -0.0049
19 3 5 -1.3581 -0.0259
19 3 6 2.3198 0.0316
19 3 7 -0.1986 0.0020
19 3 8 -2.4976 -0.0031
19 3 9 0.4218 -0.0100
19 3 10 -1.2987 0.0130
19 3 11 0.6990 -0.0086
19 3 12 0.5186 0.0333
19 3 13 0.5110 0.0092
19 3 14 0.2384 -0.0046
19 3 15 0.6428 -0.0628
19 3 16 0.0706 -0.0160
19 3 17 -0.0430 -0.0957
19 4 0 2.1841 -0.0436
19 4 1 0.2427 -0.0214
19 4 2 5.2681 -0.0030
19 4 3 -2.9063 -0.0196
19 4 4 0.8615 0.0648
19 4 5 -2.1015 -0.0041
19 4 6 -4.5081 0.0117
19 4 7 0.6515 -0.0051
19 4 8 -1.4556 0.0365
19 4 9 1.1568 -0.0329
19 4 10 1.1528 0.0216
19 4 11 1.6282 -0.0055
19 4 12 0.2805 -0.0351
19 4 13 0.6113 -0.0075
19 4 14 0.2091 -0.0019
19 4 15 -0.3945 -0.0926
19 4 16 0.0246 -0.0091
19 4 17 -0.0652 -0.1059
19 5 0 3.1592 0.0137
19 5 1 -4.0770 0.0155
19 5 2 -2.8743 0.0051
19 5 3 -2.6635 -0.0271
19 5 4 -6.2111 0.0234
19 5 5 1.1876 0.0015
19 5 6 0.2057 0.0082
19 5 7 1.1869 0.0112
19 5 8 1.4281 0.0250
19 5 9 -0.1812 -0.0168
19 5 10 0.4967 0.0045
19 5 11 0.4931 0.0185
19 5 12 0.6913 -0.0362
19 5 13 -0.0697 -0.0580
19 5 14 -0.4249 0.0489
19 5 15 0.1633 -0.0222
19 5 16 0.8850 0.0487
19 5 17 -0.0275 0.2093
19 6 0 -1.2137 -0.0395
19 6 1 1.6773 0.0242
19 6 2 -0.3517 -0.0042
19 6 3 2.5741 0.0015
19 6 4 1.0931 0.0086
19 6 5 -0.9307 -0.0287
19 6 6 1.6024 -0.0400
19 6 7 -2.5637 0.0039
19 6 8 1.7758 0.0205
19 6 9 -1.6721 0.0151
19 6 10 0.1341 -0.0131
19 6 11 1.1854 -0.0160
19 6 12 -0.2548 -0.0414
19 6 13 1.2448 -0.0466
19 6 14 0.8004 0.0631
19 6 15 0.5346 0.0342
19 6 16 0.5474 0.0754
19 7 0 2.4013 -0.0179
19 7 1 2.7745 0.0003
19 7 2 0.0970 -0.0134
19 7 3 0.5184 0.0168
19 7 4 -1.7241 0.0124
19 7 5 -3.2433 -0.0272
19 7 6 0.8855 -0.0090
19 7 7 -2.8395 -0.0089
19 7 8 1.7051 0.0298
19 7 9 -0.1280 0.0240
19 7 10 -0.9252 -0.0228
19 7 11 0.9795 -0.0309
19 7 12 -0.0918 -0.0413
19 7 13 1.3596 -0.0645
19 7 14 0.3183 0.0743
19 7 15 0.1018 0.1522
19 7 16 0.8900 0.0672
19 8 0 -1.8172 0.0012
19 8 1 3.7281 0.0043
19 8 2 -2.3685 0.0002
19 8 3 0.2117 0.0013
19 8 4 1.7118 0.0230
19 8 5 -2.4512 -0.0013
19 8 6 2.5052 -0.0003
19 8 7 0.0153 -0.0114
19 8 8 1.5579 0.0394
19 8 9 0.6022 0.0043
19 8 10 -0.9676 -0.0151
19 8 11 1.1128 -0.0195
19 8 12 -0.7638 0.0065
19 8 13 0.7085 0.0086
19 8 14 0.0077 0.0546
19 8 15 0.3126 0.0581
19 9 0 -2.2309 0.0128
19 9 1 0.9014 0.0011
19 9 2 0.0515 -0.0138
19 9 3 -0.8391 0.0059
19 9 4 3.6357 0.0261
19 9 5 -3.0948 -0.0218
19 9 6 1.9912 -0.0161
19 9 7 -3.7074 0.0064
19 9 8 -1.4633 0.0152
19 9 9 0.1532 0.0079
19 9 10 -1.3768 -0.0257
19 9 11 0.2416 0.0382
19 9 12 -0.1129 0.0471
19 9 13 0.2102 0.0252
19 9 14 0.2197 0.0531
19 9 15 -0.1812 0.0145
19 10 0 -2.0240 0.0255
19 10 1 1.4440 -0.0403
19 10 2 0.4958 -0.0181
19 10 3 -2.2245 -0.0011
19 10 4 2.8559 0.0168
19 10 5 -1.8230 -0.0163
19 10 6 0.4051 0.0058
19 10 7 1.2847 -0.0839
19 10 8 0.8451 0.0061
19 10 9 1.2506 0.0355
19 10 10 1.5531 -0.0248
19 10 11 -0.0818 0.0174
19 10 12 1.0938 0.0665
19 10 13 0.8276 0.0438
19 10 14 0.0112 0.1988
19 11 0 -0.9629 -0.0009
19 11 1 -1.5032 -0.0037
19 11 2 -0.9735 -0.0228
19 11 3 -2.4994 -0.0159
19 11 4 2.1119 0.0158
19 11 5 -1.1545 0.0341
19 11 6 1.8879 -0.0043
19 11 7 -0.6468 -0.0089
19 11 8 -1.4623 0.0724
19 11 9 0.9701 -0.0139
19 11 10 -1.2654 0.0050
19 11 11 2.3953 0.0223
19 11 12 -0.3449 0.1238
19 11 13 1.0401 0.0979
19 12 0 -1.7992 0.0004
19 12 1 -0.3227 0.0035
19 12 2 0.2579 0.0034
19 12 3 -0.5844 0.0218
19 12 4 1.3207 0.0179
19 12 5 -0.0093 -0.0190
19 12 6 0.5251 -0.0017
19 12 7 -1.0765 -0.0035
19 12 8 -0.2585 -0.0449
19 12 9 -1.0206 -0.0153
19 12 10 0.2267 -0.0125
19 12 11 -0.0908 0.0237
19 12 12 0.0467 0.0636
19 13 0 1.1514 0.0038
19 13 1 -0.4927 -0.0251
19 13 2 0.2419 -0.0125
19 13 3 -1.8117 -0.0076
19 13 4 -0.1101 0.0374
19 13 5 -0.9637 0.0025
19 13 6 -0.0128 0.0155
19 13 7 0.1670 -0.0620
19 13 8 -1.1790 0.0127
19 13 9 1.1799 0.0507
19 13 10 -2.3588 -0.0675
19 13 11 0.9446 0.0444
19 14 0 2.3344 -0.0033
19 14 1 -1.0178 0.0026
19 14 2 0.8997 -0.0234
19 14 3 -0.3794 -0.0203
19 14 4 1.7458 0.0097
19 14 5 0.7282 -0.0133
19 14 6 2.4649 -0.0305
19 14 7 -0.0191 0.0325
19 14 8 0.1099 -0.0128
19 14 9 -1.3017 -0.2003
19 14 10 -0.0184 -0.0223
19 15 0 -0.7985 0.0011
19 15 1 0.1760 -0.0482
19 15 2 -0.7597 -0.0054
19 15 3 -0.2872 -0.0044
19 15 4 -2.3529 0.0609
19 15 5 -0.1430 -0.0317
19 15 6 -2.1359 0.0166
19 15 7 -0.1047 -0.0034
19 15 8 -0.7005 -0.0091
19 15 9 0.4483 0.0723
19 16 0 -0.3615 0.1243
19 16 1 -0.5815 -0.0887
19 16 2 -1.4636 0.0416
19 16 3 -1.1980 -0.0316
19 16 4 -0.5319 0.0022
19 16 5 -0.1583 -0.0001
19 16 6 1.5697 0.0118
19 16 7 1.1164 -0.0889
19 17 0 -0.3671 0.0704
19 17 1 0.2998 0.0542
19 17 2 0.7192 0.0191
19 17 3 -0.2359 0.0010
19 17 4 -0.6799 0.0392
19 18 0 0.0953 0.1219
19 18 1 0.0363 -0.1124
20 0 0 -8.9435 0.0656
20 0 2 -2.5120 -0.0449
20 0 4 1.4479 -0.0013
20 0 6 1.0347 0.0448
20 0 8 -1.4138 -0.0338
20 0 10 -1.6353 -0.0119
20 0 12 -0.8603 0.0143
20 0 14 -0.3303 -0.0156
20 0 16 -0.1955 -0.0731
20 1 0 -2.0675 -0.0028
20 1 1 -0.3253 0.0276
20 1 2 2.7420 0.0303
20 1 3 -5.6910 0.0292
20 1 4 2.8554 -0.0566
20 1 5 -6.3037 -0.0127
20 1 6 -2.5658 0.0112
20 1 7 0.4964 -0.0114
20 1 8 -2.8440 -0.0303
20 1 9 3.2838 0.0242
20 1 10 -0.2299 -0.0219
20 1 11 0.6638 0.0072
20 1 12 0.2758 0.0162
20 1 13 -0.0868 0.0359
20 1 14 -0.1444 -0.0747
20 1 15 0.3017 0.0329
20 1 16 0.1965 0.0751
20 1 17 0.6050 0.0102
20 2 0 -2.3061 -0.0549
20 2 1 0.1402 0.0094
20 2 2 1.6245 -0.0366
20 2 3 -4.1196 0.0044
20 2 4 0.9221 0.0269
20 2 5 0.0688 -0.0198
20 2 6 -1.4102 0.0113
20 2 7 4.1368 -0.0022
20 2 8 -0.4690 0.0027
20 2 9 1.0234 -0.0106
20 2 10 -0.4518 0.0139
20 2 11 -0.7755 -0.0094
20 2 12 -1.6183 -0.0190
20 2 13 0.3070 0.0278
20 2 14 -0.3866 0.0276
20 2 15 0.2784 0.0357
20 2 16 0.4646 0.0910
20 2 17 -0.0009 -0.1143
20 3 0 -0.1954 0.0012
20 3 1 -6.0422 -0.0238
20 3 2 5.4846 0.0031
20 3 3 -5.0174 -0.0096
20 3 4 4.7635 -0.0004
20 3 5 0.6534 -0.0076
20 3 6 -1.4732 0.0355
20 3 7 0.8816 0.0155
20 3 8 -3.5199 -0.0123
20 3 9 1.0097 0.0118
20 3 10 -0.3357 0.0201
20 3 11 0.9475 0.0130
20 3 12 0.6815 0.0183
20 3 13 0.7680 0.0036
20 3 14 0.1504 -0.0168
20 3 15 0.6170 -0.0884
20 3 16 -0.1668 -0.0024
20 3 17 0.0851 -0.0808
20 4 0 4.4127 -0.0357
20 4 1 -1.8527 -0.0039
20 4 2 4.4958 0.0357
20 4 3 -3.0678 -0.0016
20 4 4 -2.5258 0.0298
20 4 5 -0.7759 0.0050
20 4 6 -5.5108 -0.0146
20 4 7 1.7643 0.0089
20 4 8 -0.7440 0.0380
20 4 9 1.2925 -0.0163
20 4 10 1.1251 -0.0187
20 4 11 1.3613 0.0141
20 4 12 0.3085 -0.0329
20 4 13 0.3384 -0.0017
20 4 14 0.0002 -0.0143
20 4 15 -0.4619 -0.0968
20 4 16 -0.0643 -0.0674
20 5 0 2.7102 -0.0206
20 5 1 -4.8861 -0.0053
20 5 2 -3.3657 -0.0027
20 5 3 -1.0323 0.0068
20 5 4 -4.4080 -0.0029
20 5 5 2.4042 0.0310
20 5 6 0.3782 -0.0220
20 5 7 1.3857 0.0076
20 5 8 0.6162 0.0161
20 5 9 0.5933 0.0203
20 5 10 0.5742 -0.0163
20 5 11 0.5558 0.0105
20 5 12 0.4552 -0.0255
20 5 13 -0.0934 -0.0513
20 5 14 0.0259 0.0787
20 5 15 0.2765 0.0663
20 5 16 1.2876 0.0257
20 6 0 -0.1540 -0.0504
20 6 1 1.2102 0.0270
20 6 2 0.2955 0.0099
20 6 3 1.3746 -0.0067
20 6 4 1.3543 -0.0221
20 6 5 -1.7146 -0.0086
20 6 6 1.3189 -0.0444
20 6 7 -2.2927 0.0111
20 6 8 0.9029 0.0271
20 6 9 -0.9916 0.0268
20 6 10 -0.7137 -0.0261
20 6 11 1.1914 -0.0291
20 6 12 0.0406 -0.0125
20 6 13 0.6693 -0.0634
20 6 14 0.9114 0.0495
20 6 15 0.3268 0.0903
20 6 16 0.4041 0.0252
20 7 0 2.0007 -0.0378
20 7 1 1.2330 0.0089
20 7 2 0.0513 0.0231
20 7 3 -0.3003 0.0193
20 7 4 -0.8926 0.0082
20 7 5 -3.1796 -0.0260
20 7 6 0.7929 -0.0191
20 7 7 -1.8019 -0.0007
20 7 8 0.8398 0.0328
20 7 9 1.4288 0.0235
20 7 10 -0.7965 -0.0291
20 7 11 1.5691 -0.0550
20 7 12 0.4295 0.0026
20 7 13 0.8090 -0.0188
20 7 14 0.7118 0.0873
20 7 15 -0.0453 0.2128
20 8 0 -1.1643 -0.0133
20 8 1 1.8097 -0.0075
20 8 2 -1.1069 0.0264
20 8 3 -1.3677 -0.0017
20 8 4 2.8405 0.0325
20 8 5 -1.1923 -0.0024
20 8 6 2.5144 -0.0167
20 8 7 0.7473 -0.0181
20 8 8 0.2175 0.0348
20 8 9 0.1935 0.0087
20 8 10 -1.8523 -0.0158
20 8 11 0.3178 -0.0243
20 8 12 -0.7395 0.0196
20 8 13 -0.0500 0.0083
20 8 14 0.2183 0.0305
20 8 15 0.2841 0.0676
20 9 0 -1.3142 0.0107
20 9 1 -0.8248 -0.0058
20 9 2 2.0411 -0.0124
20 9 3 -1.6207 -0.0153
20 9 4 3.5415 0.0294
20 9 5 -3.0234 -0.0195
20 9 6 -0.0268 -0.0200
20 9 7 -2.4592 0.0007
20 9 8 -2.2886 -0.0030
20 9 9 1.4494 0.0069
20 9 10 -0.5164 -0.0107
20 9 11 0.9428 0.0281
20 9 12 0.8031 0.0621
20 9 13 0.3398 0.0079
20 9 14 0.4525 0.0007
20 10 0 -0.4482 0.0049
20 10 1 0.0257 -0.0383
20 10 2 1.5674 -0.0024
20 10 3 -3.3346 0.0048
20 10 4 2.2180 0.0267
20 10 5 -0.2111 -0.0284
20 10 6 -0.4103 0.0027
20 10 7 2.4805 -0.0682
20 10 8 0.6120 -0.0048
20 10 9 0.4014 0.0566
20 10 10 1.2754 -0.0083
20 10 11 -0.2533 0.0109
20 10 12 0.6155 0.1330
20 10 13 0.5950 0.0394
20 11 0 0.0422 -0.0107
20 11 1 -2.5565 0.0012
20 11 2 0.4413 -0.0171
20 11 3 -1.8488 -0.0018
20 11 4 2.1450 0.0505
20 11 5 0.2039 0.0381
20 11 6 0.5338 0.0087
20 11 7 0.9552 -0.0187
20 11 8 -2.0032 0.0445
20 11 9 1.9665 -0.0118
20 11 10 -0.7473 0.0052
20 11 11 2.0914 0.0233
20 11 12 0.1125 0.1658
20 11 13 0.6305 0.0683
20 12 0 -1.0913 -0.0178
20 12 1 -0.3134 0.0106
20 12 2 0.6100 -0.0015
20 12 3 -1.0155 -0.0145
20 12 4 0.8213 0.0059
20 12 5 0.0165 -0.0194
20 12 6 -0.9015 0.0092
20 12 7 -0.8429 0.0069
20 12 8 -0.7725 -0.0828
20 12 9 -1.1014 -0.0088
20 12 10 0.0975 0.0089
20 12 11 -0.2897 0.0902
20 12 12 0.1357 0.1420
20 13 0 1.9814 -0.0251
20 13 1 -0.2342 -0.0030
20 13 2 0.4202 0.0100
20 13 3 -1.0800 0.0095
20 13 4 -0.1134 0.0461
20 13 5 -0.0342 0.0059
20 13 6 -0.1024 0.0166
20 13 7 1.6396 -0.0435
20 13 8 -1.4357 0.0283
20 13 9 1.7619 0.0222
20 13 10 -1.6992 -0.1249
20 13 11 0.4759 -0.0053
20 14 0 1.9836 -0.0578
20 14 1 -1.0353 0.0035
20 14 2 0.7029 -0.0172
20 14 3 -0.1880 -0.0316
20 14 4 1.2278 -0.0022
20 14 5 0.3240 -0.0012
20 14 6 0.7365 -0.0449
20 14 7 -1.1436 0.0147
20 14 8 -0.5137 -0.0362
20 14 9 -1.4263 -0.2216
20 15 0 -0.4635 -0.0357
20 15 1 0.9987 -0.0021
20 15 2 -1.5732 0.0099
20 15 3 -0.0916 0.0251
20 15 4 -3.0136 0.0438
20 15 5 -0.3229 -0.0283
20 15 6 -1.5157 0.0185
20 15 7 0.1897 0.0123
20 15 8 -0.1407 0.0247
20 16 0 -0.7346 0.0705
20 16 1 -0.5466 -0.0820
20 16 2 -1.0573 -0.0031
20 16 3 -0.6298 -0.0203
20 16 4 0.1222 -0.0309
20 16 5 -0.5078 -0.0079
20 16 6 1.3285 -0.0465
20 17 0 0.1688 0.0482
20 17 1 0.4681 0.1125
20 17 2 0.4079 -0.0129
20 17 3 -0.2126 0.0865
21 0 0 -6.7416 0.0241
21 0 2 -0.6948 -0.0093
21 0 4 0.3836 0.0396
21 0 6 -1.1691 0.0163
21 0 8 -1.6885 -0.0349
21 0 10 -1.5430 0.0041
21 0 12 -0.6073 0.0175
21 0 14 -0.5606 -0.0196
21 0 16 -0.3109 -0.0530
21 1 0 0.6630 0.0105
21 1 1 -2.8703 0.0244
21 1 2 3.2930 0.0055
21 1 3 -4.9506 -0.0269
21 1 4 0.8910 -0.0473
21 1 5 -3.2057 -0.0277
21 1 6 -3.8184 0.0024
21 1 7 3.2087 0.0058
21 1 8 -2.2453 -0.0408
21 1 9 3.7932 -0.0019
21 1 10 0.0920 0.0286
21 1 11 0.9035 0.0071
21 1 12 -0.0691 0.0101
21 1 13 0.1810 0.0313
21 1 14 -0.1217 -0.0542
21 1 15 0.1979 0.0102
21 1 16 0.1604 0.1737
21 2 0 0.2430 -0.0513
21 2 1 -3.0795 0.0208
21 2 2 1.4854 0.0001
21 2 3 -2.9792 0.0081
21 2 4 -2.2588 0.0356
21 2 5 2.7787 -0.0345
21 2 6 -2.8548 -0.0072
21 2 7 3.6803 0.0262
21 2 8 -0.3412 0.0002
21 2 9 -0.1633 -0.0226
21 2 10 -0.6653 0.0074
21 2 11 -0.6835 -0.0208
21 2 12 -1.2057 -0.0017
21 2 13 0.5794 0.0278
21 2 14 -0.2369 0.0412
21 2 15 0.4160 -0.0398
21 2 16 -0.0415 0.0649
21 3 0 2.3089 0.0115
21 3 1 -6.8464 -0.0471
21 3 2 4.8840 0.0010
21 3 3 -1.9156 0.0090
21 3 4 1.3064 0.0114
21 3 5 2.2263 0.0053
21 3 6 -4.2034 0.0067
21 3 7 1.0111 0.0317
21 3 8 -3.0297 -0.0166
21 3 9 0.9278 0.0306
21 3 10 0.3070 0.0186
21 3 11 0.8078 0.0152
21 3 12 0.3351 -0.0077
21 3 13 0.7586 -0.0041
21 3 14 -0.0427 0.0060
21 3 15 0.4045 -0.1072
21 3 16 -0.7171 -0.0078
21 4 0 5.8448 0.0002
21 4 1 -2.9145 0.0162
21 4 2 1.9962 0.0248
21 4 3 -1.6629 0.0119
21 4 4 -5.7193 -0.0102
21 4 5 1.0823 0.0142
21 4 6 -5.0023 -0.0228
21 4 7 2.0661 0.0246
21 4 8 0.3761 0.0210
21 4 9 0.7665 0.0018
21 4 10 1.3418 -0.0338
21 4 11 1.1033 0.0380
21 4 12 0.3803 -0.0236
21 4 13 0.1083 -0.0098
21 4 14 -0.1562 -0.0390
21 4 15 -0.3873 -0.0900
21 4 16 -0.1738 -0.0747
21 5 0 1.9711 -0.0361
21 5 1 -3.9300 -0.0051
21 5 2 -3.5512 -0.0086
21 5 3 1.5149 0.0488
21 5 4 -3.5720 -0.0326
21 5 5 3.1656 0.0156
21 5 6 0.0371 -0.0349
21 5 7 1.6354 0.0030
21 5 8 0.7391 0.0133
21 5 9 0.8205 0.0394
21 5 10 0.7391 -0.0242
21 5 11 0.0675 -0.0084
21 5 12 0.1456 -0.0021
21 5 13 -0.0800 -0.0109
21 5 14 0.5004 0.0885
21 5 15 0.2860 0.0988
21 5 16 1.3285 -0.0033
21 6 0 -0.0123 -0.0294
21 6 1 0.7817 -0.0015
21 6 2 0.2885 0.0177
21 6 3 0.9049 0.0085
21 6 4 1.2832 -0.0300
21 6 5 -1.7032 -0.0006
21 6 6 0.6576 -0.0213
21 6 7 -2.0495 0.0053
21 6 8 0.0235 0.0303
21 6 9 -0.7402 0.0313
21 6 10 -0.7254 -0.0159
21 6 11 0.7737 -0.0591
21 6 12 0.5045 0.0053
21 6 13 0.1582 -0.0440
21 6 14 0.6829 0.0281
21 6 15 0.2568 0.1626
21 7 0 1.3037 -0.0051
21 7 1 0.8603 -0.0029
21 7 2 -0.3694 0.0495
21 7 3 -0.4291 0.0191
21 7 4 -0.8993 -0.0141
21 7 5 -2.9326 -0.0297
21 7 6 0.6521 -0.0079
21 7 7 -0.0841 -0.0032
21 7 8 0.5837 0.0304
21 7 9 2.7785 0.0094
21 7 10 -0.4063 -0.0147
21 7 11 1.3320 -0.0566
21 7 12 0.7703 0.0450
21 7 13 0.2030 0.0544
21 7 14 0.8379 0.0570
21 7 15 0.1296 0.2259
21 8 0 -0.6014 -0.0047
21 8 1 0.2876 -0.0332
21 8 2 -0.2425 0.0495
21 8 3 -0.9653 0.0084
21 8 4 3.2430 0.0087
21 8 5 0.2958 -0.0082
21 8 6 1.4654 -0.0232
21 8 7 0.2511 -0.0200
21 8 8 -1.5872 0.0285
21 8 9 -0.6976 0.0069
21 8 10 -2.3902 -0.0181
21 8 11 -0.3008 -0.0347
21 8 12 -0.4181 0.0219
21 8 13 -0.2135 0.0288
21 8 14 0.1678 -0.0063
21 9 0 -0.0635 0.0085
21 9 1 -1.9081 -0.0386
21 9 2 2.9137 -0.0118
21 9 3 -1.3701 -0.0162
21 9 4 2.0374 0.0245
21 9 5 -2.3594 -0.0044
21 9 6 -1.5919 -0.0271
21 9 7 -0.4930 -0.0097
21 9 8 -1.8975 -0.0145
21 9 9 2.8231 0.0102
21 9 10 0.6304 0.0109
21 9 11 1.2642 0.0138
21 9 12 1.3711 0.0510
21 9 13 0.3486 0.0077
21 9 14 0.4247 -0.0462
21 10 0 0.7008 -0.0077
21 10 1 -1.2291 -0.0287
21 10 2 1.4908 0.0169
21 10 3 -2.5994 0.0097
21 10 4 0.7670 0.0213
21 10 5 1.8100 -0.0120
21 10 6 -1.0679 0.0035
21 10 7 2.2342 -0.0385
21 10 8 0.5306 -0.0199
21 10 9 -0.7829 0.0591
21 10 10 0.6925 0.0225
21 10 11 -0.3017 0.0064
21 10 12 0.0839 0.1657
21 10 13 0.2530 0.0343
21 11 0 0.8301 -0.0159
21 11 1 -2.5177 0.0084
21 11 2 1.0461 0.0001
21 11 3 -0.3452 0.0036
21 11 4 1.1551 0.0491
21 11 5 1.8262 0.0333
21 11 6 -0.6732 -0.0072
21 11 7 2.1107 -0.0151
21 11 8 -1.6438 0.0080
21 11 9 2.1109 -0.0244
21 11 10 -0.0932 0.0128
21 11 11 1.5606 0.0089
21 11 12 0.3861 0.1825
21 12 0 -0.9577 -0.0284
21 12 1 -0.0790 -0.0027
21 12 2 0.5362 -0.0079
21 12 3 -0.7733 -0.0306
21 12 4 -0.2620 -0.0054
21 12 5 0.1462 0.0187
21 12 6 -2.0086 0.0130
21 12 7 -1.1121 0.0231
21 12 8 -0.3811 -0.1011
21 12 9 -1.2725 0.0176
21 12 10 0.2179 0.0647
21 12 11 -0.4559 0.1285
21 13 0 2.3743 -0.0419
21 13 1 0.4610 0.0223
21 13 2 0.3513 0.0383
21 13 3 -0.1484 0.0226
21 13 4 -0.1811 0.0155
21 13 5 1.2710 0.0120
21 13 6 -0.2668 0.0144
21 13 7 2.2998 -0.0278
21 13 8 -1.3695 0.0079
21 13 9 1.1853 -0.0414
21 13 10 -0.7034 -0.1779
21 14 0 1.2744 -0.0723
21 14 1 -0.5939 0.0005
21 14 2 0.7271 0.0011
21 14 3 -0.2150 -0.0169
21 14 4 0.4889 -0.0262
21 14 5 -0.6408 0.0102
21 14 6 -0.5874 -0.0494
21 14 7 -1.9265 0.0112
21 14 8 -0.1902 -0.0318
21 14 9 -1.1627 -0.1757
21 15 0 -0.6693 -0.0726
21 15 1 1.5437 0.0323
21 15 2 -2.2440 0.0279
21 15 3 -0.0073 0.0404
21 15 4 -2.3740 -0.0048
21 15 5 -0.2645 -0.0267
21 15 6 -0.5348 0.0079
21 15 7 0.1266 0.0054
21 16 0 -0.7588 0.0090
21 16 1 -0.0714 -0.0693
21 16 2 -0.2210 -0.0343
21 16 3 -0.6155 0.0140
21 16 4 0.5998 -0.0519
21 16 5 -1.2517 0.0073
21 17 0 0.1278 -0.0046
21 17 1 0.1618 0.1882
21 17 2 0.0980 -0.0202
22 0 0 -4.7775 0.0286
22 0 2 -0.4091 0.0469
22 0 4 -1.0980 0.0206
22 0 6 -2.0436 -0.0048
22 0 8 -1.5494 -0.0140
22 0 10 -1.3750 0.0086
22 0 12 -0.2255 0.0263
22 0 14 -0.7871 -0.0244
22 0 16 -0.2736 -0.0253
22 1 0 2.6687 0.0030
22 1 1 -3.0866 -0.0216
22 1 2 2.6820 0.0007
22 1 3 -2.9110 -0.0531
22 1 4 -0.8966 -0.0271
22 1 5 -0.6293 -0.0127
22 1 6 -3.9466 -0.0138
22 1 7 4.5252 0.0023
22 1 8 -1.4276 -0.0119
22 1 9 3.5918 -0.0259
22 1 10 0.1095 0.0569
22 1 11 0.8461 0.0078
22 1 12 -0.2166 -0.0334
22 1 13 0.1592 0.0224
22 1 14 -0.1036 -0.0197
22 1 15 -0.1106 -0.0079
22 1 16 -0.0277 0.2266
22 2 0 1.0079 -0.0144
22 2 1 -4.1032 0.0323
22 2 2 -0.9719 0.0254
22 2 3 -0.6655 -0.0007
22 2 4 -4.5181 0.0135
22 2 5 4.1591 -0.0163
22 2 6 -2.1792 -0.0230
22 2 7 2.1556 0.0453
22 2 8 0.2080 0.0048
22 2 9 -1.0855 -0.0402
22 2 10 -0.6061 0.0099
22 2 11 -0.5490 -0.0049
22 2 12 -0.5616 0.0123
22 2 13 0.6171 0.0130
22 2 14 -0.2441 0.0269
22 2 15 0.6093 -0.0841
22 2 16 -0.4651 0.0423
22 3 0 3.5943 0.0118
22 3 1 -4.4587 -0.0310
22 3 2 2.6398 0.0154
22 3 3 1.4658 0.0274
22 3 4 -2.0539 0.0036
22 3 5 2.2422 0.0048
22 3 6 -4.8380 -0.0341
22 3 7 0.4606 0.0412
22 3 8 -1.5566 -0.0016
22 3 9 0.2911 0.0269
22 3 10 0.4082 -0.0019
22 3 11 0.4204 0.0133
22 3 12 0.0160 -0.0171
22 3 13 0.6253 -0.0018
22 3 14 -0.2073 0.0224
22 3 15 0.1910 -0.1180
22 3 16 -1.0413 -0.0662
22 4 0 5.2273 0.0005
22 4 1 -2.3932 0.0227
22 4 2 -1.3623 -0.0051
22 4 3 0.3653 0.0136
22 4 4 -7.0388 -0.0136
22 4 5 2.0208 0.0207
22 4 6 -2.9891 -0.0286
22 4 7 1.3679 0.0248
22 4 8 1.7639 0.0112
22 4 9 0.2462 0.0196
22 4 10 1.8235 -0.0226
22 4 11 0.8466 0.0501
22 4 12 0.4446 -0.0269
22 4 13 -0.1885 -0.0285
22 4 14 -0.2629 -0.0504
22 4 15 -0.1950 -0.0418
22 5 0 0.6094 -0.0276
22 5 1 -1.2756 0.0169
22 5 2 -4.0427 -0.0104
22 5 3 3.4087 0.0426
22 5 4 -3.1553 -0.0371
22 5 5 2.7795 -0.0229
22 5 6 0.5524 -0.0228
22 5 7 1.2014 -0.0002
22 5 8 1.5509 0.0166
22 5 9 0.0339 0.0310
22 5 10 0.4917 -0.0177
22 5 11 -0.6191 -0.0088
22 5 12 -0.1192 0.0195
22 5 13 -0.1956 0.0174
22 5 14 0.8536 0.0729
22 5 15 0.0883 0.0673
22 6 0 -0.6787 0.0017
22 6 1 1.2487 -0.0163
22 6 2 0.3719 0.0307
22 6 3 1.2481 0.0232
22 6 4 1.0989 -0.0045
22 6 5 -1.7761 -0.0215
22 6 6 -0.0667 0.0069
22 6 7 -2.2144 0.0008
22 6 8 -0.1064 0.0325
22 6 9 -0.7991 0.0182
22 6 10 -0.1188 -0.0005
22 6 11 0.3300 -0.0769
22 6 12 0.6116 0.0104
22 6 13 -0.0903 0.0203
22 6 14 0.1828 0.0364
22 6 15 0.2103 0.2084
22 7 0 0.2325 0.0361
22 7 1 0.8425 -0.0167
22 7 2 -1.1072 0.0366
22 7 3 -0.7129 0.0154
22 7 4 -0.7619 -0.0204
22 7 5 -2.1457 -0.0424
22 7 6 1.1399 0.0146
22 7 7 1.8610 -0.0071
22 7 8 0.5764 0.0227
22 7 9 2.9847 -0.0051
22 7 10 -0.2238 0.0112
22 7 11 0.4372 -0.0265
22 7 12 0.7335 0.0469
22 7 13 -0.0493 0.1205
22 7 14 0.7653 0.0108
22 8 0 -0.3083 0.0179
22 8 1 -0.2015 -0.0372
22 8 2 0.4641 0.0292
22 8 3 0.1146 0.0194
22 8 4 2.9664 -0.0193
22 8 5 0.6481 -0.0221
22 8 6 -0.3006 -0.0117
22 8 7 -0.7609 -0.0141
22 8 8 -2.8920 0.0089
22 8 9 -1.1645 -0.0066
22 8 10 -1.9389 -0.0173
22 8 11 -0.4021 -0.0266
22 8 12 0.1648 0.0067
22 8 13 0.0487 0.0697
22 8 14 0.0237 -0.0411
22 9 0 0.7761 0.0061
22 9 1 -1.8659 -0.0623
22 9 2 2.2804 -0.0163
22 9 3 -0.8875 0.0113
22 9 4 0.2792 0.0183
22 9 5 -1.6038 0.0015
22 9 6 -2.0769 -0.0233
22 9 7 1.7322 -0.0114
22 9 8 -1.0460 -0.0144
22 9 9 3.5903 0.0115
22 9 10 1.3231 0.0259
22 9 11 0.9194 0.0024
22 9 12 1.3525 0.0186
22 9 13 0.2715 0.0349
22 10 0 1.2252 0.0023
22 10 1 -1.2858 -0.0166
22 10 2 0.6310 0.0168
22 10 3 -0.6485 0.0238
22 10 4 -0.6609 0.0102
22 10 5 2.5993 0.0127
22 10 6 -1.1084 0.0043
22 10 7 0.7134 -0.0234
22 10 8 0.5607 -0.0343
22 10 9 -1.5548 0.0447
22 10 10 0.0500 0.0571
22 10 11 -0.1525 0.0033
22 10 12 -0.2810 0.1439
22 11 0 1.2306 -0.0062
22 11 1 -1.4930 0.0070
22 11 2 0.7499 0.0011
22 11 3 1.4782 -0.0025
22 11 4 -0.0386 0.0122
22 11 5 2.9242 0.0311
22 11 6 -1.1850 -0.0154
22 11 7 2.2371 -0.0063
22 11 8 -0.9435 -0.0234
22 11 9 1.6310 -0.0539
22 11 10 0.3204 0.0352
22 11 11 1.0988 0.0118
22 12 0 -1.1264 -0.0135
22 12 1 0.3656 -0.0188
22 12 2 0.4608 -0.0117
22 12 3 -0.1461 -0.0078
22 12 4 -1.2426 -0.0133
22 12 5 -0.0068 0.0575
22 12 6 -1.8653 0.0201
22 12 7 -1.4698 0.0316
22 12 8 0.5355 -0.0854
22 12 9 -1.1239 0.0386
22 12 10 -0.0406 0.1053
22 13 0 2.0730 -0.0365
22 13 1 0.8567 0.0419
22 13 2 0.2001 0.0497
22 13 3 0.6996 0.0226
22 13 4 -0.1857 -0.0362
22 13 5 2.0565 0.0112
22 13 6 -0.4556 0.0163
22 13 7 1.5253 -0.0339
22 13 8 -1.0841 -0.0350
22 13 9 0.2152 -0.1063
22 14 0 0.7229 -0.0298
22 14 1 0.0211 -0.0030
22 14 2 0.8465 0.0236
22 14 3 -0.6128 0.0153
22 14 4 -0.2483 -0.0410
22 14 5 -1.2864 0.0078
22 14 6 -0.7121 -0.0204
22 14 7 -1.7962 0.0304
22 14 8 0.6744 -0.0129
22 15 0 -1.3081 -0.0798
22 15 1 1.4563 0.0326
22 15 2 -2.0864 0.0314
22 15 3 -0.0033 0.0220
22 15 4 -1.2853 -0.0713
22 15 5 -0.3690 -0.0458
22 15 6 -0.1949 -0.0066
22 16 0 -0.1882 -0.0149
22 16 1 0.1948 -0.0485
22 16 2 0.6956 -0.0114
22 16 3 -1.2135 0.0716
22 16 4 0.7928 -0.0347
22 17 0 -0.2047 -0.0377
22 17 1 -0.2202 0.2085
23 0 0 -3.4252 0.0639
23 0 2 -0.7446 0.0484
23 0 4 -1.4823 -0.0243
23 0 6 -1.5045 0.0077
23 0 8 -1.2880 -0.0045
23 0 10 -0.8774 0.0090
23 0 12 0.3164 0.0308
23 0 14 -0.7368 -0.0361
23 1 0 3.3848 -0.0019
23 1 1 -1.9689 -0.0417
23 1 2 1.2679 0.0181
23 1 3 -1.3697 -0.0274
23 1 4 -2.2194 -0.0208
23 1 5 0.9088 -0.0063
23 1 6 -3.2423 -0.0192
23 1 7 4.9779 -0.0087
23 1 8 -0.5461 0.0248
23 1 9 2.8794 -0.0342
23 1 10 0.1810 0.0242
23 1 11 0.4816 0.0141
23 1 12 -0.2037 -0.0822
23 1 13 -0.0318 0.0179
23 1 14 -0.1181 0.0247
23 1 15 -0.4255 -0.0360
23 2 0 -0.2539 0.0127
23 2 1 -3.2600 0.0301
23 2 2 -3.3461 0.0136
23 2 3 1.2195 0.0108
23 2 4 -4.4334 -0.0139
23 2 5 3.7533 0.0122
23 2 6 -0.6362 -0.0281
23 2 7 0.2603 0.0376
23 2 8 0.3472 0.0128
23 2 9 -1.6711 -0.0303
23 2 10 -0.3219 0.0101
23 2 11 -0.7583 0.0223
23 2 12 -0.0607 -0.0027
23 2 13 0.4856 -0.0011
23 2 14 -0.4743 0.0085
23 2 15 0.5979 -0.0824
23 3 0 3.1959 0.0147
23 3 1 -0.3273 -0.0009
23 3 2 0.0597 0.0259
23 3 3 2.7417 0.0225
23 3 4 -3.5843 -0.0248
23 3 5 0.6880 -0.0012
23 3 6 -3.4036 -0.0477
23 3 7 -0.5391 0.0305
23 3 8 -0.1235 0.0162
23 3 9 -0.7599 0.0117
23 3 10 0.2530 -0.0285
23 3 11 0.0691 0.0298
23 3 12 0.0735 -0.0112
23 3 13 0.3832 0.0016
23 3 14 -0.3024 -0.0082
23 3 15 -0.1616 -0.1235
23 4 0 2.5449 -0.0281
23 4 1 -0.3665 0.0143
23 4 2 -3.7449 -0.0027
23 4 3 2.0000 0.0086
23 4 4 -5.8168 0.0023
23 4 5 1.6190 0.0155
23 4 6 -0.0786 -0.0364
23 4 7 0.2933 0.0082
23 4 8 3.0956 0.0206
23 4 9 -0.0335 0.0356
23 4 10 2.1486 -0.0125
23 4 11 0.4325 0.0409
23 4 12 0.3324 -0.0382
23 4 13 -0.4375 -0.0298
23 4 14 -0.3259 -0.0477
23 4 15 -0.0656 0.0308
23 5 0 -1.3209 -0.0129
23 5 1 1.3394 0.0162
23 5 2 -4.4398 0.0028
23 5 3 3.6797 -0.0014
23 5 4 -1.9519 -0.0137
23 5 5 1.7090 -0.0395
23 5 6 2.2181 -0.0001
23 5 7 0.1196 -0.0119
23 5 8 2.2180 0.0203
23 5 9 -1.1840 0.0199
23 5 10 -0.2388 -0.0056
23 5 11 -0.9422 0.0059
23 5 12 -0.2314 0.0268
23 5 13 -0.2643 0.0041
23 5 14 0.9018 0.0405
23 6 0 -1.2932 0.0281
23 6 1 2.0966 -0.0049
23 6 2 0.8358 0.0511
23 6 3 0.9178 0.0079
23 6 4 0.7210 0.0226
23 6 5 -2.5880 -0.0419
23 6 6 -0.2486 0.0191
23 6 7 -2.3036 0.0056
23 6 8 0.6328 0.0280
23 6 9 -0.7872 -0.0039
23 6 10 0.3916 0.0037
23 6 11 -0.0129 -0.0562
23 6 12 0.2972 0.0232
23 6 13 -0.1766 0.0934
23 6 14 -0.2566 0.0589
23 7 0 -0.9538 0.0324
23 7 1 0.7178 -0.0151
23 7 2 -1.5755 0.0091
23 7 3 -1.1064 0.0033
23 7 4 0.0161 -0.0067
23 7 5 -1.0245 -0.0454
23 7 6 1.7461 0.0232
23 7 7 2.9128 0.0004
23 7 8 0.1775 0.0120
23 7 9 2.0318 -0.0097
23 7 10 -0.5139 0.0175
23 7 11 -0.3778 0.0247
23 7 12 0.4287 0.0145
23 7 13 -0.0138 0.1489
23 7 14 0.5899 -0.0111
23 8 0 0.2687 0.0153
23 8 1 0.0723 -0.0154
23 8 2 1.1864 -0.0223
23 8 3 0.7128 0.0121
23 8 4 1.9635 -0.0179
23 8 5 0.0411 -0.0271
23 8 6 -2.0538 -0.0049
23 8 7 -1.4069 -0.0019
23 8 8 -2.8363 -0.0170
23 8 9 -1.0494 -0.0182
23 8 10 -0.6688 -0.0145
23 8 11 -0.0095 0.0134
23 8 12 0.5614 -0.0248
23 8 13 0.4298 0.0980
23 9 0 0.7451 0.0027
23 9 1 -1.2085 -0.0501
23 9 2 1.0676 -0.0195
23 9 3 -0.6756 0.0329
23 9 4 -0.6491 0.0230
23 9 5 -0.5710 -0.0005
23 9 6 -1.9082 -0.0088
23 9 7 3.5499 -0.0011
23 9 8 -0.4235 -0.0123
23 9 9 2.9771 -0.0014
23 9 10 1.4747 0.0225
23 9 11 0.0087 0.0129
23 9 12 0.9403 -0.0174
23 10 0 1.0407 0.0171
23 10 1 -0.2786 0.0010
23 10 2 -0.4105 -0.0040
23 10 3 0.8122 0.0322
23 10 4 -1.3229 0.0081
23 10 5 1.8742 0.0168
23 10 6 -0.5764 0.0008
23 10 7 -0.7148 -0.0239
23 10 8 0.5449 -0.0356
23 10 9 -1.5346 0.0215
23 10 10 -0.3894 0.0714
23 10 11 0.0292 0.0056
23 10 12 -0.2970 0.0789
23 11 0 1.0185 0.0099
23 11 1 -0.1565 0.0027
23 11 2 -0.0528 -0.0219
23 11 3 2.5814 -0.0158
23 11 4 -0.5793 -0.0147
23 11 5 2.7284 0.0353
23 11 6 -1.1158 -0.0012
23 11 7 1.5552 -0.0070
23 11 8 -0.4265 -0.0448
23 11 9 1.0682 -0.0803
23 11 10 0.3830 0.0706
23 11 11 0.7175 0.0442
23 12 0 -0.8804 0.0131
23 12 1 1.1203 -0.0180
23 12 2 0.3252 -0.0163
23 12 3 0.3940 0.0244
23 12 4 -1.5608 -0.0114
23 12 5 -0.4740 0.0586
23 12 6 -0.5125 0.0391
23 12 7 -1.5286 0.0293
23 12 8 1.0246 -0.0575
23 12 9 -0.7229 0.0263
23 12 10 -0.7249 0.0946
23 13 0 1.6326 -0.0116
23 13 1 0.7649 0.0612
23 13 2 0.1848 0.0393
23 13 3 1.3286 0.0056
23 13 4 -0.4249 -0.0703
23 13 5 1.7212 -0.0011
23 13 6 -0.7835 0.0266
23 13 7 0.0864 -0.0450
23 13 8 -0.5900 -0.0609
23 14 0 0.7760 0.0304
23 14 1 0.2062 0.0009
23 14 2 1.0782 0.0413
23 14 3 -0.9686 0.0387
23 14 4 -0.3186 -0.0311
23 14 5 -1.1002 -0.0184
23 14 6 0.1008 0.0250
23 14 7 -1.1439 0.0553
23 15 0 -1.7538 -0.0533
23 15 1 1.1214 -0.0001
23 15 2 -1.2410 0.0079
23 15 3 0.0237 -0.0223
23 15 4 -0.7096 -0.1187
23 15 5 -0.7387 -0.0713
23 16 0 0.5221 0.0227
23 16 1 -0.2090 0.0012
23 16 2 1.2758 0.0606
23 16 3 -1.4658 0.1202
24 0 0 -2.2079 0.0677
24 0 2 -0.5399 0.0044
24 0 4 -0.7993 -0.0380
24 0 6 -0.9488 0.0260
24 0 8 -1.1642 -0.0136
24 0 10 0.0126 0.0132
24 0 12 0.7177 0.0180
24 0 14 -0.7183 -0.0501
24 1 0 2.9405 0.0033
24 1 1 -0.8243 -0.0072
24 1 2 0.0652 0.0296
24 1 3 -0.8667 0.0038
24 1 4 -2.2830 -0.0259
24 1 5 1.8844 -0.0163
24 1 6 -1.8502 -0.0116
24 1 7 4.7886 -0.0061
24 1 8 0.2063 0.0312
24 1 9 1.6378 -0.0273
24 1 10 0.3809 -0.0380
24 1 11 -0.0302 0.0270
24 1 12 -0.1068 -0.0882
24 1 13 -0.2685 -0.0032
24 1 14 -0.0262 0.0692
24 1 15 -0.5729 -0.0660
24 2 0 -2.3802 0.0073
24 2 1 -1.4676 0.0344
24 2 2 -4.0100 -0.0136
24 2 3 2.1072 0.0392
24 2 4 -2.6302 -0.0225
24 2 5 2.2891 0.0136
24 2 6 0.6003 -0.0306
24 2 7 -1.3229 0.0261
24 2 8 0.1999 0.0185
24 2 9 -2.1408 0.0045
24 2 10 0.0733 -0.0071
24 2 11 -1.1408 0.0347
24 2 12 0.1516 -0.0294
24 2 13 0.3788 -0.0083
24 2 14 -0.5305 0.0214
24 2 15 0.2711 -0.0736
24 3 0 1.6616 0.0116
24 3 1 2.3612 0.0017
24 3 2 -1.6232 0.0161
24 3 3 1.4476 0.0034
24 3 4 -3.0871 -0.0364
24 3 5 -0.8502 -0.0072
24 3 6 -1.1557 -0.0314
24 3 7 -1.3730 0.0005
24 3 8 0.7729 0.0185
24 3 9 -1.6932 0.0127
24 3 10 0.2636 -0.0392
24 3 11 0.1340 0.0574
24 3 12 0.2691 -0.0133
24 3 13 0.2147 -0.0187
24 3 14 -0.2925 -0.0562
24 4 0 -0.4028 -0.0317
24 4 1 1.5986 0.0028
24 4 2 -3.7937 0.0230
24 4 3 1.7644 -0.0012
24 4 4 -3.0368 0.0067
24 4 5 0.1692 -0.0012
24 4 6 2.5152 -0.0338
24 4 7 -0.3485 -0.0105
24 4 8 3.7066 0.0311
24 4 9 -0.1785 0.0431
24 4 10 1.9084 -0.0166
24 4 11 -0.2324 0.0225
24 4 12 -0.0446 -0.0443
24 4 13 -0.5998 -0.0101
24 4 14 -0.3732 -0.0406
24 5 0 -3.1557 0.0011
24 5 1 2.9508 -0.0145
24 5 2 -3.6863 0.0285
24 5 3 2.7116 -0.0231
24 5 4 0.4276 0.0106
24 5 5 0.2602 -0.0269
24 5 6 3.9492 0.0167
24 5 7 -1.3371 -0.0297
24 5 8 1.8837 0.0169
24 5 9 -1.8375 0.0286
24 5 10 -1.2603 0.0022
24 5 11 -0.7298 0.0079
24 5 12 -0.2591 0.0198
24 5 13 -0.4454 -0.0306
24 5 14 0.5378 0.0144
24 6 0 -1.1810 0.0425
24 6 1 2.2968 0.0043
24 6 2 1.3157 0.0540
24 6 3 -0.3282 -0.0209
24 6 4 0.3641 0.0197
24 6 5 -3.2527 -0.0290
24 6 6 0.4522 0.0146
24 6 7 -1.8131 0.0138
24 6 8 1.3503 0.0091
24 6 9 -0.6361 -0.0155
24 6 10 0.1497 0.0016
24 6 11 -0.0972 -0.0097
24 6 12 -0.2058 0.0459
24 6 13 0.0026 0.1364
24 7 0 -1.6324 -0.0051
24 7 1 0.1559 -0.0040
24 7 2 -1.2304 -0.0056
24 7 3 -1.2516 -0.0088
24 7 4 1.1104 -0.0025
24 7 5 0.1144 -0.0191
24 7 6 1.8700 0.0139
24 7 7 2.7603 0.0152
24 7 8 -0.5993 -0.0066
24 7 9 0.7201 -0.0031
24 7 10 -0.9298 -0.0037
24 7 11 -0.6670 0.0724
24 7 12 0.2546 -0.0108
24 7 13 0.1751 0.1355
24 8 0 0.8877 -0.0180
24 8 1 0.1048 0.0030
24 8 2 1.3942 -0.0527
24 8 3 0.2740 -0.0061
24 8 4 0.3710 0.0045
24 8 5 -0.5571 -0.0080
24 8 6 -2.9186 -0.0162
24 8 7 -1.1911 0.0100
24 8 8 -1.4546 -0.0289
24 8 9 -0.5424 -0.0122
24 8 10 0.5657 -0.0196
24 8 11 0.4810 0.0604
24 8 12 0.5946 -0.0505
24 9 0 0.1955 0.0049
24 9 1 -0.4197 -0.0265
24 9 2 0.2262 -0.0097
24 9 3 -0.8587 0.0235
24 9 4 -0.9181 0.0356
24 9 5 0.4344 0.0069
24 9 6 -1.7993 0.0033
24 9 7 3.9944 -0.0004
24 9 8 -0.1785 -0.0175
24 9 9 1.1686 -0.0199
24 9 10 1.1033 0.0027
24 9 11 -0.8060 0.0448
24 9 12 0.2578 -0.0336
24 10 0 0.6879 0.0173
24 10 1 1.0168 0.0170
24 10 2 -0.9628 -0.0220
24 10 3 0.9908 0.0121
24 10 4 -1.1435 0.0170
24 10 5 0.6387 0.0043
24 10 6 0.1712 -0.0002
24 10 7 -1.4034 -0.0277
24 10 8 0.6346 -0.0244
24 10 9 -1.1245 -0.0020
24 10 10 -0.4047 0.0476
24 10 11 0.1984 0.0213
24 11 0 0.3099 0.0212
24 11 1 0.8661 0.0022
24 11 2 -0.4430 -0.0410
24 11 3 2.6023 -0.0334
24 11 4 -0.4677 -0.0030
24 11 5 1.7496 0.0400
24 11 6 -1.1694 0.0148
24 11 7 0.8780 -0.0205
24 11 8 -0.2079 -0.0518
24 11 9 0.5987 -0.0806
24 11 10 0.2993 0.0932
24 12 0 -0.2027 0.0188
24 12 1 1.6604 -0.0034
24 12 2 0.2890 -0.0151
24 12 3 0.3621 0.0228
24 12 4 -0.7592 0.0049
24 12 5 -0.9006 0.0249
24 12 6 0.8770 0.0581
24 12 7 -1.2291 0.0173
24 12 8 0.3383 -0.0455
24 12 9 -0.3885 -0.0138
24 13 0 1.3042 0.0185
24 13 1 0.6326 0.0763
24 13 2 0.0295 0.0224
24 13 3 1.4067 -0.0245
24 13 4 -0.8043 -0.0629
24 13 5 0.5799 -0.0072
24 13 6 -0.7605 0.0429
24 13 7 -0.7659 -0.0327
24 13 8 0.0351 -0.0452
24 14 0 1.1016 0.0606
24 14 1 -0.0561 0.0174
24 14 2 1.1361 0.0532
24 14 3 -0.6528 0.0237
24 14 4 0.2329 -0.0088
24 14 5 -0.3376 -0.0633
24 14 6 0.8266 0.0451
24 15 0 -1.3382 -0.0244
24 15 1 0.6631 -0.0459
24 15 2 -0.6216 -0.0263
24 15 3 -0.1651 -0.0537
24 15 4 -0.9250 -0.1133
24 16 0 1.0848 0.1037
24 16 1 -0.7787 0.0785
24 16 2 1.5121 0.1227
25 0 0 -1.3457 0.0327
25 0 2 -0.0436 -0.0211
25 0 4 0.0306 -0.0208
25 0 6 -0.6524 0.0219
25 0 8 -0.5886 -0.0207
25 0 10 1.0063 0.0160
25 0 12 0.7423 -0.0096
25 0 14 -0.6743 -0.0694
25 1 0 2.0312 -0.0005
25 1 1 -0.6473 0.0349
25 1 2 -0.6288 0.0263
25 1 3 -0.8716 0.0073
25 1 4 -1.6656 -0.0247
25 1 5 2.8030 -0.0192
25 1 6 -0.6272 -0.0075
25 1 7 3.8558 0.0065
25 1 8 0.6613 0.0153
25 1 9 0.1180 -0.0125
25 1 10 0.4959 -0.0655
25 1 11 -0.3794 0.0245
25 1 12 -0.2106 -0.0416
25 1 13 -0.3348 -0.0493
25 1 14 0.1205 0.0943
25 2 0 -3.1547 -0.0103
25 2 1 0.0800 0.0475
25 2 2 -2.6305 -0.0249
25 2 3 1.6578 0.0462
25 2 4 -0.7920 -0.0142
25 2 5 0.4679 -0.0066
25 2 6 0.8007 -0.0371
25 2 7 -2.3333 0.0288
25 2 8 -0.0376 0.0199
25 2 9 -2.5335 0.0280
25 2 10 0.3319 -0.0325
25 2 11 -1.3712 0.0228
25 2 12 0.0771 -0.0251
25 2 13 0.2106 -0.0233
25 2 14 -0.4124 0.0562
25 3 0 0.1209 -0.0078
25 3 1 2.5516 -0.0252
25 3 2 -1.5053 0.0094
25 3 3 -0.4294 -0.0098
25 3 4 -1.1461 -0.0137
25 3 5 -1.3706 -0.0144
25 3 6 0.7052 -0.0174
25 3 7 -2.0584 -0.0303
25 3 8 1.1147 0.0134
25 3 9 -1.9994 0.0366
25 3 10 0.4940 -0.0300
25 3 11 0.6715 0.0596
25 3 12 0.4047 -0.0237
25 3 13 -0.0731 -0.0724
25 3 14 -0.1741 -0.0623
25 4 0 -1.8611 -0.0019
25 4 1 2.0006 -0.0070
25 4 2 -2.1479 0.0285
25 4 3 0.3785 -0.0147
25 4 4 -0.2464 0.0038
25 4 5 -0.6659 -0.0115
25 4 6 4.0641 -0.0198
25 4 7 -0.1848 -0.0216
25 4 8 3.2100 0.0230
25 4 9 -0.3353 0.0395
25 4 10 1.0436 -0.0220
25 4 11 -0.6257 0.0088
25 4 12 -0.4742 -0.0385
25 4 13 -0.4077 -0.0081
25 5 0 -3.6783 0.0187
25 5 1 2.7796 -0.0295
25 5 2 -1.5712 0.0413
25 5 3 1.1605 -0.0003
25 5 4 2.8215 0.0128
25 5 5 -0.9918 -0.0105
25 5 6 4.5214 0.0224
25 5 7 -2.1912 -0.0351
25 5 8 0.6032 0.0024
25 5 9 -1.5251 0.0474
25 5 10 -2.1904 0.0039
25 5 11 -0.3792 -0.0155
25 5 12 -0.3402 0.0108
25 5 13 -0.6260 -0.0575
25 6 0 -0.6737 0.0337
25 6 1 1.1277 -0.0007
25 6 2 1.2751 0.0217
25 6 3 -1.9717 -0.0250
25 6 4 0.2698 -0.0059
25 6 5 -3.0150 0.0096
25 6 6 1.2916 0.0043
25 6 7 -0.7569 0.0195
25 6 8 0.9421 -0.0206
25 6 9 -0.4826 -0.0128
25 6 10 -0.6484 0.0058
25 6 11 -0.1247 0.0299
25 6 12 -0.4843 0.0580
25 6 13 0.2060 0.1419
25 7 0 -1.2777 -0.0305
25 7 1 -0.1648 0.0001
25 7 2 -0.3699 -0.0155
25 7 3 -1.0034 -0.0034
25 7 4 1.7603 -0.0184
25 7 5 0.6515 0.0254
25 7 6 1.3607 0.0030
25 7 7 1.8968 0.0206
25 7 8 -1.4925 -0.0343
25 7 9 0.0543 0.0083
25 7 10 -1.2053 -0.0232
25 7 11 -0.4545 0.0950
25 7 12 0.2345 -0.0111
25 8 0 1.2493 -0.0361
25 8 1 -0.3850 0.0009
25 8 2 0.9723 -0.0383
25 8 3 -0.2768 -0.0122
25 8 4 -1.0066 0.0178
25 8 5 -0.4546 0.0227
25 8 6 -2.3404 -0.0248
25 8 7 -0.6264 0.0137
25 8 8 0.4366 -0.0213
25 8 9 -0.0878 0.0048
25 8 10 1.0935 -0.0326
25 8 11 0.7960 0.0792
25 8 12 0.3738 -0.0470
25 9 0 -0.3651 0.0218
25 9 1 -0.0430 -0.0307
25 9 2 -0.1162 0.0096
25 9 3 -1.0638 0.0008
25 9 4 -1.2929 0.0416
25 9 5 1.1653 0.0194
25 9 6 -1.9084 0.0074
25 9 7 2.9000 -0.0265
25 9 8 -0.1180 -0.0289
25 9 9 -0.8331 -0.0241
25 9 10 0.4712 -0.0184
25 9 11 -1.0190 0.0657
25 10 0 0.5160 0.0079
25 10 1 1.2743 0.0179
25 10 2 -0.8371 -0.0190
25 10 3 0.1418 -0.0282
25 10 4 -0.4636 0.0307
25 10 5 -0.0572 -0.0003
25 10 6 0.8125 0.0101
25 10 7 -1.4770 -0.0334
25 10 8 0.7351 -0.0206
25 10 9 -0.6570 -0.0136
25 10 10 -0.2622 0.0025
25 11 0 -0.3605 0.0321
25 11 1 1.3462 -0.0019
25 11 2 -0.1488 -0.0316
25 11 3 1.7070 -0.0514
25 11 4 -0.3135 0.0234
25 11 5 0.7760 0.0398
25 11 6 -1.3244 0.0109
25 11 7 0.4727 -0.0351
25 11 8 -0.0132 -0.0489
25 11 9 0.0348 -0.0548
25 12 0 0.3977 -0.0028
25 12 1 1.7627 0.0065
25 12 2 0.3898 0.0055
25 12 3 0.0548 -0.0181
25 12 4 0.3460 0.0231
25 12 5 -0.9148 -0.0080
25 12 6 1.0589 0.0588
25 12 7 -0.8241 0.0008
25 12 8 -0.8455 -0.0497
25 13 0 1.2622 0.0331
25 13 1 0.5967 0.0671
25 13 2 -0.3103 0.0179
25 13 3 0.8092 -0.0440
25 13 4 -0.9571 -0.0253
25 13 5 -0.2708 0.0161
25 13 6 -0.2487 0.0556
25 13 7 -0.6252 -0.0003
25 14 0 1.2384 0.0561
25 14 1 -0.1041 0.0346
25 14 2 1.2379 0.0555
25 14 3 0.1420 -0.0363
25 14 4 0.8587 -0.0024
25 14 5 0.1248 -0.1003
25 15 0 -0.5855 -0.0221
25 15 1 0.3346 -0.0739
25 15 2 -0.7215 -0.0338
25 15 3 -0.2610 -0.0362
25 16 0 1.2410 0.1703
26 0 0 -0.1112 0.0088
26 0 2 0.9932 -0.0073
26 0 4 0.6399 -0.0081
26 0 6 -0.3399 0.0057
26 0 8 0.4755 -0.0119
26 0 10 1.5784 0.0114
26 0 12 0.3236 -0.0461
26 1 0 1.0029 -0.0192
26 1 1 -1.1035 0.0378
26 1 2 -0.5017 0.0248
26 1 3 -0.4522 0.0005
26 1 4 -0.5936 -0.0141
26 1 5 3.3740 -0.0080
26 1 6 0.1429 -0.0131
26 1 7 2.0723 0.0116
26 1 8 0.7983 0.0176
26 1 9 -1.0575 -0.0019
26 1 10 0.4492 -0.0361
26 1 11 -0.3142 -0.0125
26 1 12 -0.2738 0.0171
26 1 13 -0.2057 -0.0822
26 2 0 -2.3020 -0.0132
26 2 1 0.5780 0.0354
26 2 2 -1.0634 -0.0177
26 2 3 0.6669 0.0244
26 2 4 -0.0906 -0.0017
26 2 5 -0.6114 -0.0162
26 2 6 0.4931 -0.0426
26 2 7 -2.6754 0.0269
26 2 8 -0.1936 0.0216
26 2 9 -2.5985 0.0199
26 2 10 0.1900 -0.0372
26 2 11 -1.1045 -0.0036
26 2 12 -0.0270 0.0153
26 2 13 0.1076 -0.0503
26 3 0 -0.2107 -0.0203
26 3 1 0.8201 -0.0520
26 3 2 -0.1778 0.0268
26 3 3 -1.3676 -0.0115
26 3 4 0.5254 0.0116
26 3 5 -1.1100 -0.0197
26 3 6 1.4345 -0.0205
26 3 7 -2.5502 -0.0473
26 3 8 1.1480 0.0183
26 3 9 -1.5637 0.0589
26 3 10 0.5850 -0.0130
26 3 11 1.1934 0.0119
26 3 12 0.2064 -0.0177
26 3 13 -0.4962 -0.1316
26 4 0 -1.3272 0.0178
26 4 1 0.8695 -0.0163
26 4 2 -0.2593 0.0079
26 4 3 -0.7051 -0.0196
26 4 4 1.5328 0.0122
26 4 5 -0.3077 -0.0008
26 4 6 4.1576 -0.0102
26 4 7 0.3309 -0.0305
26 4 8 1.7332 0.0029
26 4 9 -0.4508 0.0315
26 4 10 0.0435 -0.0136
26 4 11 -0.6331 -0.0076
26 4 12 -0.6960 -0.0192
26 4 13 -0.1979 -0.0499
26 5 0 -2.3335 0.0319
26 5 1 1.8127 -0.0041
26 5 2 0.8160 0.0194
26 5 3 0.0426 0.0283
26 5 4 3.9528 -0.0034
26 5 5 -1.5299 -0.0033
26 5 6 3.6716 0.0202
26 5 7 -1.8974 -0.0192
26 5 8 -1.1068 -0.0192
26 5 9 -0.5860 0.0504
26 5 10 -2.8391 0.0039
26 5 11 -0.1753 -0.0554
26 5 12 -0.4434 0.0137
26 6 0 -0.2924 0.0032
26 6 1 -0.8755 0.0002
26 6 2 0.8392 -0.0233
26 6 3 -2.5934 -0.0038
26 6 4 0.5663 -0.0233
26 6 5 -1.7084 0.0423
26 6 6 1.3754 -0.0037
26 6 7 0.2730 0.0217
26 6 8 -0.4186 -0.0464
26 6 9 -0.4763 -0.0112
26 6 10 -1.0890 0.0162
26 6 11 0.0229 0.0481
26 6 12 -0.3494 0.0508
26 7 0 -0.3957 -0.0276
26 7 1 -0.3654 -0.0059
26 7 2 0.0951 -0.0315
26 7 3 -0.7132 0.0199
26 7 4 1.6381 -0.0276
26 7 5 0.7261 0.0518
26 7 6 0.5243 0.0011
26 7 7 1.2481 0.0098
26 7 8 -2.1197 -0.0556
26 7 9 0.0466 0.0157
26 7 10 -1.0434 -0.0168
26 7 11 -0.2463 0.0861
26 7 12 0.3734 -0.0067
26 8 0 1.2126 -0.0037
26 8 1 -1.0950 -0.0103
26 8 2 0.2505 -0.0069
26 8 3 -0.4325 -0.0043
26 8 4 -1.4663 0.0196
26 8 5 -0.0180 0.0359
26 8 6 -0.9540 -0.0064
26 8 7 -0.1985 0.0054
26 8 8 1.4737 -0.0086
26 8 9 0.0985 0.0125
26 8 10 0.6737 -0.0390
26 8 11 0.6612 0.0649
26 9 0 -0.4547 0.0473
26 9 1 -0.0162 -0.0576
26 9 2 -0.4556 0.0208
26 9 3 -1.1510 -0.0087
26 9 4 -1.8373 0.0379
26 9 5 1.0679 0.0106
26 9 6 -1.6311 0.0101
26 9 7 0.9661 -0.0640
26 9 8 -0.0763 -0.0419
26 9 9 -1.8628 -0.0125
26 9 10 -0.1894 -0.0269
26 10 0 0.6639 0.0038
26 10 1 0.4830 0.0096
26 10 2 -0.3829 -0.0004
26 10 3 -0.3478 -0.0555
26 10 4 0.1642 0.0457
26 10 5 -0.0100 0.0073
26 10 6 1.2115 0.0235
26 10 7 -1.4258 -0.0434
26 10 8 0.7955 -0.0394
26 10 9 -0.1434 -0.0054
26 11 0 -0.3267 0.0468
26 11 1 1.1566 -0.0187
26 11 2 0.3607 -0.0082
26 11 3 0.6861 -0.0590
26 11 4 -0.5876 0.0249
26 11 5 0.3978 0.0352
26 11 6 -1.3469 -0.0116
26 11 7 0.0630 -0.0380
26 11 8 0.0742 -0.0511
26 12 0 0.6089 -0.0228
26 12 1 1.4175 0.0048
26 12 2 0.7416 0.0385
26 12 3 -0.2085 -0.0605
26 12 4 0.8017 0.0208
26 12 5 -0.6739 -0.0115
26 12 6 0.0986 0.0430
26 12 7 -0.6201 -0.0090
26 13 0 0.9132 0.0200
26 13 1 0.5794 0.0315
26 13 2 -0.7030 0.0295
26 13 3 0.1906 -0.0202
26 13 4 -0.4221 0.0070
26 13 5 -0.0855 0.0601
26 13 6 0.5501 0.0535
26 14 0 0.9760 0.0430
26 14 1 0.2159 0.0265
26 14 2 1.1800 0.0371
26 14 3 0.5720 -0.1067
26 14 4 0.8001 -0.0187
26 15 0 -0.1906 -0.0339
26 15 1 0.1857 -0.0604
26 15 2 -1.0576 -0.0013
27 0 0 1.2519 0.0180
27 0 2 1.6680 0.0129
27 0 4 0.8489 -0.0092
27 0 6 0.3243 -0.0015
27 0 8 1.3574 0.0065
27 0 10 1.1953 -0.0026
27 0 12 -0.2596 -0.0928
27 1 0 0.7633 -0.0340
27 1 1 -1.6212 0.0139
27 1 2 0.1415 0.0320
27 1 3 0.3009 0.0055
27 1 4 -0.0277 -0.0029
27 1 5 2.9345 0.0002
27 1 6 0.2228 -0.0158
27 1 7 0.0375 0.0036
27 1 8 0.7045 0.0520
27 1 9 -1.3480 -0.0071
27 1 10 0.1928 0.0090
27 1 11 -0.0069 -0.0608
27 1 12 -0.3659 0.0393
27 1 13 -0.0775 -0.0618
27 2 0 -0.5174 -0.0026
27 2 1 0.3483 -0.0121
27 2 2 -0.1699 -0.0086
27 2 3 0.1230 0.0120
27 2 4 -0.0799 0.0126
27 2 5 -0.7248 -0.0107
27 2 6 0.2545 -0.0397
27 2 7 -2.5801 -0.0015
27 2 8 -0.3577 0.0305
27 2 9 -2.1217 0.0008
27 2 10 -0.0838 -0.0141
27 2 11 -0.5204 -0.0247
27 2 12 0.1244 0.0451
27 2 13 0.0280 -0.0638
27 3 0 0.4256 -0.0004
27 3 1 -0.5254 -0.0604
27 3 2 1.0288 0.0419
27 3 3 -0.8207 -0.0061
27 3 4 1.1198 0.0089
27 3 5 -0.7591 -0.0162
27 3 6 1.3452 -0.0214
27 3 7 -2.6456 -0.0532
27 3 8 0.9742 0.0293
27 3 9 -0.5406 0.0547
27 3 10 0.3806 0.0030
27 3 11 1.4074 -0.0652
27 3 12 -0.0492 0.0055
27 4 0 -0.0973 0.0080
27 4 1 -0.5194 -0.0180
27 4 2 0.6490 -0.0092
27 4 3 -0.3025 -0.0047
27 4 4 2.1689 0.0261
27 4 5 0.7337 0.0204
27 4 6 3.1308 -0.0110
27 4 7 0.6116 -0.0429
27 4 8 0.0366 -0.0095
27 4 9 -0.3252 0.0272
27 4 10 -0.6294 0.0081
27 4 11 -0.2766 -0.0409
27 4 12 -0.6551 0.0072
27 5 0 -0.2415 0.0251
27 5 1 0.6716 0.0264
27 5 2 1.8126 -0.0246
27 5 3 -0.4506 0.0266
27 5 4 3.4562 -0.0189
27 5 5 -1.1767 0.0050
27 5 6 1.9800 0.0164
27 5 7 -0.9490 0.0042
27 5 8 -2.6486 -0.0396
27 5 9 -0.0981 0.0245
27 5 10 -3.0809 0.0064
27 5 11 -0.3428 -0.1008
27 5 12 -0.3970 0.0293
27 6 0 -0.1363 -0.0202
27 6 1 -2.2513 0.0131
27 6 2 0.3930 -0.0407
27 6 3 -1.8696 0.0077
27 6 4 0.8017 -0.0189
27 6 5 -0.1301 0.0533
27 6 6 0.3374 -0.0069
27 6 7 0.9166 0.0175
27 6 8 -1.6852 -0.0559
27 6 9 -0.5535 -0.0199
27 6 10 -0.7652 0.0264
27 6 11 0.1412 0.0513
27 7 0 0.3592 -0.0109
27 7 1 -0.5282 -0.0107
27 7 2 0.0151 -0.0339
27 7 3 -0.5314 0.0368
27 7 4 1.3582 -0.0084
27 7 5 0.7043 0.0376
27 7 6 -0.0826 0.0049
27 7 7 1.1296 -0.0072
27 7 8 -2.1315 -0.0516
27 7 9 0.2973 0.0121
27 7 10 -0.4831 0.0028
27 7 11 -0.1533 0.0553
27 8 0 0.9907 0.0540
27 8 1 -1.4139 -0.0174
27 8 2 -0.2883 0.0096
27 8 3 -0.1676 -0.0039
27 8 4 -1.0652 0.0335
27 8 5 0.1422 0.0185
27 8 6 0.1006 0.0280
27 8 7 -0.1741 -0.0122
27 8 8 1.3161 -0.0045
27 8 9 -0.0684 0.0046
27 8 10 -0.0178 -0.0319
27 9 0 -0.2068 0.0594
27 9 1 -0.3405 -0.0677
27 9 2 -1.1867 0.0165
27 9 3 -1.1562 -0.0095
27 9 4 -2.0736 0.0377
27 9 5 0.4026 -0.0262
27 9 6 -0.9821 0.0107
27 9 7 -0.5229 -0.0812
27 9 8 -0.2760 -0.0567
27 9 9 -1.6631 -0.0021
27 10 0 1.0864 0.0064
27 10 1 -0.5136 0.0159
27 10 2 0.1705 0.0180
27 10 3 -0.0672 -0.0558
27 10 4 0.6984 0.0570
27 10 5 0.0726 0.0105
27 10 6 1.3071 0.0158
27 10 7 -1.3606 -0.0483
27 10 8 0.5188 -0.0706
27 10 9 0.2957 0.0129
27 11 0 0.0586 0.0518
27 11 1 0.7864 -0.0390
27 11 2 0.2356 -0.0013
27 11 3 0.3027 -0.0458
27 11 4 -0.9052 -0.0067
27 11 5 0.3548 0.0301
27 11 6 -0.9214 -0.0415
27 11 7 -0.5572 -0.0267
27 11 8 -0.0737 -0.0633
27 12 0 0.6606 -0.0231
27 12 1 0.9408 0.0019
27 12 2 0.7811 0.0529
27 12 3 -0.2391 -0.0654
27 12 4 0.1152 -0.0042
27 12 5 -0.3968 0.0144
27 12 6 -0.8176 0.0311
27 13 0 0.3101 -0.0114
27 13 1 0.4207 0.0076
27 13 2 -0.5454 0.0420
27 13 3 0.0854 0.0489
27 13 4 0.5679 0.0066
27 13 5 0.4830 0.0837
27 14 0 0.4847 0.0314
27 14 1 0.5454 -0.0167
27 14 2 0.8753 -0.0020
27 14 3 0.3373 -0.1319
27 15 0 -0.4093 -0.0253
28 0 0 2.6128 0.0300
28 0 2 2.0988 0.0183
28 0 4 1.1341 -0.0096
28 0 6 1.0267 -0.0000
28 0 8 1.4586 0.0238
28 0 10 0.3930 -0.0316
28 0 12 -0.3775 -0.1392
28 1 0 0.8291 -0.0370
28 1 1 -1.5856 -0.0041
28 1 2 0.4305 0.0353
28 1 3 0.9055 0.0152
28 1 4 -0.1833 0.0075
28 1 5 1.6260 -0.0020
28 1 6 -0.0044 -0.0101
28 1 7 -1.1790 -0.0109
28 1 8 0.4412 0.0863
28 1 9 -0.7530 -0.0208
28 1 10 -0.1013 0.0164
28 1 11 0.1977 -0.0725
28 1 12 -0.2807 0.0175
28 2 0 0.6713 0.0042
28 2 1 0.0344 -0.0509
28 2 2 -0.2577 -0.0056
28 2 3 0.5095 0.0301
28 2 4 -0.1626 0.0311
28 2 5 -0.3766 -0.0142
28 2 6 0.1594 -0.0306
28 2 7 -2.3267 -0.0402
28 2 8 -0.7098 0.0435
28 2 9 -1.2308 0.0043
28 2 10 -0.3300 0.0037
28 2 11 0.0378 -0.0210
28 2 12 0.4183 0.0264
28 3 0 1.1501 0.0301
28 3 1 -0.6008 -0.0533
28 3 2 1.1318 0.0174
28 3 3 0.1091 0.0052
28 3 4 0.7870 -0.0055
28 3 5 -0.7780 -0.0028
28 3 6 1.0499 -0.0057
28 3 7 -2.2784 -0.0571
28 3 8 0.6767 0.0254
28 3 9 0.3601 0.0275
28 3 10 0.0412 0.0140
28 3 11 1.0812 -0.1200
28 3 12 -0.2690 0.0103
28 4 0 0.6112 -0.0024
28 4 1 -0.4752 -0.0032
28 4 2 0.6975 -0.0130
28 4 3 1.1027 0.0174
28 4 4 2.0165 0.0275
28 4 5 1.3759 0.0285
28 4 6 1.6595 -0.0089
28 4 7 0.7382 -0.0508
28 4 8 -1.0755 -0.0084
28 4 9 0.1535 0.0256
28 4 10 -0.7934 0.0296
28 4 11 -0.0393 -0.0810
28 5 0 0.8326 0.0039
28 5 1 -0.0209 0.0231
28 5 2 1.2707 -0.0567
28 5 3 -0.3598 0.0040
28 5 4 2.3515 -0.0226
28 5 5 -0.4123 0.0197
28 5 6 0.2697 0.0158
28 5 7 -0.2831 0.0154
28 5 8 -3.5803 -0.0547
28 5 9 -0.1639 -0.0250
28 5 10 -2.6956 0.0122
28 5 11 -0.3445 -0.1383
28 6 0 -0.2428 -0.0062
28 6 1 -2.2768 0.0125
28 6 2 0.0324 -0.0209
28 6 3 -0.5455 -0.0070
28 6 4 0.6081 -0.0051
28 6 5 0.8243 0.0483
28 6 6 -0.9878 -0.0032
28 6 7 0.8732 0.0049
28 6 8 -1.8004 -0.0477
28 6 9 -0.7327 -0.0298
28 6 10 0.0431 0.0351
28 6 11 0.2121 0.0430
28 7 0 0.5338 0.0147
28 7 1 -0.8164 -0.0073
28 7 2 -0.1900 -0.0037
28 7 3 -0.2691 0.0257
28 7 4 1.2487 0.0231
28 7 5 0.9665 -0.0022
28 7 6 -0.5215 0.0095
28 7 7 1.1347 -0.0175
28 7 8 -1.6882 -0.0249
28 7 9 0.1984 -0.0023
28 7 10 0.0369 0.0121
28 8 0 1.0274 0.0832
28 8 1 -1.3596 -0.0234
28 8 2 -0.3069 0.0141
28 8 3 -0.2005 -0.0216
28 8 4 -0.3668 0.0634
28 8 5 -0.1478 -0.0142
28 8 6 0.1734 0.0436
28 8 7 -0.3148 -0.0287
28 8 8 0.4737 -0.0100
28 8 9 -0.4396 -0.0078
28 9 0 -0.2327 0.0438
28 9 1 -0.6044 -0.0446
28 9 2 -2.0440 0.0103
28 9 3 -1.0204 -0.0211
28 9 4 -1.4197 0.0441
28 9 5 -0.1580 -0.0603
28 9 6 -0.2101 -0.0073
28 9 7 -0.8325 -0.0660
28 9 8 -0.4811 -0.0726
28 9 9 -0.7493 0.0005
28 10 0 1.5737 0.0072
28 10 1 -0.6674 0.0422
28 10 2 0.4285 0.0267
28 10 3 0.5328 -0.0474
28 10 4 0.8581 0.0500
28 10 5 -0.1506 0.0056
28 10 6 0.8506 -0.0258
28 10 7 -1.0858 -0.0370
28 10 8 -0.0437 -0.0912
28 11 0 0.2745 0.0337
28 11 1 0.6566 -0.0418
28 11 2 -0.3054 -0.0159
28 11 3 0.4449 -0.0152
28 11 4 -0.7092 -0.0514
28 11 5 -0.0052 0.0282
28 11 6 -0.4846 -0.0711
28 11 7 -1.1941 -0.0069
28 12 0 0.6333 -0.0275
28 12 1 0.6320 0.0063
28 12 2 0.2416 0.0319
28 12 3 -0.1008 -0.0270
28 12 4 -0.7716 -0.0269
28 12 5 -0.1293 0.0474
28 13 0 -0.2769 -0.0363
28 13 1 0.3121 0.0345
28 13 2 0.1930 0.0364
28 13 3 0.4061 0.1169
28 13 4 1.4022 -0.0205
28 14 0 -0.0467 0.0062
28 14 1 0.2574 -0.0690
29 0 0 3.4048 0.0234
29 0 2 2.0127 0.0192
29 0 4 1.2837 -0.0070
29 0 6 1.1452 0.0001
29 0 8 0.8006 0.0314
29 0 10 -0.2241 -0.0764
29 1 0 0.9963 -0.0444
29 1 1 -1.0131 -0.0132
29 1 2 0.0622 0.0291
29 1 3 0.9748 0.0193
29 1 4 -0.6194 0.0196
29 1 5 0.3912 -0.0024
29 1 6 -0.0127 -0.0123
29 1 7 -1.0831 -0.0253
29 1 8 0.2841 0.0834
29 1 9 -0.0283 -0.0167
29 1 10 -0.1824 -0.0209
29 1 11 0.0071 -0.0380
29 2 0 0.7240 0.0042
29 2 1 0.5665 -0.0433
29 2 2 -0.5585 -0.0060
29 2 3 1.3810 0.0514
29 2 4 -0.0775 0.0477
29 2 5 -0.2784 -0.0314
29 2 6 -0.0508 -0.0234
29 2 7 -1.8525 -0.0517
29 2 8 -1.0086 0.0425
29 2 9 -0.2100 0.0399
29 2 10 -0.1764 -0.0179
29 2 11 0.2890 0.0081
29 3 0 0.8097 0.0277
29 3 1 0.1857 -0.0369
29 3 2 0.3583 -0.0331
29 3 3 0.5672 0.0205
29 3 4 0.4452 0.0014
29 3 5 -1.0600 0.0142
29 3 6 0.8080 0.0091
29 3 7 -1.5712 -0.0586
29 3 8 0.2532 -0.0027
29 3 9 0.8666 0.0033
29 3 10 -0.0884 0.0134
29 3 11 0.6506 -0.1175
29 4 0 0.3470 0.0093
29 4 1 0.7063 0.0176
29 4 2 0.3786 -0.0233
29 4 3 1.9650 0.0193
29 4 4 1.5103 0.0181
29 4 5 1.0460 0.0187
29 4 6 0.5263 0.0071
29 4 7 0.7204 -0.0411
29 4 8 -1.4585 -0.0056
29 4 9 0.4270 0.0202
29 4 10 -0.8165 0.0331
29 4 11 -0.1643 -0.0982
29 5 0 0.1929 -0.0023
29 5 1 -0.2857 -0.0015
29 5 2 0.2787 -0.0584
29 5 3 0.0102 -0.0138
29 5 4 1.4221 -0.0171
29 5 5 0.1997 0.0296
29 5 6 -1.1051 0.0177
29 5 7 -0.2840 0.0095
29 5 8 -3.6673 -0.0645
29 5 9 -0.4683 -0.0808
29 5 10 -1.7435 0.0193
29 6 0 -0.3819 0.0383
29 6 1 -1.5051 -0.0147
29 6 2 -0.0933 0.0088
29 6 3 0.2854 -0.0261
29 6 4 0.2669 0.0028
29 6 5 1.0113 0.0345
29 6 6 -1.5060 0.0084
29 6 7 0.5536 -0.0080
29 6 8 -0.8541 -0.0283
29 6 9 -0.7505 -0.0332
29 6 10 0.6332 0.0399
29 7 0 0.2946 0.0508
29 7 1 -0.9200 -0.0013
29 7 2 0.0461 0.0377
29 7 3 0.1071 -0.0058
29 7 4 1.2758 0.0367
29 7 5 1.1095 -0.0360
29 7 6 -0.7550 0.0138
29 7 7 0.7600 -0.0174
29 7 8 -0.9337 0.0045
29 7 9 -0.0545 -0.0197
29 8 0 1.1543 0.0663
29 8 1 -1.1478 -0.0310
29 8 2 -0.3385 0.0221
29 8 3 -0.6340 -0.0396
29 8 4 -0.2956 0.0788
29 8 5 -0.4968 -0.0376
29 8 6 -0.5746 0.0216
29 8 7 -0.5095 -0.0347
29 8 8 -0.2093 -0.0215
29 8 9 -0.7286 -0.0166
29 9 0 -0.6326 0.0120
29 9 1 -0.5496 -0.0131
29 9 2 -2.1477 0.0143
29 9 3 -0.5252 -0.0398
29 9 4 -0.1533 0.0344
29 9 5 -0.0432 -0.0581
29 9 6 0.0759 -0.0541
29 9 7 -0.3474 -0.0328
29 9 8 -0.5382 -0.0806
29 10 0 1.7595 0.0047
29 10 1 0.0059 0.0613
29 10 2 0.4269 0.0211
29 10 3 0.6590 -0.0448
29 10 4 0.7661 0.0103
29 10 5 -0.3736 0.0092
29 10 6 0.0011 -0.0847
29 10 7 -0.6449 -0.0173
29 11 0 -0.1657 0.0068
29 11 1 1.0417 -0.0214
29 11 2 -0.7097 -0.0336
29 11 3 0.5196 0.0170
29 11 4 -0.0661 -0.0921
29 11 5 -0.6261 0.0319
29 11 6 -0.3293 -0.0903
29 12 0 0.4818 -0.0663
29 12 1 0.3851 0.0145
29 12 2 -0.5883 -0.0005
29 12 3 -0.0005 0.0299
29 12 4 -0.9759 -0.0266
29 13 0 -0.2290 -0.0361
29 13 1 0.4196 0.0952
29 13 2 1.0655 0.0110
29 14 0 -0.4243 -0.0353
30 0 0 3.1629 0.0142
30 0 2 1.3778 0.0210
30 0 4 0.9086 -0.0092
30 0 6 0.5803 -0.0013
30 0 8 0.2089 0.0224
30 0 10 -0.1175 -0.1141
30 1 0 0.4746 -0.0637
30 1 1 -0.2426 -0.0249
30 1 2 -0.7139 0.0233
30 1 3 0.7913 0.0254
30 1 4 -0.6657 0.0262
30 1 5 0.0399 0.0035
30 1 6 0.1836 -0.0359
30 1 7 -0.2681 -0.0346
30 1 8 0.1101 0.0466
30 1 9 0.1501 0.0177
30 1 10 -0.0739 -0.0613
30 2 0 0.0326 0.0077
30 2 1 1.6468 -0.0129
30 2 2 -0.7187 -0.0111
30 2 3 1.6144 0.0468
30 2 4 0.0197 0.0531
30 2 5 -0.6914 -0.0363
30 2 6 -0.2834 -0.0232
30 2 7 -1.2336 -0.0261
30 2 8 -1.0148 0.0115
30 2 9 0.3781 0.0849
30 2 10 0.1238 -0.0664
30 3 0 -0.3916 -0.0055
30 3 1 0.9539 -0.0145
30 3 2 -0.2947 -0.0614
30 3 3 0.4730 0.0296
30 3 4 0.5232 0.0257
30 3 5 -1.1460 0.0300
30 3 6 0.6244 0.0009
30 3 7 -0.6762 -0.0519
30 3 8 0.1006 -0.0398
30 3 9 0.9160 0.0012
30 3 10 0.1273 0.0025
30 4 0 -0.2567 0.0267
30 4 1 1.5553 0.0206
30 4 2 0.1740 -0.0464
30 4 3 1.4104 -0.0066
30 4 4 0.9595 0.0149
30 4 5 0.2577 0.0096
30 4 6 -0.0463 0.0295
30 4 7 0.8259 -0.0155
30 4 8 -1.4498 -0.0136
30 4 9 0.3565 0.0071
30 4 10 -0.7957 0.0084
30 5 0 -1.1679 0.0229
30 5 1 -0.4254 -0.0110
30 5 2 0.0215 -0.0412
30 5 3 0.1583 -0.0242
30 5 4 0.8291 -0.0107
30 5 5 0.1272 0.0250
30 5 6 -1.9494 0.0166
30 5 7 -0.6011 -0.0040
30 5 8 -2.8632 -0.0652
30 5 9 -0.4144 -0.1185
30 6 0 -0.5654 0.0744
30 6 1 -0.8419 -0.0390
30 6 2 -0.0814 0.0206
30 6 3 0.5241 -0.0261
30 6 4 0.0943 0.0037
30 6 5 0.6947 0.0147
30 6 6 -1.1116 0.0248
30 6 7 0.0405 -0.0092
30 6 8 0.1235 -0.0075
30 6 9 -0.6972 -0.0359
30 7 0 0.2458 0.0764
30 7 1 -0.7517 0.0001
30 7 2 0.7291 0.0511
30 7 3 0.5068 -0.0301
30 7 4 0.9871 0.0273
30 7 5 0.9489 -0.0473
30 7 6 -0.9403 0.0157
30 7 7 0.1433 -0.0104
30 7 8 -0.3829 0.0245
30 8 0 0.9460 0.0299
30 8 1 -1.1646 -0.0289
30 8 2 -0.6622 0.0265
30 8 3 -1.1490 -0.0355
30 8 4 -0.6329 0.0526
30 8 5 -0.4537 -0.0432
30 8 6 -1.0951 -0.0255
30 8 7 -0.5072 -0.0315
30 8 8 -0.2711 -0.0343
30 9 0 -1.3037 -0.0123
30 9 1 0.1591 -0.0009
30 9 2 -1.4240 0.0164
30 9 3 0.3688 -0.0409
30 9 4 0.7785 -0.0129
30 9 5 0.5421 -0.0213
30 9 6 -0.0757 -0.1096
30 9 7 0.1652 -0.0031
30 10 0 1.5355 0.0023
30 10 1 0.6748 0.0495
30 10 2 0.2096 -0.0041
30 10 3 0.2202 -0.0348
30 10 4 0.2791 -0.0533
30 10 5 -0.3240 0.0264
30 10 6 -0.9180 -0.1259
30 11 0 -0.6148 -0.0027
30 11 1 1.5616 0.0030
30 11 2 -0.3628 -0.0461
30 11 3 0.1019 0.0376
30 11 4 0.4888 -0.1205
30 12 0 0.0751 -0.1247
30 12 1 0.1963 0.0220
30 12 2 -0.8860 -0.0069
30 12 3 0.1693 0.0732
30 13 0 0.2669 -0.0128
30 13 1 0.3820 0.1264
31 0 0 2.0196 0.0149
31 0 2 0.2315 0.0147
31 0 4 0.2817 -0.0097
31 0 6 0.2801 -0.0024
31 0 8 0.2774 0.0018
31 0 10 0.2931 -0.1118
31 1 0 -0.5259 -0.0763
31 1 1 0.4848 -0.0331
31 1 2 -1.1034 0.0217
31 1 3 0.8437 0.0358
31 1 4 -0.1758 0.0192
31 1 5 0.5158 0.0036
31 1 6 0.4612 -0.0661
31 1 7 0.3254 -0.0336
31 1 8 0.1420 0.0138
31 1 9 -0.1815 0.0573
31 1 10 0.1783 -0.0623
31 2 0 -0.7588 0.0179
31 2 1 2.2834 -0.0046
31 2 2 -0.7599 -0.0234
31 2 3 0.6870 0.0282
31 2 4 -0.0949 0.0488
31 2 5 -1.1061 -0.0131
31 2 6 -0.4626 -0.0289
31 2 7 -0.4839 0.0084
31 2 8 -0.7381 -0.0409
31 2 9 0.4870 0.1041
31 3 0 -1.4521 -0.0235
31 3 1 1.1490 0.0036
31 3 2 -0.1414 -0.0526
31 3 3 0.0315 0.0225
31 3 4 0.7650 0.0350
31 3 5 -1.0332 0.0417
31 3 6 0.3359 -0.0227
31 3 7 0.0579 -0.0370
31 3 8 0.2238 -0.0610
31 3 9 0.6578 0.0146
31 4 0 -0.7061 0.0307
31 4 1 1.0856 0.0035
31 4 2 0.0711 -0.0607
31 4 3 0.0898 -0.0367
31 4 4 0.5533 0.0225
31 4 5 -0.3301 0.0151
31 4 6 -0.2697 0.0442
31 4 7 0.7307 0.0064
31 4 8 -1.4373 -0.0346
31 4 9 -0.0904 -0.0136
31 5 0 -1.7652 0.0566
31 5 1 -0.6399 0.0008
31 5 2 0.4267 -0.0250
31 5 3 0.1878 -0.0393
31 5 4 0.2734 -0.0106
31 5 5 0.0086 0.0118
31 5 6 -2.0980 0.0114
31 5 7 -0.4284 -0.0105
31 5 8 -1.4947 -0.0501
31 5 9 -0.0705 -0.1178
31 6 0 -0.4952 0.0736
31 6 1 -0.8372 -0.0265
31 6 2 0.1564 0.0131
31 6 3 0.4365 -0.0113
31 6 4 0.2861 0.0052
31 6 5 0.1808 -0.0038
31 6 6 -0.3842 0.0372
31 6 7 -0.2784 0.0008
31 6 8 0.5283 0.0044
31 7 0 0.3977 0.0596
31 7 1 -0.4127 -0.0021
31 7 2 1.0301 0.0328
31 7 3 0.5468 -0.0290
31 7 4 0.1053 0.0116
31 7 5 0.3681 -0.0414
31 7 6 -1.0747 0.0115
31 7 7 -0.2873 -0.0012
31 8 0 0.2509 0.0001
31 8 1 -1.2103 -0.0101
31 8 2 -1.2658 0.0074
31 8 3 -1.0275 -0.0124
31 8 4 -0.9311 -0.0049
31 8 5 -0.0326 -0.0426
31 8 6 -1.0318 -0.0723
31 8 7 -0.3473 -0.0280
31 9 0 -1.4355 -0.0208
31 9 1 1.2154 -0.0077
31 9 2 -0.1595 -0.0062
31 9 3 1.2984 -0.0153
31 9 4 0.9247 -0.0815
31 9 5 0.9968 0.0182
31 9 6 -0.2685 -0.1366
31 10 0 0.8638 -0.0034
31 10 1 0.7213 0.0203
31 10 2 0.0088 -0.0455
31 10 3 -0.1997 -0.0054
31 10 4 -0.2863 -0.1058
31 10 5 -0.0028 0.0351
31 11 0 -0.5351 0.0033
31 11 1 1.5016 0.0079
31 11 2 0.2750 -0.0609
31 11 3 -0.5492 0.0433
31 12 0 -0.1530 -0.1528
31 12 1 0.1056 0.0306
32 0 0 0.3752 0.0112
32 0 2 -1.0788 0.0060
32 0 4 -0.0249 0.0035
32 0 6 0.6068 -0.0083
32 0 8 0.5968 -0.0092
32 1 0 -1.2261 -0.0654
32 1 1 0.9681 -0.0293
32 1 2 -0.5755 0.0134
32 1 3 1.0771 0.0319
32 1 4 0.4984 0.0069
32 1 5 0.9776 -0.0083
32 1 6 0.5527 -0.0723
32 1 7 0.2690 -0.0248
32 1 8 0.1792 0.0148
32 1 9 -0.4606 0.0662
32 2 0 -1.2803 0.0296
32 2 1 1.7769 -0.0185
32 2 2 -0.7342 -0.0358
32 2 3 -0.7000 0.0209
32 2 4 -0.1036 0.0433
32 2 5 -0.9333 0.0183
32 2 6 -0.2930 -0.0371
32 2 7 0.1185 0.0180
32 2 8 -0.3828 -0.0837
32 2 9 0.3110 0.0793
32 3 0 -1.6063 -0.0070
32 3 1 0.8186 0.0053
32 3 2 0.3149 -0.0369
32 3 3 -0.2960 -0.0004
32 3 4 0.5321 0.0175
32 3 5 -0.5227 0.0452
32 3 6 0.0870 -0.0312
32 3 7 0.6039 -0.0211
32 3 8 0.5254 -0.0515
32 4 0 -0.7511 0.0304
32 4 1 -0.4709 -0.0060
32 4 2 0.0287 -0.0489
32 4 3 -1.1068 -0.0464
32 4 4 0.1860 0.0277
32 4 5 -0.5453 0.0240
32 4 6 -0.5082 0.0448
32 4 7 0.4908 0.0062
32 4 8 -1.3229 -0.0590
32 5 0 -1.3743 0.0608
32 5 1 -0.7172 0.0132
32 5 2 0.6917 -0.0144
32 5 3 0.2445 -0.0579
32 5 4 -0.2506 -0.0187
32 5 5 0.1152 0.0035
32 5 6 -1.6768 0.0113
32 5 7 0.0497 0.0000
32 5 8 -0.2731 -0.0227
32 6 0 -0.1164 0.0382
32 6 1 -0.7864 0.0145
32 6 2 0.3529 0.0031
32 6 3 0.5920 0.0043
32 6 4 0.4465 0.0101
32 6 5 -0.3456 -0.0124
32 6 6 -0.1075 0.0363
32 6 7 -0.3859 0.0100
32 7 0 0.6255 0.0048
32 7 1 -0.3268 -0.0008
32 7 2 0.6158 0.0161
32 7 3 0.2854 -0.0077
32 7 4 -0.8534 0.0009
32 7 5 -0.0039 -0.0304
32 7 6 -1.0248 0.0010
32 8 0 -0.7604 -0.0259
32 8 1 -1.0496 0.0099
32 8 2 -1.6575 -0.0363
32 8 3 -0.2392 0.0061
32 8 4 -0.6109 -0.0598
32 8 5 0.4646 -0.0487
32 8 6 -0.4980 -0.0986
32 9 0 -0.8460 -0.0261
32 9 1 1.9457 -0.0190
32 9 2 0.5997 -0.0518
32 9 3 1.6761 0.0178
32 9 4 0.3439 -0.1237
32 9 5 0.8928 0.0330
32 10 0 0.4322 -0.0213
32 10 1 0.3080 0.0034
32 10 2 0.0213 -0.0828
32 10 3 -0.2829 0.0236
32 11 0 0.1860 -0.0053
32 11 1 0.7765 -0.0110
32 11 2 0.6804 -0.0743
32 12 0 0.0710 -0.1261
33 0 0 -1.3026 -0.0027
33 0 2 -1.8412 0.0130
33 0 4 0.6952 0.0199
33 0 6 1.3872 -0.0197
33 0 8 0.5956 0.0043
33 1 0 -1.0836 -0.0430
33 1 1 1.0416 -0.0266
33 1 2 0.2404 -0.0069
33 1 3 1.1264 0.0020
33 1 4 0.6244 0.0085
33 1 5 1.0230 -0.0199
33 1 6 0.4357 -0.0412
33 1 7 0.0604 -0.0210
33 1 8 0.1702 0.0416
33 2 0 -1.2834 0.0444
33 2 1 0.3105 -0.0203
33 2 2 -0.5592 -0.0386
33 2 3 -1.5937 0.0213
33 2 4 -0.0376 0.0364
33 2 5 -0.2458 0.0293
33 2 6 -0.1343 -0.0439
33 2 7 0.4350 -0.0047
33 2 8 -0.2561 -0.0920
33 3 0 -1.0313 0.0139
33 3 1 0.2833 -0.0058
33 3 2 0.4185 -0.0357
33 3 3 -0.3387 -0.0305
33 3 4 -0.1444 -0.0045
33 3 5 0.0133 0.0379
33 3 6 -0.0339 -0.0084
33 3 7 0.6499 -0.0107
33 4 0 -0.6850 0.0398
33 4 1 -1.6722 0.0142
33 4 2 -0.0330 -0.0207
33 4 3 -1.3528 -0.0395
33 4 4 -0.1284 0.0182
33 4 5 -0.3759 0.0139
33 4 6 -0.5956 0.0339
33 4 7 0.3082 -0.0118
33 5 0 -0.7659 0.0267
33 5 1 -0.5478 0.0167
33 5 2 0.4682 -0.0002
33 5 3 0.5940 -0.0654
33 5 4 -0.4593 -0.0287
33 5 5 0.6352 0.0089
33 5 6 -0.9952 0.0231
33 5 7 0.4148 0.0250
33 6 0 0.2023 -0.0153
33 6 1 -0.4380 0.0475
33 6 2 0.2467 0.0053
33 6 3 0.5354 0.0216
33 6 4 0.2943 0.0128
33 6 5 -0.8716 -0.0136
33 6 6 -0.2726 0.0209
33 7 0 0.4432 -0.0442
33 7 1 -0.3936 0.0064
33 7 2 -0.4257 0.0238
33 7 3 -0.0438 0.0178
33 7 4 -1.4271 -0.0086
33 7 5 0.0496 -0.0233
33 8 0 -1.2958 -0.0642
33 8 1 -0.3262 0.0090
33 8 2 -1.3633 -0.0816
33 8 3 0.7908 0.0037
33 8 4 0.1549 -0.0864
33 9 0 0.1809 -0.0422
33 9 1 1.8063 -0.0285
33 9 2 0.6254 -0.0878
33 9 3 1.4850 0.0346
33 10 0 0.5017 -0.0515
33 10 1 -0.0804 0.0021
33 10 2 0.1290 -0.0907
33 11 0 0.9743 -0.0414
34 0 0 -2.3264 -0.0079
34 0 2 -1.4478 0.0278
34 0 4 1.9341 0.0165
34 0 6 1.5711 -0.0258
34 1 0 -0.1851 -0.0280
34 1 1 0.6795 -0.0363
34 1 2 0.8118 -0.0273
34 1 3 0.8207 -0.0333
34 1 4 0.3417 0.0299
34 1 5 0.8697 -0.0188
34 1 6 0.2839 0.0107
34 1 7 0.1734 -0.0292
34 2 0 -1.0851 0.0675
34 2 1 -0.9528 -0.0007
34 2 2 -0.4044 -0.0361
34 2 3 -1.3450 0.0070
34 2 4 0.0609 0.0173
34 2 5 0.5775 0.0163
34 2 6 -0.0578 -0.0443
34 2 7 0.5404 -0.0376
34 3 0 -0.5310 0.0153
34 3 1 -0.2769 -0.0101
34 3 2 -0.2982 -0.0333
34 3 3 -0.0706 -0.0594
34 3 4 -0.9876 -0.0105
34 3 5 0.2991 0.0255
34 3 6 -0.0564 0.0312
34 4 0 -0.5393 0.0512
34 4 1 -1.9996 0.0509
34 4 2 -0.0050 0.0052
34 4 3 -1.0967 -0.0372
34 4 4 -0.3086 -0.0086
34 4 5 -0.1513 -0.0183
34 4 6 -0.3649 0.0194
34 5 0 -0.6259 -0.0168
34 5 1 0.1185 0.0196
34 5 2 0.1663 0.0251
34 5 3 1.0852 -0.0517
34 5 4 -0.3503 -0.0311
34 5 5 0.9017 0.0268
34 6 0 0.1503 -0.0711
34 6 1 0.1374 0.0572
34 6 2 -0.0273 0.0234
34 6 3 0.2150 0.0478
34 6 4 -0.0146 0.0072
34 6 5 -1.0936 -0.0181
34 7 0 -0.1564 -0.0567
34 7 1 -0.6136 0.0133
34 7 2 -1.1672 0.0430
34 7 3 -0.1259 0.0357
34 7 4 -1.2150 -0.0219
34 8 0 -1.2512 -0.1173
34 8 1 0.6519 -0.0150
34 8 2 -0.6468 -0.1049
34 8 3 1.2494 -0.0119
34 9 0 0.9744 -0.0679
34 9 1 1.0063 -0.0375
34 9 2 0.1644 -0.0840
34 10 0 1.0146 -0.0813
35 0 0 -2.7228 0.0001
35 0 2 -0.3425 0.0158
35 0 4 2.6640 -0.0068
35 0 6 0.9580 -0.0205
35 1 0 0.7530 -0.0144
35 1 1 0.0040 -0.0384
35 1 2 0.6218 -0.0358
35 1 3 0.4151 -0.0473
35 1 4 -0.2097 0.0581
35 1 5 0.9328 -0.0097
35 1 6 0.1222 0.0530
35 2 0 -0.8007 0.0905
35 2 1 -1.2953 0.0156
35 2 2 -0.3134 -0.0442
35 2 3 -0.5157 -0.0264
35 2 4 0.0352 -0.0185
35 2 5 0.9532 -0.0018
35 3 0 -0.5947 0.0177
35 3 1 -0.3406 0.0062
35 3 2 -1.2510 -0.0120
35 3 3 0.3362 -0.0803
35 3 4 -1.3648 -0.0072
35 3 5 0.0571 0.0158
35 4 0 -0.4013 0.0512
35 4 1 -1.5940 0.0762
35 4 2 0.1682 0.0209
35 4 3 -0.5586 -0.0479
35 4 4 -0.0658 -0.0483
35 4 5 0.1404 -0.0499
35 5 0 -0.6979 -0.0372
35 5 1 0.6243 0.0267
35 5 2 0.1551 0.0579
35 5 3 1.2103 -0.0167
35 5 4 -0.2482 -0.0243
35 6 0 -0.2162 -0.1099
35 6 1 0.2563 0.0599
35 6 2 -0.2226 0.0507
35 6 3 -0.3904 0.0766
35 6 4 -0.2665 -0.0053
35 7 0 -0.6713 -0.0467
35 7 1 -0.6761 0.0104
35 7 2 -1.0217 0.0500
35 7 3 0.0878 0.0406
35 8 0 -0.7041 -0.1685
35 8 1 1.3691 -0.0428
35 8 2 0.1298 -0.0975
35 9 0 1.1244 -0.0899
36 0 0 -2.3416 -0.0098
36 0 2 0.8520 -0.0327
36 0 4 2.3528 -0.0252
36 1 0 1.0729 0.0195
36 1 1 -0.5567 -0.0069
36 1 2 0.0925 -0.0368
36 1 3 0.2909 -0.0436
36 1 4 -0.5096 0.0769
36 2 0 -0.9920 0.0955
36 2 1 -0.8218 0.0141
36 2 2 -0.4936 -0.0667
36 2 3 0.1694 -0.0613
36 2 4 -0.0612 -0.0583
36 3 0 -0.9461 0.0457
36 3 1 -0.0747 0.0372
36 3 2 -1.8201 0.0161
36 3 3 0.3445 -0.0878
36 3 4 -1.1962 -0.0130
36 4 0 -0.0656 0.0455
36 4 1 -1.0349 0.0847
36 4 2 0.6150 0.0241
36 4 3 -0.1659 -0.0599
36 5 0 -0.4239 -0.0315
36 5 1 0.7927 0.0358
36 5 2 0.3340 0.0880
36 5 3 0.8757 0.0312
36 6 0 -0.3052 -0.1123
36 6 1 -0.1645 0.0718
36 6 2 -0.1070 0.0728
36 7 0 -0.6131 -0.0441
36 7 1 -0.6704 -0.0069
36 8 0 -0.1510 -0.1930
37 0 0 -1.6782 -0.0557
37 0 2 1.3040 -0.0796
37 1 0 0.9114 0.0760
37 1 1 -0.8514 0.0427
37 1 2 -0.3232 -0.0416
37 1 3 0.3719 -0.0468
37 2 0 -1.4287 0.0829
37 2 1 -0.1950 0.0082
37 2 2 -0.5346 -0.0868
37 2 3 0.2694 -0.0838
37 3 0 -1.1473 0.0816
37 3 1 0.2931 0.0675
37 3 2 -1.5760 0.0287
37 4 0 0.3803 0.0460
37 4 1 -0.6689 0.0917
37 4 2 1.1378 0.0143
37 5 0 0.1637 -0.0214
37 5 1 0.4648 0.0500
37 6 0 0.1514 -0.0808
38 0 0 -0.9084 -0.1008
38 0 2 1.1434 -0.0848
38 1 0 0.4912 0.1295
38 1 1 -0.9262 0.0660
38 2 0 -1.7188 0.0755
38 2 1 0.0052 0.0091
38 3 0 -0.8205 0.0895
38 3 1 0.2478 0.0875
38 4 0 0.8570 0.0466
39 0 0 -0.2549 -0.0926
39 1 0 0.2134 0.1546
0 0 0 0.0 0.0
;
_shelx_fab_checksum              41456
_olex2_diffrn_ambient_temperature_device 'Oxford Cryosystems'
_olex2_exptl_crystal_mounting_method
'The crystal was mounted on a MITIGEN holder in perfluoroether oil'
_olex2_submission_original_sample_id Tb-Por
_olex2_submission_special_instructions 'No special instructions were received'
_oxdiff_exptl_absorpt_empirical_details
;
Empirical correction (ABSPACK) includes:
- Absorption correction using spherical harmonics
- Frame scaling
;
_oxdiff_exptl_absorpt_empirical_full_max 1.909
_oxdiff_exptl_absorpt_empirical_full_min 0.399
loop_
_space_group_symop_operation_xyz
'x, y, z'
'-x, y+1/2, -z+1/2'
'-x, -y, -z'
'x, -y-1/2, z-1/2'
loop_
_atom_site_label
_atom_site_type_symbol
_atom_site_fract_x
_atom_site_fract_y
_atom_site_fract_z
_atom_site_U_iso_or_equiv
_atom_site_adp_type
_atom_site_occupancy
_atom_site_site_symmetry_order
_atom_site_calc_flag
_atom_site_refinement_flags_posn
_atom_site_refinement_flags_adp
_atom_site_refinement_flags_occupancy
_atom_site_disorder_assembly
_atom_site_disorder_group
Tb1 Tb 0.26726(3) 0.30225(3) 0.46977(3) 0.04289(18) Uani 0.886(3) 1 d . U P A 3
Tb2 Tb 0.2441(4) 0.2885(3) 0.4554(3) 0.0594(18) Uani 0.114(3) 1 d . U P A 4
Co1 Co 0.27983(6) 0.36064(15) 0.26403(8) 0.0673(5) Uani 0.785(7) 1 d . U P A 3
Co2 Co 0.2852(3) 0.4046(8) 0.2739(4) 0.086(2) Uani 0.215(7) 1 d D U P A 4
Si1 Si 0.50379(10) 0.45872(17) 0.7097(2) 0.1038(10) Uani 1 1 d D U . . .
Si2 Si 0.02353(9) 0.1121(3) 0.3236(2) 0.1209(12) Uani 1 1 d D U . . .
N1 N 0.2876(2) 0.3901(3) 0.5731(3) 0.0533(11) Uani 1 1 d . U . . .
N2 N 0.2001(2) 0.3270(4) 0.5012(3) 0.0584(12) Uani 1 1 d . U . . .
N3 N 0.2376(2) 0.1660(3) 0.4834(3) 0.0545(11) Uani 1 1 d . U . . .
N4 N 0.32635(19) 0.2304(3) 0.5521(3) 0.0541(11) Uani 1 1 d . U . . .
C1 C 0.3315(2) 0.4084(4) 0.6085(4) 0.0568(13) Uani 1 1 d . U . . .
C2 C 0.3354(3) 0.4905(4) 0.6392(4) 0.0616(15) Uani 1 1 d . U . . .
H2 H 0.3618 0.5181 0.6654 0.074 Uiso 1 1 calc R . . . .
C3 C 0.2939(3) 0.5196(4) 0.6231(4) 0.0648(16) Uani 1 1 d . U . . .
H3 H 0.2857 0.5727 0.6364 0.078 Uiso 1 1 calc R . . . .
C4 C 0.2637(2) 0.4585(4) 0.5829(3) 0.0549(13) Uani 1 1 d . U . . .
C5 C 0.2169(3) 0.4641(4) 0.5577(3) 0.0577(13) Uani 1 1 d . U . . .
C6 C 0.1883(3) 0.4055(4) 0.5220(4) 0.0622(14) Uani 1 1 d . U . . .
C7 C 0.1402(3) 0.4093(6) 0.5021(5) 0.081(2) Uani 1 1 d . U . . .
H7 H 0.1231 0.4547 0.5104 0.098 Uiso 1 1 calc R . . . .
C8 C 0.1240(3) 0.3368(6) 0.4696(6) 0.084(2) Uani 1 1 d . U . . .
H8 H 0.0936 0.3222 0.4499 0.101 Uiso 1 1 calc R . . . .
C9 C 0.1618(3) 0.2862(5) 0.4709(5) 0.0724(18) Uani 1 1 d . U . . .
C10 C 0.1589(3) 0.2035(5) 0.4447(5) 0.0689(17) Uani 1 1 d . U . . .
C11 C 0.1956(3) 0.1473(4) 0.4546(4) 0.0606(14) Uani 1 1 d . U . . .
C12 C 0.1904(3) 0.0600(5) 0.4357(4) 0.0689(17) Uani 1 1 d . U . . .
H12 H 0.1633 0.0317 0.4142 0.083 Uiso 1 1 calc R . . . .
C13 C 0.2308(3) 0.0275(5) 0.4542(4) 0.0682(17) Uani 1 1 d . U . . .
H13 H 0.2379 -0.0287 0.4477 0.082 Uiso 1 1 calc R . . . .
C14 C 0.2617(3) 0.0920(4) 0.4858(4) 0.0609(14) Uani 1 1 d . U . . .
C15 C 0.3077(2) 0.0855(4) 0.5137(3) 0.0547(13) Uani 1 1 d . U . . .
C16 C 0.3387(2) 0.1492(4) 0.5459(4) 0.0544(13) Uani 1 1 d . U . . .
C17 C 0.3846(2) 0.1389(4) 0.5798(4) 0.0633(16) Uani 1 1 d . U . . .
H17 H 0.4008 0.0886 0.5825 0.076 Uiso 1 1 calc R . . . .
C18 C 0.4018(3) 0.2135(4) 0.6080(5) 0.0642(17) Uani 1 1 d . U . . .
H18 H 0.4319 0.2252 0.6334 0.077 Uiso 1 1 calc R . . . .
C19 C 0.3653(2) 0.2704(4) 0.5917(4) 0.0566(14) Uani 1 1 d . U . . .
C20 C 0.3681(3) 0.3544(4) 0.6146(4) 0.0589(14) Uani 1 1 d . U . . .
C21 C 0.4112(3) 0.3861(4) 0.6488(5) 0.0685(17) Uani 1 1 d . U . . .
C22 C 0.4476(3) 0.4146(5) 0.6762(6) 0.081(2) Uani 1 1 d . U . . .
C23 C 0.4972(4) 0.5740(6) 0.6842(7) 0.120(3) Uani 1 1 d D U . . .
H23 H 0.4862 0.5785 0.6305 0.143 Uiso 1 1 calc R . . . .
C24 C 0.5409(4) 0.6206(7) 0.7108(9) 0.146(5) Uani 1 1 d D U . . .
H24A H 0.5629 0.5948 0.6911 0.219 Uiso 1 1 calc R . . . .
H24B H 0.5364 0.6787 0.6950 0.219 Uiso 1 1 calc R . . . .
H24C H 0.5515 0.6186 0.7634 0.219 Uiso 1 1 calc R . . . .
C25 C 0.4640(4) 0.6145(6) 0.7148(10) 0.147(5) Uani 1 1 d D U . . .
H25A H 0.4356 0.5850 0.6980 0.220 Uiso 1 1 calc R . . . .
H25B H 0.4749 0.6125 0.7675 0.220 Uiso 1 1 calc R . . . .
H25C H 0.4598 0.6725 0.6990 0.220 Uiso 1 1 calc R . . . .
C26 C 0.5273(5) 0.4402(8) 0.8087(7) 0.147(4) Uani 1 1 d D U . . .
H26 H 0.5601 0.4359 0.8175 0.177 Uiso 1 1 calc R . . . .
C27 C 0.5215(8) 0.5046(11) 0.8576(8) 0.311(14) Uani 1 1 d D U . . .
H27A H 0.5302 0.5585 0.8426 0.467 Uiso 1 1 calc R . . . .
H27B H 0.4903 0.5067 0.8567 0.467 Uiso 1 1 calc R . . . .
H27C H 0.5402 0.4920 0.9066 0.467 Uiso 1 1 calc R . . . .
C28 C 0.5137(8) 0.3581(9) 0.8332(9) 0.244(11) Uani 1 1 d D U . . .
H28A H 0.5173 0.3139 0.8008 0.366 Uiso 1 1 calc R . . . .
H28B H 0.5323 0.3462 0.8822 0.366 Uiso 1 1 calc R . . . .
H28C H 0.4825 0.3609 0.8324 0.366 Uiso 1 1 calc R . . . .
C29 C 0.5387(5) 0.4036(10) 0.6633(9) 0.191(6) Uani 1 1 d D U . . .
H29 H 0.5679 0.4331 0.6759 0.229 Uiso 1 1 calc R . . . .
C30 C 0.5198(7) 0.4063(15) 0.5824(9) 0.242(9) Uani 1 1 d D U . . .
H30A H 0.5133 0.4640 0.5668 0.363 Uiso 1 1 calc R . . . .
H30B H 0.5415 0.3832 0.5606 0.363 Uiso 1 1 calc R . . . .
H30C H 0.4925 0.3735 0.5675 0.363 Uiso 1 1 calc R . . . .
C31 C 0.5482(10) 0.3153(12) 0.6853(15) 0.307(13) Uani 1 1 d D U . . .
H31A H 0.5605 0.3122 0.7378 0.460 Uiso 1 1 calc R . . . .
H31B H 0.5207 0.2830 0.6698 0.460 Uiso 1 1 calc R . . . .
H31C H 0.5697 0.2927 0.6629 0.460 Uiso 1 1 calc R . . . .
C32 C 0.1157(3) 0.1728(5) 0.4079(5) 0.078(2) Uani 1 1 d . U . . .
C33 C 0.0797(3) 0.1463(7) 0.3761(7) 0.096(3) Uani 1 1 d . U . . .
C34 C 0.0235(7) 0.1301(14) 0.2273(8) 0.234(8) Uani 1 1 d D U . . .
H34 H 0.0517 0.1095 0.2199 0.280 Uiso 1 1 calc R . . . .
C35 C 0.0183(7) 0.2232(13) 0.2130(10) 0.269(11) Uani 1 1 d D U . . .
H35A H 0.0435 0.2526 0.2456 0.403 Uiso 1 1 calc R . . . .
H35B H 0.0172 0.2345 0.1631 0.403 Uiso 1 1 calc R . . . .
H35C H -0.0093 0.2424 0.2212 0.403 Uiso 1 1 calc R . . . .
C36 C -0.0163(10) 0.0882(18) 0.1757(10) 0.339(15) Uani 1 1 d D U . . .
H36A H -0.0141 0.0279 0.1833 0.509 Uiso 1 1 calc R . . . .
H36B H -0.0435 0.1086 0.1842 0.509 Uiso 1 1 calc R . . . .
H36C H -0.0170 0.1008 0.1261 0.509 Uiso 1 1 calc R . . . .
C37 C -0.0148(5) 0.1511(12) 0.3740(12) 0.219(7) Uani 1 1 d D U . . .
H37 H -0.0053 0.1327 0.4253 0.263 Uiso 1 1 calc R . . . .
C38 C -0.0161(8) 0.2476(11) 0.3671(16) 0.321(15) Uani 1 1 d D U . . .
H38A H 0.0135 0.2702 0.3908 0.481 Uiso 1 1 calc R . . . .
H38B H -0.0252 0.2631 0.3161 0.481 Uiso 1 1 calc R . . . .
H38C H -0.0373 0.2701 0.3901 0.481 Uiso 1 1 calc R . . . .
C39 C -0.0624(5) 0.1257(14) 0.3352(15) 0.262(12) Uani 1 1 d D U . . .
H39A H -0.0650 0.0651 0.3366 0.392 Uiso 1 1 calc R . . . .
H39B H -0.0825 0.1513 0.3590 0.392 Uiso 1 1 calc R . . . .
H39C H -0.0703 0.1443 0.2851 0.392 Uiso 1 1 calc R . . . .
C40 C 0.0211(6) -0.0024(8) 0.3311(10) 0.188(6) Uani 1 1 d D U . . .
H40 H -0.0084 -0.0230 0.3008 0.225 Uiso 1 1 calc R . . . .
C41 C 0.0577(5) -0.0457(10) 0.3096(11) 0.213(8) Uani 1 1 d D U . . .
H41A H 0.0552 -0.0324 0.2595 0.320 Uiso 1 1 calc R . . . .
H41B H 0.0866 -0.0269 0.3407 0.320 Uiso 1 1 calc R . . . .
H41C H 0.0550 -0.1059 0.3148 0.320 Uiso 1 1 calc R . . . .
C42 C 0.0285(8) -0.0279(12) 0.4110(11) 0.242(9) Uani 1 1 d D U . . .
H42A H 0.0058 -0.0019 0.4288 0.363 Uiso 1 1 calc R . . . .
H42B H 0.0265 -0.0885 0.4142 0.363 Uiso 1 1 calc R . . . .
H42C H 0.0580 -0.0095 0.4401 0.363 Uiso 1 1 calc R . . . .
C43 C 0.1975(3) 0.5450(4) 0.5739(4) 0.0628(16) Uani 1 1 d . U . . .
C44 C 0.2011(3) 0.5676(5) 0.6432(4) 0.073(2) Uani 1 1 d . U . . .
H44 H 0.2153 0.5307 0.6812 0.087 Uiso 1 1 calc R . . . .
C45 C 0.1847(3) 0.6430(5) 0.6600(4) 0.089(3) Uani 1 1 d D U . . .
C46 C 0.1615(4) 0.6927(5) 0.6015(6) 0.098(3) Uani 1 1 d . U . . .
H46 H 0.1486 0.7430 0.6113 0.117 Uiso 1 1 calc R . . . .
C47 C 0.1564(3) 0.6723(5) 0.5303(4) 0.088(2) Uani 1 1 d D U . . .
C48 C 0.1750(3) 0.5978(5) 0.5183(4) 0.074(2) Uani 1 1 d . U . . .
H48 H 0.1722 0.5820 0.4702 0.089 Uiso 1 1 calc R . . . .
C49 C 0.1901(4) 0.6657(6) 0.7373(5) 0.125(4) Uani 1 1 d D U . . .
C50 C 0.2368(5) 0.6515(9) 0.7837(6) 0.150(5) Uani 1 1 d D U . . .
H50A H 0.2572 0.6853 0.7660 0.225 Uiso 1 1 calc R . . . .
H50B H 0.2393 0.6674 0.8334 0.225 Uiso 1 1 calc R . . . .
H50C H 0.2444 0.5927 0.7822 0.225 Uiso 1 1 calc R . . . .
C51 C 0.1786(6) 0.7556(7) 0.7445(7) 0.173(6) Uani 1 1 d D U . . .
H51A H 0.1974 0.7911 0.7247 0.260 Uiso 1 1 calc R . . . .
H51B H 0.1474 0.7652 0.7180 0.260 Uiso 1 1 calc R . . . .
H51C H 0.1837 0.7690 0.7954 0.260 Uiso 1 1 calc R . . . .
C52 C 0.1613(6) 0.6126(9) 0.7676(7) 0.168(5) Uani 1 1 d D U . . .
H52A H 0.1302 0.6196 0.7390 0.252 Uiso 1 1 calc R . . . .
H52B H 0.1699 0.5542 0.7663 0.252 Uiso 1 1 calc R . . . .
H52C H 0.1649 0.6290 0.8175 0.252 Uiso 1 1 calc R . . . .
C53 C 0.1303(3) 0.7287(6) 0.4710(5) 0.113(3) Uani 1 1 d D U . . .
C54 C 0.1522(5) 0.8121(7) 0.4750(9) 0.153(5) Uani 1 1 d D U . . .
H54A H 0.1826 0.8049 0.4728 0.230 Uiso 1 1 calc R . . . .
H54B H 0.1354 0.8466 0.4346 0.230 Uiso 1 1 calc R . . . .
H54C H 0.1529 0.8393 0.5204 0.230 Uiso 1 1 calc R . . . .
C55 C 0.0837(4) 0.7413(10) 0.4745(8) 0.145(5) Uani 1 1 d D U . . .
H55A H 0.0690 0.6873 0.4719 0.218 Uiso 1 1 calc R . . . .
H55B H 0.0847 0.7688 0.5199 0.218 Uiso 1 1 calc R . . . .
H55C H 0.0672 0.7761 0.4341 0.218 Uiso 1 1 calc R . . . .
C56 C 0.1266(5) 0.6938(8) 0.3976(5) 0.151(5) Uani 1 1 d D U . . .
H56A H 0.1125 0.6391 0.3926 0.227 Uiso 1 1 calc R . . . .
H56B H 0.1087 0.7313 0.3606 0.227 Uiso 1 1 calc R . . . .
H56C H 0.1564 0.6884 0.3919 0.227 Uiso 1 1 calc R . . . .
C57 C 0.3266(3) 0.0016(4) 0.5116(5) 0.0685(18) Uani 1 1 d . U . . .
C58 C 0.3537(3) -0.0108(6) 0.4673(6) 0.102(3) Uani 1 1 d . U . . .
H58 H 0.3603 0.0342 0.4406 0.123 Uiso 1 1 calc R . . . .
C59 C 0.3712(4) -0.0904(8) 0.4624(8) 0.145(4) Uani 1 1 d D U . . .
C60 C 0.3593(4) -0.1548(6) 0.5040(9) 0.133(4) Uani 1 1 d . U . . .
H60 H 0.3714 -0.2086 0.5025 0.159 Uiso 1 1 calc R . . . .
C61 C 0.3308(3) -0.1438(4) 0.5468(6) 0.107(3) Uani 1 1 d D U . . .
C62 C 0.3152(3) -0.0633(4) 0.5495(5) 0.0697(18) Uani 1 1 d . U . . .
H62 H 0.2961 -0.0525 0.5781 0.084 Uiso 1 1 calc R . . . .
C63 C 0.4003(5) -0.1098(10) 0.4146(9) 0.210(6) Uani 1 1 d D U . . .
C64 C 0.3737(7) -0.1430(16) 0.3433(10) 0.282(10) Uani 1 1 d D U . . .
H64A H 0.3608 -0.1966 0.3500 0.423 Uiso 1 1 calc R . . . .
H64B H 0.3499 -0.1038 0.3206 0.423 Uiso 1 1 calc R . . . .
H64C H 0.3930 -0.1504 0.3124 0.423 Uiso 1 1 calc R . . . .
C65 C 0.4373(6) -0.1681(15) 0.4508(13) 0.290(10) Uani 1 1 d D U . . .
H65A H 0.4251 -0.2172 0.4678 0.435 Uiso 1 1 calc R . . . .
H65B H 0.4529 -0.1852 0.4165 0.435 Uiso 1 1 calc R . . . .
H65C H 0.4581 -0.1400 0.4918 0.435 Uiso 1 1 calc R . . . .
C66 C 0.4144(7) -0.0321(11) 0.3860(12) 0.278(9) Uani 1 1 d D U . . .
H66A H 0.4332 0.0007 0.4259 0.417 Uiso 1 1 calc R . . . .
H66B H 0.4312 -0.0463 0.3526 0.417 Uiso 1 1 calc R . . . .
H66C H 0.3881 0.0003 0.3607 0.417 Uiso 1 1 calc R . . . .
C67 C 0.3159(4) -0.2165(6) 0.5818(7) 0.141(4) Uani 1 1 d D U . . .
C68 C 0.2801(5) -0.2647(9) 0.5255(8) 0.163(6) Uani 1 1 d D U . . .
H68A H 0.2564 -0.2266 0.5001 0.244 Uiso 1 1 calc R . . . .
H68B H 0.2932 -0.2906 0.4910 0.244 Uiso 1 1 calc R . . . .
H68C H 0.2678 -0.3079 0.5494 0.244 Uiso 1 1 calc R . . . .
C69 C 0.3534(5) -0.2707(8) 0.6231(11) 0.194(7) Uani 1 1 d D U . . .
H69A H 0.3417 -0.3169 0.6447 0.290 Uiso 1 1 calc R . . . .
H69B H 0.3692 -0.2925 0.5906 0.290 Uiso 1 1 calc R . . . .
H69C H 0.3740 -0.2380 0.6612 0.290 Uiso 1 1 calc R . . . .
C70 C 0.2925(7) -0.1905(9) 0.6357(10) 0.210(7) Uani 1 1 d D U . . .
H70A H 0.2673 -0.1545 0.6121 0.316 Uiso 1 1 calc R . . . .
H70B H 0.2817 -0.2400 0.6547 0.316 Uiso 1 1 calc R . . . .
H70C H 0.3132 -0.1602 0.6753 0.316 Uiso 1 1 calc R . . . .
P101 P 0.29705(13) 0.44625(19) 0.35549(16) 0.0786(9) Uani 0.706(3) 1 d D U P A
1
P102 P 0.21846(11) 0.3299(2) 0.28457(14) 0.0702(8) Uani 0.706(3) 1 d D U P A 1
P103 P 0.31702(10) 0.26347(19) 0.33244(15) 0.0648(7) Uani 0.706(3) 1 d D U P A
1
O101 O 0.2900(3) 0.4202(4) 0.4255(4) 0.075(2) Uani 0.706(3) 1 d D U P A 1
O102 O 0.2168(2) 0.3077(5) 0.3578(3) 0.0708(19) Uani 0.706(3) 1 d D U P A 1
O103 O 0.3056(3) 0.2450(4) 0.4003(4) 0.0669(17) Uani 0.706(3) 1 d D U P A 1
O104 O 0.3462(3) 0.4796(7) 0.3734(5) 0.103(3) Uani 0.706(3) 1 d D U P A 1
O105 O 0.2704(4) 0.5293(6) 0.3225(6) 0.125(3) Uani 0.706(3) 1 d D U P A 1
O106 O 0.1855(3) 0.4037(6) 0.2582(5) 0.094(2) Uani 0.706(3) 1 d D U P A 1
O107 O 0.1952(3) 0.2583(6) 0.2303(6) 0.091(3) Uani 0.706(3) 1 d D U P A 1
O108 O 0.3172(3) 0.1773(5) 0.2906(5) 0.081(2) Uani 0.706(3) 1 d D U P A 1
O109 O 0.3687(3) 0.2852(7) 0.3563(5) 0.093(2) Uani 0.706(3) 1 d D U P A 1
C101 C 0.3802(7) 0.4583(14) 0.4389(8) 0.127(5) Uani 0.706(3) 1 d D U P A 1
H10A H 0.4086 0.4478 0.4284 0.153 Uiso 0.706(3) 1 calc R . P A 1
H10B H 0.3717 0.4071 0.4598 0.153 Uiso 0.706(3) 1 calc R . P A 1
C102 C 0.3858(9) 0.5268(19) 0.4904(10) 0.154(8) Uani 0.706(3) 1 d D U P A 1
H10C H 0.4089 0.5124 0.5349 0.231 Uiso 0.706(3) 1 calc R . P A 1
H10D H 0.3945 0.5772 0.4698 0.231 Uiso 0.706(3) 1 calc R . P A 1
H10E H 0.3577 0.5366 0.5010 0.231 Uiso 0.706(3) 1 calc R . P A 1
C103 C 0.2746(8) 0.6007(8) 0.3688(8) 0.134(5) Uani 0.706(3) 1 d D U P A 1
H10F H 0.2870 0.5837 0.4198 0.161 Uiso 0.706(3) 1 calc R . P A 1
H10G H 0.2451 0.6261 0.3625 0.161 Uiso 0.706(3) 1 calc R . P A 1
C104 C 0.3044(9) 0.6612(11) 0.3500(12) 0.169(8) Uani 0.706(3) 1 d D U P A 1
H10H H 0.3076 0.7101 0.3811 0.254 Uiso 0.706(3) 1 calc R . P A 1
H10I H 0.3336 0.6357 0.3568 0.254 Uiso 0.706(3) 1 calc R . P A 1
H10J H 0.2919 0.6780 0.2997 0.254 Uiso 0.706(3) 1 calc R . P A 1
C105 C 0.1690(7) 0.4518(13) 0.3080(10) 0.148(6) Uani 0.706(3) 1 d D U P A 1
H10K H 0.1692 0.5117 0.2965 0.177 Uiso 0.706(3) 1 calc R . P A 1
H10L H 0.1883 0.4432 0.3578 0.177 Uiso 0.706(3) 1 calc R . P A 1
C106 C 0.1240(6) 0.4249(17) 0.3018(13) 0.171(8) Uani 0.706(3) 1 d D U P A 1
H10M H 0.1125 0.4569 0.3351 0.257 Uiso 0.706(3) 1 calc R . P A 1
H10N H 0.1051 0.4339 0.2524 0.257 Uiso 0.706(3) 1 calc R . P A 1
H10O H 0.1242 0.3656 0.3135 0.257 Uiso 0.706(3) 1 calc R . P A 1
C107 C 0.1562(5) 0.2181(10) 0.2354(8) 0.095(4) Uani 0.706(3) 1 d D U P A 1
H10P H 0.1319 0.2590 0.2288 0.115 Uiso 0.706(3) 1 calc R . P A 1
H10Q H 0.1618 0.1923 0.2835 0.115 Uiso 0.706(3) 1 calc R . P A 1
C108 C 0.1432(6) 0.1533(12) 0.1787(10) 0.126(6) Uani 0.706(3) 1 d D U P A 1
H10R H 0.1163 0.1251 0.1817 0.189 Uiso 0.706(3) 1 calc R . P A 1
H10S H 0.1375 0.1793 0.1313 0.189 Uiso 0.706(3) 1 calc R . P A 1
H10T H 0.1673 0.1128 0.1858 0.189 Uiso 0.706(3) 1 calc R . P A 1
C109 C 0.2786(5) 0.1311(10) 0.2580(7) 0.103(4) Uani 0.706(3) 1 d D U P A 1
H10U H 0.2843 0.0933 0.2217 0.124 Uiso 0.706(3) 1 calc R . P A 1
H10V H 0.2545 0.1695 0.2329 0.124 Uiso 0.706(3) 1 calc R . P A 1
C110 C 0.2642(7) 0.0822(14) 0.3102(9) 0.147(8) Uani 0.706(3) 1 d D U P A 1
H11A H 0.2373 0.0512 0.2853 0.220 Uiso 0.706(3) 1 calc R . P A 1
H11B H 0.2877 0.0433 0.3346 0.220 Uiso 0.706(3) 1 calc R . P A 1
H11C H 0.2579 0.1195 0.3458 0.220 Uiso 0.706(3) 1 calc R . P A 1
C111 C 0.3990(5) 0.2253(10) 0.3958(9) 0.114(4) Uani 0.706(3) 1 d D U P A 1
H11D H 0.4088 0.1899 0.3619 0.136 Uiso 0.706(3) 1 calc R . P A 1
H11E H 0.3837 0.1893 0.4222 0.136 Uiso 0.706(3) 1 calc R . P A 1
C112 C 0.4374(4) 0.2622(15) 0.4465(9) 0.132(6) Uani 0.706(3) 1 d D U P A 1
H11F H 0.4573 0.2182 0.4723 0.198 Uiso 0.706(3) 1 calc R . P A 1
H11G H 0.4531 0.2970 0.4206 0.198 Uiso 0.706(3) 1 calc R . P A 1
H11H H 0.4280 0.2964 0.4809 0.198 Uiso 0.706(3) 1 calc R . P A 1
P201 P 0.2442(4) 0.4519(7) 0.3308(5) 0.123(3) Uani 0.294(3) 1 d D U P A 2
P202 P 0.2523(4) 0.2669(7) 0.2821(5) 0.121(3) Uani 0.294(3) 1 d D U P A 2
P203 P 0.3331(3) 0.3782(6) 0.3650(5) 0.097(2) Uani 0.294(3) 1 d D U P A 2
O201 O 0.2467(8) 0.4222(12) 0.4052(8) 0.094(4) Uani 0.294(3) 1 d D U P A 2
O202 O 0.2441(8) 0.2531(14) 0.3539(8) 0.101(4) Uani 0.294(3) 1 d D U P A 2
O203 O 0.3259(7) 0.3281(14) 0.4262(10) 0.099(4) Uani 0.294(3) 1 d D U P A 2
O204 O 0.2733(9) 0.5344(13) 0.3448(15) 0.142(6) Uani 0.294(3) 1 d D U P A 2
O205 O 0.1998(6) 0.4787(19) 0.2777(11) 0.135(6) Uani 0.294(3) 1 d D U P A 2
O206 O 0.2063(7) 0.2297(18) 0.2331(16) 0.135(6) Uani 0.294(3) 1 d D U P A 2
O207 O 0.2858(8) 0.1975(13) 0.2729(16) 0.131(6) Uani 0.294(3) 1 d D U P A 2
O208 O 0.3740(7) 0.3363(14) 0.3467(15) 0.113(5) Uani 0.294(3) 1 d D U P A 2
O209 O 0.3530(10) 0.4667(12) 0.3939(14) 0.109(6) Uani 0.294(3) 1 d D U P A 2
C201 C 0.2709(11) 0.594(2) 0.399(2) 0.154(9) Uani 0.294(3) 1 d D U P A 2
H20A H 0.2826 0.6488 0.3898 0.185 Uiso 0.294(3) 1 calc R . P A 2
H20B H 0.2883 0.5749 0.4475 0.185 Uiso 0.294(3) 1 calc R . P A 2
C202 C 0.2240(11) 0.601(2) 0.3941(18) 0.174(14) Uani 0.294(3) 1 d D U P A 2
H20C H 0.2203 0.6407 0.4299 0.262 Uiso 0.294(3) 1 calc R . P A 2
H20D H 0.2072 0.6197 0.3459 0.262 Uiso 0.294(3) 1 calc R . P A 2
H20E H 0.2129 0.5463 0.4033 0.262 Uiso 0.294(3) 1 calc R . P A 2
C203 C 0.1569(10) 0.456(2) 0.285(3) 0.156(9) Uani 0.294(3) 1 d D U P A 2
H20F H 0.1604 0.4176 0.3257 0.187 Uiso 0.294(3) 1 calc R . P A 2
H20G H 0.1382 0.4297 0.2405 0.187 Uiso 0.294(3) 1 calc R . P A 2
C204 C 0.1366(12) 0.534(3) 0.2982(19) 0.191(15) Uani 0.294(3) 1 d D U P A 2
H20H H 0.1073 0.5224 0.3036 0.286 Uiso 0.294(3) 1 calc R . P A 2
H20I H 0.1555 0.5598 0.3423 0.286 Uiso 0.294(3) 1 calc R . P A 2
H20J H 0.1335 0.5718 0.2575 0.286 Uiso 0.294(3) 1 calc R . P A 2
C205 C 0.2015(11) 0.1411(18) 0.239(3) 0.154(10) Uani 0.294(3) 1 d D U P A 2
H20K H 0.2200 0.1213 0.2868 0.184 Uiso 0.294(3) 1 calc R . P A 2
H20L H 0.2108 0.1118 0.2014 0.184 Uiso 0.294(3) 1 calc R . P A 2
C206 C 0.1544(11) 0.126(2) 0.230(4) 0.175(16) Uani 0.294(3) 1 d D U P A 2
H20M H 0.1496 0.0660 0.2342 0.263 Uiso 0.294(3) 1 calc R . P A 2
H20N H 0.1457 0.1552 0.2681 0.263 Uiso 0.294(3) 1 calc R . P A 2
H20O H 0.1366 0.1457 0.1831 0.263 Uiso 0.294(3) 1 calc R . P A 2
C207 C 0.2782(13) 0.1155(17) 0.298(3) 0.136(9) Uani 0.294(3) 1 d D U P A 2
H20P H 0.2726 0.1193 0.3450 0.164 Uiso 0.294(3) 1 calc R . P A 2
H20Q H 0.2521 0.0894 0.2630 0.164 Uiso 0.294(3) 1 calc R . P A 2
C208 C 0.3175(15) 0.067(2) 0.3038(17) 0.156(12) Uani 0.294(3) 1 d D U P A 2
H20R H 0.3135 0.0108 0.3205 0.233 Uiso 0.294(3) 1 calc R . P A 2
H20S H 0.3227 0.0634 0.2567 0.233 Uiso 0.294(3) 1 calc R . P A 2
H20T H 0.3431 0.0932 0.3383 0.233 Uiso 0.294(3) 1 calc R . P A 2
C209 C 0.3628(11) 0.2545(16) 0.3149(19) 0.107(7) Uani 0.294(3) 1 d D U P A 2
H20U H 0.3367 0.2318 0.3272 0.128 Uiso 0.294(3) 1 calc R . P A 2
H20V H 0.3554 0.2579 0.2619 0.128 Uiso 0.294(3) 1 calc R . P A 2
C210 C 0.4011(12) 0.2016(15) 0.344(3) 0.175(19) Uani 0.294(3) 1 d D U P A 2
H21A H 0.3946 0.1457 0.3234 0.262 Uiso 0.294(3) 1 calc R . P A 2
H21B H 0.4266 0.2246 0.3312 0.262 Uiso 0.294(3) 1 calc R . P A 2
H21C H 0.4080 0.1987 0.3962 0.262 Uiso 0.294(3) 1 calc R . P A 2
C211 C 0.3881(15) 0.465(3) 0.461(2) 0.119(9) Uani 0.294(3) 1 d D U P A 2
H21D H 0.4173 0.4715 0.4523 0.142 Uiso 0.294(3) 1 calc R . P A 2
H21E H 0.3879 0.4120 0.4863 0.142 Uiso 0.294(3) 1 calc R . P A 2
C212 C 0.380(3) 0.535(5) 0.504(3) 0.18(2) Uani 0.294(3) 1 d D U P A 2
H21F H 0.4037 0.5357 0.5506 0.273 Uiso 0.294(3) 1 calc R . P A 2
H21G H 0.3807 0.5870 0.4788 0.273 Uiso 0.294(3) 1 calc R . P A 2
H21H H 0.3514 0.5278 0.5127 0.273 Uiso 0.294(3) 1 calc R . P A 2
C121 C 0.2611(3) 0.4425(6) 0.1762(4) 0.103(3) Uani 0.785(7) 1 d . U P A 3
H121 H 0.2418 0.4889 0.1718 0.123 Uiso 0.785(7) 1 calc R . P A 3
C122 C 0.3079(4) 0.4432(5) 0.2078(5) 0.095(3) Uani 0.785(7) 1 d G U P A 3
H122 H 0.3254 0.4900 0.2282 0.114 Uiso 0.785(7) 1 calc R . P A 3
C123 C 0.3239(3) 0.3614(6) 0.2035(4) 0.095(3) Uani 0.785(7) 1 d G U P A 3
H123 H 0.3539 0.3440 0.2206 0.114 Uiso 0.785(7) 1 calc R . P A 3
C124 C 0.2869(4) 0.3103(4) 0.1693(4) 0.100(3) Uani 0.785(7) 1 d G U P A 3
H124 H 0.2880 0.2526 0.1594 0.120 Uiso 0.785(7) 1 calc R . P A 3
C125 C 0.2482(3) 0.3604(7) 0.1524(4) 0.103(3) Uani 0.785(7) 1 d G U P A 3
H125 H 0.2187 0.3421 0.1293 0.124 Uiso 0.785(7) 1 calc R . P A 3
C221 C 0.2827(13) 0.5035(12) 0.2089(16) 0.101(5) Uani 0.215(7) 1 d D U P A 4
H221 H 0.2782 0.5598 0.2197 0.122 Uiso 0.215(7) 1 calc R . P A 4
C222 C 0.3244(9) 0.463(2) 0.2232(19) 0.101(5) Uani 0.215(7) 1 d DG U P A 4
H222 H 0.3526 0.4869 0.2453 0.122 Uiso 0.215(7) 1 calc R . P A 4
C223 C 0.3164(11) 0.3795(18) 0.1987(14) 0.095(5) Uani 0.215(7) 1 d DG U P A 4
H223 H 0.3384 0.3382 0.2015 0.114 Uiso 0.215(7) 1 calc R . P A 4
C224 C 0.2698(13) 0.3688(16) 0.1692(12) 0.103(5) Uani 0.215(7) 1 d DG U P A 4
H224 H 0.2552 0.3190 0.1488 0.124 Uiso 0.215(7) 1 calc R . P A 4
C225 C 0.2490(9) 0.445(2) 0.1755(14) 0.104(5) Uani 0.215(7) 1 d DG U P A 4
H225 H 0.2180 0.4560 0.1600 0.125 Uiso 0.215(7) 1 calc R . P A 4
loop_
_atom_site_aniso_label
_atom_site_aniso_U_11
_atom_site_aniso_U_22
_atom_site_aniso_U_33
_atom_site_aniso_U_23
_atom_site_aniso_U_13
_atom_site_aniso_U_12
Tb1 0.0642(4) 0.0341(2) 0.0406(2) -0.00172(14) 0.0312(2) 0.00007(19)
Tb2 0.109(5) 0.0365(16) 0.0407(16) 0.0047(11) 0.035(2) 0.004(2)
Co1 0.1111(11) 0.0579(11) 0.0494(7) -0.0064(6) 0.0490(7) -0.0125(8)
Co2 0.136(4) 0.084(4) 0.056(3) 0.013(3) 0.054(3) 0.007(3)
Si1 0.0871(16) 0.0720(15) 0.164(3) -0.0433(17) 0.0551(18) -0.0189(13)
Si2 0.0649(15) 0.128(3) 0.154(3) 0.013(2) 0.0079(17) 0.0004(16)
N1 0.092(3) 0.031(2) 0.051(2) 0.0037(17) 0.042(2) 0.005(2)
N2 0.080(3) 0.050(3) 0.055(3) 0.001(2) 0.037(2) 0.009(2)
N3 0.080(3) 0.044(2) 0.048(3) -0.0072(19) 0.032(2) 0.002(2)
N4 0.081(3) 0.034(2) 0.057(3) -0.0006(19) 0.037(2) -0.0003(19)
C1 0.087(3) 0.034(2) 0.063(3) 0.001(2) 0.042(3) -0.007(2)
C2 0.093(4) 0.033(3) 0.068(4) 0.001(2) 0.038(3) -0.002(3)
C3 0.102(4) 0.036(3) 0.070(4) 0.006(3) 0.045(3) 0.001(3)
C4 0.092(3) 0.035(2) 0.050(3) 0.007(2) 0.040(3) 0.010(2)
C5 0.093(3) 0.046(3) 0.047(3) 0.006(2) 0.041(3) 0.013(2)
C6 0.087(4) 0.055(3) 0.058(3) 0.002(2) 0.042(3) 0.013(3)
C7 0.089(4) 0.077(4) 0.093(5) -0.008(4) 0.049(4) 0.015(3)
C8 0.077(4) 0.084(5) 0.101(6) -0.007(4) 0.042(4) 0.008(3)
C9 0.085(4) 0.067(3) 0.081(5) -0.004(3) 0.048(3) 0.002(3)
C10 0.077(4) 0.066(4) 0.071(4) -0.001(3) 0.034(3) -0.002(3)
C11 0.080(3) 0.053(3) 0.056(3) -0.005(2) 0.032(3) -0.003(2)
C12 0.085(4) 0.055(3) 0.066(4) -0.009(3) 0.021(3) -0.003(3)
C13 0.091(4) 0.052(3) 0.062(4) -0.011(3) 0.024(3) 0.000(3)
C14 0.089(3) 0.053(3) 0.048(3) -0.005(2) 0.031(3) 0.000(2)
C15 0.086(3) 0.036(3) 0.053(3) -0.003(2) 0.038(3) 0.006(2)
C16 0.081(3) 0.035(2) 0.061(3) 0.000(2) 0.042(3) 0.002(2)
C17 0.076(3) 0.037(3) 0.088(4) -0.005(3) 0.043(3) 0.002(2)
C18 0.072(4) 0.040(3) 0.089(5) -0.005(3) 0.037(3) -0.001(2)
C19 0.075(3) 0.036(2) 0.069(4) -0.002(2) 0.038(3) -0.004(2)
C20 0.085(3) 0.036(3) 0.068(4) -0.003(2) 0.041(3) -0.006(2)
C21 0.088(4) 0.042(3) 0.087(5) -0.009(3) 0.043(3) -0.007(3)
C22 0.091(4) 0.048(4) 0.113(6) -0.016(4) 0.045(4) -0.014(3)
C23 0.133(7) 0.090(5) 0.142(9) -0.022(5) 0.051(6) -0.046(5)
C24 0.138(8) 0.115(9) 0.208(15) -0.072(9) 0.086(9) -0.057(7)
C25 0.149(9) 0.063(6) 0.243(17) -0.009(8) 0.084(10) -0.017(6)
C26 0.145(10) 0.095(7) 0.174(8) -0.011(6) 0.005(7) -0.025(7)
C27 0.52(4) 0.183(15) 0.232(16) -0.038(13) 0.109(19) 0.000(18)
C28 0.35(3) 0.146(11) 0.200(15) -0.001(10) 0.030(16) -0.083(14)
C29 0.152(10) 0.178(11) 0.276(13) -0.098(10) 0.114(10) -0.019(8)
C30 0.201(16) 0.31(2) 0.261(14) -0.096(12) 0.142(12) -0.044(15)
C31 0.36(3) 0.209(14) 0.37(2) -0.073(14) 0.15(2) 0.044(15)
C32 0.081(4) 0.061(4) 0.098(5) 0.005(4) 0.037(3) 0.001(3)
C33 0.077(4) 0.092(6) 0.122(7) -0.005(5) 0.033(4) 0.001(4)
C34 0.191(14) 0.297(17) 0.185(9) 0.025(9) 0.013(8) -0.040(13)
C35 0.157(16) 0.319(18) 0.246(18) 0.087(12) -0.068(13) -0.036(14)
C36 0.29(2) 0.45(3) 0.224(17) -0.002(16) -0.003(15) -0.12(2)
C37 0.128(8) 0.220(14) 0.328(16) -0.062(13) 0.097(10) -0.029(9)
C38 0.217(19) 0.228(15) 0.56(4) -0.073(15) 0.18(2) -0.010(12)
C39 0.128(9) 0.23(2) 0.43(3) -0.05(2) 0.089(12) -0.003(10)
C40 0.137(10) 0.149(8) 0.252(14) -0.022(8) 0.019(10) -0.027(7)
C41 0.134(11) 0.182(14) 0.294(19) -0.053(13) 0.017(12) -0.022(9)
C42 0.22(2) 0.217(18) 0.259(15) 0.006(11) 0.022(13) -0.031(15)
C43 0.098(5) 0.046(3) 0.055(3) 0.009(2) 0.039(3) 0.021(3)
C44 0.122(6) 0.053(3) 0.053(3) 0.010(3) 0.040(3) 0.030(4)
C45 0.145(7) 0.064(4) 0.073(4) 0.004(3) 0.052(4) 0.042(4)
C46 0.151(8) 0.064(5) 0.089(4) 0.017(3) 0.052(4) 0.052(5)
C47 0.128(6) 0.066(4) 0.082(4) 0.025(3) 0.051(4) 0.040(4)
C48 0.107(5) 0.065(4) 0.060(3) 0.018(3) 0.039(3) 0.030(4)
C49 0.223(10) 0.090(6) 0.078(5) -0.001(4) 0.068(5) 0.065(6)
C50 0.239(10) 0.125(10) 0.082(6) -0.014(6) 0.041(6) 0.052(8)
C51 0.298(17) 0.110(7) 0.111(9) -0.018(6) 0.061(10) 0.086(8)
C52 0.279(14) 0.155(10) 0.103(8) -0.014(7) 0.106(9) 0.029(9)
C53 0.147(7) 0.100(6) 0.105(5) 0.055(5) 0.057(5) 0.058(5)
C54 0.181(11) 0.109(7) 0.159(11) 0.072(7) 0.036(8) 0.043(6)
C55 0.154(8) 0.152(11) 0.140(10) 0.067(9) 0.058(7) 0.066(7)
C56 0.209(13) 0.142(9) 0.107(6) 0.059(6) 0.053(7) 0.069(8)
C57 0.090(4) 0.033(3) 0.089(5) -0.017(3) 0.038(4) 0.002(3)
C58 0.119(6) 0.072(5) 0.142(7) -0.052(5) 0.079(6) -0.009(4)
C59 0.136(8) 0.095(5) 0.227(10) -0.076(6) 0.087(7) 0.011(5)
C60 0.115(7) 0.057(4) 0.224(10) -0.060(5) 0.047(7) 0.012(4)
C61 0.099(5) 0.031(3) 0.170(8) -0.025(3) 0.009(5) 0.008(3)
C62 0.082(4) 0.030(3) 0.095(5) -0.010(3) 0.024(4) 0.003(3)
C63 0.192(12) 0.195(12) 0.290(13) -0.131(10) 0.144(10) -0.003(9)
C64 0.262(17) 0.33(2) 0.301(15) -0.146(14) 0.155(13) -0.041(15)
C65 0.251(16) 0.32(2) 0.340(19) -0.125(15) 0.146(14) 0.068(15)
C66 0.28(2) 0.259(15) 0.37(2) -0.115(13) 0.225(17) -0.009(12)
C67 0.147(8) 0.043(4) 0.202(10) 0.014(5) 0.004(6) -0.007(4)
C68 0.139(10) 0.111(9) 0.209(12) 0.009(8) 0.007(9) -0.038(8)
C69 0.167(10) 0.069(6) 0.283(16) 0.028(9) -0.027(10) -0.012(6)
C70 0.286(17) 0.105(10) 0.253(14) 0.036(9) 0.100(13) -0.006(10)
P101 0.135(3) 0.0574(15) 0.0596(15) -0.0002(12) 0.0546(16) -0.0167(16)
P102 0.0926(19) 0.0808(18) 0.0439(12) 0.0030(12) 0.0308(12) 0.0112(15)
P103 0.0811(16) 0.0698(16) 0.0581(13) -0.0128(12) 0.0430(12) -0.0037(13)
O101 0.131(6) 0.052(3) 0.056(3) -0.011(3) 0.052(4) -0.028(4)
O102 0.066(4) 0.110(6) 0.044(3) 0.006(3) 0.028(2) 0.001(3)
O103 0.102(4) 0.058(4) 0.057(3) -0.003(3) 0.048(3) 0.011(3)
O104 0.169(6) 0.093(6) 0.066(5) 0.003(4) 0.066(4) -0.046(5)
O105 0.243(9) 0.075(5) 0.068(5) 0.004(4) 0.065(5) 0.007(5)
O106 0.114(5) 0.090(5) 0.079(5) 0.010(4) 0.033(4) 0.017(4)
O107 0.110(5) 0.093(5) 0.080(5) -0.016(4) 0.044(4) 0.010(4)
O108 0.103(5) 0.077(4) 0.073(4) -0.028(4) 0.042(4) 0.005(4)
O109 0.093(4) 0.104(6) 0.096(6) 0.000(5) 0.047(4) -0.015(4)
C101 0.171(9) 0.155(12) 0.066(8) 0.003(7) 0.049(7) -0.042(8)
C102 0.203(17) 0.191(16) 0.094(10) -0.026(10) 0.082(10) -0.072(13)
C103 0.274(15) 0.068(6) 0.074(8) 0.004(6) 0.073(9) 0.013(7)
C104 0.31(2) 0.093(10) 0.124(14) -0.005(10) 0.102(15) -0.016(12)
C105 0.189(12) 0.166(12) 0.097(10) 0.026(9) 0.057(9) 0.069(10)
C106 0.180(12) 0.205(19) 0.140(15) 0.053(14) 0.066(11) 0.073(12)
C107 0.110(7) 0.105(8) 0.076(7) -0.019(6) 0.035(6) -0.008(6)
C108 0.151(13) 0.133(12) 0.105(11) -0.042(10) 0.053(10) -0.020(10)
C109 0.135(8) 0.097(8) 0.087(8) -0.038(6) 0.046(6) -0.014(6)
C110 0.202(16) 0.148(14) 0.088(9) -0.034(9) 0.039(10) -0.076(13)
C111 0.096(7) 0.138(10) 0.114(9) 0.004(8) 0.042(6) 0.004(6)
C112 0.096(8) 0.196(18) 0.113(10) -0.003(11) 0.045(7) -0.014(9)
P201 0.193(7) 0.121(6) 0.076(4) 0.041(4) 0.073(4) 0.041(5)
P202 0.187(7) 0.134(5) 0.057(4) -0.010(4) 0.059(4) -0.030(5)
P203 0.140(5) 0.100(5) 0.072(3) 0.009(3) 0.063(3) -0.014(4)
O201 0.160(11) 0.078(7) 0.063(6) 0.018(5) 0.060(6) 0.019(6)
O202 0.153(10) 0.101(9) 0.061(5) -0.002(5) 0.049(5) -0.012(7)
O203 0.120(7) 0.115(9) 0.078(7) 0.021(6) 0.053(6) -0.005(6)
O204 0.237(12) 0.113(8) 0.097(11) 0.023(7) 0.082(9) 0.011(8)
O205 0.186(9) 0.146(13) 0.093(9) 0.047(9) 0.070(7) 0.045(8)
O206 0.177(10) 0.135(11) 0.095(10) -0.010(9) 0.046(8) -0.034(8)
O207 0.180(11) 0.110(8) 0.113(12) -0.011(7) 0.059(9) -0.029(7)
O208 0.127(8) 0.124(10) 0.104(11) -0.001(8) 0.058(7) -0.012(7)
O209 0.163(11) 0.109(8) 0.067(10) 0.012(7) 0.052(8) -0.026(7)
C201 0.265(18) 0.114(13) 0.105(15) 0.025(11) 0.086(14) 0.021(13)
C202 0.269(19) 0.14(3) 0.14(3) 0.02(2) 0.098(18) 0.023(17)
C203 0.187(11) 0.190(18) 0.111(18) 0.045(16) 0.074(10) 0.037(10)
C204 0.20(2) 0.20(2) 0.19(3) 0.02(2) 0.09(2) 0.041(17)
C205 0.180(16) 0.139(12) 0.131(19) -0.005(11) 0.029(15) -0.031(10)
C206 0.181(17) 0.16(2) 0.17(4) 0.02(3) 0.033(19) -0.037(15)
C207 0.185(17) 0.118(10) 0.106(18) -0.010(10) 0.042(15) -0.033(10)
C208 0.20(2) 0.139(17) 0.12(3) -0.023(16) 0.034(19) -0.016(14)
C209 0.124(13) 0.118(11) 0.094(13) -0.001(10) 0.057(11) -0.012(9)
C210 0.17(2) 0.157(18) 0.18(3) -0.02(2) 0.02(2) 0.024(16)
C211 0.173(14) 0.119(15) 0.072(12) 0.009(10) 0.049(11) -0.030(12)
C212 0.24(3) 0.18(3) 0.10(2) -0.04(2) 0.02(2) 0.02(3)
C121 0.154(6) 0.115(6) 0.059(4) 0.021(4) 0.062(4) -0.001(5)
C122 0.155(6) 0.087(5) 0.063(5) 0.005(4) 0.064(5) -0.018(5)
C123 0.150(6) 0.088(6) 0.072(5) -0.001(4) 0.073(5) -0.014(5)
C124 0.164(7) 0.101(6) 0.061(4) -0.006(4) 0.073(5) -0.021(5)
C125 0.159(7) 0.122(7) 0.047(4) 0.001(4) 0.058(4) -0.012(5)
C221 0.157(10) 0.103(8) 0.065(8) 0.015(6) 0.064(7) 0.006(7)
C222 0.153(9) 0.101(9) 0.069(9) 0.012(6) 0.062(7) 0.001(6)
C223 0.148(8) 0.096(9) 0.062(7) 0.012(6) 0.062(6) 0.003(6)
C224 0.149(9) 0.109(8) 0.068(7) 0.007(6) 0.057(6) 0.003(7)
C225 0.155(9) 0.111(9) 0.064(7) 0.018(6) 0.061(6) 0.005(7)
loop_
_atom_type_symbol
_atom_type_description
_atom_type_scat_dispersion_real
_atom_type_scat_dispersion_imag
_atom_type_scat_source
C C 0.0033 0.0016 'International Tables Vol C Tables 4.2.6.8 and 6.1.1.4'
Cl Cl 0.1484 0.1585 'International Tables Vol C Tables 4.2.6.8 and 6.1.1.4'
Co Co 0.3494 0.9721 'International Tables Vol C Tables 4.2.6.8 and 6.1.1.4'
H H 0.0000 0.0000 'International Tables Vol C Tables 4.2.6.8 and 6.1.1.4'
N N 0.0061 0.0033 'International Tables Vol C Tables 4.2.6.8 and 6.1.1.4'
O O 0.0106 0.0060 'International Tables Vol C Tables 4.2.6.8 and 6.1.1.4'
P P 0.1023 0.0942 'International Tables Vol C Tables 4.2.6.8 and 6.1.1.4'
Si Si 0.0817 0.0704 'International Tables Vol C Tables 4.2.6.8 and 6.1.1.4'
Tb Tb -0.1723 4.1537 'International Tables Vol C Tables 4.2.6.8 and 6.1.1.4'
loop_
_exptl_crystal_face_index_h
_exptl_crystal_face_index_k
_exptl_crystal_face_index_l
_exptl_crystal_face_perp_dist
-1 0 1 0.1309
-1 0 -1 0.0156
1 0 1 0.0252
0 1 0 0.1345
1 0 -1 0.1325
0 -1 0 0.1454
loop_
_geom_angle_atom_site_label_1
_geom_angle_atom_site_label_2
_geom_angle_atom_site_label_3
_geom_angle
N1 Tb1 N2 73.9(2)
N1 Tb1 N3 117.27(16)
N2 Tb1 N3 74.05(19)
N4 Tb1 N1 76.03(18)
N4 Tb1 N2 118.96(19)
N4 Tb1 N3 74.70(19)
O101 Tb1 N1 77.90(19)
O101 Tb1 N2 110.9(3)
O101 Tb1 N3 164.7(2)
O101 Tb1 N4 112.9(3)
O101 Tb1 O102 79.4(3)
O102 Tb1 N1 135.8(2)
O102 Tb1 N2 79.6(2)
O102 Tb1 N3 87.5(2)
O102 Tb1 N4 148.1(2)
O103 Tb1 N1 133.6(3)
O103 Tb1 N2 152.5(3)
O103 Tb1 N3 89.4(2)
O103 Tb1 N4 75.7(2)
O103 Tb1 O101 80.2(3)
O103 Tb1 O102 77.9(3)
O201 Tb1 N1 85.7(5)
O201 Tb1 N2 82.7(6)
O201 Tb1 N3 140.0(7)
O201 Tb1 N4 145.2(7)
O201 Tb1 O202 78.2(7)
O201 Tb1 O203 76.8(7)
O202 Tb1 N1 163.8(6)
O202 Tb1 N2 105.0(6)
O202 Tb1 N3 77.0(5)
O202 Tb1 N4 117.0(7)
O203 Tb1 N1 99.3(6)
O203 Tb1 N2 158.9(6)
O203 Tb1 N3 125.7(6)
O203 Tb1 N4 77.3(5)
O203 Tb1 O202 75.8(7)
N1 Tb2 N4 61.9(3)
N1 Tb2 O203 77.5(6)
N2 Tb2 N1 71.7(3)
N2 Tb2 N3 92.5(4)
N2 Tb2 N4 115.4(3)
N2 Tb2 O101 110.2(3)
N2 Tb2 O103 176.2(6)
N2 Tb2 O201 91.0(5)
N2 Tb2 O202 136.6(9)
N2 Tb2 O203 145.0(6)
N3 Tb2 N1 113.6(3)
N3 Tb2 N4 70.0(3)
N3 Tb2 O101 153.7(5)
N3 Tb2 O103 89.7(3)
N3 Tb2 O201 171.4(6)
N3 Tb2 O203 115.3(6)
N4 Tb2 O203 60.8(4)
O101 Tb2 N1 64.0(3)
O101 Tb2 N4 87.7(4)
O102 Tb2 N1 134.4(4)
O102 Tb2 N2 103.7(6)
O102 Tb2 N3 112.0(5)
O102 Tb2 N4 140.9(4)
O102 Tb2 O101 76.5(3)
O102 Tb2 O103 78.3(3)
O103 Tb2 N1 104.6(5)
O103 Tb2 N4 62.5(3)
O103 Tb2 O101 67.0(3)
O201 Tb2 N1 75.0(5)
O201 Tb2 N4 115.4(8)
O201 Tb2 O203 64.8(7)
O202 Tb2 N1 143.5(8)
O202 Tb2 N3 91.0(6)
O202 Tb2 N4 106.3(8)
O202 Tb2 O201 81.1(7)
O202 Tb2 O203 67.3(7)
P102 Co1 P101 90.73(13)
P102 Co1 P103 94.18(13)
P103 Co1 P101 89.79(13)
P202 Co1 P201 94.2(4)
P202 Co1 P203 102.4(4)
P202 Co1 C121 129.8(5)
P202 Co1 C122 158.5(4)
P202 Co1 C123 123.5(5)
P202 Co1 C124 91.8(4)
P202 Co1 C125 95.2(4)
P203 Co1 P201 78.3(4)
C121 Co1 P101 102.1(3)
C121 Co1 P102 104.2(3)
C121 Co1 P103 157.9(2)
C121 Co1 P201 89.6(3)
C121 Co1 P203 127.2(4)
C121 Co1 C125 39.49(13)
C122 Co1 P101 89.1(2)
C122 Co1 P102 142.5(3)
C122 Co1 P103 123.3(3)
C122 Co1 P201 103.3(4)
C122 Co1 P203 93.3(3)
C122 Co1 C121 39.74(14)
C122 Co1 C124 66.95(17)
C122 Co1 C125 66.63(18)
C123 Co1 P101 114.4(3)
C123 Co1 P102 154.3(3)
C123 Co1 P103 91.3(3)
C123 Co1 P201 142.2(4)
C123 Co1 P203 92.5(3)
C123 Co1 C121 66.86(18)
C123 Co1 C122 40.02(14)
C123 Co1 C124 39.93(11)
C123 Co1 C125 66.76(16)
C124 Co1 P101 153.9(3)
C124 Co1 P102 114.5(3)
C124 Co1 P103 94.7(3)
C124 Co1 P201 152.9(4)
C124 Co1 P203 126.0(4)
C124 Co1 C121 66.57(17)
C124 Co1 C125 39.60(12)
C125 Co1 P101 140.2(3)
C125 Co1 P102 90.8(3)
C125 Co1 P103 129.7(3)
C125 Co1 P201 113.5(4)
C125 Co1 P203 158.2(3)
P101 Co2 P102 94.0(3)
P101 Co2 P103 89.2(3)
P101 Co2 C221 103.7(9)
P101 Co2 C222 106.5(11)
P101 Co2 C223 138.6(12)
P101 Co2 C224 172.6(9)
P101 Co2 C225 132.6(10)
P102 Co2 P103 76.6(3)
P201 Co2 P202 87.4(5)
P203 Co2 P201 91.8(5)
P203 Co2 P202 88.5(5)
P203 Co2 C221 126.9(13)
P203 Co2 C222 97.0(11)
P203 Co2 C223 101.4(9)
P203 Co2 C224 136.0(10)
P203 Co2 C225 166.0(12)
C221 Co2 P102 123.8(12)
C221 Co2 P103 154.1(9)
C221 Co2 P201 97.5(8)
C221 Co2 P202 143.8(11)
C221 Co2 C222 41.1(4)
C221 Co2 C223 69.0(7)
C221 Co2 C224 69.0(7)
C221 Co2 C225 41.1(4)
C222 Co2 P102 156.7(11)
C222 Co2 P103 113.9(10)
C222 Co2 P201 131.0(11)
C222 Co2 P202 140.8(11)
C222 Co2 C223 41.0(4)
C222 Co2 C224 68.9(7)
C222 Co2 C225 69.1(7)
C223 Co2 P102 124.5(12)
C223 Co2 P103 86.3(6)
C223 Co2 P201 165.1(7)
C223 Co2 P202 99.8(10)
C223 Co2 C224 40.9(4)
C224 Co2 P102 89.5(11)
C224 Co2 P103 97.9(8)
C224 Co2 P201 129.5(12)
C224 Co2 P202 80.3(9)
C225 Co2 P102 89.0(11)
C225 Co2 P103 137.0(10)
C225 Co2 P201 96.9(9)
C225 Co2 P202 102.8(12)
C225 Co2 C223 68.9(7)
C225 Co2 C224 40.9(4)
C22 Si1 C23 105.2(5)
C22 Si1 C26 110.4(6)
C22 Si1 C29 107.0(6)
C26 Si1 C23 113.6(6)
C29 Si1 C23 111.9(7)
C29 Si1 C26 108.4(8)
C33 Si2 C34 102.7(7)
C33 Si2 C37 105.7(7)
C33 Si2 C40 107.9(7)
C37 Si2 C34 130.9(11)
C40 Si2 C34 104.0(9)
C40 Si2 C37 104.1(8)
C1 N1 Tb1 121.6(4)
C1 N1 Tb2 134.6(4)
C4 N1 Tb1 124.7(5)
C4 N1 Tb2 115.0(5)
C4 N1 C1 105.5(5)
C6 N2 Tb1 123.3(5)
C6 N2 Tb2 134.1(5)
C9 N2 Tb1 123.4(5)
C9 N2 Tb2 108.1(5)
C9 N2 C6 106.5(6)
C11 N3 Tb1 122.2(5)
C11 N3 Tb2 105.8(6)
C11 N3 C14 106.7(6)
C14 N3 Tb1 123.2(4)
C14 N3 Tb2 136.1(5)
C16 N4 Tb1 126.1(5)
C16 N4 Tb2 118.4(4)
C16 N4 C19 105.1(6)
C19 N4 Tb1 122.3(4)
C19 N4 Tb2 133.3(4)
N1 C1 C2 110.5(6)
N1 C1 C20 125.5(6)
C20 C1 C2 124.0(7)
C1 C2 H2 127.2
C3 C2 C1 105.6(7)
C3 C2 H2 127.2
C2 C3 H3 125.3
C2 C3 C4 109.5(6)
C4 C3 H3 125.3
N1 C4 C3 108.9(6)
N1 C4 C5 124.0(6)
C5 C4 C3 127.2(6)
C4 C5 C43 115.3(6)
C6 C5 C4 127.2(6)
C6 C5 C43 117.5(7)
N2 C6 C7 107.8(7)
C5 C6 N2 125.7(7)
C5 C6 C7 126.5(7)
C6 C7 H7 126.1
C8 C7 C6 107.8(7)
C8 C7 H7 126.1
C7 C8 H8 126.7
C7 C8 C9 106.6(8)
C9 C8 H8 126.7
N2 C9 C8 111.2(7)
N2 C9 C10 124.6(7)
C10 C9 C8 124.2(8)
C9 C10 C11 125.5(8)
C9 C10 C32 117.0(8)
C32 C10 C11 117.5(7)
N3 C11 C10 125.8(7)
N3 C11 C12 110.7(7)
C10 C11 C12 123.4(7)
C11 C12 H12 126.6
C13 C12 C11 106.7(7)
C13 C12 H12 126.6
C12 C13 H13 126.0
C12 C13 C14 107.9(7)
C14 C13 H13 126.0
N3 C14 C13 107.9(6)
C15 C14 N3 124.5(6)
C15 C14 C13 127.6(7)
C14 C15 C16 128.0(6)
C14 C15 C57 116.0(6)
C16 C15 C57 116.0(6)
N4 C16 C15 123.0(6)
N4 C16 C17 110.3(6)
C17 C16 C15 126.5(6)
C16 C17 H17 125.8
C18 C17 C16 108.4(6)
C18 C17 H17 125.8
C17 C18 H18 127.0
C17 C18 C19 106.1(7)
C19 C18 H18 127.0
N4 C19 C18 110.1(6)
N4 C19 C20 125.2(6)
C20 C19 C18 124.7(7)
C19 C20 C1 125.6(7)
C19 C20 C21 116.9(6)
C21 C20 C1 117.5(6)
C22 C21 C20 178.0(9)
C21 C22 Si1 174.7(9)
Si1 C23 H23 108.5
C24 C23 Si1 111.9(8)
C24 C23 H23 108.5
C25 C23 Si1 110.6(8)
C25 C23 H23 108.5
C25 C23 C24 108.6(9)
C23 C24 H24A 109.5
C23 C24 H24B 109.5
C23 C24 H24C 109.5
H24A C24 H24B 109.5
H24A C24 H24C 109.5
H24B C24 H24C 109.5
C23 C25 H25A 109.5
C23 C25 H25B 109.5
C23 C25 H25C 109.5
H25A C25 H25B 109.5
H25A C25 H25C 109.5
H25B C25 H25C 109.5
Si1 C26 H26 105.2
C27 C26 Si1 118.2(10)
C27 C26 H26 105.2
C27 C26 C28 108.2(13)
C28 C26 Si1 113.7(9)
C28 C26 H26 105.2
C26 C27 H27A 109.5
C26 C27 H27B 109.5
C26 C27 H27C 109.5
H27A C27 H27B 109.5
H27A C27 H27C 109.5
H27B C27 H27C 109.5
C26 C28 H28A 109.5
C26 C28 H28B 109.5
C26 C28 H28C 109.5
H28A C28 H28B 109.5
H28A C28 H28C 109.5
H28B C28 H28C 109.5
Si1 C29 H29 106.9
C30 C29 Si1 112.9(10)
C30 C29 H29 106.9
C31 C29 Si1 114.6(11)
C31 C29 H29 106.9
C31 C29 C30 108.2(13)
C29 C30 H30A 109.5
C29 C30 H30B 109.5
C29 C30 H30C 109.5
H30A C30 H30B 109.5
H30A C30 H30C 109.5
H30B C30 H30C 109.5
C29 C31 H31A 109.5
C29 C31 H31B 109.5
C29 C31 H31C 109.5
H31A C31 H31B 109.5
H31A C31 H31C 109.5
H31B C31 H31C 109.5
C33 C32 C10 178.9(11)
C32 C33 Si2 176.1(10)
Si2 C34 H34 110.7
C35 C34 Si2 107.4(12)
C35 C34 H34 110.7
C36 C34 Si2 110.1(12)
C36 C34 H34 110.7
C36 C34 C35 107.1(15)
C34 C35 H35A 109.5
C34 C35 H35B 109.5
C34 C35 H35C 109.5
H35A C35 H35B 109.5
H35A C35 H35C 109.5
H35B C35 H35C 109.5
C34 C36 H36A 109.5
C34 C36 H36B 109.5
C34 C36 H36C 109.5
H36A C36 H36B 109.5
H36A C36 H36C 109.5
H36B C36 H36C 109.5
Si2 C37 H37 112.0
C38 C37 Si2 107.0(11)
C38 C37 H37 112.0
C39 C37 Si2 110.2(12)
C39 C37 H37 112.0
C39 C37 C38 103.2(14)
C37 C38 H38A 109.5
C37 C38 H38B 109.5
C37 C38 H38C 109.5
H38A C38 H38B 109.5
H38A C38 H38C 109.5
H38B C38 H38C 109.5
C37 C39 H39A 109.5
C37 C39 H39B 109.5
C37 C39 H39C 109.5
H39A C39 H39B 109.5
H39A C39 H39C 109.5
H39B C39 H39C 109.5
Si2 C40 H40 109.7
C41 C40 Si2 112.7(10)
C41 C40 H40 109.7
C41 C40 C42 104.7(13)
C42 C40 Si2 110.1(10)
C42 C40 H40 109.7
C40 C41 H41A 109.5
C40 C41 H41B 109.5
C40 C41 H41C 109.5
H41A C41 H41B 109.5
H41A C41 H41C 109.5
H41B C41 H41C 109.5
C40 C42 H42A 109.5
C40 C42 H42B 109.5
C40 C42 H42C 109.5
H42A C42 H42B 109.5
H42A C42 H42C 109.5
H42B C42 H42C 109.5
C44 C43 C5 120.9(6)
C44 C43 C48 118.5(6)
C48 C43 C5 120.6(6)
C43 C44 H44 118.9
C43 C44 C45 122.3(7)
C45 C44 H44 118.9
C44 C45 C46 116.4(7)
C44 C45 C49 120.4(7)
C46 C45 C49 123.2(7)
C45 C46 H46 118.2
C47 C46 C45 123.5(7)
C47 C46 H46 118.2
C46 C47 C53 119.8(7)
C48 C47 C46 116.4(7)
C48 C47 C53 123.7(8)
C43 C48 H48 118.6
C47 C48 C43 122.7(7)
C47 C48 H48 118.6
C45 C49 C51 111.5(8)
C50 C49 C45 111.3(8)
C50 C49 C51 108.0(10)
C52 C49 C45 110.8(8)
C52 C49 C50 106.2(10)
C52 C49 C51 108.8(10)
C49 C50 H50A 109.5
C49 C50 H50B 109.5
C49 C50 H50C 109.5
H50A C50 H50B 109.5
H50A C50 H50C 109.5
H50B C50 H50C 109.5
C49 C51 H51A 109.5
C49 C51 H51B 109.5
C49 C51 H51C 109.5
H51A C51 H51B 109.5
H51A C51 H51C 109.5
H51B C51 H51C 109.5
C49 C52 H52A 109.5
C49 C52 H52B 109.5
C49 C52 H52C 109.5
H52A C52 H52B 109.5
H52A C52 H52C 109.5
H52B C52 H52C 109.5
C54 C53 C47 111.1(8)
C54 C53 C55 108.5(10)
C54 C53 C56 106.7(10)
C55 C53 C47 111.3(7)
C55 C53 C56 107.0(11)
C56 C53 C47 111.9(7)
C53 C54 H54A 109.5
C53 C54 H54B 109.5
C53 C54 H54C 109.5
H54A C54 H54B 109.5
H54A C54 H54C 109.5
H54B C54 H54C 109.5
C53 C55 H55A 109.5
C53 C55 H55B 109.5
C53 C55 H55C 109.5
H55A C55 H55B 109.5
H55A C55 H55C 109.5
H55B C55 H55C 109.5
C53 C56 H56A 109.5
C53 C56 H56B 109.5
C53 C56 H56C 109.5
H56A C56 H56B 109.5
H56A C56 H56C 109.5
H56B C56 H56C 109.5
C58 C57 C15 118.2(8)
C62 C57 C15 120.1(7)
C62 C57 C58 121.6(7)
C57 C58 H58 120.1
C57 C58 C59 119.8(10)
C59 C58 H58 120.1
C58 C59 C60 116.3(9)
C58 C59 C63 123.3(11)
C60 C59 C63 120.3(9)
C59 C60 H60 117.8
C61 C60 C59 124.5(8)
C61 C60 H60 117.8
C60 C61 C67 120.8(8)
C62 C61 C60 115.7(9)
C62 C61 C67 123.3(9)
C57 C62 C61 122.1(8)
C57 C62 H62 119.0
C61 C62 H62 119.0
C64 C63 C59 111.6(10)
C64 C63 C65 111.0(13)
C65 C63 C59 111.6(10)
C66 C63 C59 110.9(9)
C66 C63 C64 95.8(12)
C66 C63 C65 115.1(14)
C63 C64 H64A 109.5
C63 C64 H64B 109.5
C63 C64 H64C 109.5
H64A C64 H64B 109.5
H64A C64 H64C 109.5
H64B C64 H64C 109.5
C63 C65 H65A 109.5
C63 C65 H65B 109.5
C63 C65 H65C 109.5
H65A C65 H65B 109.5
H65A C65 H65C 109.5
H65B C65 H65C 109.5
C63 C66 H66A 109.5
C63 C66 H66B 109.5
C63 C66 H66C 109.5
H66A C66 H66B 109.5
H66A C66 H66C 109.5
H66B C66 H66C 109.5
C61 C67 C68 109.6(9)
C61 C67 C70 112.6(8)
C69 C67 C61 113.3(9)
C69 C67 C68 112.7(11)
C69 C67 C70 105.0(13)
C70 C67 C68 103.2(12)
C67 C68 H68A 109.5
C67 C68 H68B 109.5
C67 C68 H68C 109.5
H68A C68 H68B 109.5
H68A C68 H68C 109.5
H68B C68 H68C 109.5
C67 C69 H69A 109.5
C67 C69 H69B 109.5
C67 C69 H69C 109.5
H69A C69 H69B 109.5
H69A C69 H69C 109.5
H69B C69 H69C 109.5
C67 C70 H70A 109.5
C67 C70 H70B 109.5
C67 C70 H70C 109.5
H70A C70 H70B 109.5
H70A C70 H70C 109.5
H70B C70 H70C 109.5
O101 P101 Co1 119.6(3)
O101 P101 Co2 134.6(5)
O101 P101 O104 107.2(5)
O101 P101 O105 113.1(6)
O104 P101 Co1 112.6(4)
O104 P101 Co2 105.9(5)
O104 P101 O105 99.7(6)
O105 P101 Co1 103.0(4)
O105 P101 Co2 90.7(5)
O102 P102 Co1 121.7(3)
O102 P102 Co2 118.0(4)
O102 P102 O106 106.7(5)
O102 P102 O107 108.8(6)
O106 P102 Co1 108.3(4)
O106 P102 Co2 96.0(5)
O106 P102 O107 101.7(5)
O107 P102 Co1 107.8(4)
O107 P102 Co2 122.0(5)
O103 P103 Co1 117.3(3)
O103 P103 Co2 113.3(3)
O103 P103 O108 108.3(5)
O103 P103 O109 106.2(5)
O108 P103 Co1 113.3(4)
O108 P103 Co2 126.1(4)
O109 P103 Co1 110.0(4)
O109 P103 Co2 99.4(5)
O109 P103 O108 100.3(5)
P101 O101 Tb1 136.1(4)
P101 O101 Tb2 129.9(4)
P102 O102 Tb1 135.3(4)
P102 O102 Tb2 151.7(6)
P103 O103 Tb1 139.3(4)
P103 O103 Tb2 136.1(4)
C101 O104 P101 122.6(11)
C103 O105 P101 118.2(10)
C105 O106 P102 121.5(11)
C107 O107 P102 121.5(8)
C109 O108 P103 123.4(9)
C111 O109 P103 118.5(9)
O104 C101 H10A 109.8
O104 C101 H10B 109.8
O104 C101 C102 109.5(13)
H10A C101 H10B 108.2
C102 C101 H10A 109.8
C102 C101 H10B 109.8
C101 C102 H10C 109.5
C101 C102 H10D 109.5
C101 C102 H10E 109.5
H10C C102 H10D 109.5
H10C C102 H10E 109.5
H10D C102 H10E 109.5
O105 C103 H10F 110.0
O105 C103 H10G 110.0
O105 C103 C104 108.6(11)
H10F C103 H10G 108.4
C104 C103 H10F 110.0
C104 C103 H10G 110.0
C103 C104 H10H 109.5
C103 C104 H10I 109.5
C103 C104 H10J 109.5
H10H C104 H10I 109.5
H10H C104 H10J 109.5
H10I C104 H10J 109.5
O106 C105 H10K 110.0
O106 C105 H10L 110.0
O106 C105 C106 108.6(14)
H10K C105 H10L 108.3
C106 C105 H10K 110.0
C106 C105 H10L 110.0
C105 C106 H10M 109.5
C105 C106 H10N 109.5
C105 C106 H10O 109.5
H10M C106 H10N 109.5
H10M C106 H10O 109.5
H10N C106 H10O 109.5
O107 C107 H10P 110.0
O107 C107 H10Q 110.0
O107 C107 C108 108.7(10)
H10P C107 H10Q 108.3
C108 C107 H10P 110.0
C108 C107 H10Q 110.0
C107 C108 H10R 109.5
C107 C108 H10S 109.5
C107 C108 H10T 109.5
H10R C108 H10S 109.5
H10R C108 H10T 109.5
H10S C108 H10T 109.5
O108 C109 H10U 109.2
O108 C109 H10V 109.2
O108 C109 C110 112.3(12)
H10U C109 H10V 107.9
C110 C109 H10U 109.2
C110 C109 H10V 109.2
C109 C110 H11A 109.5
C109 C110 H11B 109.5
C109 C110 H11C 109.5
H11A C110 H11B 109.5
H11A C110 H11C 109.5
H11B C110 H11C 109.5
O109 C111 H11D 109.0
O109 C111 H11E 109.0
O109 C111 C112 112.8(13)
H11D C111 H11E 107.8
C112 C111 H11D 109.0
C112 C111 H11E 109.0
C111 C112 H11F 109.5
C111 C112 H11G 109.5
C111 C112 H11H 109.5
H11F C112 H11G 109.5
H11F C112 H11H 109.5
H11G C112 H11H 109.5
O201 P201 Co1 114.8(9)
O201 P201 Co2 122.2(10)
O201 P201 O204 103.8(14)
O201 P201 O205 120.9(14)
O204 P201 Co1 105.1(10)
O204 P201 Co2 88.8(10)
O205 P201 Co1 106.4(12)
O205 P201 Co2 109.4(11)
O205 P201 O204 104.2(12)
O202 P202 Co1 121.4(10)
O202 P202 Co2 112.4(10)
O202 P202 O206 97.0(15)
O202 P202 O207 107.7(15)
O206 P202 Co1 126.4(12)
O206 P202 Co2 128.4(12)
O207 P202 Co1 100.9(11)
O207 P202 Co2 108.5(11)
O207 P202 O206 100.8(12)
O203 P203 Co1 112.5(10)
O203 P203 Co2 124.0(10)
O203 P203 O208 106.0(13)
O203 P203 O209 109.6(14)
O208 P203 Co1 101.6(11)
O208 P203 Co2 109.9(11)
O208 P203 O209 101.5(12)
O209 P203 Co1 123.3(12)
O209 P203 Co2 103.7(12)
P201 O201 Tb1 136.2(12)
P201 O201 Tb2 133.3(12)
P202 O202 Tb1 140.0(13)
P202 O202 Tb2 153.7(14)
P203 O203 Tb1 135.9(13)
P203 O203 Tb2 129.0(12)
C201 O204 P201 121.9(19)
C203 O205 P201 124(2)
C205 O206 P202 115(2)
C207 O207 P202 114.9(19)
C209 O208 P203 111.6(18)
C211 O209 P203 115(2)
O204 C201 H20A 110.6
O204 C201 H20B 110.6
O204 C201 C202 105.7(15)
H20A C201 H20B 108.7
C202 C201 H20A 110.6
C202 C201 H20B 110.6
C201 C202 H20C 109.5
C201 C202 H20D 109.5
C201 C202 H20E 109.5
H20C C202 H20D 109.5
H20C C202 H20E 109.5
H20D C202 H20E 109.5
O205 C203 H20F 110.5
O205 C203 H20G 110.5
O205 C203 C204 106.1(16)
H20F C203 H20G 108.7
C204 C203 H20F 110.5
C204 C203 H20G 110.5
C203 C204 H20H 109.5
C203 C204 H20I 109.5
C203 C204 H20J 109.5
H20H C204 H20I 109.5
H20H C204 H20J 109.5
H20I C204 H20J 109.5
O206 C205 H20K 110.4
O206 C205 H20L 110.4
O206 C205 C206 106.6(16)
H20K C205 H20L 108.6
C206 C205 H20K 110.4
C206 C205 H20L 110.4
C205 C206 H20M 109.5
C205 C206 H20N 109.5
C205 C206 H20O 109.5
H20M C206 H20N 109.5
H20M C206 H20O 109.5
H20N C206 H20O 109.5
O207 C207 H20P 110.2
O207 C207 H20Q 110.2
H20P C207 H20Q 108.5
C208 C207 O207 107.3(16)
C208 C207 H20P 110.2
C208 C207 H20Q 110.2
C207 C208 H20R 109.5
C207 C208 H20S 109.5
C207 C208 H20T 109.5
H20R C208 H20S 109.5
H20R C208 H20T 109.5
H20S C208 H20T 109.5
O208 C209 H20U 110.3
O208 C209 H20V 110.3
H20U C209 H20V 108.5
C210 C209 O208 107.3(16)
C210 C209 H20U 110.3
C210 C209 H20V 110.3
C209 C210 H21A 109.5
C209 C210 H21B 109.5
C209 C210 H21C 109.5
H21A C210 H21B 109.5
H21A C210 H21C 109.5
H21B C210 H21C 109.5
O209 C211 H21D 110.3
O209 C211 H21E 110.3
O209 C211 C212 107.1(16)
H21D C211 H21E 108.5
C212 C211 H21D 110.3
C212 C211 H21E 110.3
C211 C212 H21F 109.5
C211 C212 H21G 109.5
C211 C212 H21H 109.5
H21F C212 H21G 109.5
H21F C212 H21H 109.5
H21G C212 H21H 109.5
Co1 C121 H121 125.8
C122 C121 Co1 69.4(3)
C122 C121 H121 126.0
C122 C121 C125 108.0
C125 C121 Co1 70.5(3)
C125 C121 H121 126.0
Co1 C122 H122 125.0
C121 C122 Co1 70.9(3)
C121 C122 H122 126.0
C121 C122 C123 108.0
C123 C122 Co1 69.7(2)
C123 C122 H122 126.0
Co1 C123 H123 124.7
C122 C123 Co1 70.3(3)
C122 C123 H123 126.0
C124 C123 Co1 70.6(3)
C124 C123 C122 108.0
C124 C123 H123 126.0
Co1 C124 H124 125.3
C123 C124 Co1 69.4(3)
C123 C124 H124 126.0
C123 C124 C125 108.0
C125 C124 Co1 70.9(3)
C125 C124 H124 126.0
Co1 C125 H125 126.0
C121 C125 Co1 70.1(3)
C121 C125 H125 126.0
C124 C125 Co1 69.5(2)
C124 C125 C121 108.0
C124 C125 H125 126.0
Co2 C221 H221 126.3
C222 C221 Co2 69.6(4)
C222 C221 H221 126.0
C222 C221 C225 108.0
C225 C221 Co2 69.7(4)
C225 C221 H221 126.0
Co2 C222 H222 126.4
C221 C222 Co2 69.3(4)
C221 C222 H222 126.0
C223 C222 Co2 69.8(4)
C223 C222 C221 108.0
C223 C222 H222 126.0
Co2 C223 H223 126.7
C222 C223 Co2 69.2(4)
C222 C223 H223 126.0
C222 C223 C224 108.0
C224 C223 Co2 69.6(4)
C224 C223 H223 126.0
Co2 C224 H224 126.8
C223 C224 Co2 69.5(4)
C223 C224 H224 126.0
C225 C224 Co2 69.3(4)
C225 C224 C223 108.0
C225 C224 H224 126.0
Co2 C225 H225 126.5
C221 C225 Co2 69.2(4)
C221 C225 H225 126.0
C224 C225 Co2 69.8(4)
C224 C225 C221 108.0
C224 C225 H225 126.0
loop_
_geom_bond_atom_site_label_1
_geom_bond_atom_site_label_2
_geom_bond_distance
Tb1 N1 2.385(5)
Tb1 N2 2.408(6)
Tb1 N3 2.429(6)
Tb1 N4 2.368(6)
Tb1 O101 2.287(6)
Tb1 O102 2.287(7)
Tb1 O103 2.261(6)
Tb1 O201 2.289(16)
Tb1 O202 2.295(16)
Tb1 O203 2.291(17)
Tb2 N1 2.817(9)
Tb2 N2 1.960(9)
Tb2 N3 2.072(7)
Tb2 N4 2.873(11)
Tb2 O101 2.725(11)
Tb2 O102 1.864(9)
Tb2 O103 2.577(10)
Tb2 O201 2.374(17)
Tb2 O202 2.057(15)
Tb2 O203 2.87(2)
Co1 P101 2.188(4)
Co1 P102 2.148(4)
Co1 P103 2.160(4)
Co1 P201 2.446(11)
Co1 P202 1.827(11)
Co1 P203 2.192(10)
Co1 C121 2.099(8)
Co1 C122 2.079(8)
Co1 C123 2.071(7)
Co1 C124 2.087(6)
Co1 C125 2.104(8)
Co2 P101 1.661(10)
Co2 P102 2.487(11)
Co2 P103 2.604(10)
Co2 P201 2.082(13)
Co2 P202 2.473(17)
Co2 P203 2.004(12)
Co2 C221 2.02(2)
Co2 C222 2.03(2)
Co2 C223 2.034(19)
Co2 C224 2.03(2)
Co2 C225 2.03(2)
Si1 C22 1.839(9)
Si1 C23 1.917(11)
Si1 C26 1.871(12)
Si1 C29 1.847(12)
Si2 C33 1.846(11)
Si2 C34 1.897(15)
Si2 C37 1.878(14)
Si2 C40 1.851(13)
N1 C1 1.384(9)
N1 C4 1.380(8)
N2 C6 1.410(9)
N2 C9 1.348(11)
N3 C11 1.312(9)
N3 C14 1.407(9)
N4 C16 1.379(8)
N4 C19 1.399(9)
C1 C2 1.440(9)
C1 C20 1.423(10)
C2 H2 0.9500
C2 C3 1.337(11)
C3 H3 0.9500
C3 C4 1.429(10)
C4 C5 1.415(10)
C5 C6 1.346(11)
C5 C43 1.511(9)
C6 C7 1.453(11)
C7 H7 0.9500
C7 C8 1.353(13)
C8 H8 0.9500
C8 C9 1.437(12)
C9 C10 1.419(11)
C10 C11 1.435(11)
C10 C32 1.425(12)
C11 C12 1.449(10)
C12 H12 0.9500
C12 C13 1.324(11)
C13 H13 0.9500
C13 C14 1.432(10)
C14 C15 1.393(10)
C15 C16 1.428(9)
C15 C57 1.481(8)
C16 C17 1.412(10)
C17 H17 0.9500
C17 C18 1.363(9)
C18 H18 0.9500
C18 C19 1.432(10)
C19 C20 1.417(9)
C20 C21 1.419(11)
C21 C22 1.204(11)
C23 H23 1.0000
C23 C24 1.518(12)
C23 C25 1.500(12)
C24 H24A 0.9800
C24 H24B 0.9800
C24 H24C 0.9800
C25 H25A 0.9800
C25 H25B 0.9800
C25 H25C 0.9800
C26 H26 1.0000
C26 C27 1.456(14)
C26 C28 1.511(13)
C27 H27A 0.9800
C27 H27B 0.9800
C27 H27C 0.9800
C28 H28A 0.9800
C28 H28B 0.9800
C28 H28C 0.9800
C29 H29 1.0000
C29 C30 1.509(14)
C29 C31 1.489(14)
C30 H30A 0.9800
C30 H30B 0.9800
C30 H30C 0.9800
C31 H31A 0.9800
C31 H31B 0.9800
C31 H31C 0.9800
C32 C33 1.201(13)
C34 H34 1.0000
C34 C35 1.524(16)
C34 C36 1.514(15)
C35 H35A 0.9800
C35 H35B 0.9800
C35 H35C 0.9800
C36 H36A 0.9800
C36 H36B 0.9800
C36 H36C 0.9800
C37 H37 1.0000
C37 C38 1.557(17)
C37 C39 1.523(15)
C38 H38A 0.9800
C38 H38B 0.9800
C38 H38C 0.9800
C39 H39A 0.9800
C39 H39B 0.9800
C39 H39C 0.9800
C40 H40 1.0000
C40 C41 1.508(14)
C40 C42 1.558(15)
C41 H41A 0.9800
C41 H41B 0.9800
C41 H41C 0.9800
C42 H42A 0.9800
C42 H42B 0.9800
C42 H42C 0.9800
C43 C44 1.370(9)
C43 C48 1.392(10)
C44 H44 0.9500
C44 C45 1.395(10)
C45 C46 1.406(12)
C45 C49 1.508(9)
C46 H46 0.9500
C46 C47 1.387(13)
C47 C48 1.384(10)
C47 C53 1.508(9)
C48 H48 0.9500
C49 C50 1.499(11)
C49 C51 1.508(10)
C49 C52 1.491(12)
C50 H50A 0.9800
C50 H50B 0.9800
C50 H50C 0.9800
C51 H51A 0.9800
C51 H51B 0.9800
C51 H51C 0.9800
C52 H52A 0.9800
C52 H52B 0.9800
C52 H52C 0.9800
C53 C54 1.501(11)
C53 C55 1.506(11)
C53 C56 1.507(11)
C54 H54A 0.9800
C54 H54B 0.9800
C54 H54C 0.9800
C55 H55A 0.9800
C55 H55B 0.9800
C55 H55C 0.9800
C56 H56A 0.9800
C56 H56B 0.9800
C56 H56C 0.9800
C57 C58 1.398(11)
C57 C62 1.386(11)
C58 H58 0.9500
C58 C59 1.409(13)
C59 C60 1.43(2)
C59 C63 1.522(11)
C60 H60 0.9500
C60 C61 1.406(17)
C61 C62 1.393(9)
C61 C67 1.497(11)
C62 H62 0.9500
C63 C64 1.491(13)
C63 C65 1.500(13)
C63 C66 1.489(13)
C64 H64A 0.9800
C64 H64B 0.9800
C64 H64C 0.9800
C65 H65A 0.9800
C65 H65B 0.9800
C65 H65C 0.9800
C66 H66A 0.9800
C66 H66B 0.9800
C66 H66C 0.9800
C67 C68 1.531(12)
C67 C69 1.497(11)
C67 C70 1.512(12)
C68 H68A 0.9800
C68 H68B 0.9800
C68 H68C 0.9800
C69 H69A 0.9800
C69 H69B 0.9800
C69 H69C 0.9800
C70 H70A 0.9800
C70 H70B 0.9800
C70 H70C 0.9800
P101 O101 1.505(6)
P101 O104 1.578(10)
P101 O105 1.607(10)
P102 O102 1.487(6)
P102 O106 1.562(8)
P102 O107 1.588(8)
P103 O103 1.500(6)
P103 O108 1.609(7)
P103 O109 1.595(8)
O104 C101 1.444(13)
O105 C103 1.443(12)
O106 C105 1.452(13)
O107 C107 1.423(12)
O108 C109 1.408(12)
O109 C111 1.413(13)
C101 H10A 0.9900
C101 H10B 0.9900
C101 C102 1.465(15)
C102 H10C 0.9800
C102 H10D 0.9800
C102 H10E 0.9800
C103 H10F 0.9900
C103 H10G 0.9900
C103 C104 1.473(15)
C104 H10H 0.9800
C104 H10I 0.9800
C104 H10J 0.9800
C105 H10K 0.9900
C105 H10L 0.9900
C105 C106 1.454(16)
C106 H10M 0.9800
C106 H10N 0.9800
C106 H10O 0.9800
C107 H10P 0.9900
C107 H10Q 0.9900
C107 C108 1.484(14)
C108 H10R 0.9800
C108 H10S 0.9800
C108 H10T 0.9800
C109 H10U 0.9900
C109 H10V 0.9900
C109 C110 1.460(15)
C110 H11A 0.9800
C110 H11B 0.9800
C110 H11C 0.9800
C111 H11D 0.9900
C111 H11E 0.9900
C111 C112 1.443(15)
C112 H11F 0.9800
C112 H11G 0.9800
C112 H11H 0.9800
P201 O201 1.506(12)
P201 O204 1.590(14)
P201 O205 1.536(13)
P202 O202 1.512(13)
P202 O206 1.598(13)
P202 O207 1.584(13)
P203 O203 1.511(13)
P203 O208 1.588(13)
P203 O209 1.589(14)
O204 C201 1.448(14)
O205 C203 1.447(15)
O206 C205 1.443(15)
O207 C207 1.450(15)
O208 C209 1.454(15)
O209 C211 1.442(15)
C201 H20A 0.9900
C201 H20B 0.9900
C201 C202 1.458(18)
C202 H20C 0.9800
C202 H20D 0.9800
C202 H20E 0.9800
C203 H20F 0.9900
C203 H20G 0.9900
C203 C204 1.458(18)
C204 H20H 0.9800
C204 H20I 0.9800
C204 H20J 0.9800
C205 H20K 0.9900
C205 H20L 0.9900
C205 C206 1.463(18)
C206 H20M 0.9800
C206 H20N 0.9800
C206 H20O 0.9800
C207 H20P 0.9900
C207 H20Q 0.9900
C207 C208 1.442(18)
C208 H20R 0.9800
C208 H20S 0.9800
C208 H20T 0.9800
C209 H20U 0.9900
C209 H20V 0.9900
C209 C210 1.449(18)
C210 H21A 0.9800
C210 H21B 0.9800
C210 H21C 0.9800
C211 H21D 0.9900
C211 H21E 0.9900
C211 C212 1.464(18)
C212 H21F 0.9800
C212 H21G 0.9800
C212 H21H 0.9800
C121 H121 0.9500
C121 C122 1.4200
C121 C125 1.4200
C122 H122 0.9500
C122 C123 1.4200
C123 H123 0.9500
C123 C124 1.4200
C124 H124 0.9500
C124 C125 1.4200
C125 H125 0.9500
C221 H221 0.9500
C221 C222 1.4200
C221 C225 1.4200
C222 H222 0.9500
C222 C223 1.4200
C223 H223 0.9500
C223 C224 1.4200
C224 H224 0.9500
C224 C225 1.4200
C225 H225 0.9500
loop_
_geom_torsion_atom_site_label_1
_geom_torsion_atom_site_label_2
_geom_torsion_atom_site_label_3
_geom_torsion_atom_site_label_4
_geom_torsion
Tb1 N1 C1 C2 148.2(4)
Tb1 N1 C1 C20 -32.0(8)
Tb1 N1 C4 C3 -147.1(4)
Tb1 N1 C4 C5 34.1(7)
Tb1 N2 C6 C5 -31.9(9)
Tb1 N2 C6 C7 151.8(5)
Tb1 N2 C9 C8 -150.6(6)
Tb1 N2 C9 C10 30.5(11)
Tb1 N3 C11 C10 -33.2(9)
Tb1 N3 C11 C12 148.8(5)
Tb1 N3 C14 C13 -147.8(5)
Tb1 N3 C14 C15 31.4(8)
Tb1 N4 C16 C15 -33.3(8)
Tb1 N4 C16 C17 150.8(5)
Tb1 N4 C19 C18 -151.6(5)
Tb1 N4 C19 C20 30.2(8)
Tb2 N1 C1 C2 151.2(4)
Tb2 N1 C1 C20 -29.0(9)
Tb2 N1 C4 C3 -157.4(4)
Tb2 N1 C4 C5 23.8(7)
Tb2 N2 C6 C5 -45.9(11)
Tb2 N2 C6 C7 137.7(7)
Tb2 N2 C9 C8 -148.4(6)
Tb2 N2 C9 C10 32.7(10)
Tb2 N3 C11 C10 -32.9(8)
Tb2 N3 C11 C12 149.0(5)
Tb2 N3 C14 C13 -134.6(7)
Tb2 N3 C14 C15 44.7(10)
Tb2 N4 C16 C15 -22.8(7)
Tb2 N4 C16 C17 161.2(5)
Tb2 N4 C19 C18 -156.8(5)
Tb2 N4 C19 C20 25.0(9)
Co1 P101 O101 Tb1 4.2(10)
Co1 P101 O104 C101 -112.9(12)
Co1 P101 O105 C103 -179.3(11)
Co1 P102 O102 Tb1 4.0(9)
Co1 P102 O106 C105 -116.3(12)
Co1 P102 O107 C107 173.2(11)
Co1 P103 O103 Tb1 -14.2(9)
Co1 P103 O108 C109 -62.8(10)
Co1 P103 O109 C111 -174.1(10)
Co1 P201 O201 Tb1 -11(3)
Co1 P201 O204 C201 -162(3)
Co1 P201 O205 C203 115(3)
Co1 P202 O202 Tb1 -17(3)
Co1 P202 O206 C205 153(3)
Co1 P202 O207 C207 168(3)
Co1 P203 O203 Tb1 -45(2)
Co1 P203 O208 C209 -49(2)
Co1 P203 O209 C211 -179(3)
Co1 C121 C122 C123 60.1(2)
Co1 C121 C125 C124 -59.4(3)
Co1 C122 C123 C124 60.9(3)
Co1 C123 C124 C125 60.6(3)
Co1 C124 C125 C121 59.7(3)
Co2 P101 O101 Tb2 -6.8(12)
Co2 P101 O104 C101 -127.9(13)
Co2 P101 O105 C103 -169.6(12)
Co2 P102 O102 Tb2 -19.8(15)
Co2 P102 O106 C105 -105.3(12)
Co2 P102 O107 C107 -177.8(10)
Co2 P103 O103 Tb2 24.2(8)
Co2 P103 O108 C109 -70.2(11)
Co2 P103 O109 C111 175.9(10)
Co2 P201 O201 Tb2 -53(2)
Co2 P201 O204 C201 -164(3)
Co2 P201 O205 C203 132(3)
Co2 P202 O202 Tb2 2(4)
Co2 P202 O206 C205 165(3)
Co2 P202 O207 C207 162(3)
Co2 P203 O203 Tb2 -17(2)
Co2 P203 O208 C209 -68(2)
Co2 P203 O209 C211 179(3)
Co2 C221 C222 C223 59.3(5)
Co2 C221 C225 C224 -59.3(5)
Co2 C222 C223 C224 59.0(5)
Co2 C223 C224 C225 58.7(5)
Co2 C224 C225 C221 58.9(5)
N1 Tb2 O102 P102 68.9(15)
N1 C1 C2 C3 1.2(7)
N1 C1 C20 C19 -6.7(11)
N1 C1 C20 C21 175.8(6)
N1 C4 C5 C6 0.9(10)
N1 C4 C5 C43 -179.6(5)
N2 Tb2 O102 P102 146.5(12)
N2 C6 C7 C8 -1.1(10)
N2 C9 C10 C11 8.5(13)
N2 C9 C10 C32 -174.0(8)
N3 Tb2 O102 P102 -115.1(13)
N3 C11 C12 C13 0.0(9)
N3 C14 C15 C16 1.6(11)
N3 C14 C15 C57 179.6(6)
N4 Tb2 O102 P102 -30.2(17)
N4 C16 C17 C18 0.2(8)
N4 C19 C20 C1 7.9(11)
N4 C19 C20 C21 -174.6(6)
C1 N1 C4 C3 1.6(6)
C1 N1 C4 C5 -177.2(5)
C1 C2 C3 C4 -0.1(7)
C2 C1 C20 C19 173.1(6)
C2 C1 C20 C21 -4.4(10)
C2 C3 C4 N1 -0.9(7)
C2 C3 C4 C5 177.8(6)
C3 C4 C5 C6 -177.6(6)
C3 C4 C5 C43 1.9(9)
C4 N1 C1 C2 -1.7(7)
C4 N1 C1 C20 178.1(6)
C4 C5 C6 N2 -1.6(11)
C4 C5 C6 C7 174.1(7)
C4 C5 C43 C44 -65.9(9)
C4 C5 C43 C48 115.1(8)
C5 C6 C7 C8 -177.4(8)
C5 C43 C44 C45 178.2(9)
C5 C43 C48 C47 179.6(8)
C6 N2 C9 C8 1.1(9)
C6 N2 C9 C10 -177.8(8)
C6 C5 C43 C44 113.7(9)
C6 C5 C43 C48 -65.4(10)
C6 C7 C8 C9 1.7(11)
C7 C8 C9 N2 -1.8(11)
C7 C8 C9 C10 177.1(9)
C8 C9 C10 C11 -170.3(8)
C8 C9 C10 C32 7.3(13)
C9 N2 C6 C5 176.4(7)
C9 N2 C6 C7 0.0(8)
C9 C10 C11 N3 -6.6(13)
C9 C10 C11 C12 171.2(8)
C10 C11 C12 C13 -178.1(7)
C11 N3 C14 C13 1.6(7)
C11 N3 C14 C15 -179.1(6)
C11 C12 C13 C14 1.0(9)
C12 C13 C14 N3 -1.6(8)
C12 C13 C14 C15 179.2(7)
C13 C14 C15 C16 -179.3(7)
C13 C14 C15 C57 -1.3(10)
C14 N3 C11 C10 177.0(7)
C14 N3 C11 C12 -1.0(8)
C14 C15 C16 N4 -1.8(10)
C14 C15 C16 C17 173.5(7)
C14 C15 C57 C58 113.9(9)
C14 C15 C57 C62 -62.3(10)
C15 C16 C17 C18 -175.6(6)
C15 C57 C58 C59 -178.2(10)
C15 C57 C62 C61 177.5(8)
C16 N4 C19 C18 1.5(7)
C16 N4 C19 C20 -176.6(6)
C16 C15 C57 C58 -67.8(10)
C16 C15 C57 C62 115.9(8)
C16 C17 C18 C19 0.8(8)
C17 C18 C19 N4 -1.5(8)
C17 C18 C19 C20 176.7(7)
C18 C19 C20 C1 -169.9(7)
C18 C19 C20 C21 7.6(10)
C19 N4 C16 C15 174.9(6)
C19 N4 C16 C17 -1.0(7)
C20 C1 C2 C3 -178.6(6)
C22 Si1 C26 C27 -93.2(14)
C22 Si1 C26 C28 35.3(15)
C22 Si1 C29 C30 54.4(15)
C22 Si1 C29 C31 -70.0(17)
C23 Si1 C26 C27 24.7(16)
C23 Si1 C26 C28 153.2(13)
C23 Si1 C29 C30 -60.4(15)
C23 Si1 C29 C31 175.2(16)
C26 Si1 C29 C30 173.6(13)
C26 Si1 C29 C31 49.1(18)
C29 Si1 C26 C27 149.8(14)
C29 Si1 C26 C28 -81.7(15)
C32 C10 C11 N3 175.8(7)
C32 C10 C11 C12 -6.3(12)
C33 Si2 C34 C35 -76.1(14)
C33 Si2 C34 C36 167.6(16)
C33 Si2 C37 C38 68.8(16)
C33 Si2 C37 C39 -179.6(14)
C33 Si2 C40 C41 -54.2(14)
C33 Si2 C40 C42 62.3(14)
C34 Si2 C37 C38 -54.3(18)
C34 Si2 C37 C39 57.3(19)
C34 Si2 C40 C41 54.4(14)
C34 Si2 C40 C42 171.0(14)
C37 Si2 C34 C35 48.1(17)
C37 Si2 C34 C36 -68(2)
C37 Si2 C40 C41 -166.2(14)
C37 Si2 C40 C42 -49.7(14)
C40 Si2 C34 C35 171.5(14)
C40 Si2 C34 C36 55.2(18)
C40 Si2 C37 C38 -177.6(15)
C40 Si2 C37 C39 -66.0(16)
C43 C5 C6 N2 179.0(6)
C43 C5 C6 C7 -5.4(10)
C43 C44 C45 C46 4.0(15)
C43 C44 C45 C49 -179.1(9)
C44 C43 C48 C47 0.5(14)
C44 C45 C46 C47 -3.3(18)
C44 C45 C49 C50 47.7(14)
C44 C45 C49 C51 168.4(12)
C44 C45 C49 C52 -70.2(13)
C45 C46 C47 C48 1.2(18)
C45 C46 C47 C53 179.0(10)
C46 C45 C49 C50 -135.7(12)
C46 C45 C49 C51 -15.0(16)
C46 C45 C49 C52 106.4(13)
C46 C47 C48 C43 0.2(15)
C46 C47 C53 C54 63.7(14)
C46 C47 C53 C55 -57.4(15)
C46 C47 C53 C56 -177.1(12)
C48 C43 C44 C45 -2.7(14)
C48 C47 C53 C54 -118.7(12)
C48 C47 C53 C55 120.2(12)
C48 C47 C53 C56 0.5(15)
C49 C45 C46 C47 180.0(11)
C53 C47 C48 C43 -177.5(9)
C57 C15 C16 N4 -179.8(6)
C57 C15 C16 C17 -4.5(10)
C57 C58 C59 C60 0.6(18)
C57 C58 C59 C63 178.8(11)
C58 C57 C62 C61 1.4(14)
C58 C59 C60 C61 2(2)
C58 C59 C63 C64 -94.6(18)
C58 C59 C63 C65 140.6(16)
C58 C59 C63 C66 10.9(19)
C59 C60 C61 C62 -2.4(18)
C59 C60 C61 C67 173.0(12)
C60 C59 C63 C64 83.6(18)
C60 C59 C63 C65 -41.2(19)
C60 C59 C63 C66 -170.9(16)
C60 C61 C62 C57 0.8(14)
C60 C61 C67 C68 -76.1(14)
C60 C61 C67 C69 50.7(16)
C60 C61 C67 C70 169.7(14)
C62 C57 C58 C59 -2.1(16)
C62 C61 C67 C68 98.8(13)
C62 C61 C67 C69 -134.3(12)
C62 C61 C67 C70 -15.3(16)
C63 C59 C60 C61 -176.6(12)
C67 C61 C62 C57 -174.4(9)
P101 O104 C101 C102 -100.0(19)
P101 O105 C103 C104 103.9(17)
P102 Co2 P101 O101 29.7(8)
P102 Co2 P101 O104 165.2(5)
P102 Co2 P101 O105 -94.5(5)
P102 O106 C105 C106 -102.4(17)
P102 O107 C107 C108 -178.7(13)
P103 Co2 P101 O101 -46.8(8)
P103 Co2 P101 O104 88.7(5)
P103 Co2 P101 O105 -171.0(5)
P103 O108 C109 C110 -79.2(18)
P103 O109 C111 C112 -147.4(12)
O101 Tb2 O102 P102 38.7(12)
O101 P101 O104 C101 20.6(14)
O101 P101 O105 C103 50.2(13)
O102 P102 O106 C105 16.3(14)
O102 P102 O107 C107 39.4(13)
O103 Tb2 O102 P102 -30.2(12)
O103 P103 O108 C109 69.0(11)
O103 P103 O109 C111 58.1(12)
O104 P101 O101 Tb1 -125.4(8)
O104 P101 O101 Tb2 -141.9(7)
O104 P101 O105 C103 -63.2(12)
O105 P101 O101 Tb1 125.8(8)
O105 P101 O101 Tb2 109.2(7)
O105 P101 O104 C101 138.6(13)
O106 P102 O102 Tb1 -120.8(7)
O106 P102 O102 Tb2 -126.2(12)
O106 P102 O107 C107 -73.0(12)
O107 P102 O102 Tb1 130.2(7)
O107 P102 O102 Tb2 124.8(12)
O107 P102 O106 C105 130.3(13)
O108 P103 O103 Tb1 -143.8(7)
O108 P103 O103 Tb2 -120.7(7)
O108 P103 O109 C111 -54.5(12)
O109 P103 O103 Tb1 109.2(8)
O109 P103 O103 Tb2 132.3(7)
O109 P103 O108 C109 -179.9(10)
P201 Co1 P202 O202 -37.6(14)
P201 Co1 P202 O206 91.4(16)
P201 Co1 P202 O207 -156.4(12)
P201 O204 C201 C202 -41(4)
P201 O205 C203 C204 114(3)
P202 O206 C205 C206 146(4)
P202 O207 C207 C208 -165(3)
P203 Co1 P202 O202 41.3(15)
P203 Co1 P202 O206 170.3(16)
P203 Co1 P202 O207 -77.5(12)
P203 O208 C209 C210 -141(3)
P203 O209 C211 C212 -138(5)
O201 P201 O204 C201 -42(3)
O201 P201 O205 C203 -18(3)
O202 P202 O206 C205 -69(3)
O202 P202 O207 C207 40(4)
O203 P203 O208 C209 69(3)
O203 P203 O209 C211 45(3)
O204 P201 O201 Tb1 -125(2)
O204 P201 O201 Tb2 -149.9(19)
O204 P201 O205 C203 -134(3)
O205 P201 O201 Tb1 119(2)
O205 P201 O201 Tb2 94(2)
O205 P201 O204 C201 86(3)
O206 P202 O202 Tb1 -158(2)
O206 P202 O202 Tb2 -135(4)
O206 P202 O207 C207 -61(3)
O207 P202 O202 Tb1 99(3)
O207 P202 O202 Tb2 122(4)
O207 P202 O206 C205 41(3)
O208 P203 O203 Tb1 -155.3(19)
O208 P203 O203 Tb2 -145.4(15)
O208 P203 O209 C211 -67(3)
O209 P203 O203 Tb1 96(2)
O209 P203 O203 Tb2 105.8(18)
O209 P203 O208 C209 -177(2)
C121 Co1 P202 O202 -130.6(13)
C121 Co1 P202 O206 -1.7(17)
C121 Co1 P202 O207 110.6(13)
C121 C122 C123 Co1 -60.9(3)
C121 C122 C123 C124 0.0
C122 Co1 P202 O202 177.3(15)
C122 Co1 P202 O206 -54(2)
C122 Co1 P202 O207 59(2)
C122 C121 C125 Co1 59.4(3)
C122 C121 C125 C124 0.0
C122 C123 C124 Co1 -60.6(3)
C122 C123 C124 C125 0.0
C123 Co1 P202 O202 142.9(13)
C123 Co1 P202 O206 -88.1(17)
C123 Co1 P202 O207 24.1(13)
C123 C124 C125 Co1 -59.7(3)
C123 C124 C125 C121 0.0
C124 Co1 P202 O202 168.8(14)
C124 Co1 P202 O206 -62.2(16)
C124 Co1 P202 O207 50.0(12)
C125 Co1 P202 O202 -151.7(14)
C125 Co1 P202 O206 -22.7(16)
C125 Co1 P202 O207 89.6(12)
C125 C121 C122 Co1 -60.1(2)
C125 C121 C122 C123 0.0
C221 Co2 P101 O101 156.0(13)
C221 Co2 P101 O104 -68.5(12)
C221 Co2 P101 O105 31.7(12)
C221 C222 C223 Co2 -59.0(5)
C221 C222 C223 C224 0.0
C222 Co2 P101 O101 -161.5(12)
C222 Co2 P101 O104 -26.0(12)
C222 Co2 P101 O105 74.3(12)
C222 C221 C225 Co2 59.3(5)
C222 C221 C225 C224 0.0
C222 C223 C224 Co2 -58.7(5)
C222 C223 C224 C225 0.0
C223 Co2 P101 O101 -130.3(12)
C223 Co2 P101 O104 5.2(12)
C223 Co2 P101 O105 105.5(11)
C223 C224 C225 Co2 -58.9(5)
C223 C224 C225 C221 0.0
C225 Co2 P101 O101 122.0(16)
C225 Co2 P101 O104 -102.5(16)
C225 Co2 P101 O105 -2.2(16)
C225 C221 C222 Co2 -59.3(5)
C225 C221 C222 C223 0.0
loop_
_exptl_oxdiff_crystal_face_indexfrac_h
_exptl_oxdiff_crystal_face_indexfrac_k
_exptl_oxdiff_crystal_face_indexfrac_l
_exptl_oxdiff_crystal_face_x
_exptl_oxdiff_crystal_face_y
_exptl_oxdiff_crystal_face_z
-0.9996 0.0003 0.9997 0.0371 -0.0078 -0.0064
-0.9999 0.0001 -0.9987 -0.0315 -0.0390 0.0053
0.9999 -0.0001 0.9987 0.0315 0.0390 -0.0053
-0.0002 0.9996 0.0004 0.0075 -0.0001 0.0434
0.9996 -0.0003 -0.9997 -0.0371 0.0078 0.0064
0.0002 -0.9996 -0.0004 -0.0075 0.0001 -0.0434
loop_
_smtbx_masks_void_nr
_smtbx_masks_void_average_x
_smtbx_masks_void_average_y
_smtbx_masks_void_average_z
_smtbx_masks_void_volume
_smtbx_masks_void_count_electrons
_smtbx_masks_void_content
1 0.000 0.000 0.000 487.1 124.4 1.5CH2Cl2
2 0.000 0.500 0.500 487.1 124.4 1.5CH2Cl2
3 0.453 0.699 0.567 15.5 0.0 ?
4 0.453 0.801 0.067 15.5 0.0 ?
5 0.547 0.199 0.933 15.5 0.0 ?
6 0.547 0.301 0.433 15.5 0.0 ?
